data_PCOD8170672
_publ_section_title
;
Structure prediction by ZEFSAII (Michael W. Deem and Ramdas Pophale) SiO2 
 PCOD8170672
Probable space group: P N A 21
;
_chemical_formula_sum "Si O2"
_cell_formula_units_Z 24
_cell_length_a 10.309310
_cell_length_b 17.203730
_cell_length_c 8.763492
_cell_angle_alpha 90.000000
_cell_angle_beta 90.000000
_cell_angle_gamma 90.000000
_cell_volume 1554.280547
_symmetry_space_group_name_H-M "P N A 21"
_symmetry_group_IT_number 33
_symmetry_cell_setting 'orthorhombic'
loop_
_space_group_symop_operation_xyz
x,y,z
-x,-y,1/2+z
1/2-x,1/2+y,1/2+z
1/2+x,1/2-y,z
loop_
_atom_site_type_symbol
_atom_site_label
_atom_site_fract_x
_atom_site_fract_y
_atom_site_fract_z
Si Si1 0.936235 0.920354 0.607770
Si Si2 0.764465 0.214848 0.777845
Si Si3 0.941443 0.079938 0.780505
Si Si4 0.483828 0.725557 0.120642
Si Si5 0.745194 0.287419 0.106919
Si Si6 0.507080 0.726982 0.761278
O O1 0.995260 0.937290 0.442946
O O2 0.031283 0.861867 0.702509
O O3 0.795049 0.878574 0.594471
O O4 0.917596 0.000148 0.695008
O O5 0.802361 0.123711 0.798570
O O6 0.628689 0.220628 0.690303
O O7 0.877228 0.257639 0.679338
O O8 0.766492 0.254617 0.940570
O O9 0.036175 0.136779 0.681706
O O10 0.483936 0.728775 0.940156
O O11 0.625091 0.240316 0.183950
O O12 0.872808 0.280357 0.211064
#
# Coordination Sequence:
#
# PCOD8170672 Si02
#       6
#     4   4   4   4   4   4
#     4  10  20  33  55  79 114 141 186 226 282 324
#     4  10  18  35  55  80 107 148 182 226 275 334
#     4  10  20  33  55  79 114 141 186 226 282 324
#     4  10  19  32  56  82 107 140 188 229 270 330
#     4  10  18  35  55  80 107 148 182 226 275 334
#     4  10  19  32  56  82 107 140 188 229 270 330
#
# _framework density 15.441228000000001
#
# number of rings (size 3 to 8) (size 9 to 14) (size 15 to 20)
#    2.000    0.000    3.333    3.000    0.000    0.000 
#    0.000    0.000    0.000    6.000    0.000    0.000 
#    0.000    0.000    0.000    0.000    0.000    0.000 
#
# Total GULP energy -297316.411416 kJ/mol
# GULP energy per Si atom -12388.183809 kJ/mol
# Density = 1.540608 g / cm^3
# Si number density = 15.441228 Si / 1000 Ang^3
#
#
#
# Elastic Constant Matrix: (Units=GPa)
#
#
# Indices 1 2 3 4 5 6 
#
# 1 63.6519 13.2282 -1.1429 0.0000 0.0000 0.0000
# 2 13.2282 78.9681 23.1161 0.0000 0.0000 0.0000
# 3 -1.1429 23.1161 77.2573 0.0000 0.0000 0.0000
# 4 0.0000 0.0000 0.0000 31.2971 0.0000 0.0000
# 5 0.0000 0.0000 0.0000 0.0000 27.4294 0.0000
# 6 0.0000 0.0000 0.0000 0.0000 0.0000 20.5645
#
#
#
# Elastic Compliance Matrix: (Units=1/GPa)
#
#
# Indices 1 2 3 4 5 6 
#
# 1 0.016372 -0.003084 0.001165 0.000000 0.000000 0.000000
# 2 -0.003084 0.014460 -0.004372 0.000000 0.000000 0.000000
# 3 0.001165 -0.004372 0.014269 0.000000 0.000000 0.000000
# 4 0.000000 0.000000 0.000000 0.031952 0.000000 0.000000
# 5 0.000000 0.000000 0.000000 0.000000 0.036457 0.000000
# 6 0.000000 0.000000 0.000000 0.000000 0.000000 0.048628
#
#
# Mechanical properties :
#
#
# Convention : Reuss Voigt Hill
#
# Bulk Modulus (GPa) = 30.75083 32.25335 31.50209
# Shear Modulus (GPa) = 26.94559 28.16992 27.55776
#
# Velocity S-wave (km/s) = 4.18190 4.27585 4.22914
# Velocity P-wave (km/s) = 6.57843 6.73130 6.65530
#
# Compressibility (1/GPa) = 0.03251945
#
# Stress axis : x y z
#
# Youngs Moduli (GPa) = 61.07917 69.15774 70.08123
#
# Poissons Ratio (x) = 0.21325 -0.08163
# Poissons Ratio (y) = 0.18834 0.30640
# Poissons Ratio (z) = -0.07115 0.30236
#
# Static dielectric constant tensor:
#      x y z
#    x 3.063330 0.000000 0.000000 
#    y 0.000000 2.710290 0.000000 
#    z 0.000000 0.000000 3.109140 
# 
# 
# High freq. dielectric constant tensor:
#      x y z
#    x 1.581460 0.000000 0.000000 
#    y 0.000000 1.562320 0.000000 
#    z 0.000000 0.000000 1.613950 
# 
# From -- ./inp_files/4008.got.cif
#   From: 2010.03.12/outbox.cif.g09.slc.cpg/sg33_3_cif.got.tgz:4008.got - 2010.04.14 01:49:19.
