data_PCOD8170226
_publ_section_title
;
Structure prediction by ZEFSAII (Michael W. Deem and Ramdas Pophale) SiO2 
 PCOD8170226
Probable space group: P M N 21
;
_chemical_formula_sum "Si O2"
_cell_formula_units_Z 32
_cell_length_a 8.835007
_cell_length_b 11.967802
_cell_length_c 15.405069
_cell_angle_alpha 90.000000
_cell_angle_beta 90.000000
_cell_angle_gamma 90.000000
_cell_volume 1628.864436
_symmetry_space_group_name_H-M "P M N 21"
_symmetry_group_IT_number 31
_symmetry_cell_setting 'orthorhombic'
loop_
_space_group_symop_operation_xyz
x,y,z
1/2-x,-y,1/2+z
-x,y,z
1/2+x,-y,1/2+z
loop_
_atom_site_type_symbol
_atom_site_label
_atom_site_fract_x
_atom_site_fract_y
_atom_site_fract_z
Si Si1 0.679707 0.264223 0.564530
Si Si2 0.827248 0.736199 0.257241
Si Si3 0.678621 0.504175 0.504969
Si Si4 0.827311 0.494364 0.322902
Si Si5 0.679780 0.115456 0.408291
Si Si6 0.174225 0.721696 0.757824
Si Si7 0.321307 0.864699 0.412092
Si Si8 0.673555 0.274302 0.061792
O O1 0.500000 0.268924 0.558885
O O2 0.730347 0.228492 0.661291
O O3 0.741801 0.386987 0.541171
O O4 0.744215 0.175504 0.494933
O O5 0.813917 0.602449 0.261855
O O6 0.723317 0.795060 0.327744
O O7 0.000000 0.774178 0.272957
O O8 0.500000 0.516868 0.516699
O O9 0.718551 0.513225 0.404135
O O10 0.758838 0.602035 0.557782
O O11 0.774701 0.388538 0.267462
O O12 0.000000 0.477225 0.354038
O O13 0.500000 0.112121 0.411240
O O14 0.734410 0.183312 0.323515
O O15 0.744808 0.990074 0.403940
O O16 0.190639 0.768987 0.660404
O O17 0.000000 0.691128 0.778946
O O18 0.500000 0.865407 0.419389
O O19 0.258977 0.810824 0.499607
O O20 0.500000 0.279360 0.031737
#
# Coordination Sequence:
#
# PCOD8170226 Si02
#       8
#     4   4   4   4   4   4   4   4
#     4   9  18  35  61  86 111 148 188 230 283 342
#     4  10  21  37  58  84 116 150 184 232 289 341
#     4  11  20  35  62  88 114 152 193 231 285 351
#     4  11  21  34  56  88 124 152 183 234 288 343
#     4   9  19  38  60  83 110 147 199 243 282 338
#     4  10  21  39  62  85 115 156 194 233 288 350
#     4  11  23  38  59  82 110 152 198 244 287 340
#     4  11  23  38  58  86 120 153 189 239 292 343
#
# _framework density 19.645586999999999
#
# number of rings (size 3 to 8) (size 9 to 14) (size 15 to 20)
#    0.000    1.750    2.500    2.250    0.000    3.500 
#    0.000    2.500    0.000    0.000    0.000    0.000 
#    0.000    0.000    0.000    0.000    0.000    0.000 
#
# Total GULP energy -396872.384677 kJ/mol
# GULP energy per Si atom -12402.262021 kJ/mol
# Density = 1.960087 g / cm^3
# Si number density = 19.645587 Si / 1000 Ang^3
#
#
#
# Elastic Constant Matrix: (Units=GPa)
#
#
# Indices 1 2 3 4 5 6 
#
# 1 60.4693 39.7881 33.1655 0.0000 0.0000 0.0000
# 2 39.7881 143.7591 57.5839 0.0000 0.0000 0.0000
# 3 33.1655 57.5839 135.8620 0.0000 0.0000 0.0000
# 4 0.0000 0.0000 0.0000 13.2788 0.0000 0.0000
# 5 0.0000 0.0000 0.0000 0.0000 15.6538 0.0000
# 6 0.0000 0.0000 0.0000 0.0000 0.0000 9.3385
#
#
#
# Elastic Compliance Matrix: (Units=1/GPa)
#
#
# Indices 1 2 3 4 5 6 
#
# 1 0.021356 -0.004604 -0.003262 0.000000 0.000000 0.000000
# 2 -0.004604 0.009371 -0.002848 0.000000 0.000000 0.000000
# 3 -0.003262 -0.002848 0.009364 0.000000 0.000000 0.000000
# 4 0.000000 0.000000 0.000000 0.075308 0.000000 0.000000
# 5 0.000000 0.000000 0.000000 0.000000 0.063882 0.000000
# 6 0.000000 0.000000 0.000000 0.000000 0.000000 0.107084
#
#
# Mechanical properties :
#
#
# Convention : Reuss Voigt Hill
#
# Bulk Modulus (GPa) = 53.58213 66.79617 60.18915
# Shear Modulus (GPa) = 15.92289 21.62440 18.77365
#
# Velocity S-wave (km/s) = 2.85003 3.32132 3.09466
# Velocity P-wave (km/s) = 6.17769 6.98446 6.59342
#
# Compressibility (1/GPa) = 0.01866294
#
# Stress axis : x y z
#
# Youngs Moduli (GPa) = 46.82585 106.71076 106.79498
#
# Poissons Ratio (x) = 0.49130 0.34834
# Poissons Ratio (y) = 0.21559 0.30415
# Poissons Ratio (z) = 0.15274 0.30391
#
# Static dielectric constant tensor:
#      x y z
#    x 3.395860 0.000000 0.000000 
#    y 0.000000 3.741130 0.000000 
#    z 0.000000 0.000000 3.710710 
# 
# 
# High freq. dielectric constant tensor:
#      x y z
#    x 1.743660 0.000000 0.000000 
#    y 0.000000 1.763030 0.000000 
#    z 0.000000 0.000000 1.779220 
# 
# From -- ./inp_files/4975.got.cif
#   From: 2010.03.12/outbox.cif.g09.slc.cpg/sg31_3_cif.got.tgz:4975.got - 2010.04.14 01:42:59.
