data_PCOD8170388
_publ_section_title
;
Structure prediction by ZEFSAII (Michael W. Deem and Ramdas Pophale) SiO2 
 PCOD8170388
Probable space group: P M N 21
;
_chemical_formula_sum "Si O2"
_cell_formula_units_Z 12
_cell_length_a 19.712580
_cell_length_b 4.842080
_cell_length_c 4.986840
_cell_angle_alpha 90.000000
_cell_angle_beta 90.000000
_cell_angle_gamma 90.000000
_cell_volume 475.993326
_symmetry_space_group_name_H-M "P M N 21"
_symmetry_group_IT_number 31
_symmetry_cell_setting 'orthorhombic'
loop_
_space_group_symop_operation_xyz
x,y,z
1/2-x,-y,1/2+z
-x,y,z
1/2+x,-y,1/2+z
loop_
_atom_site_type_symbol
_atom_site_label
_atom_site_fract_x
_atom_site_fract_y
_atom_site_fract_z
Si Si1 0.000000 0.804559 0.150160
Si Si2 0.386452 0.487700 0.936415
Si Si3 0.205522 0.012164 0.446947
Si Si4 0.500000 0.811796 0.152270
O O1 0.933545 0.613256 0.189151
O O2 0.000000 0.055692 0.358017
O O3 0.000000 0.936869 0.857469
O O4 0.345294 0.226130 0.050421
O O5 0.334931 0.722806 0.835552
O O6 0.433669 0.615029 0.174690
O O7 0.250625 0.103798 0.699837
#
# Coordination Sequence:
#
# PCOD8170388 Si02
#       4
#     2   4   4   2
#     4  11  26  46  77 111 147 194 242 322 380 446
#     4  11  26  50  74 110 150 193 256 310 382 451
#     4  12  28  47  74 105 148 202 250 308 372 450
#     4  11  26  46  77 111 147 194 242 322 380 446
#
# _framework density 25.210435
#
# number of rings (size 3 to 8) (size 9 to 14) (size 15 to 20)
#    0.000    0.667    3.333    2.000    4.667   10.667 
#    0.000    0.000    0.000    0.000    0.000    0.000 
#    0.000    0.000    0.000    0.000    0.000    0.000 
#
# Total GULP energy -148836.218907 kJ/mol
# GULP energy per Si atom -12403.018242 kJ/mol
# Density = 2.515305 g / cm^3
# Si number density = 25.210435 Si / 1000 Ang^3
#
#
#
# Elastic Constant Matrix: (Units=GPa)
#
#
# Indices 1 2 3 4 5 6 
#
# 1 140.4923 59.6411 31.6536 0.0000 0.0000 0.0000
# 2 59.6411 164.9440 18.8083 0.0000 0.0000 0.0000
# 3 31.6536 18.8083 82.0865 0.0000 0.0000 0.0000
# 4 0.0000 0.0000 0.0000 45.6786 0.0000 0.0000
# 5 0.0000 0.0000 0.0000 0.0000 4.5591 0.0000
# 6 0.0000 0.0000 0.0000 0.0000 0.0000 40.3556
#
#
#
# Elastic Compliance Matrix: (Units=1/GPa)
#
#
# Indices 1 2 3 4 5 6 
#
# 1 0.008993 -0.002933 -0.002796 0.000000 0.000000 0.000000
# 2 -0.002933 0.007182 -0.000515 0.000000 0.000000 0.000000
# 3 -0.002796 -0.000515 0.013378 0.000000 0.000000 0.000000
# 4 0.000000 0.000000 0.000000 0.021892 0.000000 0.000000
# 5 0.000000 0.000000 0.000000 0.000000 0.219340 0.000000
# 6 0.000000 0.000000 0.000000 0.000000 0.000000 0.024780
#
#
# Mechanical properties :
#
#
# Convention : Reuss Voigt Hill
#
# Bulk Modulus (GPa) = 58.59446 67.52542 63.05994
# Shear Modulus (GPa) = 15.93679 36.61333 26.27506
#
# Velocity S-wave (km/s) = 2.51699 3.81505 3.23186
# Velocity P-wave (km/s) = 5.63379 6.80066 6.24454
#
# Compressibility (1/GPa) = 0.01706646
#
# Stress axis : x y z
#
# Youngs Moduli (GPa) = 111.20062 139.24067 74.74818
#
# Poissons Ratio (x) = 0.40837 0.20898
# Poissons Ratio (y) = 0.32613 0.03847
# Poissons Ratio (z) = 0.31089 0.07165
#
# Static dielectric constant tensor:
#      x y z
#    x 5.005360 0.000000 0.000000 
#    y 0.000000 4.784360 0.000000 
#    z 0.000000 0.000000 3.856280 
# 
# 
# High freq. dielectric constant tensor:
#      x y z
#    x 2.022820 0.000000 0.000000 
#    y 0.000000 2.033300 0.000000 
#    z 0.000000 0.000000 1.968260 
# 
# From -- ./inp_files/704.got.cif
#   From: 2010.03.12/outbox.cif.g09.slc.cpg/sg31_1_cif.got.tgz:704.got - 2010.04.14 01:42:59.
