data_PCOD8170192
_publ_section_title
;
Structure prediction by ZEFSAII (Michael W. Deem and Ramdas Pophale) SiO2 
 PCOD8170192
Probable space group: P M N 21
;
_chemical_formula_sum "Si O2"
_cell_formula_units_Z 32
_cell_length_a 8.593603
_cell_length_b 15.302269
_cell_length_c 12.027283
_cell_angle_alpha 90.000000
_cell_angle_beta 90.000000
_cell_angle_gamma 90.000000
_cell_volume 1581.607256
_symmetry_space_group_name_H-M "P M N 21"
_symmetry_group_IT_number 31
_symmetry_cell_setting 'orthorhombic'
loop_
_space_group_symop_operation_xyz
x,y,z
1/2-x,-y,1/2+z
-x,y,z
1/2+x,-y,1/2+z
loop_
_atom_site_type_symbol
_atom_site_label
_atom_site_fract_x
_atom_site_fract_y
_atom_site_fract_z
Si Si1 0.185254 0.751294 0.212340
Si Si2 0.818435 0.907491 0.624763
Si Si3 0.679730 0.849722 0.849800
Si Si4 0.177854 0.581116 0.082026
Si Si5 0.317068 0.395832 0.122955
Si Si6 0.320950 0.328287 0.357076
Si Si7 0.317717 0.086688 0.565218
Si Si8 0.315122 0.246235 0.963266
O O1 0.244420 0.662433 0.153643
O O2 0.245880 0.835686 0.144550
O O3 0.252437 0.755230 0.337997
O O4 0.000000 0.752835 0.213036
O O5 0.786973 0.862515 0.742431
O O6 0.763536 0.841666 0.527315
O O7 0.000000 0.929985 0.613289
O O8 0.716139 0.994734 0.623060
O O9 0.500000 0.863416 0.819386
O O10 0.715121 0.752802 0.894430
O O11 0.727220 0.915449 0.948122
O O12 0.276629 0.495768 0.104737
O O13 0.000000 0.563241 0.115719
O O14 0.194188 0.598764 0.951338
O O15 0.500000 0.385626 0.123596
O O16 0.252578 0.366863 0.242892
O O17 0.247617 0.331527 0.027906
O O18 0.500000 0.297279 0.346170
O O19 0.500000 0.098572 0.543187
O O20 0.500000 0.251567 0.959959
#
# Coordination Sequence:
#
# PCOD8170192 Si02
#       8
#     4   4   4   4   4   4   4   4
#     4   9  19  37  60  85 118 158 196 240 299 363
#     4  11  23  41  64  91 126 162 202 253 309 369
#     4  12  24  40  64  91 120 159 212 261 307 367
#     4  10  21  37  59  85 117 156 199 245 303 364
#     4  10  21  37  59  85 117 156 199 245 303 364
#     4  10  20  40  62  83 116 161 204 253 313 365
#     4  11  23  41  64  91 126 162 202 253 309 369
#     4   9  19  37  60  85 118 158 196 240 299 363
#
# _framework density 20.232583999999999
#
# number of rings (size 3 to 8) (size 9 to 14) (size 15 to 20)
#    0.000    1.750    2.500    1.875    3.500    1.000 
#    0.000    0.000    0.000    3.000    0.000    0.000 
#    0.000    0.000    0.000    0.000    0.000    0.000 
#
# Total GULP energy -396873.851559 kJ/mol
# GULP energy per Si atom -12402.307861 kJ/mol
# Density = 2.018653 g / cm^3
# Si number density = 20.232584 Si / 1000 Ang^3
#
#
#
# Elastic Constant Matrix: (Units=GPa)
#
#
# Indices 1 2 3 4 5 6 
#
# 1 34.0480 16.4593 20.1193 0.0000 0.0000 0.0000
# 2 16.4593 125.6571 45.3555 0.0000 0.0000 0.0000
# 3 20.1193 45.3555 141.9252 0.0000 0.0000 0.0000
# 4 0.0000 0.0000 0.0000 29.0419 0.0000 0.0000
# 5 0.0000 0.0000 0.0000 0.0000 17.4057 0.0000
# 6 0.0000 0.0000 0.0000 0.0000 0.0000 32.9553
#
#
#
# Elastic Compliance Matrix: (Units=1/GPa)
#
#
# Indices 1 2 3 4 5 6 
#
# 1 0.033013 -0.002979 -0.003728 0.000000 0.000000 0.000000
# 2 -0.002979 0.009265 -0.002538 0.000000 0.000000 0.000000
# 3 -0.003728 -0.002538 0.008386 0.000000 0.000000 0.000000
# 4 0.000000 0.000000 0.000000 0.034433 0.000000 0.000000
# 5 0.000000 0.000000 0.000000 0.000000 0.057452 0.000000
# 6 0.000000 0.000000 0.000000 0.000000 0.000000 0.030344
#
#
# Mechanical properties :
#
#
# Convention : Reuss Voigt Hill
#
# Bulk Modulus (GPa) = 31.08184 51.72205 41.40194
# Shear Modulus (GPa) = 24.73930 30.52700 27.63315
#
# Velocity S-wave (km/s) = 3.50057 3.88855 3.69965
# Velocity P-wave (km/s) = 5.63332 6.76611 6.22554
#
# Compressibility (1/GPa) = 0.03217313
#
# Stress axis : x y z
#
# Youngs Moduli (GPa) = 30.29094 107.93810 119.25095
#
# Poissons Ratio (x) = 0.32151 0.44457
# Poissons Ratio (y) = 0.09023 0.30271
# Poissons Ratio (z) = 0.11293 0.27400
#
# Static dielectric constant tensor:
#      x y z
#    x 3.262880 0.000000 0.000000 
#    y 0.000000 3.621850 0.000000 
#    z 0.000000 0.000000 3.999440 
# 
# 
# High freq. dielectric constant tensor:
#      x y z
#    x 1.754580 0.000000 0.000000 
#    y 0.000000 1.796230 0.000000 
#    z 0.000000 0.000000 1.804820 
# 
# From -- ./inp_files/3610.got.cif
#   From: 2010.03.12/outbox.cif.g09.slc.cpg/sg31_2_cif.got.tgz:3610.got - 2010.04.14 01:42:59.
