data_PCOD8170377
_publ_section_title
;
Structure prediction by ZEFSAII (Michael W. Deem and Ramdas Pophale) SiO2 
 PCOD8170377
Probable space group: P M N 21
;
_chemical_formula_sum "Si O2"
_cell_formula_units_Z 20
_cell_length_a 9.840997
_cell_length_b 10.528681
_cell_length_c 9.367849
_cell_angle_alpha 90.000000
_cell_angle_beta 90.000000
_cell_angle_gamma 90.000000
_cell_volume 970.628298
_symmetry_space_group_name_H-M "P M N 21"
_symmetry_group_IT_number 31
_symmetry_cell_setting 'orthorhombic'
loop_
_space_group_symop_operation_xyz
x,y,z
1/2-x,-y,1/2+z
-x,y,z
1/2+x,-y,1/2+z
loop_
_atom_site_type_symbol
_atom_site_label
_atom_site_fract_x
_atom_site_fract_y
_atom_site_fract_z
Si Si1 0.500000 0.550219 0.877691
Si Si2 0.781844 0.013585 0.378924
Si Si3 0.500000 0.091011 0.682594
Si Si4 0.000000 0.640929 0.637916
Si Si5 0.500000 0.089591 0.075520
Si Si6 0.000000 0.640166 0.117427
Si Si7 0.785375 0.689786 0.877796
Si Si8 0.000000 0.999020 0.879306
O O1 0.500000 0.475449 0.727764
O O2 0.633777 0.636073 0.878030
O O3 0.500000 0.474054 0.026739
O O4 0.643333 0.924576 0.379492
O O5 0.867412 0.981590 0.238851
O O6 0.867407 0.983291 0.519541
O O7 0.730364 0.157830 0.377851
O O8 0.500000 0.238297 0.724749
O O9 0.500000 0.094398 0.513557
O O10 0.134989 0.641066 0.736909
O O11 0.000000 0.763397 0.531908
O O12 0.500000 0.093782 0.244471
O O13 0.134974 0.640823 0.018510
#
# Coordination Sequence:
#
# PCOD8170377 Si02
#       8
#     2   4   2   2   2   2   4   2
#     4  12  24  40  66  96 112 152 220 266 280 352
#     4  11  22  39  62  90 125 165 196 241 303 367
#     4  11  22  39  62  90 125 165 196 241 303 367
#     4  11  23  44  65  86 124 165 198 247 312 359
#     4  11  22  39  62  90 125 165 196 241 303 367
#     4  11  23  44  65  86 124 165 198 247 312 359
#     4  11  23  44  65  86 124 165 198 247 312 359
#     4  12  20  36  60  92 126 156 204 236 300 362
#
# _framework density 20.605208000000001
#
# number of rings (size 3 to 8) (size 9 to 14) (size 15 to 20)
#    0.000    0.800    4.000    4.800    0.000    0.000 
#    0.000    0.000    0.000    0.000    0.000    0.000 
#    0.000    0.000    0.000    0.000    0.000    0.000 
#
# Total GULP energy -247774.785309 kJ/mol
# GULP energy per Si atom -12388.739265 kJ/mol
# Density = 2.055831 g / cm^3
# Si number density = 20.605208 Si / 1000 Ang^3
#
#
#
# Elastic Constant Matrix: (Units=GPa)
#
#
# Indices 1 2 3 4 5 6 
#
# 1 230.2685 49.1701 63.5252 0.0000 0.0000 0.0000
# 2 49.1701 64.9304 42.6238 0.0000 0.0000 0.0000
# 3 63.5252 42.6238 132.0281 0.0000 0.0000 0.0000
# 4 0.0000 0.0000 0.0000 23.7200 0.0000 0.0000
# 5 0.0000 0.0000 0.0000 0.0000 32.1871 0.0000
# 6 0.0000 0.0000 0.0000 0.0000 0.0000 20.8842
#
#
#
# Elastic Compliance Matrix: (Units=1/GPa)
#
#
# Indices 1 2 3 4 5 6 
#
# 1 0.005445 -0.003050 -0.001635 0.000000 0.000000 0.000000
# 2 -0.003050 0.021251 -0.005393 0.000000 0.000000 0.000000
# 3 -0.001635 -0.005393 0.010102 0.000000 0.000000 0.000000
# 4 0.000000 0.000000 0.000000 0.042159 0.000000 0.000000
# 5 0.000000 0.000000 0.000000 0.000000 0.031068 0.000000
# 6 0.000000 0.000000 0.000000 0.000000 0.000000 0.047883
#
#
# Mechanical properties :
#
#
# Convention : Reuss Voigt Hill
#
# Bulk Modulus (GPa) = 60.09084 81.98502 71.03793
# Shear Modulus (GPa) = 27.23127 33.48545 30.35836
#
# Velocity S-wave (km/s) = 3.63929 4.03562 3.84257
# Velocity P-wave (km/s) = 6.84730 7.84792 7.36462
#
# Compressibility (1/GPa) = 0.01664147
#
# Stress axis : x y z
#
# Youngs Moduli (GPa) = 183.64919 47.05623 98.98935
#
# Poissons Ratio (x) = 0.14352 0.16187
# Poissons Ratio (y) = 0.56013 0.53387
# Poissons Ratio (z) = 0.30032 0.25378
#
# Static dielectric constant tensor:
#      x y z
#    x 4.307150 0.000000 0.000000 
#    y 0.000000 3.385850 0.000000 
#    z 0.000000 0.000000 3.999440 
# 
# 
# High freq. dielectric constant tensor:
#      x y z
#    x 1.839480 0.000000 0.000000 
#    y 0.000000 1.768450 0.000000 
#    z 0.000000 0.000000 1.825200 
# 
# From -- ./inp_files/2053.got.cif
#   From: 2010.03.12/outbox.cif.g09.slc.cpg/sg31_2_cif.got.tgz:2053.got - 2010.04.14 01:42:59.
