data_PCOD8170331
_publ_section_title
;
Structure prediction by ZEFSAII (Michael W. Deem and Ramdas Pophale) SiO2 
 PCOD8170331
Probable space group: P M N 21
;
_chemical_formula_sum "Si O2"
_cell_formula_units_Z 24
_cell_length_a 8.418797
_cell_length_b 9.871809
_cell_length_c 13.897980
_cell_angle_alpha 90.000000
_cell_angle_beta 90.000000
_cell_angle_gamma 90.000000
_cell_volume 1155.043829
_symmetry_space_group_name_H-M "P M N 21"
_symmetry_group_IT_number 31
_symmetry_cell_setting 'orthorhombic'
loop_
_space_group_symop_operation_xyz
x,y,z
1/2-x,-y,1/2+z
-x,y,z
1/2+x,-y,1/2+z
loop_
_atom_site_type_symbol
_atom_site_label
_atom_site_fract_x
_atom_site_fract_y
_atom_site_fract_z
Si Si1 0.684193 0.633899 0.284570
Si Si2 0.683021 0.120616 0.885853
Si Si3 0.816263 0.396730 0.399259
Si Si4 0.817503 0.529326 0.090047
Si Si5 0.682768 0.140497 0.298529
Si Si6 0.684938 0.232094 0.090872
O O1 0.500000 0.604383 0.265635
O O2 0.709704 0.789171 0.314958
O O3 0.752337 0.544810 0.371592
O O4 0.784588 0.599120 0.191086
O O5 0.500000 0.159557 0.870951
O O6 0.709639 0.965344 0.856617
O O7 0.731626 0.143634 0.997361
O O8 0.789913 0.389023 0.513535
O O9 0.713916 0.287914 0.341908
O O10 0.000000 0.377680 0.373104
O O11 0.783040 0.370040 0.094102
O O12 0.000000 0.549558 0.061906
O O13 0.500000 0.101489 0.313702
O O14 0.726461 0.142710 0.185113
O O15 0.500000 0.272038 0.091004
#
# Coordination Sequence:
#
# PCOD8170331 Si02
#       6
#     4   4   4   4   4   4
#     4  12  24  41  65  96 131 169 217 270 323 382
#     4  11  24  43  66  95 132 174 221 271 328 390
#     4  12  24  41  65  96 131 169 217 270 323 382
#     4  12  24  39  66  99 130 170 220 270 326 387
#     4  11  24  43  66  95 132 174 221 271 328 390
#     4  10  22  41  66  91 126 172 218 268 328 387
#
# _framework density 20.778431000000001
#
# number of rings (size 3 to 8) (size 9 to 14) (size 15 to 20)
#    0.000    0.667    3.333    5.500    0.000    2.667 
#    0.000    5.000    0.000    0.000    0.000    0.000 
#    0.000    0.000    0.000    0.000    0.000    0.000 
#
# Total GULP energy -297781.910517 kJ/mol
# GULP energy per Si atom -12407.579605 kJ/mol
# Density = 2.073114 g / cm^3
# Si number density = 20.778431 Si / 1000 Ang^3
#
#
#
# Elastic Constant Matrix: (Units=GPa)
#
#
# Indices 1 2 3 4 5 6 
#
# 1 68.6303 24.5639 33.3060 0.0000 0.0000 0.0000
# 2 24.5639 70.2438 36.4248 0.0000 0.0000 0.0000
# 3 33.3060 36.4248 111.6549 0.0000 0.0000 0.0000
# 4 0.0000 0.0000 0.0000 36.3868 0.0000 0.0000
# 5 0.0000 0.0000 0.0000 0.0000 30.8576 0.0000
# 6 0.0000 0.0000 0.0000 0.0000 0.0000 35.1622
#
#
#
# Elastic Compliance Matrix: (Units=1/GPa)
#
#
# Indices 1 2 3 4 5 6 
#
# 1 0.018025 -0.004231 -0.003996 0.000000 0.000000 0.000000
# 2 -0.004231 0.018128 -0.004652 0.000000 0.000000 0.000000
# 3 -0.003996 -0.004652 0.011666 0.000000 0.000000 0.000000
# 4 0.000000 0.000000 0.000000 0.027483 0.000000 0.000000
# 5 0.000000 0.000000 0.000000 0.000000 0.032407 0.000000
# 6 0.000000 0.000000 0.000000 0.000000 0.000000 0.028440
#
#
# Mechanical properties :
#
#
# Convention : Reuss Voigt Hill
#
# Bulk Modulus (GPa) = 45.33039 48.79090 47.06065
# Shear Modulus (GPa) = 29.54063 30.89694 30.21878
#
# Velocity S-wave (km/s) = 3.77463 3.86031 3.81771
# Velocity P-wave (km/s) = 6.39223 6.58801 6.49085
#
# Compressibility (1/GPa) = 0.02206025
#
# Stress axis : x y z
#
# Youngs Moduli (GPa) = 55.47994 55.16399 85.72061
#
# Poissons Ratio (x) = 0.23338 0.34258
# Poissons Ratio (y) = 0.23472 0.39875
# Poissons Ratio (z) = 0.22172 0.25661
#
# Static dielectric constant tensor:
#      x y z
#    x 3.684860 0.000000 0.000000 
#    y 0.000000 3.498340 0.000000 
#    z 0.000000 0.000000 3.958100 
# 
# 
# High freq. dielectric constant tensor:
#      x y z
#    x 1.820200 0.000000 0.000000 
#    y 0.000000 1.801010 0.000000 
#    z 0.000000 0.000000 1.829570 
# 
# From -- ./inp_files/4753.got.cif
#   From: 2010.03.12/outbox.cif.g09.slc.cpg/sg31_3_cif.got.tgz:4753.got - 2010.04.14 01:42:59.
