data_PCOD8170367
_publ_section_title
;
Structure prediction by ZEFSAII (Michael W. Deem and Ramdas Pophale) SiO2 
 PCOD8170367
Probable space group: P M N 21
;
_chemical_formula_sum "Si O2"
_cell_formula_units_Z 24
_cell_length_a 14.656207
_cell_length_b 8.423567
_cell_length_c 7.748335
_cell_angle_alpha 90.000000
_cell_angle_beta 90.000000
_cell_angle_gamma 90.000000
_cell_volume 956.590391
_symmetry_space_group_name_H-M "P M N 21"
_symmetry_group_IT_number 31
_symmetry_cell_setting 'orthorhombic'
loop_
_space_group_symop_operation_xyz
x,y,z
1/2-x,-y,1/2+z
-x,y,z
1/2+x,-y,1/2+z
loop_
_atom_site_type_symbol
_atom_site_label
_atom_site_fract_x
_atom_site_fract_y
_atom_site_fract_z
Si Si1 0.674412 0.182966 0.843720
Si Si2 0.807711 0.706036 0.820414
Si Si3 0.310366 0.905951 0.054922
Si Si4 0.500000 0.824593 0.182563
Si Si5 0.000000 0.947753 0.174319
Si Si6 0.500000 0.174379 0.316867
Si Si7 0.000000 0.303272 0.048485
Si Si8 0.832968 0.507832 0.161976
O O1 0.763453 0.144791 0.731386
O O2 0.589375 0.077193 0.785867
O O3 0.654163 0.372202 0.828645
O O4 0.689365 0.103051 0.035876
O O5 0.907591 0.747843 0.743136
O O6 0.758113 0.596899 0.680577
O O7 0.744419 0.852889 0.882209
O O8 0.822567 0.611588 0.995346
O O9 0.409752 0.819363 0.061746
O O10 0.500000 0.690453 0.336358
O O11 0.500000 0.991481 0.275968
O O12 0.000000 0.122659 0.101870
O O13 0.000000 0.813474 0.024944
O O14 0.915115 0.388280 0.136461
#
# Coordination Sequence:
#
# PCOD8170367 Si02
#       8
#     4   4   4   2   2   2   2   4
#     4  11  24  43  73 102 144 183 244 301 359 428
#     4  11  25  45  70 103 149 189 243 292 367 441
#     4  11  24  44  68 107 140 185 245 299 356 430
#     4  11  27  42  73 107 135 184 242 307 358 427
#     4  11  20  42  71  95 127 188 234 298 342 440
#     4  11  21  48  67 101 140 187 237 291 367 427
#     4  11  26  42  73  99 142 189 241 288 389 424
#     4  11  25  44  69 107 142 196 234 298 368 438
#
# _framework density 25.089108
#
# number of rings (size 3 to 8) (size 9 to 14) (size 15 to 20)
#    0.000    1.000    3.333    3.500    7.000    3.333 
#    0.000    0.833    0.000    0.000    0.000    0.000 
#    0.000    0.000    0.000    0.000    0.000    0.000 
#
# Total GULP energy -297427.878893 kJ/mol
# GULP energy per Si atom -12392.828287 kJ/mol
# Density = 2.503200 g / cm^3
# Si number density = 25.089108 Si / 1000 Ang^3
#
#
#
# Elastic Constant Matrix: (Units=GPa)
#
#
# Indices 1 2 3 4 5 6 
#
# 1 200.6577 53.3164 28.3211 0.0000 0.0000 0.0000
# 2 53.3164 117.7520 12.6938 0.0000 0.0000 0.0000
# 3 28.3211 12.6938 35.0171 0.0000 0.0000 0.0000
# 4 0.0000 0.0000 0.0000 39.1198 0.0000 0.0000
# 5 0.0000 0.0000 0.0000 0.0000 23.7950 0.0000
# 6 0.0000 0.0000 0.0000 0.0000 0.0000 91.1961
#
#
#
# Elastic Compliance Matrix: (Units=1/GPa)
#
#
# Indices 1 2 3 4 5 6 
#
# 1 0.006197 -0.002358 -0.004157 0.000000 0.000000 0.000000
# 2 -0.002358 0.009735 -0.001622 0.000000 0.000000 0.000000
# 3 -0.004157 -0.001622 0.032508 0.000000 0.000000 0.000000
# 4 0.000000 0.000000 0.000000 0.025562 0.000000 0.000000
# 5 0.000000 0.000000 0.000000 0.000000 0.042026 0.000000
# 6 0.000000 0.000000 0.000000 0.000000 0.000000 0.010965
#
#
# Mechanical properties :
#
#
# Convention : Reuss Voigt Hill
#
# Bulk Modulus (GPa) = 31.08923 60.23217 45.66070
# Shear Modulus (GPa) = 32.46997 48.09524 40.28261
#
# Velocity S-wave (km/s) = 3.60138 4.38308 4.01132
# Velocity P-wave (km/s) = 5.45084 7.04802 6.30025
#
# Compressibility (1/GPa) = 0.03216548
#
# Stress axis : x y z
#
# Youngs Moduli (GPa) = 161.37313 102.72423 30.76196
#
# Poissons Ratio (x) = 0.24219 0.12788
# Poissons Ratio (y) = 0.38047 0.04990
# Poissons Ratio (z) = 0.67086 0.16662
#
# Static dielectric constant tensor:
#      x y z
#    x 5.655660 0.000000 0.000000 
#    y 0.000000 5.195480 0.000000 
#    z 0.000000 0.000000 4.698640 
# 
# 
# High freq. dielectric constant tensor:
#      x y z
#    x 2.012630 0.000000 0.000000 
#    y 0.000000 2.004610 0.000000 
#    z 0.000000 0.000000 1.994150 
# 
# From -- ./inp_files/2461.got.cif
#   From: 2010.03.12/outbox.cif.g09.slc.cpg/sg31_2_cif.got.tgz:2461.got - 2010.04.14 01:42:59.
