data_PCOD8170654
_publ_section_title
;
Structure prediction by ZEFSAII (Michael W. Deem and Ramdas Pophale) SiO2 
 PCOD8170654
Probable space group: P N A 21
;
_chemical_formula_sum "Si O2"
_cell_formula_units_Z 28
_cell_length_a 5.195798
_cell_length_b 26.665606
_cell_length_c 14.085663
_cell_angle_alpha 90.000000
_cell_angle_beta 90.000000
_cell_angle_gamma 90.000000
_cell_volume 1951.555964
_symmetry_space_group_name_H-M "P N A 21"
_symmetry_group_IT_number 33
_symmetry_cell_setting 'orthorhombic'
loop_
_space_group_symop_operation_xyz
x,y,z
-x,-y,1/2+z
1/2-x,1/2+y,1/2+z
1/2+x,1/2-y,z
loop_
_atom_site_type_symbol
_atom_site_label
_atom_site_fract_x
_atom_site_fract_y
_atom_site_fract_z
Si Si1 0.362737 0.222259 0.701920
Si Si2 0.297209 0.977463 0.245881
Si Si3 0.382102 0.109818 0.708977
Si Si4 0.292206 0.513292 0.141580
Si Si5 0.759169 0.890268 0.422834
Si Si6 0.258144 0.951817 0.453496
Si Si7 0.833645 0.277953 0.927866
O O1 0.595972 0.255898 0.661327
O O2 0.409418 0.165333 0.666430
O O3 0.353252 0.223625 0.814784
O O4 0.338637 0.916970 0.227236
O O5 0.246182 0.984917 0.357588
O O6 0.558961 0.005532 0.210667
O O7 0.063151 0.001688 0.188022
O O8 0.229862 0.110326 0.808845
O O9 0.223146 0.074408 0.635826
O O10 0.270168 0.491129 0.037762
O O11 0.530976 0.924505 0.462919
O O12 0.716649 0.834360 0.463234
O O13 0.031053 0.911010 0.459514
O O14 0.603912 0.242932 0.967530
#
# Coordination Sequence:
#
# PCOD8170654 Si02
#       7
#     4   4   4   4   4   4   4
#     4   9  17  23  37  56  77 106 141 170 195 238
#     4   9  18  30  42  60  81 113 147 180 207 254
#     4   8  18  28  42  55  86 112 144 169 210 245
#     4  10  19  29  45  60  83 117 149 177 214 253
#     4  10  18  28  44  60  87 115 148 177 207 252
#     4  11  18  30  44  63  83 116 155 178 213 250
#     4   9  16  26  38  58  81 111 144 171 200 242
#
# _framework density 14.347526
#
# number of rings (size 3 to 8) (size 9 to 14) (size 15 to 20)
#    0.857    1.714    1.429    1.714    2.000    3.429 
#    0.000    0.000    0.000    0.000    0.000    0.000 
#    0.000    0.000    0.000   25.714    0.286    2.286 
#
# Total GULP energy -346927.165554 kJ/mol
# GULP energy per Si atom -12390.255913 kJ/mol
# Density = 1.431487 g / cm^3
# Si number density = 14.347526 Si / 1000 Ang^3
#
#
#
# Elastic Constant Matrix: (Units=GPa)
#
#
# Indices 1 2 3 4 5 6 
#
# 1 97.5000 19.4154 22.6493 0.0000 0.0000 0.0000
# 2 19.4154 67.2249 34.8660 0.0000 0.0000 0.0000
# 3 22.6493 34.8660 52.9084 0.0000 0.0000 0.0000
# 4 0.0000 0.0000 0.0000 13.4295 0.0000 0.0000
# 5 0.0000 0.0000 0.0000 0.0000 12.6693 0.0000
# 6 0.0000 0.0000 0.0000 0.0000 0.0000 23.4039
#
#
#
# Elastic Compliance Matrix: (Units=1/GPa)
#
#
# Indices 1 2 3 4 5 6 
#
# 1 0.011448 -0.001162 -0.004135 0.000000 0.000000 0.000000
# 2 -0.001162 0.022717 -0.014473 0.000000 0.000000 0.000000
# 3 -0.004135 -0.014473 0.030209 0.000000 0.000000 0.000000
# 4 0.000000 0.000000 0.000000 0.074463 0.000000 0.000000
# 5 0.000000 0.000000 0.000000 0.000000 0.078931 0.000000
# 6 0.000000 0.000000 0.000000 0.000000 0.000000 0.042728
#
#
# Mechanical properties :
#
#
# Convention : Reuss Voigt Hill
#
# Bulk Modulus (GPa) = 40.26757 41.27720 40.77239
# Shear Modulus (GPa) = 16.21718 19.28071 17.74895
#
# Velocity S-wave (km/s) = 3.36566 3.66981 3.52102
# Velocity P-wave (km/s) = 6.57498 6.84023 6.70891
#
# Compressibility (1/GPa) = 0.02483388
#
# Stress axis : x y z
#
# Youngs Moduli (GPa) = 87.34867 44.01901 33.10318
#
# Poissons Ratio (x) = 0.05113 0.13689
# Poissons Ratio (y) = 0.10147 0.47911
# Poissons Ratio (z) = 0.36122 0.63710
#
# Static dielectric constant tensor:
#      x y z
#    x 2.972950 0.000000 0.000000 
#    y 0.000000 2.748240 0.000000 
#    z 0.000000 0.000000 2.335730 
# 
# 
# High freq. dielectric constant tensor:
#      x y z
#    x 1.569530 0.000000 0.000000 
#    y 0.000000 1.532920 0.000000 
#    z 0.000000 0.000000 1.482860 
# 
# From -- ./inp_files/5593.got.cif
#   From: 2010.03.12/outbox.cif.g09.slc.cpg/sg33_3_cif.got.tgz:5593.got - 2010.04.14 01:49:19.
