data_PCOD8170603
_publ_section_title
;
Structure prediction by ZEFSAII (Michael W. Deem and Ramdas Pophale) SiO2 
 PCOD8170603
Probable space group: P B A 2
;
_chemical_formula_sum "Si O2"
_cell_formula_units_Z 24
_cell_length_a 13.599030
_cell_length_b 7.228269
_cell_length_c 8.703015
_cell_angle_alpha 90.000000
_cell_angle_beta 90.000000
_cell_angle_gamma 90.000000
_cell_volume 855.484156
_symmetry_space_group_name_H-M "P B A 2"
_symmetry_group_IT_number 32
_symmetry_cell_setting 'orthorhombic'
loop_
_space_group_symop_operation_xyz
x,y,z
-x,-y,z
1/2-x,1/2+y,z
1/2+x,1/2-y,z
loop_
_atom_site_type_symbol
_atom_site_label
_atom_site_fract_x
_atom_site_fract_y
_atom_site_fract_z
Si Si1 0.276793 0.586459 0.602430
Si Si2 0.606172 0.119706 0.102784
Si Si3 0.440851 0.317210 0.596375
Si Si4 0.252048 0.160260 0.949215
Si Si5 0.603551 0.095492 0.454275
Si Si6 0.945588 0.183341 0.944139
O O1 0.324493 0.376502 0.583100
O O2 0.291562 0.647845 0.777980
O O3 0.338436 0.716993 0.490422
O O4 0.160202 0.565985 0.556178
O O5 0.615593 0.049630 0.275576
O O6 0.664637 0.315243 0.073236
O O7 0.490853 0.154952 0.056756
O O8 0.665062 0.993258 0.981378
O O9 0.500000 0.500000 0.546245
O O10 0.485584 0.145935 0.489427
O O11 0.471494 0.263420 0.769135
O O12 0.326735 0.342832 0.960503
O O13 0.000000 0.000000 0.996343
#
# Coordination Sequence:
#
# PCOD8170603 Si02
#       6
#     4   4   4   4   4   4
#     4  11  22  43  68  95 128 180 237 284 341 419
#     4  12  25  41  63  99 138 177 225 289 360 419
#     4   9  19  38  64  92 124 168 226 284 341 410
#     4  12  24  44  71  98 134 182 237 290 343 422
#     4  11  24  40  63  95 136 177 224 288 357 418
#     4  11  23  42  68  97 129 174 230 289 348 416
#
# _framework density 28.054286999999999
#
# number of rings (size 3 to 8) (size 9 to 14) (size 15 to 20)
#    0.000    1.000    0.000    9.500    0.000    3.333 
#    0.000    7.500    0.000    0.000    0.000    0.000 
#    0.000    0.000    0.000    0.000    0.000    0.000 
#
# Total GULP energy -297676.940049 kJ/mol
# GULP energy per Si atom -12403.205835 kJ/mol
# Density = 2.799043 g / cm^3
# Si number density = 28.054287 Si / 1000 Ang^3
#
#
#
# Elastic Constant Matrix: (Units=GPa)
#
#
# Indices 1 2 3 4 5 6 
#
# 1 216.4955 23.2137 43.4524 0.0000 0.0000 0.0000
# 2 23.2137 76.4750 32.4887 0.0000 0.0000 0.0000
# 3 43.4524 32.4887 139.6885 0.0000 0.0000 0.0000
# 4 0.0000 0.0000 0.0000 42.0288 0.0000 0.0000
# 5 0.0000 0.0000 0.0000 0.0000 40.7333 0.0000
# 6 0.0000 0.0000 0.0000 0.0000 0.0000 43.2511
#
#
#
# Elastic Compliance Matrix: (Units=1/GPa)
#
#
# Indices 1 2 3 4 5 6 
#
# 1 0.004988 -0.000949 -0.001331 0.000000 0.000000 0.000000
# 2 -0.000949 0.014690 -0.003122 0.000000 0.000000 0.000000
# 3 -0.001331 -0.003122 0.008299 0.000000 0.000000 0.000000
# 4 0.000000 0.000000 0.000000 0.023793 0.000000 0.000000
# 5 0.000000 0.000000 0.000000 0.000000 0.024550 0.000000
# 6 0.000000 0.000000 0.000000 0.000000 0.000000 0.023121
#
#
# Mechanical properties :
#
#
# Convention : Reuss Voigt Hill
#
# Bulk Modulus (GPa) = 58.22527 70.10762 64.16645
# Shear Modulus (GPa) = 43.11533 47.43625 45.27579
#
# Velocity S-wave (km/s) = 3.92453 4.11648 4.02165
# Velocity P-wave (km/s) = 6.42926 6.90204 6.66984
#
# Compressibility (1/GPa) = 0.01717467
#
# Stress axis : x y z
#
# Youngs Moduli (GPa) = 200.48607 68.07241 120.49934
#
# Poissons Ratio (x) = 0.06458 0.16038
# Poissons Ratio (y) = 0.19019 0.37615
# Poissons Ratio (z) = 0.26683 0.21249
#
# Static dielectric constant tensor:
#      x y z
#    x 6.280660 0.000000 0.000000 
#    y 0.000000 6.443920 0.000000 
#    z 0.000000 0.000000 4.232540 
# 
# 
# High freq. dielectric constant tensor:
#      x y z
#    x 2.201690 0.000000 0.000000 
#    y 0.000000 2.207720 0.000000 
#    z 0.000000 0.000000 2.075730 
# 
# From -- ./inp_files/3003.got.cif
#   From: 2010.03.12/outbox.cif.g09.slc.cpg/sg32_2_cif.got.tgz:3003.got - 2010.04.14 01:46:39.
