data_PCOD8170403
_publ_section_title
;
Structure prediction by ZEFSAII (Michael W. Deem and Ramdas Pophale) SiO2 
 PCOD8170403
Probable space group: P B A 2
;
_chemical_formula_sum "Si O2"
_cell_formula_units_Z 24
_cell_length_a 16.850558
_cell_length_b 8.961261
_cell_length_c 7.611737
_cell_angle_alpha 90.000000
_cell_angle_beta 90.000000
_cell_angle_gamma 90.000000
_cell_volume 1149.389400
_symmetry_space_group_name_H-M "P B A 2"
_symmetry_group_IT_number 32
_symmetry_cell_setting 'orthorhombic'
loop_
_space_group_symop_operation_xyz
x,y,z
-x,-y,z
1/2-x,1/2+y,z
1/2+x,1/2-y,z
loop_
_atom_site_type_symbol
_atom_site_label
_atom_site_fract_x
_atom_site_fract_y
_atom_site_fract_z
Si Si1 0.500000 0.500000 0.032511
Si Si2 0.354906 0.598846 0.786993
Si Si3 0.940625 0.671847 0.607144
Si Si4 0.500000 0.000000 0.931991
Si Si5 0.792568 0.214574 0.809746
Si Si6 0.901281 0.266078 0.131402
Si Si7 0.113991 0.632168 0.501740
O O1 0.532967 0.634793 0.152496
O O2 0.426914 0.561484 0.917035
O O3 0.394486 0.670108 0.610746
O O4 0.296576 0.732096 0.852445
O O5 0.300621 0.455732 0.739914
O O6 0.890913 0.548354 0.498300
O O7 0.026264 0.700181 0.524598
O O8 0.951938 0.614517 0.808143
O O9 0.559715 0.916194 0.059957
O O10 0.830327 0.319938 0.661538
O O11 0.835232 0.215084 0.995854
O O12 0.857108 0.303314 0.315047
#
# Coordination Sequence:
#
# PCOD8170403 Si02
#       7
#     2   4   4   2   4   4   4
#     4  10  22  40  62 100 122 174 230 258 322 388
#     4  11  22  40  68  88 125 171 212 270 325 388
#     4  10  18  37  61  91 119 162 212 245 314 380
#     4  10  16  34  64  84 120 158 200 256 300 374
#     4  11  23  39  60  87 122 162 205 261 327 377
#     4  11  21  38  62  91 128 162 208 260 315 381
#     4  10  21  38  61  93 124 162 204 254 316 381
#
# _framework density 20.880651
#
# number of rings (size 3 to 8) (size 9 to 14) (size 15 to 20)
#    0.000    1.667    5.000    3.000    0.000    1.333 
#    0.000    8.333    0.000    0.000    0.000    0.000 
#    0.000    0.000    0.000    0.000    0.000    0.000 
#
# Total GULP energy -297412.063675 kJ/mol
# GULP energy per Si atom -12392.169320 kJ/mol
# Density = 2.083313 g / cm^3
# Si number density = 20.880651 Si / 1000 Ang^3
#
#
#
# Elastic Constant Matrix: (Units=GPa)
#
#
# Indices 1 2 3 4 5 6 
#
# 1 76.7068 40.0103 15.2490 0.0000 0.0000 0.0000
# 2 40.0103 91.8628 21.2275 0.0000 0.0000 0.0000
# 3 15.2490 21.2275 101.4368 0.0000 0.0000 0.0000
# 4 0.0000 0.0000 0.0000 27.3928 0.0000 0.0000
# 5 0.0000 0.0000 0.0000 0.0000 2.5906 0.0000
# 6 0.0000 0.0000 0.0000 0.0000 0.0000 41.6931
#
#
#
# Elastic Compliance Matrix: (Units=1/GPa)
#
#
# Indices 1 2 3 4 5 6 
#
# 1 0.016976 -0.007150 -0.001056 0.000000 0.000000 0.000000
# 2 -0.007150 0.014450 -0.001949 0.000000 0.000000 0.000000
# 3 -0.001056 -0.001949 0.010425 0.000000 0.000000 0.000000
# 4 0.000000 0.000000 0.000000 0.036506 0.000000 0.000000
# 5 0.000000 0.000000 0.000000 0.000000 0.386013 0.000000
# 6 0.000000 0.000000 0.000000 0.000000 0.000000 0.023985
#
#
# Mechanical properties :
#
#
# Convention : Reuss Voigt Hill
#
# Bulk Modulus (GPa) = 46.42160 46.99778 46.70969
# Shear Modulus (GPa) = 9.69284 27.23660 18.46472
#
# Velocity S-wave (km/s) = 2.15687 3.61556 2.97694
# Velocity P-wave (km/s) = 5.33694 6.32348 5.85104
#
# Compressibility (1/GPa) = 0.02154170
#
# Stress axis : x y z
#
# Youngs Moduli (GPa) = 58.90713 69.20293 95.92362
#
# Poissons Ratio (x) = 0.49479 0.10127
# Poissons Ratio (y) = 0.42117 0.18697
# Poissons Ratio (z) = 0.06219 0.13489
#
# Static dielectric constant tensor:
#      x y z
#    x 3.777060 0.000000 0.000000 
#    y 0.000000 4.154090 0.000000 
#    z 0.000000 0.000000 3.469990 
# 
# 
# High freq. dielectric constant tensor:
#      x y z
#    x 1.809710 0.000000 0.000000 
#    y 0.000000 1.832460 0.000000 
#    z 0.000000 0.000000 1.783970 
# 
# From -- ./inp_files/3188.got.cif
#   From: 2010.03.12/outbox.cif.g09.slc.cpg/sg32_2_cif.got.tgz:3188.got - 2010.04.14 01:46:39.
