data_PCOD8170413
_publ_section_title
;
Structure prediction by ZEFSAII (Michael W. Deem and Ramdas Pophale) SiO2 
 PCOD8170413
Probable space group: P B A 2
;
_chemical_formula_sum "Si O2"
_cell_formula_units_Z 30
_cell_length_a 12.174730
_cell_length_b 13.476824
_cell_length_c 9.111700
_cell_angle_alpha 90.000000
_cell_angle_beta 90.000000
_cell_angle_gamma 90.000000
_cell_volume 1495.017608
_symmetry_space_group_name_H-M "P B A 2"
_symmetry_group_IT_number 32
_symmetry_cell_setting 'orthorhombic'
loop_
_space_group_symop_operation_xyz
x,y,z
-x,-y,z
1/2-x,1/2+y,z
1/2+x,1/2-y,z
loop_
_atom_site_type_symbol
_atom_site_label
_atom_site_fract_x
_atom_site_fract_y
_atom_site_fract_z
Si Si1 0.290962 0.745529 0.306130
Si Si2 0.771841 0.940644 0.017408
Si Si3 0.500000 0.000000 0.309881
Si Si4 0.410357 0.182611 0.165770
Si Si5 0.600807 0.254801 0.008029
Si Si6 0.691836 0.066985 0.489938
Si Si7 0.625902 0.469671 0.319200
Si Si8 0.614756 0.061758 0.821578
O O1 0.158221 0.728055 0.303096
O O2 0.321994 0.821355 0.432779
O O3 0.361083 0.647667 0.344032
O O4 0.320455 0.781472 0.141195
O O5 0.863978 0.864807 0.949701
O O6 0.721173 0.017571 0.903925
O O7 0.672323 0.869399 0.056624
O O8 0.819120 0.997414 0.161354
O O9 0.500444 0.100044 0.213962
O O10 0.609272 0.993670 0.406384
O O11 0.478179 0.266097 0.077226
O O12 0.597530 0.173710 0.878537
O O13 0.658434 0.065707 0.657587
O O14 0.813682 0.027616 0.452214
O O15 0.500000 0.500000 0.321517
O O16 0.500000 0.000000 0.836900
#
# Coordination Sequence:
#
# PCOD8170413 Si02
#       8
#     4   4   2   4   4   4   4   4
#     4  10  23  37  64  97 124 163 222 270 321 374
#     4  10  22  39  62  94 124 163 219 270 318 383
#     4  12  18  36  60  98 120 154 212 270 304 370
#     4  10  18  35  65  91 120 155 211 280 307 361
#     4  10  20  37  62  92 120 162 215 263 321 364
#     4  12  24  38  65  93 131 169 214 261 323 392
#     4  10  23  44  66  94 128 169 214 271 330 383
#     4  12  24  41  63  93 134 174 212 261 322 394
#
# _framework density 20.066652999999999
#
# number of rings (size 3 to 8) (size 9 to 14) (size 15 to 20)
#    0.000    1.600    6.000    1.600    3.733    1.067 
#    0.000    2.000    0.000    0.000    0.000    0.000 
#    0.000    0.000    0.000    0.000    0.000    0.000 
#
# Total GULP energy -371730.857273 kJ/mol
# GULP energy per Si atom -12391.028576 kJ/mol
# Density = 2.002098 g / cm^3
# Si number density = 20.066653 Si / 1000 Ang^3
#
#
#
# Elastic Constant Matrix: (Units=GPa)
#
#
# Indices 1 2 3 4 5 6 
#
# 1 127.7919 33.4140 30.3924 0.0000 0.0000 0.0000
# 2 33.4140 67.3449 33.7859 0.0000 0.0000 0.0000
# 3 30.3924 33.7859 65.0888 0.0000 0.0000 0.0000
# 4 0.0000 0.0000 0.0000 23.3161 0.0000 0.0000
# 5 0.0000 0.0000 0.0000 0.0000 23.2909 0.0000
# 6 0.0000 0.0000 0.0000 0.0000 0.0000 32.2841
#
#
#
# Elastic Compliance Matrix: (Units=1/GPa)
#
#
# Indices 1 2 3 4 5 6 
#
# 1 0.009315 -0.003299 -0.002637 0.000000 0.000000 0.000000
# 2 -0.003299 0.021245 -0.009488 0.000000 0.000000 0.000000
# 3 -0.002637 -0.009488 0.021520 0.000000 0.000000 0.000000
# 4 0.000000 0.000000 0.000000 0.042889 0.000000 0.000000
# 5 0.000000 0.000000 0.000000 0.000000 0.042935 0.000000
# 6 0.000000 0.000000 0.000000 0.000000 0.000000 0.030975
#
#
# Mechanical properties :
#
#
# Convention : Reuss Voigt Hill
#
# Bulk Modulus (GPa) = 47.09636 50.60113 48.84875
# Shear Modulus (GPa) = 24.17748 26.62045 25.39897
#
# Velocity S-wave (km/s) = 3.47487 3.64621 3.56157
# Velocity P-wave (km/s) = 6.29449 6.55726 6.42722
#
# Compressibility (1/GPa) = 0.02123306
#
# Stress axis : x y z
#
# Youngs Moduli (GPa) = 107.35440 47.06900 46.46869
#
# Poissons Ratio (x) = 0.15526 0.12255
# Poissons Ratio (y) = 0.35413 0.44088
# Poissons Ratio (z) = 0.28312 0.44658
#
# Static dielectric constant tensor:
#      x y z
#    x 4.255570 0.000000 0.000000 
#    y 0.000000 3.801420 0.000000 
#    z 0.000000 0.000000 3.369050 
# 
# 
# High freq. dielectric constant tensor:
#      x y z
#    x 1.797340 0.000000 0.000000 
#    y 0.000000 1.782680 0.000000 
#    z 0.000000 0.000000 1.745180 
# 
# From -- ./inp_files/2849.got.cif
#   From: 2010.03.12/outbox.cif.g09.slc.cpg/sg32_2_cif.got.tgz:2849.got - 2010.04.14 01:46:39.
