data_PCOD8170166
_publ_section_title
;
Structure prediction by ZEFSAII (Michael W. Deem and Ramdas Pophale) SiO2 
 PCOD8170166
Probable space group: P M N 21
;
_chemical_formula_sum "Si O2"
_cell_formula_units_Z 32
_cell_length_a 13.001536
_cell_length_b 11.480905
_cell_length_c 9.864690
_cell_angle_alpha 90.000000
_cell_angle_beta 90.000000
_cell_angle_gamma 90.000000
_cell_volume 1472.496354
_symmetry_space_group_name_H-M "P M N 21"
_symmetry_group_IT_number 31
_symmetry_cell_setting 'orthorhombic'
loop_
_space_group_symop_operation_xyz
x,y,z
1/2-x,-y,1/2+z
-x,y,z
1/2+x,-y,1/2+z
loop_
_atom_site_type_symbol
_atom_site_label
_atom_site_fract_x
_atom_site_fract_y
_atom_site_fract_z
Si Si1 0.116244 0.201035 0.260930
Si Si2 0.620198 0.324039 0.163931
Si Si3 0.190923 0.814487 0.913702
Si Si4 0.764746 0.750577 0.392668
Si Si5 0.382826 0.309437 0.660818
Si Si6 0.383120 0.561531 0.637197
Si Si7 0.115066 0.062376 0.994230
Si Si8 0.379782 0.554053 0.327220
O O1 0.187916 0.163481 0.386255
O O2 0.169236 0.321284 0.199165
O O3 0.000000 0.218697 0.315007
O O4 0.120978 0.098654 0.151038
O O5 0.500000 0.327603 0.123173
O O6 0.635096 0.221172 0.273538
O O7 0.655237 0.448043 0.229282
O O8 0.689341 0.303143 0.030640
O O9 0.136657 0.926812 0.977305
O O10 0.183145 0.714283 0.026303
O O11 0.856738 0.776067 0.286563
O O12 0.701491 0.867889 0.413231
O O13 0.689689 0.667315 0.302661
O O14 0.500000 0.292409 0.616168
O O15 0.363811 0.441807 0.718567
O O16 0.500000 0.603528 0.641919
O O17 0.355808 0.526275 0.484019
O O18 0.000000 0.091591 0.940073
O O19 0.500000 0.581591 0.303173
#
# Coordination Sequence:
#
# PCOD8170166 Si02
#       8
#     4   4   4   4   4   4   4   4
#     4  10  22  44  71  98 131 169 220 276 329 395
#     4  11  23  41  64  96 132 167 220 280 329 390
#     4  12  24  43  70  96 126 178 224 262 332 393
#     4  12  25  39  66  94 132 177 220 270 335 390
#     4  11  25  41  63  98 137 171 215 271 330 397
#     4   9  17  36  64  94 127 165 207 259 328 392
#     4  11  24  43  67  95 130 173 222 271 324 392
#     4  10  20  37  62  91 123 164 215 265 320 391
#
# _framework density 21.731802999999999
#
# number of rings (size 3 to 8) (size 9 to 14) (size 15 to 20)
#    0.000    1.250    3.750    1.875    5.250    0.000 
#    0.000    1.875    0.000    0.000    0.000    0.000 
#    0.000    0.000    0.000    0.000    0.000    0.000 
#
# Total GULP energy -396606.684986 kJ/mol
# GULP energy per Si atom -12393.958906 kJ/mol
# Density = 2.168234 g / cm^3
# Si number density = 21.731803 Si / 1000 Ang^3
#
#
#
# Elastic Constant Matrix: (Units=GPa)
#
#
# Indices 1 2 3 4 5 6 
#
# 1 85.6955 41.7627 40.3672 0.0000 0.0000 0.0000
# 2 41.7627 97.9983 27.1538 0.0000 0.0000 0.0000
# 3 40.3672 27.1538 94.1742 0.0000 0.0000 0.0000
# 4 0.0000 0.0000 0.0000 24.3816 0.0000 0.0000
# 5 0.0000 0.0000 0.0000 0.0000 34.1343 0.0000
# 6 0.0000 0.0000 0.0000 0.0000 0.0000 32.3881
#
#
#
# Elastic Compliance Matrix: (Units=1/GPa)
#
#
# Indices 1 2 3 4 5 6 
#
# 1 0.017144 -0.005727 -0.005697 0.000000 0.000000 0.000000
# 2 -0.005727 0.013004 -0.001294 0.000000 0.000000 0.000000
# 3 -0.005697 -0.001294 0.013434 0.000000 0.000000 0.000000
# 4 0.000000 0.000000 0.000000 0.041015 0.000000 0.000000
# 5 0.000000 0.000000 0.000000 0.000000 0.029296 0.000000
# 6 0.000000 0.000000 0.000000 0.000000 0.000000 0.030876
#
#
# Mechanical properties :
#
#
# Convention : Reuss Voigt Hill
#
# Bulk Modulus (GPa) = 55.11617 55.15948 55.13783
# Shear Modulus (GPa) = 28.36812 29.41975 28.89393
#
# Velocity S-wave (km/s) = 3.61691 3.68335 3.65028
# Velocity P-wave (km/s) = 6.54674 6.59745 6.57215
#
# Compressibility (1/GPa) = 0.01814350
#
# Stress axis : x y z
#
# Youngs Moduli (GPa) = 58.32879 76.90103 74.43826
#
# Poissons Ratio (x) = 0.44045 0.42410
# Poissons Ratio (y) = 0.33408 0.09635
# Poissons Ratio (z) = 0.33232 0.09954
#
# Static dielectric constant tensor:
#      x y z
#    x 4.251720 0.000000 0.000000 
#    y 0.000000 3.780280 0.000000 
#    z 0.000000 0.000000 3.627560 
# 
# 
# High freq. dielectric constant tensor:
#      x y z
#    x 1.877120 0.000000 0.000000 
#    y 0.000000 1.843710 0.000000 
#    z 0.000000 0.000000 1.831500 
# 
# From -- ./inp_files/2575.got.cif
#   From: 2010.03.12/outbox.cif.g09.slc.cpg/sg31_2_cif.got.tgz:2575.got - 2010.04.14 01:42:59.
