data_PCOD8170132
_publ_section_title
;
Structure prediction by ZEFSAII (Michael W. Deem and Ramdas Pophale) SiO2 
 PCOD8170132
Probable space group: P M N 21
;
_chemical_formula_sum "Si O2"
_cell_formula_units_Z 32
_cell_length_a 8.895211
_cell_length_b 14.457431
_cell_length_c 12.352719
_cell_angle_alpha 90.000000
_cell_angle_beta 90.000000
_cell_angle_gamma 90.000000
_cell_volume 1588.583124
_symmetry_space_group_name_H-M "P M N 21"
_symmetry_group_IT_number 31
_symmetry_cell_setting 'orthorhombic'
loop_
_space_group_symop_operation_xyz
x,y,z
1/2-x,-y,1/2+z
-x,y,z
1/2+x,-y,1/2+z
loop_
_atom_site_type_symbol
_atom_site_label
_atom_site_fract_x
_atom_site_fract_y
_atom_site_fract_z
Si Si1 0.672999 0.643823 0.811800
Si Si2 0.325442 0.134287 0.607688
Si Si3 0.823943 0.063143 0.042273
Si Si4 0.336303 0.855812 0.320423
Si Si5 0.820669 0.667487 0.036773
Si Si6 0.821749 0.755123 0.632018
Si Si7 0.671558 0.440033 0.751015
Si Si8 0.167499 0.337328 0.937004
O O1 0.500000 0.673250 0.824991
O O2 0.762010 0.724773 0.749758
O O3 0.686848 0.550333 0.741074
O O4 0.743846 0.626832 0.930067
O O5 0.500000 0.130350 0.584984
O O6 0.296492 0.140777 0.735004
O O7 0.261936 0.226434 0.550002
O O8 0.254086 0.037843 0.567418
O O9 0.736417 0.141540 0.108836
O O10 0.000000 0.072542 0.072464
O O11 0.798001 0.071890 0.914385
O O12 0.500000 0.878773 0.268220
O O13 0.343001 0.755587 0.370472
O O14 0.766087 0.607740 0.141128
O O15 0.000000 0.661870 0.025580
O O16 0.764900 0.680278 0.544328
O O17 0.000000 0.755998 0.632361
O O18 0.500000 0.408300 0.767960
O O19 0.761209 0.413300 0.859008
O O20 0.000000 0.369948 0.972248
#
# Coordination Sequence:
#
# PCOD8170132 Si02
#       8
#     4   4   4   4   4   4   4   4
#     4  11  25  42  61  90 127 167 206 252 308 366
#     4  10  20  36  61  87 119 157 198 248 306 361
#     4   9  20  38  58  86 120 158 201 251 305 363
#     4   9  18  33  53  81 116 151 195 246 298 353
#     4  10  22  41  62  90 126 162 202 253 308 366
#     4  11  23  40  62  88 120 160 205 253 307 365
#     4  10  22  40  62  90 123 158 202 252 301 359
#     4  10  20  36  61  88 117 153 197 253 305 355
#
# _framework density 20.143736000000001
#
# number of rings (size 3 to 8) (size 9 to 14) (size 15 to 20)
#    0.000    2.000    1.250    2.625    1.750    5.500 
#    0.000    1.250    0.000    0.000    0.000    0.000 
#    0.000    0.000    0.000    0.000    0.000    0.000 
#
# Total GULP energy -396755.849471 kJ/mol
# GULP energy per Si atom -12398.620296 kJ/mol
# Density = 2.009789 g / cm^3
# Si number density = 20.143736 Si / 1000 Ang^3
#
#
#
# Elastic Constant Matrix: (Units=GPa)
#
#
# Indices 1 2 3 4 5 6 
#
# 1 82.0307 39.6035 32.9621 0.0000 0.0000 0.0000
# 2 39.6035 85.6943 44.9620 0.0000 0.0000 0.0000
# 3 32.9621 44.9620 89.2571 0.0000 0.0000 0.0000
# 4 0.0000 0.0000 0.0000 11.9770 0.0000 0.0000
# 5 0.0000 0.0000 0.0000 0.0000 34.6569 0.0000
# 6 0.0000 0.0000 0.0000 0.0000 0.0000 24.9288
#
#
#
# Elastic Compliance Matrix: (Units=1/GPa)
#
#
# Indices 1 2 3 4 5 6 
#
# 1 0.016269 -0.005935 -0.003018 0.000000 0.000000 0.000000
# 2 -0.005935 0.018027 -0.006889 0.000000 0.000000 0.000000
# 3 -0.003018 -0.006889 0.015788 0.000000 0.000000 0.000000
# 4 0.000000 0.000000 0.000000 0.083494 0.000000 0.000000
# 5 0.000000 0.000000 0.000000 0.000000 0.028854 0.000000
# 6 0.000000 0.000000 0.000000 0.000000 0.000000 0.040114
#
#
# Mechanical properties :
#
#
# Convention : Reuss Voigt Hill
#
# Bulk Modulus (GPa) = 54.34936 54.67081 54.51009
# Shear Modulus (GPa) = 20.80182 23.60949 22.20565
#
# Velocity S-wave (km/s) = 3.21700 3.42724 3.32378
# Velocity P-wave (km/s) = 6.39047 6.54680 6.46911
#
# Compressibility (1/GPa) = 0.01839948
#
# Stress axis : x y z
#
# Youngs Moduli (GPa) = 61.46770 55.47331 63.33743
#
# Poissons Ratio (x) = 0.32923 0.19117
# Poissons Ratio (y) = 0.36481 0.43633
# Poissons Ratio (z) = 0.18553 0.38215
#
# Static dielectric constant tensor:
#      x y z
#    x 4.011100 0.000000 0.000000 
#    y 0.000000 3.821980 0.000000 
#    z 0.000000 0.000000 3.755810 
# 
# 
# High freq. dielectric constant tensor:
#      x y z
#    x 1.777560 0.000000 0.000000 
#    y 0.000000 1.789910 0.000000 
#    z 0.000000 0.000000 1.783580 
# 
# From -- ./inp_files/3574.got.cif
#   From: 2010.03.12/outbox.cif.g09.slc.cpg/sg31_2_cif.got.tgz:3574.got - 2010.04.14 01:42:59.
