data_PCOD8170181
_publ_section_title
;
Structure prediction by ZEFSAII (Michael W. Deem and Ramdas Pophale) SiO2 
 PCOD8170181
Probable space group: P M N 21
;
_chemical_formula_sum "Si O2"
_cell_formula_units_Z 32
_cell_length_a 9.325951
_cell_length_b 15.185883
_cell_length_c 11.967868
_cell_angle_alpha 90.000000
_cell_angle_beta 90.000000
_cell_angle_gamma 90.000000
_cell_volume 1694.922985
_symmetry_space_group_name_H-M "P M N 21"
_symmetry_group_IT_number 31
_symmetry_cell_setting 'orthorhombic'
loop_
_space_group_symop_operation_xyz
x,y,z
1/2-x,-y,1/2+z
-x,y,z
1/2+x,-y,1/2+z
loop_
_atom_site_type_symbol
_atom_site_label
_atom_site_fract_x
_atom_site_fract_y
_atom_site_fract_z
Si Si1 0.330072 0.758913 0.530280
Si Si2 0.329889 0.749905 0.784560
Si Si3 0.334988 0.109359 0.878861
Si Si4 0.666043 0.911015 0.935589
Si Si5 0.168202 0.400835 0.874466
Si Si6 0.337581 0.671074 0.136776
Si Si7 0.837269 0.422512 0.412972
Si Si8 0.669257 0.158974 0.630669
O O1 0.500000 0.771898 0.524071
O O2 0.273635 0.753129 0.657329
O O3 0.259315 0.843486 0.472732
O O4 0.282634 0.669458 0.467661
O O5 0.500000 0.749981 0.786264
O O6 0.274707 0.836061 0.850990
O O7 0.274228 0.660765 0.843998
O O8 0.500000 0.134124 0.900918
O O9 0.284313 0.140852 0.757415
O O10 0.311233 0.005058 0.878923
O O11 0.500000 0.893625 0.965014
O O12 0.758015 0.912172 0.049305
O O13 0.217129 0.365623 0.754278
O O14 0.242871 0.493090 0.891582
O O15 0.000000 0.417411 0.879876
O O16 0.500000 0.708286 0.146704
O O17 0.231617 0.746859 0.095247
O O18 0.330985 0.594610 0.045230
O O19 0.000000 0.441559 0.374689
O O20 0.500000 0.155697 0.614233
#
# Coordination Sequence:
#
# PCOD8170181 Si02
#       8
#     4   4   4   4   4   4   4   4
#     4  10  21  38  61  84 113 153 192 232 280 342
#     4   9  19  37  60  83 110 150 194 229 276 344
#     4  10  23  39  58  87 118 151 189 236 289 337
#     4  10  21  40  61  81 116 157 189 229 287 349
#     4  10  22  37  56  85 115 146 190 238 285 336
#     4  10  20  39  61  81 110 155 197 232 288 353
#     4  10  21  37  59  82 109 150 193 231 283 344
#     4  11  22  37  60  89 115 144 194 249 286 329
#
# _framework density 18.879913999999999
#
# number of rings (size 3 to 8) (size 9 to 14) (size 15 to 20)
#    0.000    2.000    2.500    0.375    3.500    2.500 
#    0.000    1.250    0.000    0.000    0.000    0.000 
#    0.000    0.000    0.000    0.000    0.000    0.000 
#
# Total GULP energy -396877.700420 kJ/mol
# GULP energy per Si atom -12402.428138 kJ/mol
# Density = 1.883694 g / cm^3
# Si number density = 18.879914 Si / 1000 Ang^3
#
#
#
# Elastic Constant Matrix: (Units=GPa)
#
#
# Indices 1 2 3 4 5 6 
#
# 1 45.1409 32.8732 31.2070 0.0000 0.0000 0.0000
# 2 32.8732 113.0061 42.1481 0.0000 0.0000 0.0000
# 3 31.2070 42.1481 126.5977 0.0000 0.0000 0.0000
# 4 0.0000 0.0000 0.0000 26.6383 0.0000 0.0000
# 5 0.0000 0.0000 0.0000 0.0000 19.2394 0.0000
# 6 0.0000 0.0000 0.0000 0.0000 0.0000 34.1705
#
#
#
# Elastic Compliance Matrix: (Units=1/GPa)
#
#
# Indices 1 2 3 4 5 6 
#
# 1 0.030921 -0.007024 -0.005284 0.000000 0.000000 0.000000
# 2 -0.007024 0.011699 -0.002164 0.000000 0.000000 0.000000
# 3 -0.005284 -0.002164 0.009922 0.000000 0.000000 0.000000
# 4 0.000000 0.000000 0.000000 0.037540 0.000000 0.000000
# 5 0.000000 0.000000 0.000000 0.000000 0.051977 0.000000
# 6 0.000000 0.000000 0.000000 0.000000 0.000000 0.029265
#
#
# Mechanical properties :
#
#
# Convention : Reuss Voigt Hill
#
# Bulk Modulus (GPa) = 42.37418 55.24460 48.80939
# Shear Modulus (GPa) = 24.02316 27.91073 25.96695
#
# Velocity S-wave (km/s) = 3.57097 3.84908 3.71263
# Velocity P-wave (km/s) = 6.28452 7.00560 6.65483
#
# Compressibility (1/GPa) = 0.02359928
#
# Stress axis : x y z
#
# Youngs Moduli (GPa) = 32.34076 85.47489 100.78832
#
# Poissons Ratio (x) = 0.60039 0.53252
# Poissons Ratio (y) = 0.22717 0.21806
# Poissons Ratio (z) = 0.17087 0.18493
#
# Static dielectric constant tensor:
#      x y z
#    x 3.343940 0.000000 0.000000 
#    y 0.000000 3.394950 0.000000 
#    z 0.000000 0.000000 3.758900 
# 
# 
# High freq. dielectric constant tensor:
#      x y z
#    x 1.712160 0.000000 0.000000 
#    y 0.000000 1.736360 0.000000 
#    z 0.000000 0.000000 1.747420 
# 
# From -- ./inp_files/3608.got.cif
#   From: 2010.03.12/outbox.cif.g09.slc.cpg/sg31_2_cif.got.tgz:3608.got - 2010.04.14 01:42:59.
