data_PCOD8170745
_publ_section_title
;
Structure prediction by ZEFSAII (Michael W. Deem and Ramdas Pophale) SiO2 
 PCOD8170745
Probable space group: P N A 21
;
_chemical_formula_sum "Si O2"
_cell_formula_units_Z 32
_cell_length_a 8.863526
_cell_length_b 16.181106
_cell_length_c 11.440159
_cell_angle_alpha 90.000000
_cell_angle_beta 90.000000
_cell_angle_gamma 90.000000
_cell_volume 1640.766523
_symmetry_space_group_name_H-M "P N A 21"
_symmetry_group_IT_number 33
_symmetry_cell_setting 'orthorhombic'
loop_
_space_group_symop_operation_xyz
x,y,z
-x,-y,1/2+z
1/2-x,1/2+y,1/2+z
1/2+x,1/2-y,z
loop_
_atom_site_type_symbol
_atom_site_label
_atom_site_fract_x
_atom_site_fract_y
_atom_site_fract_z
Si Si1 0.744609 0.193330 0.638700
Si Si2 0.753934 0.373562 0.553761
Si Si3 0.755413 0.448936 0.148262
Si Si4 0.348309 0.186804 0.311510
Si Si5 0.805709 0.653091 0.871226
Si Si6 0.497278 0.428989 0.699429
Si Si7 0.750169 0.465716 0.872725
Si Si8 0.496986 0.919235 0.208743
O O1 0.757010 0.291412 0.635424
O O2 0.715292 0.156929 0.509911
O O3 0.893880 0.152911 0.694737
O O4 0.600868 0.164981 0.715265
O O5 0.753579 0.353851 0.417631
O O6 0.605411 0.426054 0.584965
O O7 0.902999 0.423837 0.590040
O O8 0.784751 0.356126 0.194229
O O9 0.598359 0.486782 0.194037
O O10 0.889591 0.501881 0.204108
O O11 0.752202 0.449591 0.009366
O O12 0.308994 0.283946 0.306756
O O13 0.525456 0.175994 0.331963
O O14 0.761674 0.561170 0.833380
O O15 0.597301 0.428354 0.817209
O O16 0.897178 0.419839 0.822144
#
# Coordination Sequence:
#
# PCOD8170745 Si02
#       8
#     4   4   4   4   4   4   4   4
#     4  10  19  36  60  94 119 146 200 272 309 366
#     4  10  20  35  63  93 119 148 202 266 319 361
#     4  11  23  39  61  88 132 159 208 253 319 379
#     4  11  24  37  65  93 122 162 199 272 325 371
#     4  11  22  38  63  93 124 155 207 260 323 368
#     4  10  23  34  59  92 120 162 203 254 312 368
#     4  11  22  40  61  87 129 165 208 257 307 388
#     4  10  19  37  60  86 117 163 199 252 314 377
#
# _framework density 19.503080000000001
#
# number of rings (size 3 to 8) (size 9 to 14) (size 15 to 20)
#    0.000    1.500    5.000    0.750    8.750    0.000 
#    0.000    0.000   11.000    0.000    0.000    0.000 
#    0.000    0.000    0.000    0.000    0.000    0.000 
#
# Total GULP energy -396772.200223 kJ/mol
# GULP energy per Si atom -12399.131257 kJ/mol
# Density = 1.945869 g / cm^3
# Si number density = 19.503080 Si / 1000 Ang^3
#
#
#
# Elastic Constant Matrix: (Units=GPa)
#
#
# Indices 1 2 3 4 5 6 
#
# 1 134.5914 36.8095 42.4512 0.0000 0.0000 0.0000
# 2 36.8095 85.5410 28.3108 0.0000 0.0000 0.0000
# 3 42.4512 28.3108 88.7441 0.0000 0.0000 0.0000
# 4 0.0000 0.0000 0.0000 31.2124 0.0000 0.0000
# 5 0.0000 0.0000 0.0000 0.0000 20.0047 0.0000
# 6 0.0000 0.0000 0.0000 0.0000 0.0000 19.3918
#
#
#
# Elastic Compliance Matrix: (Units=1/GPa)
#
#
# Indices 1 2 3 4 5 6 
#
# 1 0.009328 -0.002837 -0.003557 0.000000 0.000000 0.000000
# 2 -0.002837 0.013933 -0.003088 0.000000 0.000000 0.000000
# 3 -0.003557 -0.003088 0.013955 0.000000 0.000000 0.000000
# 4 0.000000 0.000000 0.000000 0.032039 0.000000 0.000000
# 5 0.000000 0.000000 0.000000 0.000000 0.049988 0.000000
# 6 0.000000 0.000000 0.000000 0.000000 0.000000 0.051568
#
#
# Mechanical properties :
#
#
# Convention : Reuss Voigt Hill
#
# Bulk Modulus (GPa) = 54.78710 58.22437 56.50573
# Shear Modulus (GPa) = 25.52877 27.54212 26.53545
#
# Velocity S-wave (km/s) = 3.62188 3.76199 3.69260
# Velocity P-wave (km/s) = 6.75597 6.98490 6.87139
#
# Compressibility (1/GPa) = 0.01825247
#
# Stress axis : x y z
#
# Youngs Moduli (GPa) = 107.20910 71.77255 71.65907
#
# Poissons Ratio (x) = 0.20359 0.25489
# Poissons Ratio (y) = 0.30410 0.22128
# Poissons Ratio (z) = 0.38134 0.22163
#
# Static dielectric constant tensor:
#      x y z
#    x 3.804670 0.000000 0.000000 
#    y 0.000000 3.607700 0.000000 
#    z 0.000000 0.000000 3.284620 
# 
# 
# High freq. dielectric constant tensor:
#      x y z
#    x 1.782360 0.000000 0.000000 
#    y 0.000000 1.751760 0.000000 
#    z 0.000000 0.000000 1.728580 
# 
# From -- ./inp_files/6088.got.cif
#   From: 2010.03.12/outbox.cif.g09.slc.cpg/sg33_4_cif.got.tgz:6088.got - 2010.04.14 01:49:19.
