data_PCOD8170171
_publ_section_title
;
Structure prediction by ZEFSAII (Michael W. Deem and Ramdas Pophale) SiO2 
 PCOD8170171
Probable space group: P M N 21
;
_chemical_formula_sum "Si O2"
_cell_formula_units_Z 32
_cell_length_a 13.085959
_cell_length_b 15.042580
_cell_length_c 7.954488
_cell_angle_alpha 90.000000
_cell_angle_beta 90.000000
_cell_angle_gamma 90.000000
_cell_volume 1565.813799
_symmetry_space_group_name_H-M "P M N 21"
_symmetry_group_IT_number 31
_symmetry_cell_setting 'orthorhombic'
loop_
_space_group_symop_operation_xyz
x,y,z
1/2-x,-y,1/2+z
-x,y,z
1/2+x,-y,1/2+z
loop_
_atom_site_type_symbol
_atom_site_label
_atom_site_fract_x
_atom_site_fract_y
_atom_site_fract_z
Si Si1 0.614609 0.328870 0.370230
Si Si2 0.209718 0.602744 0.560314
Si Si3 0.383105 0.920499 0.760740
Si Si4 0.881082 0.873475 0.273049
Si Si5 0.287280 0.794579 0.486847
Si Si6 0.882706 0.298911 0.690076
Si Si7 0.748081 0.809355 0.974067
Si Si8 0.294515 0.428102 0.688093
O O1 0.500000 0.295687 0.383125
O O2 0.625969 0.394755 0.210614
O O3 0.685375 0.242025 0.332870
O O4 0.643551 0.371428 0.551204
O O5 0.266706 0.697026 0.560360
O O6 0.291352 0.528032 0.617705
O O7 0.157712 0.578434 0.378379
O O8 0.500000 0.900388 0.813818
O O9 0.353041 0.857953 0.606120
O O10 0.370089 0.023826 0.722437
O O11 0.302313 0.900373 0.909890
O O12 0.819113 0.845391 0.440601
O O13 0.828669 0.819603 0.123923
O O14 0.000000 0.846712 0.295807
O O15 0.359105 0.778316 0.325636
O O16 0.847068 0.255448 0.515296
O O17 0.819740 0.389762 0.717040
O O18 0.000000 0.325913 0.686745
#
# Coordination Sequence:
#
# PCOD8170171 Si02
#       8
#     4   4   4   4   4   4   4   4
#     4  11  23  40  64  91 123 165 211 255 307 370
#     4  11  21  40  63  86 126 164 201 254 307 361
#     4  11  21  36  60  89 118 154 201 253 312 378
#     4  10  22  39  60  85 118 159 203 252 313 375
#     4  10  21  38  59  86 121 155 195 254 307 365
#     4   9  19  36  59  85 114 156 199 245 304 365
#     4  10  20  38  59  83 121 157 197 255 307 367
#     4  10  22  39  63  87 127 162 204 258 304 357
#
# _framework density 20.436657
#
# number of rings (size 3 to 8) (size 9 to 14) (size 15 to 20)
#    0.000    1.750    2.500    2.625    0.000    1.500 
#    0.000    0.625    0.000    5.250    0.000    0.000 
#    0.000    0.000    0.000    0.000    0.000    0.000 
#
# Total GULP energy -396521.798496 kJ/mol
# GULP energy per Si atom -12391.306203 kJ/mol
# Density = 2.039014 g / cm^3
# Si number density = 20.436657 Si / 1000 Ang^3
#
#
#
# Elastic Constant Matrix: (Units=GPa)
#
#
# Indices 1 2 3 4 5 6 
#
# 1 123.1439 33.5652 31.2196 0.0000 0.0000 0.0000
# 2 33.5652 104.9175 17.8262 0.0000 0.0000 0.0000
# 3 31.2196 17.8262 94.0356 0.0000 0.0000 0.0000
# 4 0.0000 0.0000 0.0000 31.2836 0.0000 0.0000
# 5 0.0000 0.0000 0.0000 0.0000 24.9992 0.0000
# 6 0.0000 0.0000 0.0000 0.0000 0.0000 20.8734
#
#
#
# Elastic Compliance Matrix: (Units=1/GPa)
#
#
# Indices 1 2 3 4 5 6 
#
# 1 0.009501 -0.002587 -0.002664 0.000000 0.000000 0.000000
# 2 -0.002587 0.010553 -0.001142 0.000000 0.000000 0.000000
# 3 -0.002664 -0.001142 0.011735 0.000000 0.000000 0.000000
# 4 0.000000 0.000000 0.000000 0.031966 0.000000 0.000000
# 5 0.000000 0.000000 0.000000 0.000000 0.040001 0.000000
# 6 0.000000 0.000000 0.000000 0.000000 0.000000 0.047908
#
#
# Mechanical properties :
#
#
# Convention : Reuss Voigt Hill
#
# Bulk Modulus (GPa) = 52.62042 54.14655 53.38349
# Shear Modulus (GPa) = 29.27681 31.39697 30.33689
#
# Velocity S-wave (km/s) = 3.78903 3.92383 3.85702
# Velocity P-wave (km/s) = 6.70420 6.86155 6.78333
#
# Compressibility (1/GPa) = 0.01900403
#
# Stress axis : x y z
#
# Youngs Moduli (GPa) = 105.25133 94.76077 85.21439
#
# Poissons Ratio (x) = 0.24514 0.22700
# Poissons Ratio (y) = 0.27228 0.09728
# Poissons Ratio (z) = 0.28038 0.10818
#
# Static dielectric constant tensor:
#      x y z
#    x 3.528610 0.000000 0.000000 
#    y 0.000000 3.676660 0.000000 
#    z 0.000000 0.000000 3.939760 
# 
# 
# High freq. dielectric constant tensor:
#      x y z
#    x 1.780110 0.000000 0.000000 
#    y 0.000000 1.802400 0.000000 
#    z 0.000000 0.000000 1.805640 
# 
# From -- ./inp_files/2263.got.cif
#   From: 2010.03.12/outbox.cif.g09.slc.cpg/sg31_2_cif.got.tgz:2263.got - 2010.04.14 01:42:59.
