data_PCOD8170284
_publ_section_title
;
Structure prediction by ZEFSAII (Michael W. Deem and Ramdas Pophale) SiO2 
 PCOD8170284
Probable space group: P M N 21
;
_chemical_formula_sum "Si O2"
_cell_formula_units_Z 32
_cell_length_a 14.058483
_cell_length_b 11.766804
_cell_length_c 9.181798
_cell_angle_alpha 90.000000
_cell_angle_beta 90.000000
_cell_angle_gamma 90.000000
_cell_volume 1518.884372
_symmetry_space_group_name_H-M "P M N 21"
_symmetry_group_IT_number 31
_symmetry_cell_setting 'orthorhombic'
loop_
_space_group_symop_operation_xyz
x,y,z
1/2-x,-y,1/2+z
-x,y,z
1/2+x,-y,1/2+z
loop_
_atom_site_type_symbol
_atom_site_label
_atom_site_fract_x
_atom_site_fract_y
_atom_site_fract_z
Si Si1 0.390090 0.199355 0.416680
Si Si2 0.608801 0.678655 0.919367
Si Si3 0.270991 0.848416 0.724226
Si Si4 0.110785 0.931474 0.209261
Si Si5 0.387589 0.427450 0.951339
Si Si6 0.612007 0.434111 0.279985
Si Si7 0.277505 0.217789 0.910455
Si Si8 0.391102 0.685289 0.263259
O O1 0.500000 0.182432 0.370193
O O2 0.323978 0.118222 0.316080
O O3 0.374978 0.163223 0.583750
O O4 0.356792 0.331797 0.389945
O O5 0.500000 0.698069 0.874955
O O6 0.669407 0.765569 0.826912
O O7 0.640410 0.549490 0.882836
O O8 0.622409 0.695833 0.090949
O O9 0.234133 0.784771 0.582520
O O10 0.334353 0.953287 0.669938
O O11 0.159412 0.888129 0.357299
O O12 0.000000 0.957836 0.235881
O O13 0.500000 0.408857 0.940006
O O14 0.334777 0.330334 0.860156
O O15 0.350535 0.414165 0.116934
O O16 0.500000 0.437281 0.270262
O O17 0.642793 0.561794 0.327729
O O18 0.173750 0.218183 0.836176
O O19 0.500000 0.709938 0.306747
#
# Coordination Sequence:
#
# PCOD8170284 Si02
#       8
#     4   4   4   4   4   4   4   4
#     4  10  21  40  65  90 121 166 216 263 317 380
#     4   9  20  39  63  88 123 170 208 255 322 386
#     4  12  24  41  65  93 126 167 220 267 320 383
#     4  11  26  46  63  87 126 170 220 277 321 373
#     4   9  18  35  59  92 127 158 203 259 317 383
#     4   8  15  34  61  87 120 161 201 250 308 372
#     4  12  24  37  63  93 128 162 210 265 331 378
#     4   9  20  38  60  90 129 164 203 254 317 387
#
# _framework density 21.068095
#
# number of rings (size 3 to 8) (size 9 to 14) (size 15 to 20)
#    0.000    2.000    1.250    3.750    1.750    1.500 
#    2.250    0.625    0.000    0.000    0.000    0.000 
#    0.000    0.000    0.000    0.000    0.000    0.000 
#
# Total GULP energy -396648.216414 kJ/mol
# GULP energy per Si atom -12395.256763 kJ/mol
# Density = 2.102014 g / cm^3
# Si number density = 21.068095 Si / 1000 Ang^3
#
#
#
# Elastic Constant Matrix: (Units=GPa)
#
#
# Indices 1 2 3 4 5 6 
#
# 1 85.7545 44.3515 39.3886 0.0000 0.0000 0.0000
# 2 44.3515 86.7127 34.5440 0.0000 0.0000 0.0000
# 3 39.3886 34.5440 68.1548 0.0000 0.0000 0.0000
# 4 0.0000 0.0000 0.0000 30.5116 0.0000 0.0000
# 5 0.0000 0.0000 0.0000 0.0000 28.2169 0.0000
# 6 0.0000 0.0000 0.0000 0.0000 0.0000 39.2737
#
#
#
# Elastic Compliance Matrix: (Units=1/GPa)
#
#
# Indices 1 2 3 4 5 6 
#
# 1 0.018384 -0.006478 -0.007341 0.000000 0.000000 0.000000
# 2 -0.006478 0.016733 -0.004737 0.000000 0.000000 0.000000
# 3 -0.007341 -0.004737 0.021316 0.000000 0.000000 0.000000
# 4 0.000000 0.000000 0.000000 0.032774 0.000000 0.000000
# 5 0.000000 0.000000 0.000000 0.000000 0.035440 0.000000
# 6 0.000000 0.000000 0.000000 0.000000 0.000000 0.025462
#
#
# Mechanical properties :
#
#
# Convention : Reuss Voigt Hill
#
# Bulk Modulus (GPa) = 51.75989 53.02114 52.39052
# Shear Modulus (GPa) = 25.81826 27.75629 26.78728
#
# Velocity S-wave (km/s) = 3.50447 3.63362 3.56962
# Velocity P-wave (km/s) = 6.40283 6.54411 6.47386
#
# Compressibility (1/GPa) = 0.01931998
#
# Stress axis : x y z
#
# Youngs Moduli (GPa) = 54.39646 59.76227 46.91330
#
# Poissons Ratio (x) = 0.38716 0.34438
# Poissons Ratio (y) = 0.35240 0.22223
# Poissons Ratio (z) = 0.39932 0.28309
#
# Static dielectric constant tensor:
#      x y z
#    x 3.923740 0.000000 0.000000 
#    y 0.000000 3.901250 0.000000 
#    z 0.000000 0.000000 3.514300 
# 
# 
# High freq. dielectric constant tensor:
#      x y z
#    x 1.839840 0.000000 0.000000 
#    y 0.000000 1.818330 0.000000 
#    z 0.000000 0.000000 1.805810 
# 
# From -- ./inp_files/2577.got.cif
#   From: 2010.03.12/outbox.cif.g09.slc.cpg/sg31_2_cif.got.tgz:2577.got - 2010.04.14 01:42:59.
