data_PCOD8170680
_publ_section_title
;
Structure prediction by ZEFSAII (Michael W. Deem and Ramdas Pophale) SiO2 
 PCOD8170680
Probable space group: P N A 21
;
_chemical_formula_sum "Si O2"
_cell_formula_units_Z 28
_cell_length_a 9.073241
_cell_length_b 15.865618
_cell_length_c 9.676490
_cell_angle_alpha 90.000000
_cell_angle_beta 90.000000
_cell_angle_gamma 90.000000
_cell_volume 1392.955660
_symmetry_space_group_name_H-M "P N A 21"
_symmetry_group_IT_number 33
_symmetry_cell_setting 'orthorhombic'
loop_
_space_group_symop_operation_xyz
x,y,z
-x,-y,1/2+z
1/2-x,1/2+y,1/2+z
1/2+x,1/2-y,z
loop_
_atom_site_type_symbol
_atom_site_label
_atom_site_fract_x
_atom_site_fract_y
_atom_site_fract_z
Si Si1 0.029762 0.314672 0.274980
Si Si2 0.666002 0.672739 0.676962
Si Si3 0.826626 0.053867 0.938097
Si Si4 0.563238 0.583400 0.951148
Si Si5 0.314624 0.890721 0.152812
Si Si6 0.656583 0.283862 0.529438
Si Si7 0.099113 0.584517 0.005121
O O1 0.156767 0.334945 0.164786
O O2 0.123274 0.257457 0.381798
O O3 0.897914 0.267535 0.192821
O O4 0.971178 0.399065 0.352211
O O5 0.617079 0.630620 0.532982
O O6 0.600871 0.621531 0.804143
O O7 0.751460 0.087518 0.800054
O O8 0.705594 0.995110 0.012310
O O9 0.974123 0.000453 0.911798
O O10 0.712024 0.567098 0.035339
O O11 0.469674 0.645948 0.051953
O O12 0.333760 0.789273 0.143954
O O13 0.476281 0.930080 0.123627
O O14 0.816188 0.327394 0.531624
#
# Coordination Sequence:
#
# PCOD8170680 Si02
#       7
#     4   4   4   4   4   4   4
#     4  10  18  36  65  83 110 157 208 238 277 355
#     4  11  21  40  62  89 116 157 203 249 291 355
#     4  11  26  37  55  94 128 147 189 258 311 340
#     4  10  20  39  65  82 118 157 200 233 295 365
#     4  11  20  37  60  88 117 154 197 246 291 348
#     4   9  17  36  63  87 104 153 209 235 265 356
#     4  10  20  37  62  85 113 161 204 233 284 365
#
# _framework density 20.101144000000001
#
# number of rings (size 3 to 8) (size 9 to 14) (size 15 to 20)
#    0.000    1.714    4.286    2.571    2.000    0.000 
#    5.143    0.000    0.000    0.000    0.000    0.000 
#    0.000    0.000    0.000    0.000    0.000    0.000 
#
# Total GULP energy -347001.004178 kJ/mol
# GULP energy per Si atom -12392.893006 kJ/mol
# Density = 2.005539 g / cm^3
# Si number density = 20.101144 Si / 1000 Ang^3
#
#
#
# Elastic Constant Matrix: (Units=GPa)
#
#
# Indices 1 2 3 4 5 6 
#
# 1 74.4016 0.8885 9.3932 0.0000 0.0000 0.0000
# 2 0.8885 49.3657 18.9842 0.0000 0.0000 0.0000
# 3 9.3932 18.9842 73.5204 0.0000 0.0000 0.0000
# 4 0.0000 0.0000 0.0000 23.1423 0.0000 0.0000
# 5 0.0000 0.0000 0.0000 0.0000 19.0639 0.0000
# 6 0.0000 0.0000 0.0000 0.0000 0.0000 19.3444
#
#
#
# Elastic Compliance Matrix: (Units=1/GPa)
#
#
# Indices 1 2 3 4 5 6 
#
# 1 0.013671 0.000473 -0.001869 0.000000 0.000000 0.000000
# 2 0.000473 0.022507 -0.005872 0.000000 0.000000 0.000000
# 3 -0.001869 -0.005872 0.015357 0.000000 0.000000 0.000000
# 4 0.000000 0.000000 0.000000 0.043211 0.000000 0.000000
# 5 0.000000 0.000000 0.000000 0.000000 0.052455 0.000000
# 6 0.000000 0.000000 0.000000 0.000000 0.000000 0.051694
#
#
# Mechanical properties :
#
#
# Convention : Reuss Voigt Hill
#
# Bulk Modulus (GPa) = 27.02846 28.42436 27.72641
# Shear Modulus (GPa) = 22.14710 23.51160 22.82935
#
# Velocity S-wave (km/s) = 3.32291 3.42375 3.37371
# Velocity P-wave (km/s) = 5.31016 5.45901 5.38510
#
# Compressibility (1/GPa) = 0.03699804
#
# Stress axis : x y z
#
# Youngs Moduli (GPa) = 73.14837 44.43140 65.11841
#
# Poissons Ratio (x) = -0.02100 0.12168
# Poissons Ratio (y) = -0.03457 0.38237
# Poissons Ratio (z) = 0.13669 0.26090
#
# Static dielectric constant tensor:
#      x y z
#    x 3.988450 0.000000 0.000000 
#    y 0.000000 3.657240 0.000000 
#    z 0.000000 0.000000 3.263660 
# 
# 
# High freq. dielectric constant tensor:
#      x y z
#    x 1.807340 0.000000 0.000000 
#    y 0.000000 1.771680 0.000000 
#    z 0.000000 0.000000 1.744670 
# 
# From -- ./inp_files/3358.got.cif
#   From: 2010.03.12/outbox.cif.g09.slc.cpg/sg33_2_cif.got.tgz:3358.got - 2010.04.14 01:49:19.
