data_PCOD8170052
_publ_section_title
;
Structure prediction by ZEFSAII (Michael W. Deem and Ramdas Pophale) SiO2 
 PCOD8170052
Probable space group: P M N 21
;
_chemical_formula_sum "Si O2"
_cell_formula_units_Z 32
_cell_length_a 9.078650
_cell_length_b 9.253699
_cell_length_c 20.711998
_cell_angle_alpha 90.000000
_cell_angle_beta 90.000000
_cell_angle_gamma 90.000000
_cell_volume 1740.037620
_symmetry_space_group_name_H-M "P M N 21"
_symmetry_group_IT_number 31
_symmetry_cell_setting 'orthorhombic'
loop_
_space_group_symop_operation_xyz
x,y,z
1/2-x,-y,1/2+z
-x,y,z
1/2+x,-y,1/2+z
loop_
_atom_site_type_symbol
_atom_site_label
_atom_site_fract_x
_atom_site_fract_y
_atom_site_fract_z
Si Si1 0.831364 0.650808 0.736420
Si Si2 0.172224 0.652693 0.237060
Si Si3 0.165724 0.663645 0.016205
Si Si4 0.830433 0.322029 0.005555
Si Si5 0.326767 0.155561 0.119284
Si Si6 0.830700 0.656550 0.380916
Si Si7 0.333786 0.368751 0.377377
Si Si8 0.826539 0.174389 0.626413
O O1 0.737280 0.506659 0.727239
O O2 0.776632 0.772870 0.686968
O O3 0.816089 0.716686 0.809498
O O4 0.000000 0.608489 0.721940
O O5 0.200939 0.717261 0.308941
O O6 0.247192 0.762870 0.188650
O O7 0.000000 0.641540 0.221918
O O8 0.196638 0.492421 0.014799
O O9 0.282098 0.739796 0.062128
O O10 0.000000 0.694286 0.041284
O O11 0.186170 0.726273 0.942707
O O12 0.749812 0.238112 0.061638
O O13 0.000000 0.280029 0.007692
O O14 0.766584 0.267724 0.936446
O O15 0.500000 0.167549 0.109044
O O16 0.274851 0.990362 0.119307
O O17 0.791882 0.488318 0.377764
O O18 0.000000 0.675194 0.400332
O O19 0.500000 0.438313 0.380564
O O20 0.000000 0.188331 0.636187
#
# Coordination Sequence:
#
# PCOD8170052 Si02
#       8
#     4   4   4   4   4   4   4   4
#     4   9  17  33  57  79 100 130 167 209 257 304
#     4  10  20  34  54  80 106 132 166 209 255 304
#     4   9  18  33  53  78 105 130 164 211 257 305
#     4  10  20  34  55  80 103 131 169 212 256 304
#     4  10  22  37  51  72 104 139 175 214 254 299
#     4   9  17  30  51  78 106 132 161 204 255 304
#     4   8  15  29  51  78 103 126 161 210 257 302
#     4  11  23  36  50  71 103 142 179 213 251 300
#
# _framework density 18.390405999999999
#
# number of rings (size 3 to 8) (size 9 to 14) (size 15 to 20)
#    0.000    2.500    0.000    3.000    0.000    7.500 
#    0.000    1.250    0.000    1.500    0.000    0.000 
#    0.000    0.000    0.000    0.000    0.000    0.000 
#
# Total GULP energy -396615.630276 kJ/mol
# GULP energy per Si atom -12394.238446 kJ/mol
# Density = 1.834855 g / cm^3
# Si number density = 18.390406 Si / 1000 Ang^3
#
#
#
# Elastic Constant Matrix: (Units=GPa)
#
#
# Indices 1 2 3 4 5 6 
#
# 1 53.4995 35.5671 49.7691 0.0000 0.0000 0.0000
# 2 35.5671 66.7006 55.8484 0.0000 0.0000 0.0000
# 3 49.7691 55.8484 161.8728 0.0000 0.0000 0.0000
# 4 0.0000 0.0000 0.0000 -3.7298 0.0000 0.0000
# 5 0.0000 0.0000 0.0000 0.0000 29.2764 0.0000
# 6 0.0000 0.0000 0.0000 0.0000 0.0000 19.1048
#
#
#
# Elastic Compliance Matrix: (Units=1/GPa)
#
#
# Indices 1 2 3 4 5 6 
#
# 1 0.032193 -0.012486 -0.005590 0.000000 0.000000 0.000000
# 2 -0.012486 0.025925 -0.005106 0.000000 0.000000 0.000000
# 3 -0.005590 -0.005106 0.009658 0.000000 0.000000 0.000000
# 4 0.000000 0.000000 0.000000 -0.268113 0.000000 0.000000
# 5 0.000000 0.000000 0.000000 0.000000 0.034157 0.000000
# 6 0.000000 0.000000 0.000000 0.000000 0.000000 0.052343
#
#
# Mechanical properties :
#
#
# Convention : Reuss Voigt Hill
#
# Bulk Modulus (GPa) = 46.70106 62.71577 54.70842
# Shear Modulus (GPa) = -82.86848 18.32285 -32.27281
#
# Velocity S-wave (km/s) = -6.72001 3.15989 -4.19366
# Velocity P-wave (km/s) = 5.89593 6.89127 2.52266
#
# Compressibility (1/GPa) = 0.02141279
#
# Stress axis : x y z
#
# Youngs Moduli (GPa) = 31.06287 38.57251 103.54107
#
# Poissons Ratio (x) = 0.48160 0.57882
# Poissons Ratio (y) = 0.38784 0.52865
# Poissons Ratio (z) = 0.17365 0.19694
#
# Static dielectric constant tensor:
#      x y z
#    x 3.433750 0.000000 0.000000 
#    y 0.000000 3.024200 0.000000 
#    z 0.000000 0.000000 3.863510 
# 
# 
# High freq. dielectric constant tensor:
#      x y z
#    x 1.719780 0.000000 0.000000 
#    y 0.000000 1.663590 0.000000 
#    z 0.000000 0.000000 1.740490 
# 
# From -- ./inp_files/6235.got.cif
#   From: 2010.03.12/outbox.cif.g09.slc.cpg/sg31_4_cif.got.tgz:6235.got - 2010.04.14 01:42:59.
