data_PCOD8170230
_publ_section_title
;
Structure prediction by ZEFSAII (Michael W. Deem and Ramdas Pophale) SiO2 
 PCOD8170230
Probable space group: P M N 21
;
_chemical_formula_sum "Si O2"
_cell_formula_units_Z 32
_cell_length_a 8.935652
_cell_length_b 15.616559
_cell_length_c 10.707443
_cell_angle_alpha 90.000000
_cell_angle_beta 90.000000
_cell_angle_gamma 90.000000
_cell_volume 1494.160889
_symmetry_space_group_name_H-M "P M N 21"
_symmetry_group_IT_number 31
_symmetry_cell_setting 'orthorhombic'
loop_
_space_group_symop_operation_xyz
x,y,z
1/2-x,-y,1/2+z
-x,y,z
1/2+x,-y,1/2+z
loop_
_atom_site_type_symbol
_atom_site_label
_atom_site_fract_x
_atom_site_fract_y
_atom_site_fract_z
Si Si1 0.335288 0.359635 0.375000
Si Si2 0.174272 0.236381 0.992900
Si Si3 0.834711 0.823346 0.990335
Si Si4 0.828176 0.398035 0.145301
Si Si5 0.174607 0.250784 0.710432
Si Si6 0.674488 0.568769 0.094363
Si Si7 0.823296 0.038785 0.338917
Si Si8 0.323119 0.071239 0.081269
O O1 0.500000 0.389373 0.328009
O O2 0.350745 0.273438 0.450509
O O3 0.216655 0.342713 0.265711
O O4 0.268024 0.431406 0.466358
O O5 0.225052 0.229212 0.850084
O O6 0.000000 0.214838 0.012367
O O7 0.206369 0.335028 0.029995
O O8 0.268058 0.169522 0.076220
O O9 0.758511 0.820178 0.126555
O O10 0.000000 0.866231 0.999151
O O11 0.731897 0.869901 0.889029
O O12 0.722372 0.480633 0.158689
O O13 0.000000 0.426952 0.147282
O O14 0.215908 0.349528 0.680171
O O15 0.000000 0.235978 0.689644
O O16 0.500000 0.568014 0.063012
O O17 0.748389 0.022515 0.202259
O O18 0.000000 0.038770 0.319539
O O19 0.775153 0.972325 0.449152
O O20 0.500000 0.068817 0.100145
#
# Coordination Sequence:
#
# PCOD8170230 Si02
#       8
#     4   4   4   4   4   4   4   4
#     4  10  21  38  58  82 116 154 199 253 306 366
#     4  10  23  42  64  90 127 172 212 262 323 384
#     4  10  21  38  64  94 123 160 206 259 313 373
#     4  11  23  37  58  87 120 160 205 253 312 376
#     4   9  20  39  62  90 126 168 212 259 317 382
#     4  10  21  37  59  88 120 159 205 256 310 372
#     4  11  25  44  68  98 133 173 213 264 326 389
#     4  11  26  45  67  99 133 170 220 272 323 388
#
# _framework density 21.416703999999999
#
# number of rings (size 3 to 8) (size 9 to 14) (size 15 to 20)
#    0.000    1.750    0.000    3.000    3.500    7.500 
#    0.000    0.000    0.000    0.000    0.000    0.000 
#    0.000    0.000    0.000    0.000    0.000    0.000 
#
# Total GULP energy -396731.575351 kJ/mol
# GULP energy per Si atom -12397.861730 kJ/mol
# Density = 2.136796 g / cm^3
# Si number density = 21.416704 Si / 1000 Ang^3
#
#
#
# Elastic Constant Matrix: (Units=GPa)
#
#
# Indices 1 2 3 4 5 6 
#
# 1 86.1071 39.2690 43.4086 0.0000 0.0000 0.0000
# 2 39.2690 65.0606 25.4577 0.0000 0.0000 0.0000
# 3 43.4086 25.4577 121.2343 0.0000 0.0000 0.0000
# 4 0.0000 0.0000 0.0000 24.3186 0.0000 0.0000
# 5 0.0000 0.0000 0.0000 0.0000 37.6054 0.0000
# 6 0.0000 0.0000 0.0000 0.0000 0.0000 28.0656
#
#
#
# Elastic Compliance Matrix: (Units=1/GPa)
#
#
# Indices 1 2 3 4 5 6 
#
# 1 0.018071 -0.009125 -0.004554 0.000000 0.000000 0.000000
# 2 -0.009125 0.021354 -0.001217 0.000000 0.000000 0.000000
# 3 -0.004554 -0.001217 0.010135 0.000000 0.000000 0.000000
# 4 0.000000 0.000000 0.000000 0.041121 0.000000 0.000000
# 5 0.000000 0.000000 0.000000 0.000000 0.026592 0.000000
# 6 0.000000 0.000000 0.000000 0.000000 0.000000 0.035631
#
#
# Mechanical properties :
#
#
# Convention : Reuss Voigt Hill
#
# Bulk Modulus (GPa) = 50.58839 54.29697 52.44268
# Shear Modulus (GPa) = 26.41530 28.94904 27.68217
#
# Velocity S-wave (km/s) = 3.51579 3.68054 3.59911
# Velocity P-wave (km/s) = 6.33666 6.59314 6.46617
#
# Compressibility (1/GPa) = 0.01976738
#
# Stress axis : x y z
#
# Youngs Moduli (GPa) = 55.33799 46.82949 98.67129
#
# Poissons Ratio (x) = 0.42732 0.44937
# Poissons Ratio (y) = 0.50496 0.12007
# Poissons Ratio (z) = 0.25202 0.05698
#
# Static dielectric constant tensor:
#      x y z
#    x 4.011730 0.000000 0.000000 
#    y 0.000000 3.677870 0.000000 
#    z 0.000000 0.000000 3.991720 
# 
# 
# High freq. dielectric constant tensor:
#      x y z
#    x 1.844440 0.000000 0.000000 
#    y 0.000000 1.834020 0.000000 
#    z 0.000000 0.000000 1.847100 
# 
# From -- ./inp_files/3733.got.cif
#   From: 2010.03.12/outbox.cif.g09.slc.cpg/sg31_2_cif.got.tgz:3733.got - 2010.04.14 01:42:59.
