data_PCOD8170607
_publ_section_title
;
Structure prediction by ZEFSAII (Michael W. Deem and Ramdas Pophale) SiO2 
 PCOD8170607
Probable space group: P B A 2
;
_chemical_formula_sum "Si O2"
_cell_formula_units_Z 32
_cell_length_a 11.540502
_cell_length_b 14.124800
_cell_length_c 8.581859
_cell_angle_alpha 90.000000
_cell_angle_beta 90.000000
_cell_angle_gamma 90.000000
_cell_volume 1398.905516
_symmetry_space_group_name_H-M "P B A 2"
_symmetry_group_IT_number 32
_symmetry_cell_setting 'orthorhombic'
loop_
_space_group_symop_operation_xyz
x,y,z
-x,-y,z
1/2-x,1/2+y,z
1/2+x,1/2-y,z
loop_
_atom_site_type_symbol
_atom_site_label
_atom_site_fract_x
_atom_site_fract_y
_atom_site_fract_z
Si Si1 0.618631 0.543918 0.242030
Si Si2 0.039369 0.355314 0.178462
Si Si3 0.185294 0.090228 0.792492
Si Si4 0.130140 0.728658 0.720536
Si Si5 0.198061 0.917165 0.576421
Si Si6 0.178889 0.534119 0.079712
Si Si7 0.510841 0.682232 0.997861
Si Si8 0.044973 0.395955 0.526413
O O1 0.500000 0.500000 0.302858
O O2 0.682948 0.585903 0.390931
O O3 0.700343 0.460775 0.174682
O O4 0.595367 0.618950 0.104246
O O5 0.126776 0.429142 0.099364
O O6 0.058577 0.342657 0.362247
O O7 0.906954 0.387094 0.146985
O O8 0.065050 0.252132 0.105914
O O9 0.240122 0.184295 0.713412
O O10 0.070959 0.116117 0.890993
O O11 0.152695 0.013038 0.660609
O O12 0.290265 0.049916 0.899000
O O13 0.124500 0.829435 0.637069
O O14 0.091704 0.748308 0.896956
O O15 0.041887 0.657585 0.639165
O O16 0.333037 0.903066 0.614916
O O17 0.000000 0.500000 0.485892
#
# Coordination Sequence:
#
# PCOD8170607 Si02
#       8
#     4   4   4   4   4   4   4   4
#     4  12  26  50  74 103 146 200 248 305 381 455
#     4  11  24  45  76 105 145 191 259 307 370 443
#     4  12  27  47  73 109 151 195 243 316 376 458
#     4  12  28  45  75 110 146 199 246 308 392 445
#     4  12  28  49  76 106 153 194 250 315 384 453
#     4  11  23  45  73 104 138 196 241 306 373 439
#     4  12  28  47  70 109 147 192 254 314 373 458
#     4  12  23  49  75 111 150 195 257 318 376 452
#
# _framework density 22.875028
#
# number of rings (size 3 to 8) (size 9 to 14) (size 15 to 20)
#    0.000    0.250    6.250    2.250    7.000    0.000 
#    4.500    0.000    0.000    0.000    0.000    0.000 
#    0.000    0.000    0.000    0.000    0.000    0.000 
#
# Total GULP energy -396935.255946 kJ/mol
# GULP energy per Si atom -12404.226748 kJ/mol
# Density = 2.282296 g / cm^3
# Si number density = 22.875028 Si / 1000 Ang^3
#
#
#
# Elastic Constant Matrix: (Units=GPa)
#
#
# Indices 1 2 3 4 5 6 
#
# 1 93.0698 24.1251 18.9793 0.0000 0.0000 0.0000
# 2 24.1251 103.0703 50.2744 0.0000 0.0000 0.0000
# 3 18.9793 50.2744 115.9025 0.0000 0.0000 0.0000
# 4 0.0000 0.0000 0.0000 36.4572 0.0000 0.0000
# 5 0.0000 0.0000 0.0000 0.0000 42.2418 0.0000
# 6 0.0000 0.0000 0.0000 0.0000 0.0000 31.2297
#
#
#
# Elastic Compliance Matrix: (Units=1/GPa)
#
#
# Indices 1 2 3 4 5 6 
#
# 1 0.011514 -0.002252 -0.000909 0.000000 0.000000 0.000000
# 2 -0.002252 0.012746 -0.005160 0.000000 0.000000 0.000000
# 3 -0.000909 -0.005160 0.011015 0.000000 0.000000 0.000000
# 4 0.000000 0.000000 0.000000 0.027429 0.000000 0.000000
# 5 0.000000 0.000000 0.000000 0.000000 0.023673 0.000000
# 6 0.000000 0.000000 0.000000 0.000000 0.000000 0.032021
#
#
# Mechanical properties :
#
#
# Convention : Reuss Voigt Hill
#
# Bulk Modulus (GPa) = 53.66600 55.42225 54.54412
# Shear Modulus (GPa) = 35.39816 36.56333 35.98075
#
# Velocity S-wave (km/s) = 3.93804 4.00233 3.97032
# Velocity P-wave (km/s) = 6.64748 6.75567 6.70179
#
# Compressibility (1/GPa) = 0.01863377
#
# Stress axis : x y z
#
# Youngs Moduli (GPa) = 86.85381 78.45556 90.78538
#
# Poissons Ratio (x) = 0.17666 0.08249
# Poissons Ratio (y) = 0.19557 0.46846
# Poissons Ratio (z) = 0.07892 0.40484
#
# Static dielectric constant tensor:
#      x y z
#    x 4.140970 0.000000 0.000000 
#    y 0.000000 4.100970 0.000000 
#    z 0.000000 0.000000 4.138860 
# 
# 
# High freq. dielectric constant tensor:
#      x y z
#    x 1.908900 0.000000 0.000000 
#    y 0.000000 1.902750 0.000000 
#    z 0.000000 0.000000 1.910530 
# 
# From -- ./inp_files/2875.got.cif
#   From: 2010.03.12/outbox.cif.g09.slc.cpg/sg32_2_cif.got.tgz:2875.got - 2010.04.14 01:46:39.
