data_PCOD8170254
_publ_section_title
;
Structure prediction by ZEFSAII (Michael W. Deem and Ramdas Pophale) SiO2 
 PCOD8170254
Probable space group: P M N 21
;
_chemical_formula_sum "Si O2"
_cell_formula_units_Z 32
_cell_length_a 8.720140
_cell_length_b 11.957695
_cell_length_c 15.355172
_cell_angle_alpha 90.000000
_cell_angle_beta 90.000000
_cell_angle_gamma 90.000000
_cell_volume 1601.126387
_symmetry_space_group_name_H-M "P M N 21"
_symmetry_group_IT_number 31
_symmetry_cell_setting 'orthorhombic'
loop_
_space_group_symop_operation_xyz
x,y,z
1/2-x,-y,1/2+z
-x,y,z
1/2+x,-y,1/2+z
loop_
_atom_site_type_symbol
_atom_site_label
_atom_site_fract_x
_atom_site_fract_y
_atom_site_fract_z
Si Si1 0.680157 0.120651 0.230390
Si Si2 0.821272 0.730998 0.573941
Si Si3 0.823322 0.265545 0.377860
Si Si4 0.178134 0.257769 0.575303
Si Si5 0.319345 0.120487 0.726513
Si Si6 0.821091 0.719470 0.380353
Si Si7 0.680050 0.504369 0.132150
Si Si8 0.678729 0.492099 0.333434
O O1 0.500000 0.100197 0.223351
O O2 0.747214 0.180854 0.143395
O O3 0.714636 0.197119 0.313654
O O4 0.761686 0.003461 0.242512
O O5 0.792812 0.774221 0.475717
O O6 0.748698 0.606700 0.587079
O O7 0.000000 0.720601 0.595998
O O8 0.797246 0.220850 0.475742
O O9 0.778944 0.395493 0.377142
O O10 0.000000 0.251069 0.350005
O O11 0.261191 0.166950 0.634880
O O12 0.249971 0.381611 0.591605
O O13 0.000000 0.257663 0.601229
O O14 0.500000 0.119098 0.726081
O O15 0.259501 0.196339 0.806740
O O16 0.722556 0.607340 0.379063
O O17 0.000000 0.690609 0.367004
O O18 0.500000 0.507214 0.115779
O O19 0.723572 0.500307 0.232872
O O20 0.500000 0.466202 0.346610
#
# Coordination Sequence:
#
# PCOD8170254 Si02
#       8
#     4   4   4   4   4   4   4   4
#     4  11  23  41  64  86 114 159 206 247 297 358
#     4   9  18  36  61  86 112 150 196 235 283 353
#     4  11  23  39  62  90 121 156 199 248 298 352
#     4  10  21  39  63  87 116 160 201 238 294 364
#     4  11  24  40  59  88 122 154 197 256 303 345
#     4  10  21  38  61  87 117 153 194 241 294 350
#     4   9  16  31  58  87 114 146 190 236 282 348
#     4  11  20  34  60  91 122 154 193 239 293 358
#
# _framework density 19.985928999999999
#
# number of rings (size 3 to 8) (size 9 to 14) (size 15 to 20)
#    0.000    1.750    2.500    2.250    0.000    4.500 
#    0.000    3.750    0.000    0.000    0.000    0.000 
#    0.000    0.000    0.000    0.000    0.000    0.000 
#
# Total GULP energy -396852.973970 kJ/mol
# GULP energy per Si atom -12401.655437 kJ/mol
# Density = 1.994044 g / cm^3
# Si number density = 19.985929 Si / 1000 Ang^3
#
#
#
# Elastic Constant Matrix: (Units=GPa)
#
#
# Indices 1 2 3 4 5 6 
#
# 1 31.3381 12.7597 27.7180 0.0000 0.0000 0.0000
# 2 12.7597 111.9157 41.4700 0.0000 0.0000 0.0000
# 3 27.7180 41.4700 113.5124 0.0000 0.0000 0.0000
# 4 0.0000 0.0000 0.0000 15.4764 0.0000 0.0000
# 5 0.0000 0.0000 0.0000 0.0000 25.9435 0.0000
# 6 0.0000 0.0000 0.0000 0.0000 0.0000 32.3177
#
#
#
# Elastic Compliance Matrix: (Units=1/GPa)
#
#
# Indices 1 2 3 4 5 6 
#
# 1 0.040819 -0.001111 -0.009562 0.000000 0.000000 0.000000
# 2 -0.001111 0.010365 -0.003515 0.000000 0.000000 0.000000
# 3 -0.009562 -0.003515 0.012429 0.000000 0.000000 0.000000
# 4 0.000000 0.000000 0.000000 0.064615 0.000000 0.000000
# 5 0.000000 0.000000 0.000000 0.000000 0.038545 0.000000
# 6 0.000000 0.000000 0.000000 0.000000 0.000000 0.030943
#
#
# Mechanical properties :
#
#
# Convention : Reuss Voigt Hill
#
# Bulk Modulus (GPa) = 28.37921 46.74020 37.55971
# Shear Modulus (GPa) = 21.02284 26.40209 23.71247
#
# Velocity S-wave (km/s) = 3.24679 3.63855 3.44824
# Velocity P-wave (km/s) = 5.31846 6.41010 5.88962
#
# Compressibility (1/GPa) = 0.03523706
#
# Stress axis : x y z
#
# Youngs Moduli (GPa) = 24.49815 96.48300 80.45922
#
# Poissons Ratio (x) = 0.10718 0.76932
# Poissons Ratio (y) = 0.02721 0.28284
# Poissons Ratio (z) = 0.23424 0.33916
#
# Static dielectric constant tensor:
#      x y z
#    x 3.358890 0.000000 0.000000 
#    y 0.000000 3.681730 0.000000 
#    z 0.000000 0.000000 3.753510 
# 
# 
# High freq. dielectric constant tensor:
#      x y z
#    x 1.753310 0.000000 0.000000 
#    y 0.000000 1.779450 0.000000 
#    z 0.000000 0.000000 1.793120 
# 
# From -- ./inp_files/4945.got.cif
#   From: 2010.03.12/outbox.cif.g09.slc.cpg/sg31_3_cif.got.tgz:4945.got - 2010.04.14 01:42:59.
