data_PCOD8170270
_publ_section_title
;
Structure prediction by ZEFSAII (Michael W. Deem and Ramdas Pophale) SiO2 
 PCOD8170270
Probable space group: P M N 21
;
_chemical_formula_sum "Si O2"
_cell_formula_units_Z 32
_cell_length_a 17.798784
_cell_length_b 5.625526
_cell_length_c 14.012732
_cell_angle_alpha 90.000000
_cell_angle_beta 90.000000
_cell_angle_gamma 90.000000
_cell_volume 1403.060134
_symmetry_space_group_name_H-M "P M N 21"
_symmetry_group_IT_number 31
_symmetry_cell_setting 'orthorhombic'
loop_
_space_group_symop_operation_xyz
x,y,z
1/2-x,-y,1/2+z
-x,y,z
1/2+x,-y,1/2+z
loop_
_atom_site_type_symbol
_atom_site_label
_atom_site_fract_x
_atom_site_fract_y
_atom_site_fract_z
Si Si1 0.416994 0.861120 0.175270
Si Si2 0.291796 0.512072 0.909621
Si Si3 0.583165 0.168776 0.354904
Si Si4 0.181854 0.803415 0.024689
Si Si5 0.585053 0.767092 0.817025
Si Si6 0.688610 0.165683 0.067337
Si Si7 0.192066 0.515606 0.737823
Si Si8 0.914961 0.737626 0.206418
O O1 0.500000 0.763915 0.145939
O O2 0.348756 0.677189 0.171511
O O3 0.420807 0.948231 0.283815
O O4 0.392318 0.061936 0.099646
O O5 0.219733 0.580275 0.972471
O O6 0.351218 0.732973 0.899052
O O7 0.261593 0.425995 0.804353
O O8 0.331549 0.303617 0.969325
O O9 0.500000 0.266617 0.377348
O O10 0.621483 0.079130 0.452664
O O11 0.629555 0.379062 0.307346
O O12 0.141780 0.712266 0.119199
O O13 0.246622 0.983606 0.047012
O O14 0.500000 0.786284 0.857620
O O15 0.592800 0.510783 0.763225
O O16 0.604124 0.013332 0.761923
O O17 0.723365 0.306695 0.157967
O O18 0.000000 0.761324 0.168413
#
# Coordination Sequence:
#
# PCOD8170270 Si02
#       8
#     4   4   4   4   4   4   4   4
#     4  10  21  39  62  87 121 169 212 261 326 391
#     4  11  25  39  64  98 129 178 222 277 340 401
#     4   9  19  37  61  90 123 160 203 260 323 394
#     4  11  23  38  62  95 131 163 220 274 343 403
#     4  10  24  46  70  96 133 185 234 281 339 406
#     4  11  24  39  60  93 126 167 217 269 334 391
#     4  10  21  40  62  89 129 163 210 266 329 396
#     4  10  23  44  71  98 132 179 228 286 346 406
#
# _framework density 22.807290999999999
#
# number of rings (size 3 to 8) (size 9 to 14) (size 15 to 20)
#    0.000    1.750    0.000    3.000    7.000    1.000 
#    0.000    1.875    0.000    0.000    0.000    0.000 
#    0.000    0.000    0.000    0.000    0.000    0.000 
#
# Total GULP energy -396492.113490 kJ/mol
# GULP energy per Si atom -12390.378547 kJ/mol
# Density = 2.275538 g / cm^3
# Si number density = 22.807291 Si / 1000 Ang^3
#
#
#
# Elastic Constant Matrix: (Units=GPa)
#
#
# Indices 1 2 3 4 5 6 
#
# 1 78.0569 -2.3393 26.1293 0.0000 0.0000 0.0000
# 2 -2.3393 79.3915 16.4541 0.0000 0.0000 0.0000
# 3 26.1293 16.4541 77.9072 0.0000 0.0000 0.0000
# 4 0.0000 0.0000 0.0000 28.3706 0.0000 0.0000
# 5 0.0000 0.0000 0.0000 0.0000 24.3513 0.0000
# 6 0.0000 0.0000 0.0000 0.0000 0.0000 26.2246
#
#
#
# Elastic Compliance Matrix: (Units=1/GPa)
#
#
# Indices 1 2 3 4 5 6 
#
# 1 0.014603 0.001511 -0.005217 0.000000 0.000000 0.000000
# 2 0.001511 0.013329 -0.003322 0.000000 0.000000 0.000000
# 3 -0.005217 -0.003322 0.015287 0.000000 0.000000 0.000000
# 4 0.000000 0.000000 0.000000 0.035248 0.000000 0.000000
# 5 0.000000 0.000000 0.000000 0.000000 0.041066 0.000000
# 6 0.000000 0.000000 0.000000 0.000000 0.000000 0.038132
#
#
# Mechanical properties :
#
#
# Convention : Reuss Voigt Hill
#
# Bulk Modulus (GPa) = 34.28889 35.09374 34.69131
# Shear Modulus (GPa) = 27.55727 28.79672 28.17699
#
# Velocity S-wave (km/s) = 3.47978 3.55718 3.51869
# Velocity P-wave (km/s) = 5.58677 5.68259 5.63488
#
# Compressibility (1/GPa) = 0.02916397
#
# Stress axis : x y z
#
# Youngs Moduli (GPa) = 68.48004 75.02525 65.41474
#
# Poissons Ratio (x) = -0.11340 0.34126
# Poissons Ratio (y) = -0.10351 0.21731
# Poissons Ratio (z) = 0.35725 0.24923
#
# Static dielectric constant tensor:
#      x y z
#    x 5.093720 0.000000 0.000000 
#    y 0.000000 4.023680 0.000000 
#    z 0.000000 0.000000 4.261430 
# 
# 
# High freq. dielectric constant tensor:
#      x y z
#    x 1.917560 0.000000 0.000000 
#    y 0.000000 1.886600 0.000000 
#    z 0.000000 0.000000 1.899990 
# 
# From -- ./inp_files/5510.got.cif
#   From: 2010.03.12/outbox.cif.g09.slc.cpg/sg31_3_cif.got.tgz:5510.got - 2010.04.14 01:42:59.
