data_PCOD8170468
_publ_section_title
;
Structure prediction by ZEFSAII (Michael W. Deem and Ramdas Pophale) SiO2 
 PCOD8170468
Probable space group: P B A 2
;
_chemical_formula_sum "Si O2"
_cell_formula_units_Z 20
_cell_length_a 12.064738
_cell_length_b 12.747591
_cell_length_c 5.095909
_cell_angle_alpha 90.000000
_cell_angle_beta 90.000000
_cell_angle_gamma 90.000000
_cell_volume 783.732181
_symmetry_space_group_name_H-M "P B A 2"
_symmetry_group_IT_number 32
_symmetry_cell_setting 'orthorhombic'
loop_
_space_group_symop_operation_xyz
x,y,z
-x,-y,z
1/2-x,1/2+y,z
1/2+x,1/2-y,z
loop_
_atom_site_type_symbol
_atom_site_label
_atom_site_fract_x
_atom_site_fract_y
_atom_site_fract_z
Si Si1 0.334247 0.794471 0.522420
Si Si2 0.791142 0.253796 0.027387
Si Si3 0.948122 0.387186 0.332548
Si Si4 0.753948 0.974877 0.587319
Si Si5 0.373896 0.482599 0.083354
O O1 0.292596 0.732660 0.269112
O O2 0.466693 0.808378 0.480066
O O3 0.284696 0.907388 0.555944
O O4 0.288003 0.727143 0.770454
O O5 0.893870 0.335627 0.069246
O O6 0.844227 0.138608 0.042872
O O7 0.851425 0.400366 0.546098
O O8 0.000000 0.500000 0.246393
O O9 0.799737 0.951276 0.877049
O O10 0.849805 0.965854 0.366600
O O11 0.500000 0.500000 0.009919
#
# Coordination Sequence:
#
# PCOD8170468 Si02
#       5
#     4   4   4   4   4
#     4   9  21  40  61  89 132 172 215 280 345 401
#     4  10  22  40  61  94 132 171 223 281 346 419
#     4  10  22  43  70  99 134 182 236 294 349 413
#     4   9  20  37  61  92 124 168 227 273 325 408
#     4  10  20  38  62  92 131 173 216 272 341 411
#
# _framework density 25.518923000000001
#
# number of rings (size 3 to 8) (size 9 to 14) (size 15 to 20)
#    0.000    2.400    0.000    0.600    0.000    6.400 
#    0.000   17.000    0.000    0.000    0.000    0.000 
#    0.000    0.000    0.000    0.000    0.000    0.000 
#
# Total GULP energy -247839.815246 kJ/mol
# GULP energy per Si atom -12391.990762 kJ/mol
# Density = 2.546084 g / cm^3
# Si number density = 25.518923 Si / 1000 Ang^3
#
#
#
# Elastic Constant Matrix: (Units=GPa)
#
#
# Indices 1 2 3 4 5 6 
#
# 1 176.4527 46.9164 68.1435 0.0000 0.0000 0.0000
# 2 46.9164 81.4076 10.9503 0.0000 0.0000 0.0000
# 3 68.1435 10.9503 178.8938 0.0000 0.0000 0.0000
# 4 0.0000 0.0000 0.0000 19.3377 0.0000 0.0000
# 5 0.0000 0.0000 0.0000 0.0000 34.1014 0.0000
# 6 0.0000 0.0000 0.0000 0.0000 0.0000 39.3588
#
#
#
# Elastic Compliance Matrix: (Units=1/GPa)
#
#
# Indices 1 2 3 4 5 6 
#
# 1 0.007821 -0.004141 -0.002726 0.000000 0.000000 0.000000
# 2 -0.004141 0.014578 0.000685 0.000000 0.000000 0.000000
# 3 -0.002726 0.000685 0.006586 0.000000 0.000000 0.000000
# 4 0.000000 0.000000 0.000000 0.051713 0.000000 0.000000
# 5 0.000000 0.000000 0.000000 0.000000 0.029324 0.000000
# 6 0.000000 0.000000 0.000000 0.000000 0.000000 0.025407
#
#
# Mechanical properties :
#
#
# Convention : Reuss Voigt Hill
#
# Bulk Modulus (GPa) = 60.15988 76.53050 68.34519
# Shear Modulus (GPa) = 32.60885 39.27583 35.94234
#
# Velocity S-wave (km/s) = 3.57855 3.92738 3.75701
# Velocity P-wave (km/s) = 6.37970 7.11481 6.75726
#
# Compressibility (1/GPa) = 0.01662237
#
# Stress axis : x y z
#
# Youngs Moduli (GPa) = 127.86481 68.59636 151.83230
#
# Poissons Ratio (x) = 0.28403 0.41383
# Poissons Ratio (y) = 0.52944 -0.10399
# Poissons Ratio (z) = 0.34851 -0.04698
#
# Static dielectric constant tensor:
#      x y z
#    x 4.656050 0.000000 0.000000 
#    y 0.000000 4.947030 0.000000 
#    z 0.000000 0.000000 4.940700 
# 
# 
# High freq. dielectric constant tensor:
#      x y z
#    x 2.014590 0.000000 0.000000 
#    y 0.000000 2.048790 0.000000 
#    z 0.000000 0.000000 2.015270 
# 
# From -- ./inp_files/797.got.cif
#   From: 2010.03.12/outbox.cif.g09.slc.cpg/sg32_1_cif.got.tgz:797.got - 2010.04.14 01:46:39.
