data_PCOD8170929
_publ_section_title
;
Structure prediction by ZEFSAII (Michael W. Deem and Ramdas Pophale) SiO2 
 PCOD8170929
Probable space group: P N A 21
;
_chemical_formula_sum "Si O2"
_cell_formula_units_Z 28
_cell_length_a 9.640311
_cell_length_b 14.732435
_cell_length_c 10.008244
_cell_angle_alpha 90.000000
_cell_angle_beta 90.000000
_cell_angle_gamma 90.000000
_cell_volume 1421.423408
_symmetry_space_group_name_H-M "P N A 21"
_symmetry_group_IT_number 33
_symmetry_cell_setting 'orthorhombic'
loop_
_space_group_symop_operation_xyz
x,y,z
-x,-y,1/2+z
1/2-x,1/2+y,1/2+z
1/2+x,1/2-y,z
loop_
_atom_site_type_symbol
_atom_site_label
_atom_site_fract_x
_atom_site_fract_y
_atom_site_fract_z
Si Si1 0.473504 0.174894 0.602050
Si Si2 0.652753 0.612993 0.490073
Si Si3 0.347278 0.612996 0.407037
Si Si4 0.761267 0.284720 0.147969
Si Si5 0.315908 0.000000 0.698567
Si Si6 0.526490 0.174892 0.295073
Si Si7 0.261279 0.784718 0.249144
O O1 0.499963 0.196975 0.448556
O O2 0.630845 0.171741 0.649548
O O3 0.377541 0.251539 0.672485
O O4 0.409220 0.077487 0.633547
O O5 0.500017 0.581730 0.448549
O O6 0.654813 0.703766 0.577467
O O7 0.722580 0.532973 0.574661
O O8 0.731849 0.634657 0.352968
O O9 0.268195 0.634661 0.544148
O O10 0.277445 0.532976 0.322454
O O11 0.345213 0.703768 0.319642
O O12 0.622466 0.251542 0.224663
O O13 0.869170 0.328276 0.247521
O O14 0.409201 0.922512 0.763610
#
# Coordination Sequence:
#
# PCOD8170929 Si02
#       7
#     4   4   4   4   4   4   4
#     4  11  23  41  62  98 127 169 213 269 311 383
#     4  10  20  42  65  92 123 170 212 259 317 390
#     4  10  20  42  65  92 123 170 212 259 317 390
#     4  10  21  39  71  88 122 169 218 254 313 383
#     4  10  26  38  60  98 132 158 216 270 328 374
#     4  11  23  41  62  98 127 169 213 269 311 383
#     4  10  21  39  71  88 122 169 218 254 313 383
#
# _framework density 19.698563
#
# number of rings (size 3 to 8) (size 9 to 14) (size 15 to 20)
#    0.000    1.714    2.857    0.857    4.000    0.000 
#    5.143    2.857    0.000    0.000    0.000    0.000 
#    0.000    0.000    0.000    0.000    0.000    0.000 
#
# Total GULP energy -347067.309379 kJ/mol
# GULP energy per Si atom -12395.261049 kJ/mol
# Density = 1.965373 g / cm^3
# Si number density = 19.698563 Si / 1000 Ang^3
#
#
#
# Elastic Constant Matrix: (Units=GPa)
#
#
# Indices 1 2 3 4 5 6 
#
# 1 117.0921 44.7147 64.2392 0.0000 0.0000 0.0000
# 2 44.7147 76.8457 49.5496 0.0000 0.0000 0.0000
# 3 64.2392 49.5496 159.8434 0.0000 0.0000 0.0000
# 4 0.0000 0.0000 0.0000 34.2427 0.0000 0.0000
# 5 0.0000 0.0000 0.0000 0.0000 43.0703 0.0000
# 6 0.0000 0.0000 0.0000 0.0000 0.0000-1823.4587
#
#
#
# Elastic Compliance Matrix: (Units=1/GPa)
#
#
# Indices 1 2 3 4 5 6 
#
# 1 0.012304 -0.004963 -0.003406 0.000000 0.000000 0.000000
# 2 -0.004963 0.018266 -0.003668 0.000000 0.000000 0.000000
# 3 -0.003406 -0.003668 0.008762 0.000000 0.000000 0.000000
# 4 0.000000 0.000000 0.000000 0.029203 0.000000 0.000000
# 5 0.000000 0.000000 0.000000 0.000000 0.023218 0.000000
# 6 0.000000 0.000000 0.000000 0.000000 0.000000 -0.000548
#
#
# Mechanical properties :
#
#
# Convention : Reuss Voigt Hill
#
# Bulk Modulus (GPa) = 65.53979 74.53201 70.03590
# Shear Modulus (GPa) = 41.54008 -336.21063 -147.33527
#
# Velocity S-wave (km/s) = 4.59714 -13.07854 -8.65779
# Velocity P-wave (km/s) = 7.84358 13.78934 8.01948
#
# Compressibility (1/GPa) = 0.01525791
#
# Stress axis : x y z
#
# Youngs Moduli (GPa) = 81.27116 54.74690 114.12848
#
# Poissons Ratio (x) = 0.27172 0.38878
# Poissons Ratio (y) = 0.40337 0.41857
# Poissons Ratio (z) = 0.27685 0.20079
#
# Static dielectric constant tensor:
#      x y z
#    x 3.628940 0.000000 0.000000 
#    y 0.000000 3.376600 0.000000 
#    z 0.000000 0.000000 3.783370 
# 
# 
# High freq. dielectric constant tensor:
#      x y z
#    x 1.781560 0.000000 0.000000 
#    y 0.000000 1.748470 0.000000 
#    z 0.000000 0.000000 1.783720 
# 
# From -- ./inp_files/3342.got.cif
#   From: 2010.03.12/outbox.cif.g09.slc.cpg/sg33_2_cif.got.tgz:3342.got - 2010.04.14 01:49:19.
