data_PCOD8170849
_publ_section_title
;
Structure prediction by ZEFSAII (Michael W. Deem and Ramdas Pophale) SiO2 
 PCOD8170849
Probable space group: P N A 21
;
_chemical_formula_sum "Si O2"
_cell_formula_units_Z 28
_cell_length_a 10.044265
_cell_length_b 10.919176
_cell_length_c 11.827136
_cell_angle_alpha 90.000000
_cell_angle_beta 90.000000
_cell_angle_gamma 90.000000
_cell_volume 1297.142292
_symmetry_space_group_name_H-M "P N A 21"
_symmetry_group_IT_number 33
_symmetry_cell_setting 'orthorhombic'
loop_
_space_group_symop_operation_xyz
x,y,z
-x,-y,1/2+z
1/2-x,1/2+y,1/2+z
1/2+x,1/2-y,z
loop_
_atom_site_type_symbol
_atom_site_label
_atom_site_fract_x
_atom_site_fract_y
_atom_site_fract_z
Si Si1 0.184680 0.686990 0.682200
Si Si2 0.401726 0.306954 0.488847
Si Si3 0.097000 0.563468 0.899917
Si Si4 0.183594 0.337434 0.782469
Si Si5 0.661358 0.034216 0.543928
Si Si6 0.475635 0.348826 0.731872
Si Si7 0.979199 0.860833 0.754340
O O1 0.094052 0.613207 0.772316
O O2 0.179828 0.611454 0.565252
O O3 0.104221 0.815964 0.675428
O O4 0.338909 0.700801 0.718223
O O5 0.333063 0.170423 0.476491
O O6 0.548400 0.049520 0.451672
O O7 0.292953 0.413012 0.485970
O O8 0.491236 0.313570 0.600610
O O9 0.168034 0.430577 0.890084
O O10 0.498554 0.674085 0.884733
O O11 0.138236 0.398867 0.664048
O O12 0.336151 0.295397 0.777978
O O13 0.093825 0.216219 0.801759
O O14 0.472306 0.493939 0.744003
#
# Coordination Sequence:
#
# PCOD8170849 Si02
#       7
#     4   4   4   4   4   4   4
#     4  10  23  42  65  96 139 169 228 284 331 400
#     4  10  22  36  72  90 127 174 225 266 338 401
#     4  10  20  36  68  92 122 172 221 271 330 400
#     4  10  22  41  64  95 135 165 220 285 321 407
#     4  10  20  42  64  94 130 172 223 279 326 407
#     4  11  22  45  63  94 137 175 221 274 341 389
#     4  11  23  42  66  97 134 179 222 287 331 406
#
# _framework density 21.585912
#
# number of rings (size 3 to 8) (size 9 to 14) (size 15 to 20)
#    0.000    1.714    5.714    0.000    8.000    1.143 
#    5.143    1.429    0.000    0.000    0.000    0.000 
#    0.000    0.000    0.000    0.000    0.000    0.000 
#
# Total GULP energy -346868.461907 kJ/mol
# GULP energy per Si atom -12388.159354 kJ/mol
# Density = 2.153678 g / cm^3
# Si number density = 21.585912 Si / 1000 Ang^3
#
#
#
# Elastic Constant Matrix: (Units=GPa)
#
#
# Indices 1 2 3 4 5 6 
#
# 1 144.1355 75.3028 33.3741 0.0000 0.0000 0.0000
# 2 75.3028 99.2484 29.6490 0.0000 0.0000 0.0000
# 3 33.3741 29.6490 46.0066 0.0000 0.0000 0.0000
# 4 0.0000 0.0000 0.0000 26.4833 0.0000 0.0000
# 5 0.0000 0.0000 0.0000 0.0000 13.0488 0.0000
# 6 0.0000 0.0000 0.0000 0.0000 0.0000 33.4312
#
#
#
# Elastic Compliance Matrix: (Units=1/GPa)
#
#
# Indices 1 2 3 4 5 6 
#
# 1 0.011931 -0.008009 -0.003494 0.000000 0.000000 0.000000
# 2 -0.008009 0.017854 -0.005696 0.000000 0.000000 0.000000
# 3 -0.003494 -0.005696 0.027941 0.000000 0.000000 0.000000
# 4 0.000000 0.000000 0.000000 0.037760 0.000000 0.000000
# 5 0.000000 0.000000 0.000000 0.000000 0.076635 0.000000
# 6 0.000000 0.000000 0.000000 0.000000 0.000000 0.029912
#
#
# Mechanical properties :
#
#
# Convention : Reuss Voigt Hill
#
# Bulk Modulus (GPa) = 42.86548 62.89359 52.87953
# Shear Modulus (GPa) = 20.47444 24.66365 22.56904
#
# Velocity S-wave (km/s) = 3.08313 3.38388 3.23700
# Velocity P-wave (km/s) = 5.70749 6.66837 6.20655
#
# Compressibility (1/GPa) = 0.02332880
#
# Stress axis : x y z
#
# Youngs Moduli (GPa) = 83.81536 56.01028 35.78917
#
# Poissons Ratio (x) = 0.44857 0.12504
# Poissons Ratio (y) = 0.67125 0.20387
# Poissons Ratio (z) = 0.29283 0.31905
#
# Static dielectric constant tensor:
#      x y z
#    x 3.820440 0.000000 0.000000 
#    y 0.000000 4.463960 0.000000 
#    z 0.000000 0.000000 3.788090 
# 
# 
# High freq. dielectric constant tensor:
#      x y z
#    x 1.839940 0.000000 0.000000 
#    y 0.000000 1.854340 0.000000 
#    z 0.000000 0.000000 1.823020 
# 
# From -- ./inp_files/7598.got.cif
#   From: 2010.03.12/outbox.cif.g09.slc.cpg/sg33_4_cif.got.tgz:7598.got - 2010.04.14 01:49:19.
