data_PCOD8170560
_publ_section_title
;
Structure prediction by ZEFSAII (Michael W. Deem and Ramdas Pophale) SiO2 
 PCOD8170560
Probable space group: P B A 2
;
_chemical_formula_sum "Si O2"
_cell_formula_units_Z 22
_cell_length_a 13.181648
_cell_length_b 8.060451
_cell_length_c 8.297706
_cell_angle_alpha 90.000000
_cell_angle_beta 90.000000
_cell_angle_gamma 90.000000
_cell_volume 881.631493
_symmetry_space_group_name_H-M "P B A 2"
_symmetry_group_IT_number 32
_symmetry_cell_setting 'orthorhombic'
loop_
_space_group_symop_operation_xyz
x,y,z
-x,-y,z
1/2-x,1/2+y,z
1/2+x,1/2-y,z
loop_
_atom_site_type_symbol
_atom_site_label
_atom_site_fract_x
_atom_site_fract_y
_atom_site_fract_z
Si Si1 0.302914 0.624862 0.091970
Si Si2 0.117474 0.450562 0.964711
Si Si3 0.870430 0.704565 0.613502
Si Si4 0.261321 0.075812 0.438902
Si Si5 0.470239 0.187069 0.365618
Si Si6 0.000000 0.000000 0.139191
O O1 0.303875 0.564046 0.276921
O O2 0.399227 0.515102 0.024536
O O3 0.196114 0.603293 0.994679
O O4 0.336872 0.816618 0.087942
O O5 0.127798 0.373757 0.788157
O O6 0.000000 0.500000 0.997133
O O7 0.807521 0.875584 0.596072
O O8 0.811589 0.597316 0.480220
O O9 0.983505 0.720928 0.543977
O O10 0.350820 0.205983 0.396914
O O11 0.501450 0.328721 0.240345
O O12 0.500000 0.000000 0.300948
#
# Coordination Sequence:
#
# PCOD8170560 Si02
#       6
#     4   4   4   4   4   2
#     4  12  28  46  76 111 154 200 257 324 394 469
#     4  12  29  49  74 109 161 207 252 319 409 483
#     4  11  23  46  70 104 142 197 247 319 383 463
#     4  11  22  42  73 104 136 186 258 316 373 451
#     4  10  23  40  72 105 141 186 254 322 380 443
#     4  12  24  46  68 114 146 198 262 322 386 452
#
# _framework density 24.953734000000001
#
# number of rings (size 3 to 8) (size 9 to 14) (size 15 to 20)
#    0.000    0.727    1.818    6.000    7.636    0.000 
#    0.000    0.000    0.000    0.000    0.000    0.000 
#    0.000    0.000    0.000    0.000    0.000    0.000 
#
# Total GULP energy -272551.355463 kJ/mol
# GULP energy per Si atom -12388.697976 kJ/mol
# Density = 2.489694 g / cm^3
# Si number density = 24.953734 Si / 1000 Ang^3
#
#
#
# Elastic Constant Matrix: (Units=GPa)
#
#
# Indices 1 2 3 4 5 6 
#
# 1 180.9473 28.8528 8.7590 0.0000 0.0000 0.0000
# 2 28.8528 71.4963 -0.4892 0.0000 0.0000 0.0000
# 3 8.7590 -0.4892 66.6822 0.0000 0.0000 0.0000
# 4 0.0000 0.0000 0.0000 36.6955 0.0000 0.0000
# 5 0.0000 0.0000 0.0000 0.0000 35.2349 0.0000
# 6 0.0000 0.0000 0.0000 0.0000 0.0000 42.1254
#
#
#
# Elastic Compliance Matrix: (Units=1/GPa)
#
#
# Indices 1 2 3 4 5 6 
#
# 1 0.005949 -0.002406 -0.000799 0.000000 0.000000 0.000000
# 2 -0.002406 0.014961 0.000426 0.000000 0.000000 0.000000
# 3 -0.000799 0.000426 0.015105 0.000000 0.000000 0.000000
# 4 0.000000 0.000000 0.000000 0.027251 0.000000 0.000000
# 5 0.000000 0.000000 0.000000 0.000000 0.028381 0.000000
# 6 0.000000 0.000000 0.000000 0.000000 0.000000 0.023739
#
#
# Mechanical properties :
#
#
# Convention : Reuss Voigt Hill
#
# Bulk Modulus (GPa) = 32.83503 43.70789 38.27146
# Shear Modulus (GPa) = 38.14011 41.61136 39.87574
#
# Velocity S-wave (km/s) = 3.91376 4.08798 4.00182
# Velocity P-wave (km/s) = 5.79744 6.31156 6.05995
#
# Compressibility (1/GPa) = 0.03045528
#
# Stress axis : x y z
#
# Youngs Moduli (GPa) = 168.10054 66.84196 66.20502
#
# Poissons Ratio (x) = 0.16083 0.05290
# Poissons Ratio (y) = 0.40448 -0.02819
# Poissons Ratio (z) = 0.13432 -0.02846
#
# Static dielectric constant tensor:
#      x y z
#    x 5.433040 0.000000 0.000000 
#    y 0.000000 4.500510 0.000000 
#    z 0.000000 0.000000 4.008140 
# 
# 
# High freq. dielectric constant tensor:
#      x y z
#    x 2.030080 0.000000 0.000000 
#    y 0.000000 1.990700 0.000000 
#    z 0.000000 0.000000 1.962680 
# 
# From -- ./inp_files/2280.got.cif
#   From: 2010.03.12/outbox.cif.g09.slc.cpg/sg32_2_cif.got.tgz:2280.got - 2010.04.14 01:46:39.
