data_PCOD8170963
_publ_section_title
;
Structure prediction by ZEFSAII (Michael W. Deem and Ramdas Pophale) SiO2 
 PCOD8170963
Probable space group: P N A 21
;
_chemical_formula_sum "Si O2"
_cell_formula_units_Z 32
_cell_length_a 24.867610
_cell_length_b 12.833193
_cell_length_c 4.918935
_cell_angle_alpha 90.000000
_cell_angle_beta 90.000000
_cell_angle_gamma 90.000000
_cell_volume 1569.783851
_symmetry_space_group_name_H-M "P N A 21"
_symmetry_group_IT_number 33
_symmetry_cell_setting 'orthorhombic'
loop_
_space_group_symop_operation_xyz
x,y,z
-x,-y,1/2+z
1/2-x,1/2+y,1/2+z
1/2+x,1/2-y,z
loop_
_atom_site_type_symbol
_atom_site_label
_atom_site_fract_x
_atom_site_fract_y
_atom_site_fract_z
Si Si1 0.320500 0.533026 0.543100
Si Si2 0.685752 0.940525 0.012707
Si Si3 0.223679 0.672781 0.521270
Si Si4 0.994995 0.863162 0.788865
Si Si5 0.568183 0.966742 0.166786
Si Si6 0.281317 0.418537 0.033333
Si Si7 0.564205 0.441702 0.797776
Si Si8 0.017246 0.631229 0.676134
O O1 0.283819 0.634809 0.604362
O O2 0.291956 0.453158 0.339898
O O3 0.375546 0.570790 0.404961
O O4 0.326143 0.469177 0.828034
O O5 0.715759 0.861282 0.212235
O O6 0.632259 0.976010 0.171693
O O7 0.721797 0.042403 0.949781
O O8 0.679571 0.878538 0.726847
O O9 0.217236 0.795454 0.527388
O O10 0.973621 0.872064 0.485011
O O11 0.015415 0.745760 0.804262
O O12 0.946709 0.894932 0.996845
O O13 0.046709 0.937569 0.828531
O O14 0.542512 0.881221 0.374190
O O15 0.542229 0.081003 0.208190
O O16 0.557528 0.933313 0.860311
#
# Coordination Sequence:
#
# PCOD8170963 Si02
#       8
#     4   4   4   4   4   4   4   4
#     4  10  21  37  57  82 112 145 185 231 277 332
#     4  10  21  37  56  81 112 144 185 231 277 334
#     4  10  21  37  56  82 113 146 186 233 282 335
#     4  10  21  37  56  81 112 145 183 228 274 328
#     4  10  21  37  56  82 112 144 184 228 274 331
#     4  10  21  37  56  81 111 143 183 229 277 330
#     4  10  21  37  56  81 111 143 184 228 274 329
#     4  10  21  37  57  82 113 146 184 228 275 329
#
# _framework density 20.384969999999999
#
# number of rings (size 3 to 8) (size 9 to 14) (size 15 to 20)
#    0.000    2.000    0.000    3.000    0.000    4.000 
#    0.000    3.750    0.000    0.000    0.000    0.000 
#    0.000    0.000    0.000    0.000    0.000    0.000 
#
# Total GULP energy -396659.494444 kJ/mol
# GULP energy per Si atom -12395.609201 kJ/mol
# Density = 2.033857 g / cm^3
# Si number density = 20.384970 Si / 1000 Ang^3
#
#
#
# Elastic Constant Matrix: (Units=GPa)
#
#
# Indices 1 2 3 4 5 6 
#
# 1 76.6215 -3.1204 -1.1010 0.0000 0.0000 0.0000
# 2 -3.1204 31.6517 6.9968 0.0000 0.0000 0.0000
# 3 -1.1010 6.9968 80.9759 0.0000 0.0000 0.0000
# 4 0.0000 0.0000 0.0000 23.7386 0.0000 0.0000
# 5 0.0000 0.0000 0.0000 0.0000 27.9107 0.0000
# 6 0.0000 0.0000 0.0000 0.0000 0.0000 12.9103
#
#
#
# Elastic Compliance Matrix: (Units=1/GPa)
#
#
# Indices 1 2 3 4 5 6 
#
# 1 0.013104 0.001277 0.000068 0.000000 0.000000 0.000000
# 2 0.001277 0.032334 -0.002776 0.000000 0.000000 0.000000
# 3 0.000068 -0.002776 0.012590 0.000000 0.000000 0.000000
# 4 0.000000 0.000000 0.000000 0.042125 0.000000 0.000000
# 5 0.000000 0.000000 0.000000 0.000000 0.035829 0.000000
# 6 0.000000 0.000000 0.000000 0.000000 0.000000 0.077458
#
#
# Mechanical properties :
#
#
# Convention : Reuss Voigt Hill
#
# Bulk Modulus (GPa) = 18.12764 21.64444 19.88604
# Shear Modulus (GPa) = 21.30459 25.34350 23.32404
#
# Velocity S-wave (km/s) = 3.23633 3.52979 3.38624
# Velocity P-wave (km/s) = 4.78299 5.22049 5.00652
#
# Compressibility (1/GPa) = 0.05516438
#
# Stress axis : x y z
#
# Youngs Moduli (GPa) = 76.31177 30.92763 79.42699
#
# Poissons Ratio (x) = -0.03949 -0.00539
# Poissons Ratio (y) = -0.09744 0.22053
# Poissons Ratio (z) = -0.00518 0.08587
#
# Static dielectric constant tensor:
#      x y z
#    x 3.584980 0.000000 0.000000 
#    y 0.000000 3.504630 0.000000 
#    z 0.000000 0.000000 3.943540 
# 
# 
# High freq. dielectric constant tensor:
#      x y z
#    x 1.782320 0.000000 0.000000 
#    y 0.000000 1.781270 0.000000 
#    z 0.000000 0.000000 1.819670 
# 
# From -- ./inp_files/2306.got.cif
#   From: 2010.03.12/outbox.cif.g09.slc.cpg/sg33_2_cif.got.tgz:2306.got - 2010.04.14 01:49:19.
