data_PCOD8170876
_publ_section_title
;
Structure prediction by ZEFSAII (Michael W. Deem and Ramdas Pophale) SiO2 
 PCOD8170876
Probable space group: P N A 21
;
_chemical_formula_sum "Si O2"
_cell_formula_units_Z 24
_cell_length_a 15.419346
_cell_length_b 4.980995
_cell_length_c 15.613074
_cell_angle_alpha 90.000000
_cell_angle_beta 90.000000
_cell_angle_gamma 90.000000
_cell_volume 1199.141623
_symmetry_space_group_name_H-M "P N A 21"
_symmetry_group_IT_number 33
_symmetry_cell_setting 'orthorhombic'
loop_
_space_group_symop_operation_xyz
x,y,z
-x,-y,1/2+z
1/2-x,1/2+y,1/2+z
1/2+x,1/2-y,z
loop_
_atom_site_type_symbol
_atom_site_label
_atom_site_fract_x
_atom_site_fract_y
_atom_site_fract_z
Si Si1 0.059499 0.357949 0.919560
Si Si2 0.807410 0.728566 0.760148
Si Si3 0.532901 0.387044 0.677232
Si Si4 0.807410 0.728567 0.272047
Si Si5 0.059497 0.358006 0.112638
Si Si6 0.967100 0.886992 0.854970
O O1 0.140262 0.265579 0.861421
O O2 0.020397 0.625609 0.880143
O O3 0.985329 0.124891 0.922792
O O4 0.092121 0.410113 0.016098
O O5 0.772718 0.431429 0.779166
O O6 0.866226 0.811655 0.842366
O O7 0.859747 0.734412 0.670780
O O8 0.727282 0.931430 0.753026
O O9 0.633771 0.311646 0.689830
O O10 0.514688 0.624996 0.609425
O O11 0.500008 0.499992 0.766108
O O12 0.479583 0.125720 0.652038
#
# Coordination Sequence:
#
# PCOD8170876 Si02
#       6
#     4   4   4   4   4   4
#     4  11  22  39  60  85 116 153 197 245 284 330
#     4  11  21  37  60  85 116 152 191 236 291 352
#     4  10  20  38  61  82 109 153 198 227 275 354
#     4  11  21  37  60  85 116 152 191 236 291 352
#     4  11  22  39  60  85 116 153 197 245 284 330
#     4  10  20  38  61  82 109 153 198 227 275 354
#
# _framework density 20.014315
#
# number of rings (size 3 to 8) (size 9 to 14) (size 15 to 20)
#    0.000    1.333    0.000   11.000    0.000    0.000 
#    0.000   10.000    0.000    0.000    0.000    0.000 
#    0.000    0.000    0.000    0.000    0.000    0.000 
#
# Total GULP energy -297539.318093 kJ/mol
# GULP energy per Si atom -12397.471587 kJ/mol
# Density = 1.996876 g / cm^3
# Si number density = 20.014315 Si / 1000 Ang^3
#
#
#
# Elastic Constant Matrix: (Units=GPa)
#
#
# Indices 1 2 3 4 5 6 
#
# 1 76.2763 32.4780 51.4392 0.0000 0.0000 0.0000
# 2 32.4780 113.5709 31.0589 0.0000 0.0000 0.0000
# 3 51.4392 31.0589 108.3173 0.0000 0.0000 0.0000
# 4 0.0000 0.0000 0.0000 4.1575 0.0000 0.0000
# 5 0.0000 0.0000 0.0000 0.0000 18.4635 0.0000
# 6 0.0000 0.0000 0.0000 0.0000 0.0000 46.9653
#
#
#
# Elastic Compliance Matrix: (Units=1/GPa)
#
#
# Indices 1 2 3 4 5 6 
#
# 1 0.020473 -0.003468 -0.008728 0.000000 0.000000 0.000000
# 2 -0.003468 0.010142 -0.001261 0.000000 0.000000 0.000000
# 3 -0.008728 -0.001261 0.013739 0.000000 0.000000 0.000000
# 4 0.000000 0.000000 0.000000 0.240529 0.000000 0.000000
# 5 0.000000 0.000000 0.000000 0.000000 0.054161 0.000000
# 6 0.000000 0.000000 0.000000 0.000000 0.000000 0.021292
#
#
# Mechanical properties :
#
#
# Convention : Reuss Voigt Hill
#
# Bulk Modulus (GPa) = 57.34233 58.67963 58.01098
# Shear Modulus (GPa) = 12.72063 26.12982 19.42523
#
# Velocity S-wave (km/s) = 2.52380 3.61717 3.11877
# Velocity P-wave (km/s) = 6.09964 6.84308 6.48203
#
# Compressibility (1/GPa) = 0.01743913
#
# Stress axis : x y z
#
# Youngs Moduli (GPa) = 48.84526 98.60324 72.78707
#
# Poissons Ratio (x) = 0.34193 0.63529
# Poissons Ratio (y) = 0.16938 0.09180
# Poissons Ratio (z) = 0.42633 0.12436
#
# Static dielectric constant tensor:
#      x y z
#    x 4.014780 0.000000 0.000000 
#    y 0.000000 4.491580 0.000000 
#    z 0.000000 0.000000 3.545020 
# 
# 
# High freq. dielectric constant tensor:
#      x y z
#    x 1.769500 0.000000 0.000000 
#    y 0.000000 1.811570 0.000000 
#    z 0.000000 0.000000 1.761380 
# 
# From -- ./inp_files/8056.got.cif
#   From: 2010.03.12/outbox.cif.g09.slc.cpg/sg33_5_cif.got.tgz:8056.got - 2010.04.14 01:49:19.
