data_PCOD8170313
_publ_section_title
;
Structure prediction by ZEFSAII (Michael W. Deem and Ramdas Pophale) SiO2 
 PCOD8170313
Probable space group: P M N 21
;
_chemical_formula_sum "Si O2"
_cell_formula_units_Z 24
_cell_length_a 8.507868
_cell_length_b 10.148511
_cell_length_c 14.040073
_cell_angle_alpha 90.000000
_cell_angle_beta 90.000000
_cell_angle_gamma 90.000000
_cell_volume 1212.250678
_symmetry_space_group_name_H-M "P M N 21"
_symmetry_group_IT_number 31
_symmetry_cell_setting 'orthorhombic'
loop_
_space_group_symop_operation_xyz
x,y,z
1/2-x,-y,1/2+z
-x,y,z
1/2+x,-y,1/2+z
loop_
_atom_site_type_symbol
_atom_site_label
_atom_site_fract_x
_atom_site_fract_y
_atom_site_fract_z
Si Si1 0.817440 0.873722 0.230890
Si Si2 0.681524 0.096662 0.109384
Si Si3 0.815240 0.624104 0.115399
Si Si4 0.316045 0.367625 0.210803
Si Si5 0.183043 0.021793 0.919717
Si Si6 0.186873 0.720948 0.914379
O O1 0.754616 0.736625 0.187114
O O2 0.709703 0.904193 0.320903
O O3 0.000000 0.866799 0.259953
O O4 0.794336 0.985489 0.151886
O O5 0.500000 0.063039 0.130281
O O6 0.726683 0.235308 0.155180
O O7 0.716289 0.101677 0.997263
O O8 0.770811 0.483350 0.155917
O O9 0.000000 0.637213 0.106377
O O10 0.746027 0.647536 0.008555
O O11 0.500000 0.397662 0.208803
O O12 0.252763 0.354505 0.319502
O O13 0.000000 0.025861 0.946210
O O14 0.246254 0.871916 0.912837
O O15 0.000000 0.722696 0.911620
#
# Coordination Sequence:
#
# PCOD8170313 Si02
#       6
#     4   4   4   4   4   4
#     4  11  22  38  61  91 123 156 200 253 302 356
#     4  11  22  38  61  91 123 156 200 253 302 356
#     4  10  22  40  61  86 121 158 199 249 300 358
#     4  10  22  40  61  86 121 158 199 249 300 358
#     4  11  21  38  63  90 122 160 203 251 304 359
#     4   9  18  38  61  82 114 158 197 241 300 355
#
# _framework density 19.797885000000001
#
# number of rings (size 3 to 8) (size 9 to 14) (size 15 to 20)
#    0.000    1.667    3.333    1.500    0.000    4.000 
#    0.000    4.167    0.000    0.000    0.000    0.000 
#    0.000    0.000    0.000    0.000    0.000    0.000 
#
# Total GULP energy -297655.898640 kJ/mol
# GULP energy per Si atom -12402.329110 kJ/mol
# Density = 1.975282 g / cm^3
# Si number density = 19.797885 Si / 1000 Ang^3
#
#
#
# Elastic Constant Matrix: (Units=GPa)
#
#
# Indices 1 2 3 4 5 6 
#
# 1 20.6990 22.1711 17.9075 0.0000 0.0000 0.0000
# 2 22.1711 95.7891 48.7842 0.0000 0.0000 0.0000
# 3 17.9075 48.7842 138.5056 0.0000 0.0000 0.0000
# 4 0.0000 0.0000 0.0000 38.7860 0.0000 0.0000
# 5 0.0000 0.0000 0.0000 0.0000 15.8096 0.0000
# 6 0.0000 0.0000 0.0000 0.0000 0.0000 29.4306
#
#
#
# Elastic Compliance Matrix: (Units=1/GPa)
#
#
# Indices 1 2 3 4 5 6 
#
# 1 0.065866 -0.013293 -0.003834 0.000000 0.000000 0.000000
# 2 -0.013293 0.015404 -0.003707 0.000000 0.000000 0.000000
# 3 -0.003834 -0.003707 0.009021 0.000000 0.000000 0.000000
# 4 0.000000 0.000000 0.000000 0.025783 0.000000 0.000000
# 5 0.000000 0.000000 0.000000 0.000000 0.063253 0.000000
# 6 0.000000 0.000000 0.000000 0.000000 0.000000 0.033978
#
#
# Mechanical properties :
#
#
# Convention : Reuss Voigt Hill
#
# Bulk Modulus (GPa) = 20.56572 48.07992 34.32282
# Shear Modulus (GPa) = 18.43787 27.88063 23.15925
#
# Velocity S-wave (km/s) = 3.05504 3.75675 3.42392
# Velocity P-wave (km/s) = 4.78066 6.56930 5.74502
#
# Compressibility (1/GPa) = 0.04862460
#
# Stress axis : x y z
#
# Youngs Moduli (GPa) = 15.18224 64.91722 110.84868
#
# Poissons Ratio (x) = 0.86292 0.42499
# Poissons Ratio (y) = 0.20181 0.41092
# Poissons Ratio (z) = 0.05821 0.24065
#
# Static dielectric constant tensor:
#      x y z
#    x 3.368880 0.000000 0.000000 
#    y 0.000000 3.572960 0.000000 
#    z 0.000000 0.000000 3.882650 
# 
# 
# High freq. dielectric constant tensor:
#      x y z
#    x 1.750780 0.000000 0.000000 
#    y 0.000000 1.765990 0.000000 
#    z 0.000000 0.000000 1.791550 
# 
# From -- ./inp_files/4727.got.cif
#   From: 2010.03.12/outbox.cif.g09.slc.cpg/sg31_3_cif.got.tgz:4727.got - 2010.04.14 01:42:59.
