data_PCOD8170735
_publ_section_title
;
Structure prediction by ZEFSAII (Michael W. Deem and Ramdas Pophale) SiO2 
 PCOD8170735
Probable space group: P N A 21
;
_chemical_formula_sum "Si O2"
_cell_formula_units_Z 32
_cell_length_a 13.931435
_cell_length_b 13.057577
_cell_length_c 9.249201
_cell_angle_alpha 90.000000
_cell_angle_beta 90.000000
_cell_angle_gamma 90.000000
_cell_volume 1682.529417
_symmetry_space_group_name_H-M "P N A 21"
_symmetry_group_IT_number 33
_symmetry_cell_setting 'orthorhombic'
loop_
_space_group_symop_operation_xyz
x,y,z
-x,-y,1/2+z
1/2-x,1/2+y,1/2+z
1/2+x,1/2-y,z
loop_
_atom_site_type_symbol
_atom_site_label
_atom_site_fract_x
_atom_site_fract_y
_atom_site_fract_z
Si Si1 0.572263 0.664610 0.255600
Si Si2 0.880956 0.928513 0.756350
Si Si3 0.710272 0.218348 0.768167
Si Si4 0.824095 0.493154 0.193088
Si Si5 0.416419 0.939710 0.928395
Si Si6 0.421531 0.714780 0.020169
Si Si7 0.926878 0.782278 0.502001
Si Si8 0.022538 0.430758 0.135066
O O1 0.579768 0.542803 0.258629
O O2 0.675029 0.720212 0.260090
O O3 0.519078 0.697274 0.109307
O O4 0.515874 0.702286 0.395690
O O5 0.926353 0.872854 0.618189
O O6 0.766287 0.926167 0.737946
O O7 0.907026 0.877377 0.908354
O O8 0.671105 0.101460 0.777948
O O9 0.668728 0.277924 0.628949
O O10 0.672840 0.276235 0.912221
O O11 0.918918 0.424336 0.219085
O O12 0.822876 0.524249 0.020148
O O13 0.405500 0.973330 0.760517
O O14 0.430999 0.818146 0.929022
O O15 0.512188 0.990695 0.001845
O O16 0.941237 0.678036 0.586705
#
# Coordination Sequence:
#
# PCOD8170735 Si02
#       8
#     4   4   4   4   4   4   4   4
#     4  10  23  40  62  81 126 164 199 246 306 361
#     4  11  21  40  59  88 127 157 202 251 293 367
#     4   9  20  40  57  85 116 159 199 248 302 363
#     4   8  20  34  59  79 122 154 188 250 309 343
#     4   9  19  35  57  88 116 151 198 252 306 353
#     4  10  20  38  61  88 115 160 203 241 305 364
#     4  11  22  36  64  90 117 163 203 248 303 368
#     4  10  19  35  61  89 119 152 200 254 308 357
#
# _framework density 19.018985000000001
#
# number of rings (size 3 to 8) (size 9 to 14) (size 15 to 20)
#    0.750    1.500    1.250    1.500    3.500    1.000 
#    0.000    0.000    8.250    0.000    0.000    0.000 
#    0.000    0.000    0.000    0.000    0.000    0.000 
#
# Total GULP energy -396557.405792 kJ/mol
# GULP energy per Si atom -12392.418931 kJ/mol
# Density = 1.897570 g / cm^3
# Si number density = 19.018985 Si / 1000 Ang^3
#
#
#
# Elastic Constant Matrix: (Units=GPa)
#
#
# Indices 1 2 3 4 5 6 
#
# 1 99.7523 18.2786 38.7992 0.0000 0.0000 0.0000
# 2 18.2786 41.2990 27.9667 0.0000 0.0000 0.0000
# 3 38.7992 27.9667 118.2858 0.0000 0.0000 0.0000
# 4 0.0000 0.0000 0.0000 32.4477 0.0000 0.0000
# 5 0.0000 0.0000 0.0000 0.0000 15.6554 0.0000
# 6 0.0000 0.0000 0.0000 0.0000 0.0000 28.4507
#
#
#
# Elastic Compliance Matrix: (Units=1/GPa)
#
#
# Indices 1 2 3 4 5 6 
#
# 1 0.011815 -0.003101 -0.003142 0.000000 0.000000 0.000000
# 2 -0.003101 0.029644 -0.005991 0.000000 0.000000 0.000000
# 3 -0.003142 -0.005991 0.010901 0.000000 0.000000 0.000000
# 4 0.000000 0.000000 0.000000 0.030819 0.000000 0.000000
# 5 0.000000 0.000000 0.000000 0.000000 0.063876 0.000000
# 6 0.000000 0.000000 0.000000 0.000000 0.000000 0.035148
#
#
# Mechanical properties :
#
#
# Convention : Reuss Voigt Hill
#
# Bulk Modulus (GPa) = 35.85521 47.71401 41.78461
# Shear Modulus (GPa) = 23.15133 26.93028 25.04080
#
# Velocity S-wave (km/s) = 3.49273 3.76702 3.63246
# Velocity P-wave (km/s) = 5.92949 6.63797 6.29370
#
# Compressibility (1/GPa) = 0.02788995
#
# Stress axis : x y z
#
# Youngs Moduli (GPa) = 84.63562 33.73409 91.73149
#
# Poissons Ratio (x) = 0.10463 0.28825
# Poissons Ratio (y) = 0.26250 0.54960
# Poissons Ratio (z) = 0.26595 0.20211
#
# Static dielectric constant tensor:
#      x y z
#    x 3.295820 0.000000 0.000000 
#    y 0.000000 3.394850 0.000000 
#    z 0.000000 0.000000 3.569600 
# 
# 
# High freq. dielectric constant tensor:
#      x y z
#    x 1.719270 0.000000 0.000000 
#    y 0.000000 1.737270 0.000000 
#    z 0.000000 0.000000 1.748940 
# 
# From -- ./inp_files/4510.got.cif
#   From: 2010.03.12/outbox.cif.g09.slc.cpg/sg33_3_cif.got.tgz:4510.got - 2010.04.14 01:49:19.
