data_PCOD8170017
_publ_section_title
;
Structure prediction by ZEFSAII (Michael W. Deem and Ramdas Pophale) SiO2 
 PCOD8170017
Probable space group: P M N 21
;
_chemical_formula_sum "Si O2"
_cell_formula_units_Z 32
_cell_length_a 9.352207
_cell_length_b 13.963770
_cell_length_c 14.036623
_cell_angle_alpha 90.000000
_cell_angle_beta 90.000000
_cell_angle_gamma 90.000000
_cell_volume 1833.071619
_symmetry_space_group_name_H-M "P M N 21"
_symmetry_group_IT_number 31
_symmetry_cell_setting 'orthorhombic'
loop_
_space_group_symop_operation_xyz
x,y,z
1/2-x,-y,1/2+z
-x,y,z
1/2+x,-y,1/2+z
loop_
_atom_site_type_symbol
_atom_site_label
_atom_site_fract_x
_atom_site_fract_y
_atom_site_fract_z
Si Si1 0.666582 0.983189 0.480920
Si Si2 0.163966 0.844194 0.117316
Si Si3 0.168028 0.347788 0.633445
Si Si4 0.165835 0.517195 0.492899
Si Si5 0.333311 0.640285 0.632576
Si Si6 0.333830 0.013934 0.787971
Si Si7 0.830234 0.146095 0.150057
Si Si8 0.166062 0.526692 0.274586
O O1 0.500000 0.970766 0.459606
O O2 0.696987 0.086058 0.528704
O O3 0.749236 0.968618 0.383744
O O4 0.723700 0.900174 0.551383
O O5 0.269181 0.754982 0.107444
O O6 0.000000 0.808949 0.113413
O O7 0.193168 0.897924 0.216631
O O8 0.202866 0.417398 0.544726
O O9 0.241351 0.388012 0.729302
O O10 0.000000 0.338766 0.652165
O O11 0.253173 0.603934 0.538872
O O12 0.211805 0.510139 0.383236
O O13 0.000000 0.541798 0.504113
O O14 0.500000 0.643559 0.607829
O O15 0.274814 0.745472 0.659136
O O16 0.299864 0.572755 0.721975
O O17 0.500000 0.004720 0.813096
O O18 0.274641 0.916195 0.739458
O O19 0.000000 0.138976 0.151063
O O20 0.000000 0.554752 0.264778
#
# Coordination Sequence:
#
# PCOD8170017 Si02
#       8
#     4   4   4   4   4   4   4   4
#     4   9  18  33  51  72 100 130 160 198 241 285
#     4   9  19  35  51  70 101 137 165 193 242 300
#     4  10  20  33  51  75  99 125 164 210 244 278
#     4   9  19  34  49  70 100 128 157 199 247 289
#     4   9  17  31  52  73  92 123 164 197 231 283
#     4   9  18  33  52  72  96 128 163 198 237 285
#     4   8  16  32  51  70  95 126 159 195 236 284
#     4   9  18  33  51  70  97 131 160 192 242 298
#
# _framework density 17.457038000000001
#
# number of rings (size 3 to 8) (size 9 to 14) (size 15 to 20)
#    0.000    3.000    0.000    1.875    0.000    4.000 
#    0.000    8.125    0.000    3.000    0.000    0.000 
#    0.000    0.000    0.000    0.000    0.000    0.000 
#
# Total GULP energy -396784.095041 kJ/mol
# GULP energy per Si atom -12399.502970 kJ/mol
# Density = 1.741730 g / cm^3
# Si number density = 17.457038 Si / 1000 Ang^3
#
#
#
# Elastic Constant Matrix: (Units=GPa)
#
#
# Indices 1 2 3 4 5 6 
#
# 1 39.8116 14.1305 15.4647 0.0000 0.0000 0.0000
# 2 14.1305 61.8798 -10.1574 0.0000 0.0000 0.0000
# 3 15.4647 -10.1574 74.8032 0.0000 0.0000 0.0000
# 4 0.0000 0.0000 0.0000 13.9347 0.0000 0.0000
# 5 0.0000 0.0000 0.0000 0.0000 31.4449 0.0000
# 6 0.0000 0.0000 0.0000 0.0000 0.0000 24.3719
#
#
#
# Elastic Compliance Matrix: (Units=1/GPa)
#
#
# Indices 1 2 3 4 5 6 
#
# 1 0.030998 -0.008316 -0.007538 0.000000 0.000000 0.000000
# 2 -0.008316 0.018760 0.004267 0.000000 0.000000 0.000000
# 3 -0.007538 0.004267 0.015506 0.000000 0.000000 0.000000
# 4 0.000000 0.000000 0.000000 0.071763 0.000000 0.000000
# 5 0.000000 0.000000 0.000000 0.000000 0.031802 0.000000
# 6 0.000000 0.000000 0.000000 0.000000 0.000000 0.041031
#
#
# Mechanical properties :
#
#
# Convention : Reuss Voigt Hill
#
# Bulk Modulus (GPa) = 23.75872 23.93002 23.84437
# Shear Modulus (GPa) = 20.23777 24.42076 22.32926
#
# Velocity S-wave (km/s) = 3.40853 3.74425 3.58033
# Velocity P-wave (km/s) = 5.39723 5.69476 5.54799
#
# Compressibility (1/GPa) = 0.04208982
#
# Stress axis : x y z
#
# Youngs Moduli (GPa) = 32.26036 53.30600 64.49084
#
# Poissons Ratio (x) = 0.44328 0.48611
# Poissons Ratio (y) = 0.26827 -0.27515
# Poissons Ratio (z) = 0.24317 -0.22743
#
# Static dielectric constant tensor:
#      x y z
#    x 3.073910 0.000000 0.000000 
#    y 0.000000 3.357600 0.000000 
#    z 0.000000 0.000000 3.237440 
# 
# 
# High freq. dielectric constant tensor:
#      x y z
#    x 1.659560 0.000000 0.000000 
#    y 0.000000 1.677590 0.000000 
#    z 0.000000 0.000000 1.675610 
# 
# From -- ./inp_files/5113.got.cif
#   From: 2010.03.12/outbox.cif.g09.slc.cpg/sg31_3_cif.got.tgz:5113.got - 2010.04.14 01:42:59.
