data_PCOD8170967
_publ_section_title
;
Structure prediction by ZEFSAII (Michael W. Deem and Ramdas Pophale) SiO2 
 PCOD8170967
Probable space group: P N A 21
;
_chemical_formula_sum "Si O2"
_cell_formula_units_Z 32
_cell_length_a 20.392350
_cell_length_b 9.061923
_cell_length_c 9.008712
_cell_angle_alpha 90.000000
_cell_angle_beta 90.000000
_cell_angle_gamma 90.000000
_cell_volume 1664.755074
_symmetry_space_group_name_H-M "P N A 21"
_symmetry_group_IT_number 33
_symmetry_cell_setting 'orthorhombic'
loop_
_space_group_symop_operation_xyz
x,y,z
-x,-y,1/2+z
1/2-x,1/2+y,1/2+z
1/2+x,1/2-y,z
loop_
_atom_site_type_symbol
_atom_site_label
_atom_site_fract_x
_atom_site_fract_y
_atom_site_fract_z
Si Si1 0.064319 0.065616 0.471670
Si Si2 0.935979 0.589180 0.015315
Si Si3 0.301118 0.102103 0.330158
Si Si4 0.556340 0.933826 0.815236
Si Si5 0.179866 0.902802 0.313372
Si Si6 0.809283 0.099062 0.467278
Si Si7 0.188024 0.601545 0.485141
Si Si8 0.560158 0.595022 0.783537
O O1 0.073598 0.237951 0.498007
O O2 0.998001 0.029377 0.383315
O O3 0.124815 0.010665 0.374770
O O4 0.061750 0.984524 0.627391
O O5 0.948540 0.553719 0.186370
O O6 0.871099 0.510879 0.952983
O O7 0.999618 0.528434 0.930567
O O8 0.372163 0.051167 0.393357
O O9 0.276828 0.245589 0.419158
O O10 0.310011 0.146271 0.157581
O O11 0.250872 0.969257 0.352761
O O12 0.548775 0.767948 0.752428
O O13 0.169752 0.889871 0.138030
O O14 0.174905 0.743707 0.386438
O O15 0.872443 0.063140 0.369008
O O16 0.756519 0.971515 0.437635
#
# Coordination Sequence:
#
# PCOD8170967 Si02
#       8
#     4   4   4   4   4   4   4   4
#     4  11  22  38  60  86 116 151 189 234 286 341
#     4  10  21  37  58  83 112 147 186 230 282 339
#     4   9  20  39  56  79 114 146 188 238 281 336
#     4   9  20  38  56  81 112 145 185 234 280 332
#     4  11  22  37  59  85 114 150 192 237 287 338
#     4  10  21  38  59  84 113 149 194 238 285 338
#     4  10  22  38  57  82 114 151 189 233 283 338
#     4  10  22  39  59  84 117 149 189 238 284 338
#
# _framework density 19.222045999999999
#
# number of rings (size 3 to 8) (size 9 to 14) (size 15 to 20)
#    0.000    2.000    0.000    3.750    0.000   10.000 
#    0.000    5.000    0.000    0.000    0.000    0.000 
#    0.000    0.000    0.000    0.000    0.000    0.000 
#
# Total GULP energy -396898.143421 kJ/mol
# GULP energy per Si atom -12403.066982 kJ/mol
# Density = 1.917830 g / cm^3
# Si number density = 19.222046 Si / 1000 Ang^3
#
#
#
# Elastic Constant Matrix: (Units=GPa)
#
#
# Indices 1 2 3 4 5 6 
#
# 1 98.4972 19.3275 28.4278 0.0000 0.0000 0.0000
# 2 19.3275 57.5079 21.7146 0.0000 0.0000 0.0000
# 3 28.4278 21.7146 63.2074 0.0000 0.0000 0.0000
# 4 0.0000 0.0000 0.0000 34.2643 0.0000 0.0000
# 5 0.0000 0.0000 0.0000 0.0000 32.3136 0.0000
# 6 0.0000 0.0000 0.0000 0.0000 0.0000 25.1036
#
#
#
# Elastic Compliance Matrix: (Units=1/GPa)
#
#
# Indices 1 2 3 4 5 6 
#
# 1 0.011921 -0.002277 -0.004579 0.000000 0.000000 0.000000
# 2 -0.002277 0.020416 -0.005990 0.000000 0.000000 0.000000
# 3 -0.004579 -0.005990 0.019938 0.000000 0.000000 0.000000
# 4 0.000000 0.000000 0.000000 0.029185 0.000000 0.000000
# 5 0.000000 0.000000 0.000000 0.000000 0.030947 0.000000
# 6 0.000000 0.000000 0.000000 0.000000 0.000000 0.039835
#
#
# Mechanical properties :
#
#
# Convention : Reuss Voigt Hill
#
# Bulk Modulus (GPa) = 37.61818 39.79472 38.70645
# Shear Modulus (GPa) = 26.76733 28.31913 27.54323
#
# Velocity S-wave (km/s) = 3.73571 3.84247 3.78947
# Velocity P-wave (km/s) = 6.18225 6.35875 6.27112
#
# Compressibility (1/GPa) = 0.02658289
#
# Stress axis : x y z
#
# Youngs Moduli (GPa) = 83.88506 48.98135 50.15526
#
# Poissons Ratio (x) = 0.11155 0.22967
# Poissons Ratio (y) = 0.19104 0.30041
# Poissons Ratio (z) = 0.38412 0.29337
#
# Static dielectric constant tensor:
#      x y z
#    x 3.798740 0.000000 0.000000 
#    y 0.000000 3.478190 0.000000 
#    z 0.000000 0.000000 3.471930 
# 
# 
# High freq. dielectric constant tensor:
#      x y z
#    x 1.766690 0.000000 0.000000 
#    y 0.000000 1.748930 0.000000 
#    z 0.000000 0.000000 1.746790 
# 
# From -- ./inp_files/4970.got.cif
#   From: 2010.03.12/outbox.cif.g09.slc.cpg/sg33_3_cif.got.tgz:4970.got - 2010.04.14 01:49:19.
