data_PCOD8170080
_publ_section_title
;
Structure prediction by ZEFSAII (Michael W. Deem and Ramdas Pophale) SiO2 
 PCOD8170080
Probable space group: P M N 21
;
_chemical_formula_sum "Si O2"
_cell_formula_units_Z 32
_cell_length_a 8.960098
_cell_length_b 14.646903
_cell_length_c 12.585106
_cell_angle_alpha 90.000000
_cell_angle_beta 90.000000
_cell_angle_gamma 90.000000
_cell_volume 1651.640193
_symmetry_space_group_name_H-M "P M N 21"
_symmetry_group_IT_number 31
_symmetry_cell_setting 'orthorhombic'
loop_
_space_group_symop_operation_xyz
x,y,z
1/2-x,-y,1/2+z
-x,y,z
1/2+x,-y,1/2+z
loop_
_atom_site_type_symbol
_atom_site_label
_atom_site_fract_x
_atom_site_fract_y
_atom_site_fract_z
Si Si1 0.676637 0.736063 0.490980
Si Si2 0.336165 0.829755 0.288365
Si Si3 0.823241 0.172507 0.405833
Si Si4 0.335813 0.637371 0.181029
Si Si5 0.321636 0.949916 0.103339
Si Si6 0.325277 0.358413 0.470589
Si Si7 0.675604 0.551359 0.397830
Si Si8 0.325200 0.870292 0.668858
O O1 0.500000 0.732813 0.467770
O O2 0.745829 0.804782 0.400005
O O3 0.739975 0.632841 0.474726
O O4 0.712646 0.774851 0.608005
O O5 0.500000 0.869767 0.314195
O O6 0.351884 0.739817 0.218997
O O7 0.254287 0.902811 0.211053
O O8 0.765297 0.103472 0.497510
O O9 0.757287 0.272848 0.419462
O O10 0.770394 0.135606 0.290581
O O11 0.000000 0.182189 0.409913
O O12 0.500000 0.607016 0.137480
O O13 0.283655 0.572403 0.276483
O O14 0.206274 0.633332 0.095008
O O15 0.500000 0.949315 0.104244
O O16 0.260553 0.052148 0.103057
O O17 0.500000 0.346890 0.449760
O O18 0.257014 0.451990 0.422109
O O19 0.500000 0.546597 0.416422
O O20 0.500000 0.891420 0.662986
#
# Coordination Sequence:
#
# PCOD8170080 Si02
#       8
#     4   4   4   4   4   4   4   4
#     4   8  15  31  53  77 104 136 179 223 266 318
#     4   8  14  28  53  75  93 129 179 219 255 320
#     4  10  22  40  56  77 112 151 183 214 273 346
#     4   9  16  33  55  73 100 143 185 219 267 334
#     4  10  20  35  55  77 104 141 181 217 267 334
#     4  11  21  33  54  86 114 138 181 238 278 310
#     4   8  17  32  53  79 108 144 185 225 269 325
#     4  10  22  36  55  82 109 140 181 227 271 319
#
# _framework density 19.374679
#
# number of rings (size 3 to 8) (size 9 to 14) (size 15 to 20)
#    0.000    2.750    1.250    1.875    1.750    2.000 
#    0.000    2.500    0.000    4.500    0.000    0.000 
#    0.000    0.000    0.000    0.000    0.000    0.000 
#
# Total GULP energy -396493.758641 kJ/mol
# GULP energy per Si atom -12390.429958 kJ/mol
# Density = 1.933058 g / cm^3
# Si number density = 19.374679 Si / 1000 Ang^3
#
#
#
# Elastic Constant Matrix: (Units=GPa)
#
#
# Indices 1 2 3 4 5 6 
#
# 1 16.3088 20.4348 18.8202 0.0000 0.0000 0.0000
# 2 20.4348 124.1600 61.5683 0.0000 0.0000 0.0000
# 3 18.8202 61.5683 107.9736 0.0000 0.0000 0.0000
# 4 0.0000 0.0000 0.0000 21.3474 0.0000 0.0000
# 5 0.0000 0.0000 0.0000 0.0000 13.4667 0.0000
# 6 0.0000 0.0000 0.0000 0.0000 0.0000 22.5203
#
#
#
# Elastic Compliance Matrix: (Units=1/GPa)
#
#
# Indices 1 2 3 4 5 6 
#
# 1 0.083535 -0.009102 -0.009370 0.000000 0.000000 0.000000
# 2 -0.009102 0.012221 -0.005382 0.000000 0.000000 0.000000
# 3 -0.009370 -0.005382 0.013964 0.000000 0.000000 0.000000
# 4 0.000000 0.000000 0.000000 0.046844 0.000000 0.000000
# 5 0.000000 0.000000 0.000000 0.000000 0.074257 0.000000
# 6 0.000000 0.000000 0.000000 0.000000 0.000000 0.044404
#
#
# Mechanical properties :
#
#
# Convention : Reuss Voigt Hill
#
# Bulk Modulus (GPa) = 16.12624 50.00989 33.06807
# Shear Modulus (GPa) = 14.55162 21.30814 17.92988
#
# Velocity S-wave (km/s) = 2.74353 3.31991 3.04539
# Velocity P-wave (km/s) = 4.28688 6.36897 5.42868
#
# Compressibility (1/GPa) = 0.06201072
#
# Stress axis : x y z
#
# Youngs Moduli (GPa) = 11.97106 81.82601 71.61368
#
# Poissons Ratio (x) = 0.74477 0.67105
# Poissons Ratio (y) = 0.10896 0.38544
# Poissons Ratio (z) = 0.11217 0.44040
#
# Static dielectric constant tensor:
#      x y z
#    x 3.103520 0.000000 0.000000 
#    y 0.000000 3.686420 0.000000 
#    z 0.000000 0.000000 3.793900 
# 
# 
# High freq. dielectric constant tensor:
#      x y z
#    x 1.701580 0.000000 0.000000 
#    y 0.000000 1.757910 0.000000 
#    z 0.000000 0.000000 1.760380 
# 
# From -- ./inp_files/3646.got.cif
#   From: 2010.03.12/outbox.cif.g09.slc.cpg/sg31_2_cif.got.tgz:3646.got - 2010.04.14 01:42:59.
