data_PCOD8170186
_publ_section_title
;
Structure prediction by ZEFSAII (Michael W. Deem and Ramdas Pophale) SiO2 
 PCOD8170186
Probable space group: P M N 21
;
_chemical_formula_sum "Si O2"
_cell_formula_units_Z 24
_cell_length_a 8.366432
_cell_length_b 10.143945
_cell_length_c 13.960941
_cell_angle_alpha 90.000000
_cell_angle_beta 90.000000
_cell_angle_gamma 90.000000
_cell_volume 1184.845881
_symmetry_space_group_name_H-M "P M N 21"
_symmetry_group_IT_number 31
_symmetry_cell_setting 'orthorhombic'
loop_
_space_group_symop_operation_xyz
x,y,z
1/2-x,-y,1/2+z
-x,y,z
1/2+x,-y,1/2+z
loop_
_atom_site_type_symbol
_atom_site_label
_atom_site_fract_x
_atom_site_fract_y
_atom_site_fract_z
Si Si1 0.688871 0.284354 0.514390
Si Si2 0.318129 0.097450 0.803495
Si Si3 0.187254 0.356565 0.714750
Si Si4 0.689348 0.371055 0.307146
Si Si5 0.184264 0.871988 0.684220
Si Si6 0.316226 0.980259 0.496848
O O1 0.500000 0.300443 0.527353
O O2 0.776439 0.358026 0.601528
O O3 0.751327 0.351313 0.415993
O O4 0.738061 0.130614 0.515221
O O5 0.500000 0.061288 0.776815
O O6 0.284907 0.244038 0.768049
O O7 0.196970 0.997667 0.753081
O O8 0.292607 0.087367 0.916721
O O9 0.248396 0.491791 0.762878
O O10 0.000000 0.336786 0.732141
O O11 0.500000 0.360228 0.308713
O O12 0.754969 0.254342 0.239672
O O13 0.291862 0.893688 0.591223
O O14 0.000000 0.853441 0.654542
O O15 0.500000 0.975669 0.464576
#
# Coordination Sequence:
#
# PCOD8170186 Si02
#       6
#     4   4   4   4   4   4
#     4  10  20  39  63  87 121 162 203 251 310 368
#     4  12  24  39  60  90 124 161 207 252 300 359
#     4  11  23  40  63  91 124 162 205 252 309 369
#     4   9  21  41  63  88 122 163 203 250 307 368
#     4  11  21  39  64  91 123 158 201 254 307 362
#     4  11  22  38  63  93 124 160 205 255 309 364
#
# _framework density 20.255799
#
# number of rings (size 3 to 8) (size 9 to 14) (size 15 to 20)
#    0.000    1.333    3.333    3.000    0.000    2.000 
#    0.000    8.333    0.000    0.000    0.000    0.000 
#    0.000    0.000    0.000    0.000    0.000    0.000 
#
# Total GULP energy -297716.887912 kJ/mol
# GULP energy per Si atom -12404.870330 kJ/mol
# Density = 2.020970 g / cm^3
# Si number density = 20.255799 Si / 1000 Ang^3
#
#
#
# Elastic Constant Matrix: (Units=GPa)
#
#
# Indices 1 2 3 4 5 6 
#
# 1 53.2250 18.7503 16.3680 0.0000 0.0000 0.0000
# 2 18.7503 123.7044 57.8852 0.0000 0.0000 0.0000
# 3 16.3680 57.8852 141.4683 0.0000 0.0000 0.0000
# 4 0.0000 0.0000 0.0000 40.8259 0.0000 0.0000
# 5 0.0000 0.0000 0.0000 0.0000 32.3827 0.0000
# 6 0.0000 0.0000 0.0000 0.0000 0.0000 17.0608
#
#
#
# Elastic Compliance Matrix: (Units=1/GPa)
#
#
# Indices 1 2 3 4 5 6 
#
# 1 0.020049 -0.002416 -0.001331 0.000000 0.000000 0.000000
# 2 -0.002416 0.010289 -0.003931 0.000000 0.000000 0.000000
# 3 -0.001331 -0.003931 0.008831 0.000000 0.000000 0.000000
# 4 0.000000 0.000000 0.000000 0.024494 0.000000 0.000000
# 5 0.000000 0.000000 0.000000 0.000000 0.030881 0.000000
# 6 0.000000 0.000000 0.000000 0.000000 0.000000 0.058614
#
#
# Mechanical properties :
#
#
# Convention : Reuss Voigt Hill
#
# Bulk Modulus (GPa) = 41.99279 56.04497 49.01888
# Shear Modulus (GPa) = 28.33651 33.08015 30.70833
#
# Velocity S-wave (km/s) = 3.74429 4.04557 3.89784
# Velocity P-wave (km/s) = 6.28245 7.03924 6.67158
#
# Compressibility (1/GPa) = 0.02381361
#
# Stress axis : x y z
#
# Youngs Moduli (GPa) = 49.87872 97.18906 113.23728
#
# Poissons Ratio (x) = 0.23481 0.15073
# Poissons Ratio (y) = 0.12051 0.44509
# Poissons Ratio (z) = 0.06639 0.38201
#
# Static dielectric constant tensor:
#      x y z
#    x 3.407900 0.000000 0.000000 
#    y 0.000000 3.710170 0.000000 
#    z 0.000000 0.000000 3.857610 
# 
# 
# High freq. dielectric constant tensor:
#      x y z
#    x 1.777250 0.000000 0.000000 
#    y 0.000000 1.784940 0.000000 
#    z 0.000000 0.000000 1.806710 
# 
# From -- ./inp_files/4724.got.cif
#   From: 2010.03.12/outbox.cif.g09.slc.cpg/sg31_3_cif.got.tgz:4724.got - 2010.04.14 01:42:59.
