data_PCOD8170361
_publ_section_title
;
Structure prediction by ZEFSAII (Michael W. Deem and Ramdas Pophale) SiO2 
 PCOD8170361
Probable space group: P M N 21
;
_chemical_formula_sum "Si O2"
_cell_formula_units_Z 32
_cell_length_a 9.087744
_cell_length_b 14.571422
_cell_length_c 12.155252
_cell_angle_alpha 90.000000
_cell_angle_beta 90.000000
_cell_angle_gamma 90.000000
_cell_volume 1609.614914
_symmetry_space_group_name_H-M "P M N 21"
_symmetry_group_IT_number 31
_symmetry_cell_setting 'orthorhombic'
loop_
_space_group_symop_operation_xyz
x,y,z
1/2-x,-y,1/2+z
-x,y,z
1/2+x,-y,1/2+z
loop_
_atom_site_type_symbol
_atom_site_label
_atom_site_fract_x
_atom_site_fract_y
_atom_site_fract_z
Si Si1 0.171399 0.763675 0.262020
Si Si2 0.666239 0.134229 0.199351
Si Si3 0.674270 0.544558 0.870744
Si Si4 0.665039 0.153587 0.447112
Si Si5 0.328883 0.675346 0.669350
Si Si6 0.672050 0.636810 0.419035
Si Si7 0.828293 0.663579 0.035906
Si Si8 0.672593 0.049251 0.648067
O O1 0.266578 0.731948 0.367117
O O2 0.208506 0.695824 0.159535
O O3 0.212225 0.870302 0.235902
O O4 0.000000 0.756290 0.291315
O O5 0.500000 0.140023 0.154592
O O6 0.669798 0.112556 0.327845
O O7 0.744262 0.228992 0.172960
O O8 0.747192 0.046830 0.153405
O O9 0.500000 0.536013 0.874486
O O10 0.725028 0.606288 0.765818
O O11 0.743349 0.444222 0.855277
O O12 0.733464 0.579068 0.989847
O O13 0.500000 0.166706 0.495058
O O14 0.729397 0.255989 0.453407
O O15 0.738311 0.083145 0.531205
O O16 0.500000 0.697304 0.685158
O O17 0.297309 0.631810 0.549796
O O18 0.500000 0.629651 0.394042
O O19 0.000000 0.637211 0.023425
O O20 0.500000 0.028078 0.651219
#
# Coordination Sequence:
#
# PCOD8170361 Si02
#       8
#     4   4   4   4   4   4   4   4
#     4   9  20  39  62  87 120 159 200 247 299 355
#     4  11  21  35  60  90 117 150 200 254 295 348
#     4  11  23  39  61  89 117 150 198 249 299 357
#     4   8  16  33  55  79 108 148 192 235 289 350
#     4  10  24  44  61  84 121 161 197 242 302 362
#     4  11  25  42  61  86 122 165 203 243 302 365
#     4   9  17  35  61  84 111 149 191 241 299 353
#     4   9  19  37  59  83 118 162 199 237 301 366
#
# _framework density 19.880531000000001
#
# number of rings (size 3 to 8) (size 9 to 14) (size 15 to 20)
#    0.000    2.250    1.250    2.625    1.750    3.500 
#    0.000    6.875    0.000    0.000    0.000    0.000 
#    0.000    0.000    0.000    0.000    0.000    0.000 
#
# Total GULP energy -396559.192151 kJ/mol
# GULP energy per Si atom -12392.474755 kJ/mol
# Density = 1.983528 g / cm^3
# Si number density = 19.880531 Si / 1000 Ang^3
#
#
#
# Elastic Constant Matrix: (Units=GPa)
#
#
# Indices 1 2 3 4 5 6 
#
# 1 82.5203 56.2547 37.9598 0.0000 0.0000 0.0000
# 2 56.2547 126.0053 31.3472 0.0000 0.0000 0.0000
# 3 37.9598 31.3472 65.4480 0.0000 0.0000 0.0000
# 4 0.0000 0.0000 0.0000 27.8888 0.0000 0.0000
# 5 0.0000 0.0000 0.0000 0.0000 23.4179 0.0000
# 6 0.0000 0.0000 0.0000 0.0000 0.0000 33.6648
#
#
#
# Elastic Compliance Matrix: (Units=1/GPa)
#
#
# Indices 1 2 3 4 5 6 
#
# 1 0.021078 -0.007230 -0.008762 0.000000 0.000000 0.000000
# 2 -0.007230 0.011490 -0.001310 0.000000 0.000000 0.000000
# 3 -0.008762 -0.001310 0.020989 0.000000 0.000000 0.000000
# 4 0.000000 0.000000 0.000000 0.035857 0.000000 0.000000
# 5 0.000000 0.000000 0.000000 0.000000 0.042702 0.000000
# 6 0.000000 0.000000 0.000000 0.000000 0.000000 0.029705
#
#
# Mechanical properties :
#
#
# Convention : Reuss Voigt Hill
#
# Bulk Modulus (GPa) = 52.76430 58.34411 55.55421
# Shear Modulus (GPa) = 24.66194 26.88842 25.77518
#
# Velocity S-wave (km/s) = 3.52590 3.68163 3.60461
# Velocity P-wave (km/s) = 6.57072 6.89083 6.73268
#
# Compressibility (1/GPa) = 0.01895221
#
# Stress axis : x y z
#
# Youngs Moduli (GPa) = 47.44332 87.03268 47.64498
#
# Poissons Ratio (x) = 0.62927 0.41747
# Poissons Ratio (y) = 0.34303 0.06240
# Poissons Ratio (z) = 0.41570 0.11398
#
# Static dielectric constant tensor:
#      x y z
#    x 3.449980 0.000000 0.000000 
#    y 0.000000 3.585280 0.000000 
#    z 0.000000 0.000000 3.638510 
# 
# 
# High freq. dielectric constant tensor:
#      x y z
#    x 1.758820 0.000000 0.000000 
#    y 0.000000 1.782580 0.000000 
#    z 0.000000 0.000000 1.775280 
# 
# From -- ./inp_files/3618.got.cif
#   From: 2010.03.12/outbox.cif.g09.slc.cpg/sg31_2_cif.got.tgz:3618.got - 2010.04.14 01:42:59.
