data_PCOD8170358
_publ_section_title
;
Structure prediction by ZEFSAII (Michael W. Deem and Ramdas Pophale) SiO2 
 PCOD8170358
Probable space group: P M N 21
;
_chemical_formula_sum "Si O2"
_cell_formula_units_Z 14
_cell_length_a 10.390808
_cell_length_b 7.606238
_cell_length_c 8.316054
_cell_angle_alpha 90.000000
_cell_angle_beta 90.000000
_cell_angle_gamma 90.000000
_cell_volume 657.258984
_symmetry_space_group_name_H-M "P M N 21"
_symmetry_group_IT_number 31
_symmetry_cell_setting 'orthorhombic'
loop_
_space_group_symop_operation_xyz
x,y,z
1/2-x,-y,1/2+z
-x,y,z
1/2+x,-y,1/2+z
loop_
_atom_site_type_symbol
_atom_site_label
_atom_site_fract_x
_atom_site_fract_y
_atom_site_fract_z
Si Si1 0.643249 0.471385 0.871540
Si Si2 0.000000 0.628948 0.657517
Si Si3 0.262197 0.251878 0.571536
Si Si4 0.500000 0.774926 0.210535
Si Si5 0.500000 0.081197 0.431767
O O1 0.500000 0.546261 0.825338
O O2 0.699467 0.357811 0.730002
O O3 0.625532 0.360521 0.039042
O O4 0.745144 0.626087 0.912883
O O5 0.000000 0.434954 0.742827
O O6 0.000000 0.786098 0.782060
O O7 0.124860 0.162502 0.608960
O O8 0.372379 0.109688 0.537930
O O9 0.500000 0.878623 0.378805
#
# Coordination Sequence:
#
# PCOD8170358 Si02
#       5
#     4   2   4   2   2
#     4   9  19  37  65  97 126 166 209 264 313 386
#     4   8  19  41  61  95 127 165 210 263 312 377
#     4  11  20  41  65  96 131 168 217 264 327 382
#     4  10  24  40  58  94 132 154 212 272 304 384
#     4  12  23  39  71  91 123 181 212 263 328 379
#
# _framework density 21.300583
#
# number of rings (size 3 to 8) (size 9 to 14) (size 15 to 20)
#    0.857    1.143    2.857    3.429    0.000    2.286 
#    0.000    4.286    0.000    0.000    0.000    0.000 
#    0.000    0.000    0.000    0.000    0.000    0.000 
#
# Total GULP energy -173436.626403 kJ/mol
# GULP energy per Si atom -12388.330457 kJ/mol
# Density = 2.125210 g / cm^3
# Si number density = 21.300583 Si / 1000 Ang^3
#
#
#
# Elastic Constant Matrix: (Units=GPa)
#
#
# Indices 1 2 3 4 5 6 
#
# 1 146.0392 31.0368 49.2680 0.0000 0.0000 0.0000
# 2 31.0368 64.8930 52.7078 0.0000 0.0000 0.0000
# 3 49.2680 52.7078 95.3625 0.0000 0.0000 0.0000
# 4 0.0000 0.0000 0.0000 36.1105 0.0000 0.0000
# 5 0.0000 0.0000 0.0000 0.0000 29.7983 0.0000
# 6 0.0000 0.0000 0.0000 0.0000 0.0000 5.9130
#
#
#
# Elastic Compliance Matrix: (Units=1/GPa)
#
#
# Indices 1 2 3 4 5 6 
#
# 1 0.008321 -0.000886 -0.003809 0.000000 0.000000 0.000000
# 2 -0.000886 0.028058 -0.015050 0.000000 0.000000 0.000000
# 3 -0.003809 -0.015050 0.020773 0.000000 0.000000 0.000000
# 4 0.000000 0.000000 0.000000 0.027693 0.000000 0.000000
# 5 0.000000 0.000000 0.000000 0.000000 0.033559 0.000000
# 6 0.000000 0.000000 0.000000 0.000000 0.000000 0.169118
#
#
# Mechanical properties :
#
#
# Convention : Reuss Voigt Hill
#
# Bulk Modulus (GPa) = 56.62218 63.59109 60.10663
# Shear Modulus (GPa) = 15.01959 25.91650 20.46804
#
# Velocity S-wave (km/s) = 2.65830 3.49191 3.10323
# Velocity P-wave (km/s) = 6.00519 6.79536 6.41245
#
# Compressibility (1/GPa) = 0.01766092
#
# Stress axis : x y z
#
# Youngs Moduli (GPa) = 120.18039 35.64073 48.13973
#
# Poissons Ratio (x) = 0.03156 0.18338
# Poissons Ratio (y) = 0.10642 0.72452
# Poissons Ratio (z) = 0.45782 0.53640
#
# Static dielectric constant tensor:
#      x y z
#    x 4.324870 0.000000 0.000000 
#    y 0.000000 3.322320 0.000000 
#    z 0.000000 0.000000 3.719300 
# 
# 
# High freq. dielectric constant tensor:
#      x y z
#    x 1.859300 0.000000 0.000000 
#    y 0.000000 1.781840 0.000000 
#    z 0.000000 0.000000 1.830770 
# 
# From -- ./inp_files/1941.got.cif
#   From: 2010.03.12/outbox.cif.g09.slc.cpg/sg31_1_cif.got.tgz:1941.got - 2010.04.14 01:42:59.
