data_PCOD8170352
_publ_section_title
;
Structure prediction by ZEFSAII (Michael W. Deem and Ramdas Pophale) SiO2 
 PCOD8170352
Probable space group: P M N 21
;
_chemical_formula_sum "Si O2"
_cell_formula_units_Z 32
_cell_length_a 8.494375
_cell_length_b 11.800011
_cell_length_c 15.270686
_cell_angle_alpha 90.000000
_cell_angle_beta 90.000000
_cell_angle_gamma 90.000000
_cell_volume 1530.637641
_symmetry_space_group_name_H-M "P M N 21"
_symmetry_group_IT_number 31
_symmetry_cell_setting 'orthorhombic'
loop_
_space_group_symop_operation_xyz
x,y,z
1/2-x,-y,1/2+z
-x,y,z
1/2+x,-y,1/2+z
loop_
_atom_site_type_symbol
_atom_site_label
_atom_site_fract_x
_atom_site_fract_y
_atom_site_fract_z
Si Si1 0.318257 0.229056 0.762990
Si Si2 0.316971 0.785541 0.942776
Si Si3 0.817278 0.366677 0.605962
Si Si4 0.817704 0.389123 0.111926
Si Si5 0.182769 0.000756 0.016635
Si Si6 0.183182 0.004926 0.703500
Si Si7 0.316408 0.242155 0.262467
Si Si8 0.184490 0.244694 0.946113
O O1 0.500000 0.250004 0.741156
O O2 0.212096 0.292529 0.691961
O O3 0.278912 0.277831 0.858816
O O4 0.278281 0.095433 0.761436
O O5 0.500000 0.814230 0.949539
O O6 0.276551 0.725856 0.850837
O O7 0.264080 0.702926 0.020706
O O8 0.217791 0.902237 0.946646
O O9 0.711109 0.477852 0.608338
O O10 0.000000 0.400488 0.601329
O O11 0.717762 0.336909 0.190607
O O12 0.000000 0.362965 0.129536
O O13 0.764230 0.333492 0.020452
O O14 0.000000 0.002826 0.042798
O O15 0.285967 0.972762 0.101533
O O16 0.235712 0.119850 0.976564
O O17 0.243032 0.879664 0.727760
O O18 0.000000 0.020919 0.724019
O O19 0.500000 0.240610 0.283204
O O20 0.000000 0.250274 0.925612
#
# Coordination Sequence:
#
# PCOD8170352 Si02
#       8
#     4   4   4   4   4   4   4   4
#     4  12  25  40  65  96 127 167 212 260 311 375
#     4  11  24  41  64  93 128 168 210 261 313 372
#     4  11  25  45  66  90 124 166 211 265 318 371
#     4  11  24  44  68  93 123 164 213 264 314 373
#     4  11  21  37  64  95 128 166 206 254 316 378
#     4  11  22  38  62  93 130 169 206 253 316 377
#     4  11  24  41  65  95 130 169 208 258 314 376
#     4  10  23  42  64  93 130 167 204 257 316 374
#
# _framework density 20.906317999999999
#
# number of rings (size 3 to 8) (size 9 to 14) (size 15 to 20)
#    0.000    1.000    2.500    4.125    0.000    9.000 
#    0.000    2.500    0.000    0.000    0.000    0.000 
#    0.000    0.000    0.000    0.000    0.000    0.000 
#
# Total GULP energy -397093.019966 kJ/mol
# GULP energy per Si atom -12409.156874 kJ/mol
# Density = 2.085873 g / cm^3
# Si number density = 20.906318 Si / 1000 Ang^3
#
#
#
# Elastic Constant Matrix: (Units=GPa)
#
#
# Indices 1 2 3 4 5 6 
#
# 1 54.3226 19.2973 24.1831 0.0000 0.0000 0.0000
# 2 19.2973 110.1214 36.4059 0.0000 0.0000 0.0000
# 3 24.1831 36.4059 125.6381 0.0000 0.0000 0.0000
# 4 0.0000 0.0000 0.0000 12.4634 0.0000 0.0000
# 5 0.0000 0.0000 0.0000 0.0000 35.8507 0.0000
# 6 0.0000 0.0000 0.0000 0.0000 0.0000 31.1263
#
#
#
# Elastic Compliance Matrix: (Units=1/GPa)
#
#
# Indices 1 2 3 4 5 6 
#
# 1 0.020768 -0.002563 -0.003255 0.000000 0.000000 0.000000
# 2 -0.002563 0.010359 -0.002508 0.000000 0.000000 0.000000
# 3 -0.003255 -0.002508 0.009313 0.000000 0.000000 0.000000
# 4 0.000000 0.000000 0.000000 0.080235 0.000000 0.000000
# 5 0.000000 0.000000 0.000000 0.000000 0.027893 0.000000
# 6 0.000000 0.000000 0.000000 0.000000 0.000000 0.032127
#
#
# Mechanical properties :
#
#
# Convention : Reuss Voigt Hill
#
# Bulk Modulus (GPa) = 42.03940 49.98385 46.01163
# Shear Modulus (GPa) = 24.35725 29.90113 27.12919
#
# Velocity S-wave (km/s) = 3.41701 3.78596 3.60621
# Velocity P-wave (km/s) = 5.97663 6.56290 6.27661
#
# Compressibility (1/GPa) = 0.02378721
#
# Stress axis : x y z
#
# Youngs Moduli (GPa) = 48.15086 96.53115 107.38024
#
# Poissons Ratio (x) = 0.24744 0.34949
# Poissons Ratio (y) = 0.12343 0.26935
# Poissons Ratio (z) = 0.15672 0.24214
#
# Static dielectric constant tensor:
#      x y z
#    x 3.629080 0.000000 0.000000 
#    y 0.000000 3.702590 0.000000 
#    z 0.000000 0.000000 3.835640 
# 
# 
# High freq. dielectric constant tensor:
#      x y z
#    x 1.819780 0.000000 0.000000 
#    y 0.000000 1.814050 0.000000 
#    z 0.000000 0.000000 1.830680 
# 
# From -- ./inp_files/4997.got.cif
#   From: 2010.03.12/outbox.cif.g09.slc.cpg/sg31_3_cif.got.tgz:4997.got - 2010.04.14 01:42:59.
