data_PCOD8170754
_publ_section_title
;
Structure prediction by ZEFSAII (Michael W. Deem and Ramdas Pophale) SiO2 
 PCOD8170754
Probable space group: P N A 21
;
_chemical_formula_sum "Si O2"
_cell_formula_units_Z 28
_cell_length_a 12.842082
_cell_length_b 13.661107
_cell_length_c 7.062822
_cell_angle_alpha 90.000000
_cell_angle_beta 90.000000
_cell_angle_gamma 90.000000
_cell_volume 1239.080701
_symmetry_space_group_name_H-M "P N A 21"
_symmetry_group_IT_number 33
_symmetry_cell_setting 'orthorhombic'
loop_
_space_group_symop_operation_xyz
x,y,z
-x,-y,1/2+z
1/2-x,1/2+y,1/2+z
1/2+x,1/2-y,z
loop_
_atom_site_type_symbol
_atom_site_label
_atom_site_fract_x
_atom_site_fract_y
_atom_site_fract_z
Si Si1 0.928654 0.876310 0.596070
Si Si2 0.318183 0.923116 0.335654
Si Si3 0.848655 0.211752 0.693248
Si Si4 0.479239 0.574250 0.171382
Si Si5 0.485331 0.186165 0.992653
Si Si6 0.205992 0.564424 0.531098
Si Si7 0.753192 0.902834 0.093857
O O1 0.949223 0.885396 0.374036
O O2 0.969090 0.766318 0.642382
O O3 0.805832 0.887568 0.637462
O O4 0.996315 0.959128 0.701258
O O5 0.230557 0.838236 0.345141
O O6 0.425594 0.883523 0.412543
O O7 0.316119 0.955302 0.113082
O O8 0.298413 0.021188 0.453376
O O9 0.787896 0.290952 0.562092
O O10 0.917220 0.128181 0.583359
O O11 0.935370 0.269002 0.806837
O O12 0.376999 0.593938 0.043814
O O13 0.395523 0.125014 0.096423
O O14 0.226059 0.560908 0.306683
#
# Coordination Sequence:
#
# PCOD8170754 Si02
#       7
#     4   4   4   4   4   4   4
#     4  10  20  40  63  90 125 167 211 262 312 380
#     4  12  23  43  69  91 131 174 208 266 329 380
#     4  10  20  41  64  93 129 171 213 269 318 386
#     4  10  19  36  66  88 120 170 208 261 316 370
#     4  10  22  38  66  88 128 169 204 261 328 370
#     4  10  23  41  62  96 129 160 217 265 311 386
#     4  10  23  41  64  96 130 167 217 262 326 382
#
# _framework density 22.597397999999998
#
# number of rings (size 3 to 8) (size 9 to 14) (size 15 to 20)
#    0.000    1.714    1.429    5.143    4.000    0.000 
#    2.571    4.286    3.143    0.000    0.000    0.000 
#    0.000    0.000    0.000    0.000    0.000    0.000 
#
# Total GULP energy -346956.297157 kJ/mol
# GULP energy per Si atom -12391.296327 kJ/mol
# Density = 2.254597 g / cm^3
# Si number density = 22.597398 Si / 1000 Ang^3
#
#
#
# Elastic Constant Matrix: (Units=GPa)
#
#
# Indices 1 2 3 4 5 6 
#
# 1 193.3465 86.6339 12.6242 0.0000 0.0000 0.0000
# 2 86.6339 138.1379 23.7158 0.0000 0.0000 0.0000
# 3 12.6242 23.7158 15.6718 0.0000 0.0000 0.0000
# 4 0.0000 0.0000 0.0000 29.0218 0.0000 0.0000
# 5 0.0000 0.0000 0.0000 0.0000 99.0968 0.0000
# 6 0.0000 0.0000 0.0000 0.0000 0.0000 42.0240
#
#
#
# Elastic Compliance Matrix: (Units=1/GPa)
#
#
# Indices 1 2 3 4 5 6 
#
# 1 0.007216 -0.004766 0.001399 0.000000 0.000000 0.000000
# 2 -0.004766 0.012928 -0.015724 0.000000 0.000000 0.000000
# 3 0.001399 -0.015724 0.086477 0.000000 0.000000 0.000000
# 4 0.000000 0.000000 0.000000 0.034457 0.000000 0.000000
# 5 0.000000 0.000000 0.000000 0.000000 0.010091 0.000000
# 6 0.000000 0.000000 0.000000 0.000000 0.000000 0.023796
#
#
# Mechanical properties :
#
#
# Convention : Reuss Voigt Hill
#
# Bulk Modulus (GPa) = 14.61151 65.90043 40.25597
# Shear Modulus (GPa) = 21.19013 48.97399 35.08206
#
# Velocity S-wave (km/s) = 3.06555 4.66041 3.94443
# Velocity P-wave (km/s) = 4.36007 7.62794 6.21271
#
# Compressibility (1/GPa) = 0.06843919
#
# Stress axis : x y z
#
# Youngs Moduli (GPa) = 138.57740 77.35372 11.56380
#
# Poissons Ratio (x) = 0.36866 -0.01618
# Poissons Ratio (y) = 0.66044 0.18183
# Poissons Ratio (z) = -0.19390 1.21631
#
# Static dielectric constant tensor:
#      x y z
#    x 4.720660 0.000000 0.000000 
#    y 0.000000 4.790290 0.000000 
#    z 0.000000 0.000000 3.639180 
# 
# 
# High freq. dielectric constant tensor:
#      x y z
#    x 1.912340 0.000000 0.000000 
#    y 0.000000 1.900640 0.000000 
#    z 0.000000 0.000000 1.848720 
# 
# From -- ./inp_files/3834.got.cif
#   From: 2010.03.12/outbox.cif.g09.slc.cpg/sg33_2_cif.got.tgz:3834.got - 2010.04.14 01:49:19.
