data_PCOD8170798
_publ_section_title
;
Structure prediction by ZEFSAII (Michael W. Deem and Ramdas Pophale) SiO2 
 PCOD8170798
Probable space group: P N A 21
;
_chemical_formula_sum "Si O2"
_cell_formula_units_Z 24
_cell_length_a 15.187589
_cell_length_b 11.774596
_cell_length_c 6.361627
_cell_angle_alpha 90.000000
_cell_angle_beta 90.000000
_cell_angle_gamma 90.000000
_cell_volume 1137.635282
_symmetry_space_group_name_H-M "P N A 21"
_symmetry_group_IT_number 33
_symmetry_cell_setting 'orthorhombic'
loop_
_space_group_symop_operation_xyz
x,y,z
-x,-y,1/2+z
1/2-x,1/2+y,1/2+z
1/2+x,1/2-y,z
loop_
_atom_site_type_symbol
_atom_site_label
_atom_site_fract_x
_atom_site_fract_y
_atom_site_fract_z
Si Si1 0.658378 0.355524 0.731790
Si Si2 0.800457 0.450552 0.033135
Si Si3 0.367327 0.277598 0.119247
Si Si4 0.308612 0.811919 0.871866
Si Si5 0.439975 0.656797 0.621752
Si Si6 0.837685 0.020886 0.854086
O O1 0.682452 0.243904 0.600897
O O2 0.653792 0.464223 0.582883
O O3 0.730344 0.374479 0.910413
O O4 0.567596 0.339755 0.866280
O O5 0.876365 0.358592 0.082672
O O6 0.757016 0.496937 0.249043
O O7 0.835477 0.555685 0.895102
O O8 0.292217 0.302817 0.293061
O O9 0.462134 0.317840 0.203240
O O10 0.347909 0.345000 0.899907
O O11 0.374397 0.752349 0.712020
O O12 0.414217 0.531111 0.706508
#
# Coordination Sequence:
#
# PCOD8170798 Si02
#       6
#     4   4   4   4   4   4
#     4  10  19  43  64  89 131 168 212 279 320 382
#     4  11  22  41  67  95 125 177 218 266 335 392
#     4  12  23  43  69  97 130 177 222 268 342 396
#     4  11  23  44  65  92 136 171 220 277 328 400
#     4  10  25  43  62 100 134 166 227 277 329 398
#     4  10  22  40  67  97 128 167 225 275 320 390
#
# _framework density 21.096395000000001
#
# number of rings (size 3 to 8) (size 9 to 14) (size 15 to 20)
#    0.000    1.333    6.667    1.000    2.333    0.000 
#   12.000    0.000    0.000    0.000    0.000    0.000 
#    0.000    0.000    0.000    0.000    0.000    0.000 
#
# Total GULP energy -297478.214492 kJ/mol
# GULP energy per Si atom -12394.925604 kJ/mol
# Density = 2.104838 g / cm^3
# Si number density = 21.096395 Si / 1000 Ang^3
#
#
#
# Elastic Constant Matrix: (Units=GPa)
#
#
# Indices 1 2 3 4 5 6 
#
# 1 86.7797 19.8728 32.6316 0.0000 0.0000 0.0000
# 2 19.8728 139.2396 33.4824 0.0000 0.0000 0.0000
# 3 32.6316 33.4824 107.1753 0.0000 0.0000 0.0000
# 4 0.0000 0.0000 0.0000 39.7352 0.0000 0.0000
# 5 0.0000 0.0000 0.0000 0.0000 17.2585 0.0000
# 6 0.0000 0.0000 0.0000 0.0000 0.0000 17.1712
#
#
#
# Elastic Compliance Matrix: (Units=1/GPa)
#
#
# Indices 1 2 3 4 5 6 
#
# 1 0.013138 -0.000987 -0.003692 0.000000 0.000000 0.000000
# 2 -0.000987 0.007839 -0.002148 0.000000 0.000000 0.000000
# 3 -0.003692 -0.002148 0.011126 0.000000 0.000000 0.000000
# 4 0.000000 0.000000 0.000000 0.025167 0.000000 0.000000
# 5 0.000000 0.000000 0.000000 0.000000 0.057943 0.000000
# 6 0.000000 0.000000 0.000000 0.000000 0.000000 0.058237
#
#
# Mechanical properties :
#
#
# Convention : Reuss Voigt Hill
#
# Bulk Modulus (GPa) = 54.20651 56.12981 55.16816
# Shear Modulus (GPa) = 25.87282 31.31349 28.59316
#
# Velocity S-wave (km/s) = 3.50581 3.85685 3.68551
# Velocity P-wave (km/s) = 6.49139 6.81893 6.65717
#
# Compressibility (1/GPa) = 0.01844797
#
# Stress axis : x y z
#
# Youngs Moduli (GPa) = 76.11702 127.56041 89.88218
#
# Poissons Ratio (x) = 0.12595 0.33181
# Poissons Ratio (y) = 0.07515 0.19311
# Poissons Ratio (z) = 0.28099 0.27406
#
# Static dielectric constant tensor:
#      x y z
#    x 3.586780 0.000000 0.000000 
#    y 0.000000 4.034450 0.000000 
#    z 0.000000 0.000000 3.891330 
# 
# 
# High freq. dielectric constant tensor:
#      x y z
#    x 1.794950 0.000000 0.000000 
#    y 0.000000 1.836720 0.000000 
#    z 0.000000 0.000000 1.829660 
# 
# From -- ./inp_files/1271.got.cif
#   From: 2010.03.12/outbox.cif.g09.slc.cpg/sg33_1_cif.got.tgz:1271.got - 2010.04.14 01:49:19.
