data_PCOD8170515
_publ_section_title
;
Structure prediction by ZEFSAII (Michael W. Deem and Ramdas Pophale) SiO2 
 PCOD8170515
Probable space group: P B A 2
;
_chemical_formula_sum "Si O2"
_cell_formula_units_Z 30
_cell_length_a 20.712118
_cell_length_b 10.453581
_cell_length_c 6.533466
_cell_angle_alpha 90.000000
_cell_angle_beta 90.000000
_cell_angle_gamma 90.000000
_cell_volume 1414.598639
_symmetry_space_group_name_H-M "P B A 2"
_symmetry_group_IT_number 32
_symmetry_cell_setting 'orthorhombic'
loop_
_space_group_symop_operation_xyz
x,y,z
-x,-y,z
1/2-x,1/2+y,z
1/2+x,1/2-y,z
loop_
_atom_site_type_symbol
_atom_site_label
_atom_site_fract_x
_atom_site_fract_y
_atom_site_fract_z
Si Si1 0.214859 0.935545 0.212720
Si Si2 0.000000 0.500000 0.717934
Si Si3 0.844175 0.456981 0.256080
Si Si4 0.630971 0.611328 0.826050
Si Si5 0.942805 0.671703 0.370019
Si Si6 0.554099 0.811364 0.029495
Si Si7 0.852297 0.886745 0.535679
Si Si8 0.220000 0.722240 0.538425
O O1 0.229276 0.803983 0.331054
O O2 0.282572 0.992973 0.129755
O O3 0.178555 0.034620 0.354821
O O4 0.169876 0.924363 0.022696
O O5 0.969911 0.608924 0.575974
O O6 0.951564 0.427806 0.870093
O O7 0.893544 0.573096 0.272171
O O8 0.879050 0.337276 0.148668
O O9 0.817513 0.409116 0.477511
O O10 0.615148 0.481909 0.701324
O O11 0.675853 0.706905 0.699831
O O12 0.564340 0.680417 0.899148
O O13 0.909153 0.801332 0.441893
O O14 0.996624 0.701313 0.196140
O O15 0.791942 0.805313 0.630749
#
# Coordination Sequence:
#
# PCOD8170515 Si02
#       8
#     4   2   4   4   4   4   4   4
#     4  10  22  41  68  99 132 173 217 284 350 403
#     4  12  24  42  68 100 124 170 244 280 338 394
#     4  11  20  42  69  97 131 171 217 287 350 395
#     4  11  25  42  68 101 136 177 228 275 348 420
#     4  12  24  45  67  95 140 180 227 289 340 408
#     4  12  25  43  67  99 133 183 229 285 345 407
#     4  10  25  43  64 102 138 177 225 276 348 423
#     4  10  21  41  69  99 133 172 217 285 353 403
#
# _framework density 21.207429999999999
#
# number of rings (size 3 to 8) (size 9 to 14) (size 15 to 20)
#    0.000    1.067    5.333    0.800    1.867    2.133 
#    0.000    4.000    0.000    0.000    0.000    0.000 
#    0.000    0.000    0.000    0.000    0.000    0.000 
#
# Total GULP energy -371860.122458 kJ/mol
# GULP energy per Si atom -12395.337415 kJ/mol
# Density = 2.115916 g / cm^3
# Si number density = 21.207430 Si / 1000 Ang^3
#
#
#
# Elastic Constant Matrix: (Units=GPa)
#
#
# Indices 1 2 3 4 5 6 
#
# 1 100.7982 50.9523 41.6007 0.0000 0.0000 0.0000
# 2 50.9523 100.8819 32.3829 0.0000 0.0000 0.0000
# 3 41.6007 32.3829 79.4024 0.0000 0.0000 0.0000
# 4 0.0000 0.0000 0.0000 26.9516 0.0000 0.0000
# 5 0.0000 0.0000 0.0000 0.0000 28.3632 0.0000
# 6 0.0000 0.0000 0.0000 0.0000 0.0000 44.3873
#
#
#
# Elastic Compliance Matrix: (Units=1/GPa)
#
#
# Indices 1 2 3 4 5 6 
#
# 1 0.015191 -0.005889 -0.005557 0.000000 0.000000 0.000000
# 2 -0.005889 0.013688 -0.002497 0.000000 0.000000 0.000000
# 3 -0.005557 -0.002497 0.016524 0.000000 0.000000 0.000000
# 4 0.000000 0.000000 0.000000 0.037104 0.000000 0.000000
# 5 0.000000 0.000000 0.000000 0.000000 0.035257 0.000000
# 6 0.000000 0.000000 0.000000 0.000000 0.000000 0.022529
#
#
# Mechanical properties :
#
#
# Convention : Reuss Voigt Hill
#
# Bulk Modulus (GPa) = 57.08768 58.99492 58.04130
# Shear Modulus (GPa) = 28.73253 30.35019 29.54136
#
# Velocity S-wave (km/s) = 3.68480 3.78711 3.73630
# Velocity P-wave (km/s) = 6.71422 6.85575 6.78536
#
# Compressibility (1/GPa) = 0.01751691
#
# Stress axis : x y z
#
# Youngs Moduli (GPa) = 65.82836 73.05459 60.51722
#
# Poissons Ratio (x) = 0.43019 0.33632
# Poissons Ratio (y) = 0.38764 0.15114
# Poissons Ratio (z) = 0.36583 0.18245
#
# Static dielectric constant tensor:
#      x y z
#    x 4.042320 0.000000 0.000000 
#    y 0.000000 4.190660 0.000000 
#    z 0.000000 0.000000 3.934430 
# 
# 
# High freq. dielectric constant tensor:
#      x y z
#    x 1.832060 0.000000 0.000000 
#    y 0.000000 1.840900 0.000000 
#    z 0.000000 0.000000 1.827730 
# 
# From -- ./inp_files/1580.got.cif
#   From: 2010.03.12/outbox.cif.g09.slc.cpg/sg32_1_cif.got.tgz:1580.got - 2010.04.14 01:46:39.
