data_PCOD8170404
_publ_section_title
;
Structure prediction by ZEFSAII (Michael W. Deem and Ramdas Pophale) SiO2 
 PCOD8170404
Probable space group: P B A 2
;
_chemical_formula_sum "Si O2"
_cell_formula_units_Z 30
_cell_length_a 13.386655
_cell_length_b 12.696128
_cell_length_c 9.103043
_cell_angle_alpha 90.000000
_cell_angle_beta 90.000000
_cell_angle_gamma 90.000000
_cell_volume 1547.141221
_symmetry_space_group_name_H-M "P B A 2"
_symmetry_group_IT_number 32
_symmetry_cell_setting 'orthorhombic'
loop_
_space_group_symop_operation_xyz
x,y,z
-x,-y,z
1/2-x,1/2+y,z
1/2+x,1/2-y,z
loop_
_atom_site_type_symbol
_atom_site_label
_atom_site_fract_x
_atom_site_fract_y
_atom_site_fract_z
Si Si1 0.591105 0.709822 0.800860
Si Si2 0.363941 0.599115 0.055208
Si Si3 0.806580 0.692693 0.883724
Si Si4 0.250383 0.416270 0.163193
Si Si5 0.500000 0.500000 0.834367
Si Si6 0.449968 0.888818 0.327047
Si Si7 0.550984 0.710732 0.140294
Si Si8 0.024089 0.378902 0.663229
O O1 0.707960 0.690004 0.785062
O O2 0.526996 0.606596 0.744717
O O3 0.573146 0.808449 0.694148
O O4 0.559193 0.739317 0.967663
O O5 0.284452 0.539182 0.160370
O O6 0.457585 0.631406 0.157175
O O7 0.315296 0.697220 0.971090
O O8 0.401445 0.514444 0.935042
O O9 0.895563 0.668593 0.774517
O O10 0.800475 0.602504 0.005632
O O11 0.166305 0.392125 0.282843
O O12 0.345636 0.340680 0.196204
O O13 0.521722 0.811626 0.235825
O O14 0.444391 0.858175 0.497068
O O15 0.500000 0.000000 0.301852
O O16 0.000000 0.500000 0.696517
#
# Coordination Sequence:
#
# PCOD8170404 Si02
#       8
#     4   4   4   4   2   4   4   4
#     4  10  21  37  66  91 119 154 201 261 309 363
#     4  11  18  36  62  97 123 143 198 265 316 360
#     4  11  22  36  64  98 112 160 204 260 313 366
#     4  11  22  37  67  92 121 156 206 261 313 371
#     4  10  16  36  60  90 122 142 186 264 308 348
#     4  11  26  41  58  86 128 172 207 251 304 379
#     4  10  20  39  63  92 116 154 204 259 310 363
#     4  11  25  43  57  85 133 170 203 252 309 374
#
# _framework density 19.390602999999999
#
# number of rings (size 3 to 8) (size 9 to 14) (size 15 to 20)
#    0.000    1.333    8.000    0.000    5.600    2.133 
#    0.000    1.333    2.933    0.000    0.000    0.000 
#    0.000    0.000    0.000    0.000    0.000    0.000 
#
# Total GULP energy -371860.566390 kJ/mol
# GULP energy per Si atom -12395.352213 kJ/mol
# Density = 1.934647 g / cm^3
# Si number density = 19.390603 Si / 1000 Ang^3
#
#
#
# Elastic Constant Matrix: (Units=GPa)
#
#
# Indices 1 2 3 4 5 6 
#
# 1 94.8186 37.7059 45.9847 0.0000 0.0000 0.0000
# 2 37.7059 103.3232 46.6756 0.0000 0.0000 0.0000
# 3 45.9847 46.6756 74.6183 0.0000 0.0000 0.0000
# 4 0.0000 0.0000 0.0000 17.8665 0.0000 0.0000
# 5 0.0000 0.0000 0.0000 0.0000 22.7129 0.0000
# 6 0.0000 0.0000 0.0000 0.0000 0.0000 32.5795
#
#
#
# Elastic Compliance Matrix: (Units=1/GPa)
#
#
# Indices 1 2 3 4 5 6 
#
# 1 0.015290 -0.001844 -0.008269 0.000000 0.000000 0.000000
# 2 -0.001844 0.013713 -0.007441 0.000000 0.000000 0.000000
# 3 -0.008269 -0.007441 0.023152 0.000000 0.000000 0.000000
# 4 0.000000 0.000000 0.000000 0.055971 0.000000 0.000000
# 5 0.000000 0.000000 0.000000 0.000000 0.044028 0.000000
# 6 0.000000 0.000000 0.000000 0.000000 0.000000 0.030694
#
#
# Mechanical properties :
#
#
# Convention : Reuss Voigt Hill
#
# Bulk Modulus (GPa) = 58.66487 59.27695 58.97091
# Shear Modulus (GPa) = 22.35743 24.12470 23.24107
#
# Velocity S-wave (km/s) = 3.39927 3.53107 3.46580
# Velocity P-wave (km/s) = 6.76215 6.87466 6.81864
#
# Compressibility (1/GPa) = 0.01704598
#
# Stress axis : x y z
#
# Youngs Moduli (GPa) = 65.40127 72.92387 43.19253
#
# Poissons Ratio (x) = 0.13450 0.35717
# Poissons Ratio (y) = 0.12062 0.32140
# Poissons Ratio (z) = 0.54081 0.54264
#
# Static dielectric constant tensor:
#      x y z
#    x 3.796510 0.000000 0.000000 
#    y 0.000000 3.745600 0.000000 
#    z 0.000000 0.000000 3.240710 
# 
# 
# High freq. dielectric constant tensor:
#      x y z
#    x 1.770940 0.000000 0.000000 
#    y 0.000000 1.769080 0.000000 
#    z 0.000000 0.000000 1.710440 
# 
# From -- ./inp_files/3078.got.cif
#   From: 2010.03.12/outbox.cif.g09.slc.cpg/sg32_2_cif.got.tgz:3078.got - 2010.04.14 01:46:39.
