data_PCOD8170903
_publ_section_title
;
Structure prediction by ZEFSAII (Michael W. Deem and Ramdas Pophale) SiO2 
 PCOD8170903
Probable space group: P N A 21
;
_chemical_formula_sum "Si O2"
_cell_formula_units_Z 32
_cell_length_a 8.784394
_cell_length_b 30.877257
_cell_length_c 5.123004
_cell_angle_alpha 90.000000
_cell_angle_beta 90.000000
_cell_angle_gamma 90.000000
_cell_volume 1389.553313
_symmetry_space_group_name_H-M "P N A 21"
_symmetry_group_IT_number 33
_symmetry_cell_setting 'orthorhombic'
loop_
_space_group_symop_operation_xyz
x,y,z
-x,-y,1/2+z
1/2-x,1/2+y,1/2+z
1/2+x,1/2-y,z
loop_
_atom_site_type_symbol
_atom_site_label
_atom_site_fract_x
_atom_site_fract_y
_atom_site_fract_z
Si Si1 0.916925 0.449210 0.065670
Si Si2 0.894820 0.840617 0.891705
Si Si3 0.208565 0.791702 0.337053
Si Si4 0.708917 0.861790 0.409640
Si Si5 0.883811 0.545682 0.070822
Si Si6 0.296870 0.373690 0.511443
Si Si7 0.527377 0.248125 0.560674
Si Si8 0.558715 0.178058 0.201714
O O1 0.794693 0.412247 0.992226
O O2 0.832439 0.495648 0.041821
O O3 0.989157 0.442353 0.352525
O O4 0.050136 0.446569 0.856201
O O5 0.771815 0.854099 0.116522
O O6 0.970292 0.793628 0.913678
O O7 0.039252 0.873035 0.868691
O O8 0.820237 0.838638 0.609699
O O9 0.179845 0.842402 0.264609
O O10 0.304401 0.769290 0.106870
O O11 0.304336 0.790614 0.600914
O O12 0.061583 0.759560 0.333963
O O13 0.539535 0.841186 0.458055
O O14 0.734348 0.575952 0.070774
O O15 0.144100 0.360418 0.352795
O O16 0.452829 0.208980 0.386698
#
# Coordination Sequence:
#
# PCOD8170903 Si02
#       8
#     4   4   4   4   4   4   4   4
#     4  10  21  38  68 101 130 162 224 270 330 386
#     4  11  28  42  64  91 142 172 217 270 344 389
#     4  10  23  38  65  86 128 163 223 269 326 387
#     4  12  25  44  66  99 130 177 216 279 330 402
#     4  10  20  39  68 100 129 167 214 282 319 394
#     4  10  23  43  62  98 126 176 217 270 330 403
#     4  10  24  42  56  97 122 174 220 275 326 389
#     4  11  24  40  73  88 125 173 231 271 323 398
#
# _framework density 23.028981000000002
#
# number of rings (size 3 to 8) (size 9 to 14) (size 15 to 20)
#    0.000    1.500    1.250    2.250   10.500    2.000 
#    0.000    1.250    0.000    0.000    0.000    0.000 
#    0.000    0.000    0.000    0.000    0.000    0.000 
#
# Total GULP energy -396459.815379 kJ/mol
# GULP energy per Si atom -12389.369231 kJ/mol
# Density = 2.297657 g / cm^3
# Si number density = 23.028981 Si / 1000 Ang^3
#
#
#
# Elastic Constant Matrix: (Units=GPa)
#
#
# Indices 1 2 3 4 5 6 
#
# 1 66.2750 25.6526 3.3033 0.0000 0.0000 0.0000
# 2 25.6526 105.0632 4.0699 0.0000 0.0000 0.0000
# 3 3.3033 4.0699 54.1358 0.0000 0.0000 0.0000
# 4 0.0000 0.0000 0.0000 20.5458 0.0000 0.0000
# 5 0.0000 0.0000 0.0000 0.0000 35.0628 0.0000
# 6 0.0000 0.0000 0.0000 0.0000 0.0000 33.1385
#
#
#
# Elastic Compliance Matrix: (Units=1/GPa)
#
#
# Indices 1 2 3 4 5 6 
#
# 1 0.016691 -0.004048 -0.000714 0.000000 0.000000 0.000000
# 2 -0.004048 0.010527 -0.000544 0.000000 0.000000 0.000000
# 3 -0.000714 -0.000544 0.018557 0.000000 0.000000 0.000000
# 4 0.000000 0.000000 0.000000 0.048672 0.000000 0.000000
# 5 0.000000 0.000000 0.000000 0.000000 0.028520 0.000000
# 6 0.000000 0.000000 0.000000 0.000000 0.000000 0.030176
#
#
# Mechanical properties :
#
#
# Convention : Reuss Voigt Hill
#
# Bulk Modulus (GPa) = 28.43944 32.39171 30.41558
# Shear Modulus (GPa) = 28.49383 30.57932 29.53658
#
# Velocity S-wave (km/s) = 3.52135 3.64794 3.58520
# Velocity P-wave (km/s) = 5.37675 5.64264 5.51130
#
# Compressibility (1/GPa) = 0.03516243
#
# Stress axis : x y z
#
# Youngs Moduli (GPa) = 59.91281 94.98967 53.88930
#
# Poissons Ratio (x) = 0.38448 0.03848
# Poissons Ratio (y) = 0.24251 0.02934
# Poissons Ratio (z) = 0.04279 0.05172
#
# Static dielectric constant tensor:
#      x y z
#    x 4.098030 0.000000 0.000000 
#    y 0.000000 4.437720 0.000000 
#    z 0.000000 0.000000 4.070540 
# 
# 
# High freq. dielectric constant tensor:
#      x y z
#    x 1.891140 0.000000 0.000000 
#    y 0.000000 1.910800 0.000000 
#    z 0.000000 0.000000 1.911240 
# 
# From -- ./inp_files/615.got.cif
#   From: 2010.03.12/outbox.cif.g09.slc.cpg/sg33_1_cif.got.tgz:615.got - 2010.04.14 01:49:19.
