data_PCOD8170736
_publ_section_title
;
Structure prediction by ZEFSAII (Michael W. Deem and Ramdas Pophale) SiO2 
 PCOD8170736
Probable space group: P N A 21
;
_chemical_formula_sum "Si O2"
_cell_formula_units_Z 28
_cell_length_a 8.924114
_cell_length_b 10.718161
_cell_length_c 14.036379
_cell_angle_alpha 90.000000
_cell_angle_beta 90.000000
_cell_angle_gamma 90.000000
_cell_volume 1342.580924
_symmetry_space_group_name_H-M "P N A 21"
_symmetry_group_IT_number 33
_symmetry_cell_setting 'orthorhombic'
loop_
_space_group_symop_operation_xyz
x,y,z
-x,-y,1/2+z
1/2-x,1/2+y,1/2+z
1/2+x,1/2-y,z
loop_
_atom_site_type_symbol
_atom_site_label
_atom_site_fract_x
_atom_site_fract_y
_atom_site_fract_z
Si Si1 0.522392 0.813812 0.152750
Si Si2 0.701919 0.350490 0.416967
Si Si3 0.505920 0.542623 0.064733
Si Si4 0.471779 0.511423 0.772564
Si Si5 0.965775 0.603967 0.958921
Si Si6 0.283279 0.563822 0.410861
Si Si7 0.744208 0.723441 0.281632
O O1 0.544669 0.684210 0.094129
O O2 0.676256 0.831783 0.211723
O O3 0.391743 0.825311 0.230264
O O4 0.500047 0.917895 0.071564
O O5 0.639014 0.451117 0.494962
O O6 0.629802 0.376815 0.313388
O O7 0.659480 0.211663 0.448126
O O8 0.880132 0.364341 0.405118
O O9 0.484886 0.465464 0.162524
O O10 0.639927 0.469270 0.011523
O O11 0.628018 0.508679 0.828211
O O12 0.380877 0.382942 0.791998
O O13 0.890271 0.480542 0.915413
O O14 0.280770 0.711829 0.383788
#
# Coordination Sequence:
#
# PCOD8170736 Si02
#       7
#     4   4   4   4   4   4   4
#     4  10  19  35  62  87 113 151 207 250 292 344
#     4  10  21  36  62  88 120 158 202 254 297 358
#     4   9  18  38  58  86 114 159 196 250 298 345
#     4  10  21  38  60  83 125 161 199 249 308 356
#     4  11  21  36  61  91 118 151 206 252 298 350
#     4  11  22  36  59  90 124 153 200 256 301 360
#     4  11  20  35  60  91 118 153 196 251 306 351
#
# _framework density 20.855353000000001
#
# number of rings (size 3 to 8) (size 9 to 14) (size 15 to 20)
#    0.000    1.714    2.857    6.000    2.000    0.000 
#    0.000    0.000   12.571    0.000    0.000    0.000 
#    0.000    0.000    0.000    0.000    0.000    0.000 
#
# Total GULP energy -346963.149232 kJ/mol
# GULP energy per Si atom -12391.541044 kJ/mol
# Density = 2.080789 g / cm^3
# Si number density = 20.855353 Si / 1000 Ang^3
#
#
#
# Elastic Constant Matrix: (Units=GPa)
#
#
# Indices 1 2 3 4 5 6 
#
# 1 78.2229 -5.0098 8.4996 0.0000 0.0000 0.0000
# 2 -5.0098 23.3530 10.8361 0.0000 0.0000 0.0000
# 3 8.4996 10.8361 103.1129 0.0000 0.0000 0.0000
# 4 0.0000 0.0000 0.0000 32.8315 0.0000 0.0000
# 5 0.0000 0.0000 0.0000 0.0000 27.8572 0.0000
# 6 0.0000 0.0000 0.0000 0.0000 0.0000 28.7656
#
#
#
# Elastic Compliance Matrix: (Units=1/GPa)
#
#
# Indices 1 2 3 4 5 6 
#
# 1 0.013166 0.003499 -0.001453 0.000000 0.000000 0.000000
# 2 0.003499 0.045946 -0.005117 0.000000 0.000000 0.000000
# 3 -0.001453 -0.005117 0.010356 0.000000 0.000000 0.000000
# 4 0.000000 0.000000 0.000000 0.030459 0.000000 0.000000
# 5 0.000000 0.000000 0.000000 0.000000 0.035897 0.000000
# 6 0.000000 0.000000 0.000000 0.000000 0.000000 0.034764
#
#
# Mechanical properties :
#
#
# Convention : Reuss Voigt Hill
#
# Bulk Modulus (GPa) = 15.79154 25.92673 20.85914
# Shear Modulus (GPa) = 25.27324 30.58172 27.92748
#
# Velocity S-wave (km/s) = 3.48492 3.83348 3.66335
# Velocity P-wave (km/s) = 4.87660 5.66152 5.28365
#
# Compressibility (1/GPa) = 0.06332503
#
# Stress axis : x y z
#
# Youngs Moduli (GPa) = 75.95369 21.76476 96.56616
#
# Poissons Ratio (x) = -0.07615 0.14030
# Poissons Ratio (y) = -0.26573 0.49411
# Poissons Ratio (z) = 0.11036 0.11137
#
# Static dielectric constant tensor:
#      x y z
#    x 3.872260 0.000000 0.000000 
#    y 0.000000 3.397600 0.000000 
#    z 0.000000 0.000000 4.255980 
# 
# 
# High freq. dielectric constant tensor:
#      x y z
#    x 1.830530 0.000000 0.000000 
#    y 0.000000 1.758490 0.000000 
#    z 0.000000 0.000000 1.819780 
# 
# From -- ./inp_files/7590.got.cif
#   From: 2010.03.12/outbox.cif.g09.slc.cpg/sg33_4_cif.got.tgz:7590.got - 2010.04.14 01:49:19.
