data_PCOD8170143
_publ_section_title
;
Structure prediction by ZEFSAII (Michael W. Deem and Ramdas Pophale) SiO2 
 PCOD8170143
Probable space group: P M N 21
;
_chemical_formula_sum "Si O2"
_cell_formula_units_Z 24
_cell_length_a 9.531929
_cell_length_b 13.635661
_cell_length_c 9.869903
_cell_angle_alpha 90.000000
_cell_angle_beta 90.000000
_cell_angle_gamma 90.000000
_cell_volume 1282.832278
_symmetry_space_group_name_H-M "P M N 21"
_symmetry_group_IT_number 31
_symmetry_cell_setting 'orthorhombic'
loop_
_space_group_symop_operation_xyz
x,y,z
1/2-x,-y,1/2+z
-x,y,z
1/2+x,-y,1/2+z
loop_
_atom_site_type_symbol
_atom_site_label
_atom_site_fract_x
_atom_site_fract_y
_atom_site_fract_z
Si Si1 0.336210 0.577202 0.251660
Si Si2 0.336516 0.429840 0.489756
Si Si3 0.338664 0.855921 0.638929
Si Si4 0.663658 0.082450 0.637638
Si Si5 0.337728 0.794101 0.339821
Si Si6 0.335994 0.215449 0.388301
O O1 0.500000 0.569821 0.217627
O O2 0.295419 0.507016 0.374949
O O3 0.291557 0.687194 0.289923
O O4 0.250142 0.541199 0.122280
O O5 0.500000 0.434956 0.526562
O O6 0.292720 0.322097 0.441098
O O7 0.500000 0.845620 0.682924
O O8 0.308542 0.800064 0.499308
O O9 0.244780 0.804490 0.750621
O O10 0.297547 0.969206 0.620879
O O11 0.500000 0.100261 0.665041
O O12 0.747385 0.123944 0.765011
O O13 0.710797 0.136387 0.500192
O O14 0.500000 0.815587 0.308039
O O15 0.500000 0.208712 0.356362
#
# Coordination Sequence:
#
# PCOD8170143 Si02
#       6
#     4   4   4   4   4   4
#     4  10  22  39  60  87 114 146 188 231 280 337
#     4  10  22  40  61  86 115 148 186 231 282 335
#     4  10  22  36  55  85 116 148 189 233 276 330
#     4  10  20  37  58  82 113 149 190 232 279 332
#     4  10  21  38  58  82 115 149 186 232 280 333
#     4  10  21  38  58  82 115 150 187 231 279 333
#
# _framework density 18.708604000000001
#
# number of rings (size 3 to 8) (size 9 to 14) (size 15 to 20)
#    0.000    2.000    1.667    1.000    2.333    4.667 
#    0.000    0.000    0.000    0.000    0.000    0.000 
#    0.000    0.000    0.000    0.000    0.000    0.000 
#
# Total GULP energy -297743.823564 kJ/mol
# GULP energy per Si atom -12405.992648 kJ/mol
# Density = 1.866602 g / cm^3
# Si number density = 18.708604 Si / 1000 Ang^3
#
#
#
# Elastic Constant Matrix: (Units=GPa)
#
#
# Indices 1 2 3 4 5 6 
#
# 1 53.5747 34.2118 58.4960 0.0000 0.0000 0.0000
# 2 34.2118 78.4731 45.5030 0.0000 0.0000 0.0000
# 3 58.4960 45.5030 123.6629 0.0000 0.0000 0.0000
# 4 0.0000 0.0000 0.0000 34.6066 0.0000 0.0000
# 5 0.0000 0.0000 0.0000 0.0000 43.4487 0.0000
# 6 0.0000 0.0000 0.0000 0.0000 0.0000 63.3444
#
#
#
# Elastic Compliance Matrix: (Units=1/GPa)
#
#
# Indices 1 2 3 4 5 6 
#
# 1 0.042925 -0.008823 -0.017058 0.000000 0.000000 0.000000
# 2 -0.008823 0.018013 -0.002455 0.000000 0.000000 0.000000
# 3 -0.017058 -0.002455 0.017059 0.000000 0.000000 0.000000
# 4 0.000000 0.000000 0.000000 0.028896 0.000000 0.000000
# 5 0.000000 0.000000 0.000000 0.000000 0.023016 0.000000
# 6 0.000000 0.000000 0.000000 0.000000 0.000000 0.015787
#
#
# Mechanical properties :
#
#
# Convention : Reuss Voigt Hill
#
# Bulk Modulus (GPa) = 46.89252 59.12582 53.00917
# Shear Modulus (GPa) = 23.86928 36.11325 29.99127
#
# Velocity S-wave (km/s) = 3.57577 4.39829 4.00818
# Velocity P-wave (km/s) = 6.49363 7.58059 7.05807
#
# Compressibility (1/GPa) = 0.02132536
#
# Stress axis : x y z
#
# Youngs Moduli (GPa) = 23.29670 55.51554 58.62096
#
# Poissons Ratio (x) = 0.48979 0.99997
# Poissons Ratio (y) = 0.20554 0.14390
# Poissons Ratio (z) = 0.39740 0.13628
#
# Static dielectric constant tensor:
#      x y z
#    x 3.359040 0.000000 0.000000 
#    y 0.000000 3.575170 0.000000 
#    z 0.000000 0.000000 3.394700 
# 
# 
# High freq. dielectric constant tensor:
#      x y z
#    x 1.719550 0.000000 0.000000 
#    y 0.000000 1.738490 0.000000 
#    z 0.000000 0.000000 1.734090 
# 
# From -- ./inp_files/1688.got.cif
#   From: 2010.03.12/outbox.cif.g09.slc.cpg/sg31_1_cif.got.tgz:1688.got - 2010.04.14 01:42:59.
