data_PCOD8170219
_publ_section_title
;
Structure prediction by ZEFSAII (Michael W. Deem and Ramdas Pophale) SiO2 
 PCOD8170219
Probable space group: P M N 21
;
_chemical_formula_sum "Si O2"
_cell_formula_units_Z 24
_cell_length_a 12.598833
_cell_length_b 11.303560
_cell_length_c 8.797786
_cell_angle_alpha 90.000000
_cell_angle_beta 90.000000
_cell_angle_gamma 90.000000
_cell_volume 1252.907350
_symmetry_space_group_name_H-M "P M N 21"
_symmetry_group_IT_number 31
_symmetry_cell_setting 'orthorhombic'
loop_
_space_group_symop_operation_xyz
x,y,z
1/2-x,-y,1/2+z
-x,y,z
1/2+x,-y,1/2+z
loop_
_atom_site_type_symbol
_atom_site_label
_atom_site_fract_x
_atom_site_fract_y
_atom_site_fract_z
Si Si1 0.120904 0.941697 0.587890
Si Si2 0.380988 0.473951 0.758464
Si Si3 0.796907 0.736187 0.417196
Si Si4 0.621566 0.244352 0.601964
Si Si5 0.124906 0.276805 0.147176
Si Si6 0.745822 0.890916 0.862095
O O1 0.189068 0.015843 0.468806
O O2 0.000000 0.985589 0.591513
O O3 0.127544 0.802830 0.539826
O O4 0.171591 0.959431 0.753876
O O5 0.500000 0.499215 0.813652
O O6 0.324569 0.404024 0.898518
O O7 0.379896 0.387945 0.609708
O O8 0.329237 0.599487 0.715241
O O9 0.816737 0.801624 0.254600
O O10 0.677120 0.746047 0.481414
O O11 0.500000 0.195456 0.599655
O O12 0.685981 0.203906 0.456110
O O13 0.155457 0.174155 0.264294
O O14 0.000000 0.279657 0.120775
#
# Coordination Sequence:
#
# PCOD8170219 Si02
#       6
#     4   4   4   4   4   4
#     4  11  22  39  58  83 118 151 196 242 283 341
#     4   8  17  33  58  83 110 144 183 233 283 336
#     4   9  19  35  59  81 109 151 191 231 283 334
#     4   9  18  35  58  83 109 142 189 237 284 339
#     4  10  21  37  56  85 121 152 190 233 286 343
#     4  11  23  37  59  87 113 156 191 238 293 337
#
# _framework density 19.155446999999999
#
# number of rings (size 3 to 8) (size 9 to 14) (size 15 to 20)
#    1.000    1.333    0.000    3.000    2.333    0.000 
#    0.000   12.500    0.000    2.000    0.000    0.000 
#    0.000    0.000    0.000    0.000    0.000    0.000 
#
# Total GULP energy -297330.692190 kJ/mol
# GULP energy per Si atom -12388.778841 kJ/mol
# Density = 1.911185 g / cm^3
# Si number density = 19.155447 Si / 1000 Ang^3
#
#
#
# Elastic Constant Matrix: (Units=GPa)
#
#
# Indices 1 2 3 4 5 6 
#
# 1 112.9873 28.6481 55.9588 0.0000 0.0000 0.0000
# 2 28.6481 55.1242 23.0130 0.0000 0.0000 0.0000
# 3 55.9588 23.0130 94.2425 0.0000 0.0000 0.0000
# 4 0.0000 0.0000 0.0000 27.5129 0.0000 0.0000
# 5 0.0000 0.0000 0.0000 0.0000 26.2485 0.0000
# 6 0.0000 0.0000 0.0000 0.0000 0.0000 24.6039
#
#
#
# Elastic Compliance Matrix: (Units=1/GPa)
#
#
# Indices 1 2 3 4 5 6 
#
# 1 0.013293 -0.004023 -0.006911 0.000000 0.000000 0.000000
# 2 -0.004023 0.021418 -0.002841 0.000000 0.000000 0.000000
# 3 -0.006911 -0.002841 0.015408 0.000000 0.000000 0.000000
# 4 0.000000 0.000000 0.000000 0.036347 0.000000 0.000000
# 5 0.000000 0.000000 0.000000 0.000000 0.038097 0.000000
# 6 0.000000 0.000000 0.000000 0.000000 0.000000 0.040644
#
#
# Mechanical properties :
#
#
# Convention : Reuss Voigt Hill
#
# Bulk Modulus (GPa) = 44.30878 53.06598 48.68738
# Shear Modulus (GPa) = 24.96496 25.98868 25.47682
#
# Velocity S-wave (km/s) = 3.61402 3.68737 3.65088
# Velocity P-wave (km/s) = 6.37152 6.77436 6.57602
#
# Compressibility (1/GPa) = 0.02256889
#
# Stress axis : x y z
#
# Youngs Moduli (GPa) = 75.22536 46.68997 64.90093
#
# Poissons Ratio (x) = 0.18786 0.44852
# Poissons Ratio (y) = 0.30267 0.18438
# Poissons Ratio (z) = 0.51987 0.13264
#
# Static dielectric constant tensor:
#      x y z
#    x 3.359450 0.000000 0.000000 
#    y 0.000000 3.506290 0.000000 
#    z 0.000000 0.000000 3.369460 
# 
# 
# High freq. dielectric constant tensor:
#      x y z
#    x 1.738070 0.000000 0.000000 
#    y 0.000000 1.740590 0.000000 
#    z 0.000000 0.000000 1.733170 
# 
# From -- ./inp_files/2092.got.cif
#   From: 2010.03.12/outbox.cif.g09.slc.cpg/sg31_2_cif.got.tgz:2092.got - 2010.04.14 01:42:59.
