data_PCOD8170895
_publ_section_title
;
Structure prediction by ZEFSAII (Michael W. Deem and Ramdas Pophale) SiO2 
 PCOD8170895
Probable space group: P N A 21
;
_chemical_formula_sum "Si O2"
_cell_formula_units_Z 32
_cell_length_a 19.529733
_cell_length_b 6.806738
_cell_length_c 11.177052
_cell_angle_alpha 90.000000
_cell_angle_beta 90.000000
_cell_angle_gamma 90.000000
_cell_volume 1485.807724
_symmetry_space_group_name_H-M "P N A 21"
_symmetry_group_IT_number 33
_symmetry_cell_setting 'orthorhombic'
loop_
_space_group_symop_operation_xyz
x,y,z
-x,-y,1/2+z
1/2-x,1/2+y,1/2+z
1/2+x,1/2-y,z
loop_
_atom_site_type_symbol
_atom_site_label
_atom_site_fract_x
_atom_site_fract_y
_atom_site_fract_z
Si Si1 0.822292 0.673025 0.516770
Si Si2 0.925479 0.949244 0.408856
Si Si3 0.960329 0.342772 0.006174
Si Si4 0.069298 0.652255 0.045589
Si Si5 0.730171 0.128993 0.266866
Si Si6 0.376526 0.433757 0.168672
Si Si7 0.368102 0.210589 0.796399
Si Si8 0.810145 0.957485 0.936832
O O1 0.851886 0.868020 0.454206
O O2 0.873611 0.493417 0.494621
O O3 0.812104 0.723993 0.656721
O O4 0.750497 0.611492 0.460518
O O5 0.986459 0.817150 0.457028
O O6 0.937451 0.168811 0.454648
O O7 0.924752 0.951427 0.263285
O O8 0.910935 0.405770 0.897528
O O9 0.916905 0.252808 0.115676
O O10 0.997196 0.537980 0.053563
O O11 0.088404 0.728852 0.176299
O O12 0.810774 0.140598 0.242941
O O13 0.714998 0.249083 0.388032
O O14 0.703553 0.905127 0.278993
O O15 0.352401 0.576734 0.060135
O O16 0.356856 0.434453 0.838521
#
# Coordination Sequence:
#
# PCOD8170895 Si02
#       8
#     4   4   4   4   4   4   4   4
#     4   9  20  38  60  95 123 157 217 259 306 384
#     4  11  22  40  63  85 127 172 206 258 319 371
#     4  10  25  41  57  94 128 159 219 265 296 386
#     4  10  22  39  62  86 123 172 209 254 318 371
#     4  10  20  40  67  88 127 163 199 267 322 371
#     4  10  23  41  62  96 124 159 216 256 312 383
#     4  10  22  40  60  94 123 158 217 255 311 383
#     4  10  20  39  63  92 127 160 203 268 318 367
#
# _framework density 21.537106000000001
#
# number of rings (size 3 to 8) (size 9 to 14) (size 15 to 20)
#    0.000    2.000    0.000    2.250    3.500    2.000 
#    2.250   13.750    0.000    0.000    0.000    0.000 
#    0.000    0.000    0.000    0.000    0.000    0.000 
#
# Total GULP energy -396840.212447 kJ/mol
# GULP energy per Si atom -12401.256639 kJ/mol
# Density = 2.148809 g / cm^3
# Si number density = 21.537106 Si / 1000 Ang^3
#
#
#
# Elastic Constant Matrix: (Units=GPa)
#
#
# Indices 1 2 3 4 5 6 
#
# 1 84.6571 19.0604 27.5679 0.0000 0.0000 0.0000
# 2 19.0604 69.5900 39.1839 0.0000 0.0000 0.0000
# 3 27.5679 39.1839 124.4788 0.0000 0.0000 0.0000
# 4 0.0000 0.0000 0.0000 31.2152 0.0000 0.0000
# 5 0.0000 0.0000 0.0000 0.0000 39.0014 0.0000
# 6 0.0000 0.0000 0.0000 0.0000 0.0000 21.6042
#
#
#
# Elastic Compliance Matrix: (Units=1/GPa)
#
#
# Indices 1 2 3 4 5 6 
#
# 1 0.013043 -0.002365 -0.002144 0.000000 0.000000 0.000000
# 2 -0.002365 0.017894 -0.005109 0.000000 0.000000 0.000000
# 3 -0.002144 -0.005109 0.010117 0.000000 0.000000 0.000000
# 4 0.000000 0.000000 0.000000 0.032036 0.000000 0.000000
# 5 0.000000 0.000000 0.000000 0.000000 0.025640 0.000000
# 6 0.000000 0.000000 0.000000 0.000000 0.000000 0.046287
#
#
# Mechanical properties :
#
#
# Convention : Reuss Voigt Hill
#
# Bulk Modulus (GPa) = 45.83489 50.03893 47.93691
# Shear Modulus (GPa) = 29.15005 31.22508 30.18756
#
# Velocity S-wave (km/s) = 3.68296 3.81179 3.74793
# Velocity P-wave (km/s) = 6.27803 6.53125 6.40589
#
# Compressibility (1/GPa) = 0.02181744
#
# Stress axis : x y z
#
# Youngs Moduli (GPa) = 76.66899 55.88326 98.84744
#
# Poissons Ratio (x) = 0.13217 0.21194
# Poissons Ratio (y) = 0.18134 0.50502
# Poissons Ratio (z) = 0.16439 0.28551
#
# Static dielectric constant tensor:
#      x y z
#    x 4.051300 0.000000 0.000000 
#    y 0.000000 3.526340 0.000000 
#    z 0.000000 0.000000 4.013890 
# 
# 
# High freq. dielectric constant tensor:
#      x y z
#    x 1.854860 0.000000 0.000000 
#    y 0.000000 1.823440 0.000000 
#    z 0.000000 0.000000 1.854970 
# 
# From -- ./inp_files/7198.got.cif
#   From: 2010.03.12/outbox.cif.g09.slc.cpg/sg33_4_cif.got.tgz:7198.got - 2010.04.14 01:49:19.
