data_PCOD8170557
_publ_section_title
;
Structure prediction by ZEFSAII (Michael W. Deem and Ramdas Pophale) SiO2 
 PCOD8170557
Probable space group: P B A 2
;
_chemical_formula_sum "Si O2"
_cell_formula_units_Z 26
_cell_length_a 12.461393
_cell_length_b 12.706979
_cell_length_c 7.633543
_cell_angle_alpha 90.000000
_cell_angle_beta 90.000000
_cell_angle_gamma 90.000000
_cell_volume 1208.746032
_symmetry_space_group_name_H-M "P B A 2"
_symmetry_group_IT_number 32
_symmetry_cell_setting 'orthorhombic'
loop_
_space_group_symop_operation_xyz
x,y,z
-x,-y,z
1/2-x,1/2+y,z
1/2+x,1/2-y,z
loop_
_atom_site_type_symbol
_atom_site_label
_atom_site_fract_x
_atom_site_fract_y
_atom_site_fract_z
Si Si1 0.710693 0.364102 0.836730
Si Si2 0.097007 0.571664 0.217775
Si Si3 0.868383 0.222683 0.023162
Si Si4 0.500000 0.500000 0.426908
Si Si5 0.000880 0.811957 0.679675
Si Si6 0.416315 0.085447 0.618762
Si Si7 0.169497 0.000588 0.140924
O O1 0.755905 0.266074 0.948127
O O2 0.628228 0.320308 0.692632
O O3 0.811796 0.419419 0.741599
O O4 0.638578 0.444022 0.956060
O O5 0.115374 0.557812 0.422974
O O6 0.206393 0.529271 0.140472
O O7 0.000000 0.500000 0.149776
O O8 0.074723 0.689183 0.144907
O O9 0.945332 0.181026 0.870120
O O10 0.843675 0.124401 0.145997
O O11 0.458431 0.404341 0.549548
O O12 0.402796 0.542524 0.302589
O O13 0.029236 0.699039 0.602109
O O14 0.500000 0.000000 0.695372
#
# Coordination Sequence:
#
# PCOD8170557 Si02
#       7
#     4   4   4   2   4   4   4
#     4  10  23  39  65  98 126 176 223 271 343 394
#     4  10  23  44  64  98 132 174 223 273 331 401
#     4  10  23  39  65  98 126 176 223 271 343 394
#     4  12  24  42  64 100 136 178 220 284 344 398
#     4  11  23  41  66  93 136 171 224 278 333 405
#     4  10  23  44  64  98 132 174 223 273 331 401
#     4  11  23  41  66  93 136 171 224 278 333 405
#
# _framework density 21.509893999999999
#
# number of rings (size 3 to 8) (size 9 to 14) (size 15 to 20)
#    0.000    1.538    0.000    3.692    4.308    4.308 
#   22.154    0.000    0.000    0.000    0.000    0.000 
#    0.000    0.000    0.000    0.000    0.000    0.000 
#
# Total GULP energy -322351.328709 kJ/mol
# GULP energy per Si atom -12398.128027 kJ/mol
# Density = 2.146094 g / cm^3
# Si number density = 21.509894 Si / 1000 Ang^3
#
#
#
# Elastic Constant Matrix: (Units=GPa)
#
#
# Indices 1 2 3 4 5 6 
#
# 1 93.9013 30.7940 23.8834 0.0000 0.0000 0.0000
# 2 30.7940 128.7286 29.6512 0.0000 0.0000 0.0000
# 3 23.8834 29.6512 85.7254 0.0000 0.0000 0.0000
# 4 0.0000 0.0000 0.0000 40.7386 0.0000 0.0000
# 5 0.0000 0.0000 0.0000 0.0000 34.0382 0.0000
# 6 0.0000 0.0000 0.0000 0.0000 0.0000 29.3512
#
#
#
# Elastic Compliance Matrix: (Units=1/GPa)
#
#
# Indices 1 2 3 4 5 6 
#
# 1 0.012054 -0.002293 -0.002565 0.000000 0.000000 0.000000
# 2 -0.002293 0.008877 -0.002432 0.000000 0.000000 0.000000
# 3 -0.002565 -0.002432 0.013221 0.000000 0.000000 0.000000
# 4 0.000000 0.000000 0.000000 0.024547 0.000000 0.000000
# 5 0.000000 0.000000 0.000000 0.000000 0.029379 0.000000
# 6 0.000000 0.000000 0.000000 0.000000 0.000000 0.034070
#
#
# Mechanical properties :
#
#
# Convention : Reuss Voigt Hill
#
# Bulk Modulus (GPa) = 51.09198 53.00138 52.04668
# Shear Modulus (GPa) = 34.90395 35.76072 35.33234
#
# Velocity S-wave (km/s) = 4.03264 4.08183 4.05731
# Velocity P-wave (km/s) = 6.74442 6.84902 6.79692
#
# Compressibility (1/GPa) = 0.01957254
#
# Stress axis : x y z
#
# Youngs Moduli (GPa) = 82.96156 112.65312 75.63779
#
# Poissons Ratio (x) = 0.25827 0.19403
# Poissons Ratio (y) = 0.19020 0.18392
# Poissons Ratio (z) = 0.21282 0.27393
#
# Static dielectric constant tensor:
#      x y z
#    x 3.804060 0.000000 0.000000 
#    y 0.000000 4.073260 0.000000 
#    z 0.000000 0.000000 3.954700 
# 
# 
# High freq. dielectric constant tensor:
#      x y z
#    x 1.843160 0.000000 0.000000 
#    y 0.000000 1.845380 0.000000 
#    z 0.000000 0.000000 1.854410 
# 
# From -- ./inp_files/2756.got.cif
#   From: 2010.03.12/outbox.cif.g09.slc.cpg/sg32_2_cif.got.tgz:2756.got - 2010.04.14 01:46:39.
