data_PCOD8170374
_publ_section_title
;
Structure prediction by ZEFSAII (Michael W. Deem and Ramdas Pophale) SiO2 
 PCOD8170374
Probable space group: P M N 21
;
_chemical_formula_sum "Si O2"
_cell_formula_units_Z 24
_cell_length_a 8.347532
_cell_length_b 9.913638
_cell_length_c 14.204442
_cell_angle_alpha 90.000000
_cell_angle_beta 90.000000
_cell_angle_gamma 90.000000
_cell_volume 1175.480223
_symmetry_space_group_name_H-M "P M N 21"
_symmetry_group_IT_number 31
_symmetry_cell_setting 'orthorhombic'
loop_
_space_group_symop_operation_xyz
x,y,z
1/2-x,-y,1/2+z
-x,y,z
1/2+x,-y,1/2+z
loop_
_atom_site_type_symbol
_atom_site_label
_atom_site_fract_x
_atom_site_fract_y
_atom_site_fract_z
Si Si1 0.814328 0.624184 0.117650
Si Si2 0.684733 0.379837 0.222094
Si Si3 0.688873 0.477713 0.417853
Si Si4 0.314272 0.875583 0.214772
Si Si5 0.189941 0.219667 0.917247
Si Si6 0.184940 0.131484 0.118258
O O1 0.703938 0.529891 0.181499
O O2 0.785638 0.778216 0.146553
O O3 0.000000 0.585636 0.130244
O O4 0.759192 0.603845 0.010124
O O5 0.500000 0.334254 0.215221
O O6 0.747137 0.388179 0.329621
O O7 0.796168 0.277957 0.165001
O O8 0.500000 0.494905 0.409914
O O9 0.764059 0.628847 0.416980
O O10 0.500000 0.837659 0.208275
O O11 0.254861 0.859430 0.323108
O O12 0.287463 0.026927 0.179290
O O13 0.000000 0.228724 0.923997
O O14 0.249983 0.139692 0.010482
O O15 0.000000 0.088380 0.120967
#
# Coordination Sequence:
#
# PCOD8170374 Si02
#       6
#     4   4   4   4   4   4
#     4  11  21  37  61  89 118 153 197 243 290 345
#     4  11  21  37  61  89 118 153 197 243 290 345
#     4   9  18  35  60  87 117 157 198 232 287 364
#     4  11  23  41  62  87 120 157 200 244 294 352
#     4   9  18  37  62  83 113 161 198 230 291 368
#     4  11  23  41  62  87 120 157 200 244 294 352
#
# _framework density 20.417186999999998
#
# number of rings (size 3 to 8) (size 9 to 14) (size 15 to 20)
#    0.000    1.667    3.333    2.000    0.000    1.333 
#    0.000   15.000    0.000    0.000    0.000    0.000 
#    0.000    0.000    0.000    0.000    0.000    0.000 
#
# Total GULP energy -297640.122094 kJ/mol
# GULP energy per Si atom -12401.671754 kJ/mol
# Density = 2.037072 g / cm^3
# Si number density = 20.417187 Si / 1000 Ang^3
#
#
#
# Elastic Constant Matrix: (Units=GPa)
#
#
# Indices 1 2 3 4 5 6 
#
# 1 34.8965 12.8917 32.6342 0.0000 0.0000 0.0000
# 2 12.8917 80.2772 42.5464 0.0000 0.0000 0.0000
# 3 32.6342 42.5464 175.2944 0.0000 0.0000 0.0000
# 4 0.0000 0.0000 0.0000 39.7185 0.0000 0.0000
# 5 0.0000 0.0000 0.0000 0.0000 22.6185 0.0000
# 6 0.0000 0.0000 0.0000 0.0000 0.0000 34.7259
#
#
#
# Elastic Compliance Matrix: (Units=1/GPa)
#
#
# Indices 1 2 3 4 5 6 
#
# 1 0.035127 -0.002496 -0.005934 0.000000 0.000000 0.000000
# 2 -0.002496 0.014473 -0.003048 0.000000 0.000000 0.000000
# 3 -0.005934 -0.003048 0.007549 0.000000 0.000000 0.000000
# 4 0.000000 0.000000 0.000000 0.025177 0.000000 0.000000
# 5 0.000000 0.000000 0.000000 0.000000 0.044212 0.000000
# 6 0.000000 0.000000 0.000000 0.000000 0.000000 0.028797
#
#
# Mechanical properties :
#
#
# Convention : Reuss Voigt Hill
#
# Bulk Modulus (GPa) = 29.24530 51.84586 40.54558
# Shear Modulus (GPa) = 26.35886 32.90564 29.63225
#
# Velocity S-wave (km/s) = 3.59697 4.01891 3.81378
# Velocity P-wave (km/s) = 5.62191 6.85448 6.26856
#
# Compressibility (1/GPa) = 0.03419353
#
# Stress axis : x y z
#
# Youngs Moduli (GPa) = 28.46782 69.09326 132.46476
#
# Poissons Ratio (x) = 0.17248 0.78601
# Poissons Ratio (y) = 0.07106 0.40377
# Poissons Ratio (z) = 0.16892 0.21060
#
# Static dielectric constant tensor:
#      x y z
#    x 3.270880 0.000000 0.000000 
#    y 0.000000 3.439980 0.000000 
#    z 0.000000 0.000000 4.106670 
# 
# 
# High freq. dielectric constant tensor:
#      x y z
#    x 1.769230 0.000000 0.000000 
#    y 0.000000 1.787970 0.000000 
#    z 0.000000 0.000000 1.816610 
# 
# From -- ./inp_files/4730.got.cif
#   From: 2010.03.12/outbox.cif.g09.slc.cpg/sg31_3_cif.got.tgz:4730.got - 2010.04.14 01:42:59.
