data_PCOD8170400
_publ_section_title
;
Structure prediction by ZEFSAII (Michael W. Deem and Ramdas Pophale) SiO2 
 PCOD8170400
Probable space group: P B A 2
;
_chemical_formula_sum "Si O2"
_cell_formula_units_Z 26
_cell_length_a 31.374608
_cell_length_b 5.233262
_cell_length_c 8.481088
_cell_angle_alpha 90.000000
_cell_angle_beta 90.000000
_cell_angle_gamma 90.000000
_cell_volume 1392.522932
_symmetry_space_group_name_H-M "P B A 2"
_symmetry_group_IT_number 32
_symmetry_cell_setting 'orthorhombic'
loop_
_space_group_symop_operation_xyz
x,y,z
-x,-y,z
1/2-x,1/2+y,z
1/2+x,1/2-y,z
loop_
_atom_site_type_symbol
_atom_site_label
_atom_site_fract_x
_atom_site_fract_y
_atom_site_fract_z
Si Si1 0.135176 0.279970 0.850130
Si Si2 0.634855 0.718442 0.052599
Si Si3 0.581562 0.260741 0.543047
Si Si4 0.918752 0.240462 0.357192
Si Si5 0.768626 0.206337 0.127313
Si Si6 0.268053 0.784837 0.775423
Si Si7 0.000000 0.000000 0.451067
O O1 0.130817 0.559798 0.924014
O O2 0.099689 0.256051 0.717347
O O3 0.181573 0.245109 0.774295
O O4 0.127356 0.059037 0.977560
O O5 0.599052 0.766380 0.182388
O O6 0.680814 0.732402 0.134292
O O7 0.603163 0.499556 0.448619
O O8 0.530635 0.318860 0.557838
O O9 0.590733 0.999543 0.451079
O O10 0.969726 0.183151 0.344141
O O11 0.746801 0.447613 0.214818
O O12 0.751107 0.175013 0.949963
O O13 0.245374 0.546853 0.686722
#
# Coordination Sequence:
#
# PCOD8170400 Si02
#       7
#     4   4   4   4   4   4   2
#     4  12  21  34  61  95 116 144 202 249 280 321
#     4  12  21  34  61  95 116 144 202 249 280 321
#     4  10  22  41  65  81 115 158 191 228 296 371
#     4  10  22  41  65  81 115 158 191 228 296 371
#     4  10  16  30  49  81 114 160 180 225 274 351
#     4  10  16  30  49  81 114 160 180 225 274 351
#     4   8  22  44  68  72 110 168 188 212 310 392
#
# _framework density 18.671146
#
# number of rings (size 3 to 8) (size 9 to 14) (size 15 to 20)
#    0.923    0.615    6.154    2.308    0.000    0.000 
#    0.000    0.769    0.000    5.538    0.000    0.000 
#    0.000    0.000    0.000    0.000    0.000    0.000 
#
# Total GULP energy -322195.459934 kJ/mol
# GULP energy per Si atom -12392.133074 kJ/mol
# Density = 1.862865 g / cm^3
# Si number density = 18.671146 Si / 1000 Ang^3
#
#
#
# Elastic Constant Matrix: (Units=GPa)
#
#
# Indices 1 2 3 4 5 6 
#
# 1 114.0871 16.1006 42.2143 0.0000 0.0000 0.0000
# 2 16.1006 142.7846 19.4756 0.0000 0.0000 0.0000
# 3 42.2143 19.4756 45.2149 0.0000 0.0000 0.0000
# 4 0.0000 0.0000 0.0000 6.3759 0.0000 0.0000
# 5 0.0000 0.0000 0.0000 0.0000 9.9303 0.0000
# 6 0.0000 0.0000 0.0000 0.0000 0.0000 19.5754
#
#
#
# Elastic Compliance Matrix: (Units=1/GPa)
#
#
# Indices 1 2 3 4 5 6 
#
# 1 0.013397 0.000208 -0.012598 0.000000 0.000000 0.000000
# 2 0.000208 0.007444 -0.003400 0.000000 0.000000 0.000000
# 3 -0.012598 -0.003400 0.035343 0.000000 0.000000 0.000000
# 4 0.000000 0.000000 0.000000 0.156841 0.000000 0.000000
# 5 0.000000 0.000000 0.000000 0.000000 0.100702 0.000000
# 6 0.000000 0.000000 0.000000 0.000000 0.000000 0.051085
#
#
# Mechanical properties :
#
#
# Convention : Reuss Voigt Hill
#
# Bulk Modulus (GPa) = 40.64448 50.85198 45.74823
# Shear Modulus (GPa) = 12.35812 22.12939 17.24375
#
# Velocity S-wave (km/s) = 2.57550 3.44644 3.04229
# Velocity P-wave (km/s) = 5.53716 6.56749 6.07421
#
# Compressibility (1/GPa) = 0.02460359
#
# Stress axis : x y z
#
# Youngs Moduli (GPa) = 74.64196 134.33765 28.29430
#
# Poissons Ratio (x) = -0.02789 0.35644
# Poissons Ratio (y) = -0.01550 0.09621
# Poissons Ratio (z) = 0.94031 0.45677
#
# Static dielectric constant tensor:
#      x y z
#    x 3.357030 0.000000 0.000000 
#    y 0.000000 4.585230 0.000000 
#    z 0.000000 0.000000 2.866940 
# 
# 
# High freq. dielectric constant tensor:
#      x y z
#    x 1.719910 0.000000 0.000000 
#    y 0.000000 1.761700 0.000000 
#    z 0.000000 0.000000 1.665350 
# 
# From -- ./inp_files/3382.got.cif
#   From: 2010.03.12/outbox.cif.g09.slc.cpg/sg32_2_cif.got.tgz:3382.got - 2010.04.14 01:46:39.
