data_PCOD8170558
_publ_section_title
;
Structure prediction by ZEFSAII (Michael W. Deem and Ramdas Pophale) SiO2 
 PCOD8170558
Probable space group: P B A 2
;
_chemical_formula_sum "Si O2"
_cell_formula_units_Z 20
_cell_length_a 12.643056
_cell_length_b 5.189793
_cell_length_c 13.142934
_cell_angle_alpha 90.000000
_cell_angle_beta 90.000000
_cell_angle_gamma 90.000000
_cell_volume 862.371558
_symmetry_space_group_name_H-M "P B A 2"
_symmetry_group_IT_number 32
_symmetry_cell_setting 'orthorhombic'
loop_
_space_group_symop_operation_xyz
x,y,z
-x,-y,z
1/2-x,1/2+y,z
1/2+x,1/2-y,z
loop_
_atom_site_type_symbol
_atom_site_label
_atom_site_fract_x
_atom_site_fract_y
_atom_site_fract_z
Si Si1 0.683426 0.182613 0.900620
Si Si2 0.500000 0.000000 0.530777
Si Si3 0.500000 0.000000 0.034497
Si Si4 0.813925 0.288732 0.413378
Si Si5 0.317041 0.850204 0.664913
Si Si6 0.937695 0.260284 0.228786
O O1 0.761268 0.949857 0.929154
O O2 0.651459 0.168766 0.782958
O O3 0.576123 0.171798 0.965346
O O4 0.430549 0.197859 0.462923
O O5 0.424831 0.823016 0.601523
O O6 0.427628 0.186628 0.107065
O O7 0.750636 0.541052 0.450389
O O8 0.826576 0.257207 0.290041
O O9 0.265290 0.125873 0.637101
O O10 0.000000 0.500000 0.279213
O O11 0.000000 0.000000 0.250414
#
# Coordination Sequence:
#
# PCOD8170558 Si02
#       6
#     4   2   2   4   4   4
#     4  10  23  40  64  95 133 169 212 264 319 381
#     4  12  24  44  70  96 128 174 214 280 314 396
#     4  10  24  40  66  98 126 170 218 266 310 390
#     4  12  27  44  67  97 129 171 218 271 330 390
#     4  10  23  43  63  96 132 170 214 261 325 388
#     4  10  23  44  63  91 130 165 217 264 323 389
#
# _framework density 23.191859999999998
#
# number of rings (size 3 to 8) (size 9 to 14) (size 15 to 20)
#    0.600    0.800    1.000    3.000    2.800    4.000 
#    0.000    6.000    0.000    0.000    0.000    0.000 
#    0.000    0.000    0.000    0.000    0.000    0.000 
#
# Total GULP energy -247968.727982 kJ/mol
# GULP energy per Si atom -12398.436399 kJ/mol
# Density = 2.313907 g / cm^3
# Si number density = 23.191860 Si / 1000 Ang^3
#
#
#
# Elastic Constant Matrix: (Units=GPa)
#
#
# Indices 1 2 3 4 5 6 
#
# 1 103.3200 24.3785 74.3789 0.0000 0.0000 0.0000
# 2 24.3785 134.4857 35.0080 0.0000 0.0000 0.0000
# 3 74.3789 35.0080 110.7292 0.0000 0.0000 0.0000
# 4 0.0000 0.0000 0.0000 40.3678 0.0000 0.0000
# 5 0.0000 0.0000 0.0000 0.0000 58.7158 0.0000
# 6 0.0000 0.0000 0.0000 0.0000 0.0000 29.9907
#
#
#
# Elastic Compliance Matrix: (Units=1/GPa)
#
#
# Indices 1 2 3 4 5 6 
#
# 1 0.018743 -0.000131 -0.012549 0.000000 0.000000 0.000000
# 2 -0.000131 0.008103 -0.002474 0.000000 0.000000 0.000000
# 3 -0.012549 -0.002474 0.018242 0.000000 0.000000 0.000000
# 4 0.000000 0.000000 0.000000 0.024772 0.000000 0.000000
# 5 0.000000 0.000000 0.000000 0.000000 0.017031 0.000000
# 6 0.000000 0.000000 0.000000 0.000000 0.000000 0.033344
#
#
# Mechanical properties :
#
#
# Convention : Reuss Voigt Hill
#
# Bulk Modulus (GPa) = 67.65146 68.45175 68.05161
# Shear Modulus (GPa) = 32.16028 40.13281 36.14655
#
# Velocity S-wave (km/s) = 3.72789 4.16440 3.95218
# Velocity P-wave (km/s) = 6.91109 7.25965 7.08751
#
# Compressibility (1/GPa) = 0.01478165
#
# Stress axis : x y z
#
# Youngs Moduli (GPa) = 53.35228 123.40365 54.81710
#
# Poissons Ratio (x) = 0.01617 0.68789
# Poissons Ratio (y) = 0.00699 0.13562
# Poissons Ratio (z) = 0.66951 0.30530
#
# Static dielectric constant tensor:
#      x y z
#    x 3.763960 0.000000 0.000000 
#    y 0.000000 3.983990 0.000000 
#    z 0.000000 0.000000 4.395540 
# 
# 
# High freq. dielectric constant tensor:
#      x y z
#    x 1.897490 0.000000 0.000000 
#    y 0.000000 1.914810 0.000000 
#    z 0.000000 0.000000 1.942610 
# 
# From -- ./inp_files/4154.got.cif
#   From: 2010.03.12/outbox.cif.g09.slc.cpg/sg32_3_cif.got.tgz:4154.got - 2010.04.14 01:46:39.
