data_PCOD8170536
_publ_section_title
;
Structure prediction by ZEFSAII (Michael W. Deem and Ramdas Pophale) SiO2 
 PCOD8170536
Probable space group: P B A 2
;
_chemical_formula_sum "Si O2"
_cell_formula_units_Z 32
_cell_length_a 14.344440
_cell_length_b 12.392669
_cell_length_c 9.075450
_cell_angle_alpha 90.000000
_cell_angle_beta 90.000000
_cell_angle_gamma 90.000000
_cell_volume 1613.305509
_symmetry_space_group_name_H-M "P B A 2"
_symmetry_group_IT_number 32
_symmetry_cell_setting 'orthorhombic'
loop_
_space_group_symop_operation_xyz
x,y,z
-x,-y,z
1/2-x,1/2+y,z
1/2+x,1/2-y,z
loop_
_atom_site_type_symbol
_atom_site_label
_atom_site_fract_x
_atom_site_fract_y
_atom_site_fract_z
Si Si1 0.904032 0.554663 0.247530
Si Si2 0.405822 0.723524 0.092124
Si Si3 0.594178 0.276476 0.744335
Si Si4 0.904032 0.554663 0.588929
Si Si5 0.059059 0.891825 0.256492
Si Si6 0.712147 0.454715 0.589119
Si Si7 0.559059 0.608175 0.579967
Si Si8 0.212147 0.045285 0.247340
O O1 0.883249 0.657738 0.148312
O O2 0.907185 0.590018 0.418229
O O3 0.822021 0.467931 0.219297
O O4 0.000000 0.500000 0.197341
O O5 0.510131 0.690577 0.144574
O O6 0.326014 0.643836 0.151489
O O7 0.403616 0.720470 0.918229
O O8 0.616751 0.157739 0.688147
O O9 0.673986 0.356164 0.684970
O O10 0.489869 0.309423 0.691886
O O11 0.822022 0.467931 0.617162
O O12 0.000000 0.500000 0.639117
O O13 0.064288 0.836118 0.418229
O O14 0.161681 0.931106 0.203928
O O15 0.000000 0.000000 0.266315
O O16 0.661681 0.568894 0.632531
O O17 0.690068 0.428965 0.418229
O O18 0.500000 0.500000 0.570140
#
# Coordination Sequence:
#
# PCOD8170536 Si02
#       8
#     4   4   4   4   4   4   4   4
#     4  10  22  40  60  81 108 145 188 230 270 319
#     4  11  22  35  55  83 116 148 177 222 281 334
#     4  11  22  35  55  83 116 148 177 222 281 334
#     4  10  22  40  60  81 108 145 188 230 270 319
#     4   8  15  31  55  80 106 138 181 228 266 311
#     4   9  19  37  60  83 107 142 190 234 269 318
#     4   8  15  31  55  80 106 138 181 228 266 311
#     4   9  19  37  60  83 107 142 190 234 269 318
#
# _framework density 19.835052999999998
#
# number of rings (size 3 to 8) (size 9 to 14) (size 15 to 20)
#    0.000    2.500    0.000    3.750    0.000    8.000 
#    0.000   10.000    0.000    0.000    0.000    0.000 
#    0.000    0.000    0.000    0.000    0.000    0.000 
#
# Total GULP energy -396729.276682 kJ/mol
# GULP energy per Si atom -12397.789896 kJ/mol
# Density = 1.978991 g / cm^3
# Si number density = 19.835053 Si / 1000 Ang^3
#
#
#
# Elastic Constant Matrix: (Units=GPa)
#
#
# Indices 1 2 3 4 5 6 
#
# 1 135.4285 40.7795 47.1393 0.0000 0.0000 0.0000
# 2 40.7795 89.8309 65.2018 0.0000 0.0000 0.0000
# 3 47.1393 65.2018 124.1134 0.0000 0.0000 0.0000
# 4 0.0000 0.0000 0.0000 1.9032 0.0000 0.0000
# 5 0.0000 0.0000 0.0000 0.0000 11.3513 0.0000
# 6 0.0000 0.0000 0.0000 0.0000 0.0000 21.3492
#
#
#
# Elastic Compliance Matrix: (Units=1/GPa)
#
#
# Indices 1 2 3 4 5 6 
#
# 1 0.008857 -0.002552 -0.002023 0.000000 0.000000 0.000000
# 2 -0.002552 0.018728 -0.008869 0.000000 0.000000 0.000000
# 3 -0.002023 -0.008869 0.013485 0.000000 0.000000 0.000000
# 4 0.000000 0.000000 0.000000 0.525433 0.000000 0.000000
# 5 0.000000 0.000000 0.000000 0.000000 0.088095 0.000000
# 6 0.000000 0.000000 0.000000 0.000000 0.000000 0.046840
#
#
# Mechanical properties :
#
#
# Convention : Reuss Voigt Hill
#
# Bulk Modulus (GPa) = 70.51861 72.84600 71.68230
# Shear Modulus (GPa) = 6.82078 20.00423 13.41250
#
# Velocity S-wave (km/s) = 1.85640 3.17918 2.60321
# Velocity P-wave (km/s) = 6.34229 7.09097 6.72705
#
# Compressibility (1/GPa) = 0.01418065
#
# Stress axis : x y z
#
# Youngs Moduli (GPa) = 112.90961 53.39534 74.15664
#
# Poissons Ratio (x) = 0.13627 0.15003
# Poissons Ratio (y) = 0.28816 0.65772
# Poissons Ratio (z) = 0.22843 0.47358
#
# Static dielectric constant tensor:
#      x y z
#    x 4.159310 0.000000 0.000000 
#    y 0.000000 3.345390 0.000000 
#    z 0.000000 0.000000 3.387450 
# 
# 
# High freq. dielectric constant tensor:
#      x y z
#    x 1.781380 0.000000 0.000000 
#    y 0.000000 1.755140 0.000000 
#    z 0.000000 0.000000 1.751480 
# 
# From -- ./inp_files/2873.got.cif
#   From: 2010.03.12/outbox.cif.g09.slc.cpg/sg32_2_cif.got.tgz:2873.got - 2010.04.14 01:46:39.
