data_PCOD8170298
_publ_section_title
;
Structure prediction by ZEFSAII (Michael W. Deem and Ramdas Pophale) SiO2 
 PCOD8170298
Probable space group: P M N 21
;
_chemical_formula_sum "Si O2"
_cell_formula_units_Z 32
_cell_length_a 9.297331
_cell_length_b 11.279975
_cell_length_c 16.312994
_cell_angle_alpha 90.000000
_cell_angle_beta 90.000000
_cell_angle_gamma 90.000000
_cell_volume 1710.803407
_symmetry_space_group_name_H-M "P M N 21"
_symmetry_group_IT_number 31
_symmetry_cell_setting 'orthorhombic'
loop_
_space_group_symop_operation_xyz
x,y,z
1/2-x,-y,1/2+z
-x,y,z
1/2+x,-y,1/2+z
loop_
_atom_site_type_symbol
_atom_site_label
_atom_site_fract_x
_atom_site_fract_y
_atom_site_fract_z
Si Si1 0.170821 0.181752 0.016320
Si Si2 0.840738 0.230779 0.445508
Si Si3 0.669995 0.721995 0.684857
Si Si4 0.336060 0.874503 0.230101
Si Si5 0.664927 0.679691 0.356927
Si Si6 0.340609 0.935844 0.795810
Si Si7 0.829264 0.919763 0.065210
Si Si8 0.829655 0.440261 0.326959
O O1 0.224855 0.268875 0.090722
O O2 0.000000 0.176111 0.017112
O O3 0.227148 0.046649 0.029934
O O4 0.226547 0.238037 0.931050
O O5 0.850409 0.122748 0.383484
O O6 0.727523 0.192873 0.514153
O O7 0.788011 0.348603 0.399038
O O8 0.000000 0.251121 0.484290
O O9 0.500000 0.711724 0.688711
O O10 0.715964 0.843885 0.727743
O O11 0.728931 0.610316 0.738723
O O12 0.500000 0.902530 0.205261
O O13 0.323191 0.744274 0.269137
O O14 0.229506 0.897048 0.155601
O O15 0.279904 0.962385 0.301321
O O16 0.500000 0.646683 0.376175
O O17 0.756734 0.562178 0.350135
O O18 0.500000 0.984124 0.771577
O O19 0.000000 0.915407 0.066890
O O20 0.000000 0.458409 0.323423
#
# Coordination Sequence:
#
# PCOD8170298 Si02
#       8
#     4   4   4   4   4   4   4   4
#     4   9  17  33  58  83 108 138 181 231 278 326
#     4   9  19  35  56  82 113 144 174 224 286 331
#     4   8  14  30  57  82 104 136 179 226 268 314
#     4  11  22  35  51  77 118 153 178 224 287 333
#     4  10  22  38  55  78 112 151 184 226 279 328
#     4   9  16  31  56  82 107 141 180 215 267 337
#     4  11  21  35  58  85 110 141 188 232 274 342
#     4   9  19  37  59  79 106 146 188 224 267 327
#
# _framework density 18.704661999999999
#
# number of rings (size 3 to 8) (size 9 to 14) (size 15 to 20)
#    0.000    2.500    1.250    3.000    0.000    3.000 
#    2.250    3.125    0.000    0.000    0.000    0.000 
#    0.000    0.000    0.000    0.000    0.000    0.000 
#
# Total GULP energy -396542.670109 kJ/mol
# GULP energy per Si atom -12391.958441 kJ/mol
# Density = 1.866209 g / cm^3
# Si number density = 18.704662 Si / 1000 Ang^3
#
#
#
# Elastic Constant Matrix: (Units=GPa)
#
#
# Indices 1 2 3 4 5 6 
#
# 1 60.7121 44.5853 31.9450 0.0000 0.0000 0.0000
# 2 44.5853 106.1961 48.2681 0.0000 0.0000 0.0000
# 3 31.9450 48.2681 78.8603 0.0000 0.0000 0.0000
# 4 0.0000 0.0000 0.0000 25.1249 0.0000 0.0000
# 5 0.0000 0.0000 0.0000 0.0000 21.3802 0.0000
# 6 0.0000 0.0000 0.0000 0.0000 0.0000 31.8838
#
#
#
# Elastic Compliance Matrix: (Units=1/GPa)
#
#
# Indices 1 2 3 4 5 6 
#
# 1 0.025255 -0.008248 -0.005182 0.000000 0.000000 0.000000
# 2 -0.008248 0.015739 -0.006293 0.000000 0.000000 0.000000
# 3 -0.005182 -0.006293 0.018631 0.000000 0.000000 0.000000
# 4 0.000000 0.000000 0.000000 0.039801 0.000000 0.000000
# 5 0.000000 0.000000 0.000000 0.000000 0.046772 0.000000
# 6 0.000000 0.000000 0.000000 0.000000 0.000000 0.031364
#
#
# Mechanical properties :
#
#
# Convention : Reuss Voigt Hill
#
# Bulk Modulus (GPa) = 49.55229 55.04060 52.29644
# Shear Modulus (GPa) = 22.34795 23.74245 23.04520
#
# Velocity S-wave (km/s) = 3.46031 3.56664 3.51387
# Velocity P-wave (km/s) = 6.52031 6.81551 6.66954
#
# Compressibility (1/GPa) = 0.02018070
#
# Stress axis : x y z
#
# Youngs Moduli (GPa) = 39.59668 63.53521 53.67274
#
# Poissons Ratio (x) = 0.52401 0.27814
# Poissons Ratio (y) = 0.32657 0.33774
# Poissons Ratio (z) = 0.20520 0.39980
#
# Static dielectric constant tensor:
#      x y z
#    x 3.497930 0.000000 0.000000 
#    y 0.000000 3.379410 0.000000 
#    z 0.000000 0.000000 3.735880 
# 
# 
# High freq. dielectric constant tensor:
#      x y z
#    x 1.698830 0.000000 0.000000 
#    y 0.000000 1.714100 0.000000 
#    z 0.000000 0.000000 1.732040 
# 
# From -- ./inp_files/5008.got.cif
#   From: 2010.03.12/outbox.cif.g09.slc.cpg/sg31_3_cif.got.tgz:5008.got - 2010.04.14 01:42:59.
