data_PCOD8170773
_publ_section_title
;
Structure prediction by ZEFSAII (Michael W. Deem and Ramdas Pophale) SiO2 
 PCOD8170773
Probable space group: P N A 21
;
_chemical_formula_sum "Si O2"
_cell_formula_units_Z 32
_cell_length_a 9.462302
_cell_length_b 11.464889
_cell_length_c 13.810382
_cell_angle_alpha 90.000000
_cell_angle_beta 90.000000
_cell_angle_gamma 90.000000
_cell_volume 1498.208825
_symmetry_space_group_name_H-M "P N A 21"
_symmetry_group_IT_number 33
_symmetry_cell_setting 'orthorhombic'
loop_
_space_group_symop_operation_xyz
x,y,z
-x,-y,1/2+z
1/2-x,1/2+y,1/2+z
1/2+x,1/2-y,z
loop_
_atom_site_type_symbol
_atom_site_label
_atom_site_fract_x
_atom_site_fract_y
_atom_site_fract_z
Si Si1 0.778953 0.852312 0.966270
Si Si2 0.989907 0.675747 0.033633
Si Si3 0.227572 0.898106 0.382859
Si Si4 0.503174 0.784305 0.671305
Si Si5 0.100496 0.469387 0.713838
Si Si6 0.488215 0.224035 0.952479
Si Si7 0.614412 0.997661 0.381202
Si Si8 0.727961 0.684608 0.792236
O O1 0.742371 0.793651 0.863652
O O2 0.785497 0.991337 0.954483
O O3 0.658829 0.815768 0.045066
O O4 0.925093 0.802960 0.010268
O O5 0.915161 0.622090 0.127071
O O6 0.973584 0.595335 0.938370
O O7 0.254557 0.939877 0.272158
O O8 0.358562 0.815740 0.414709
O O9 0.079147 0.829049 0.389632
O O10 0.495026 0.735254 0.563003
O O11 0.576556 0.687559 0.739861
O O12 0.348153 0.811765 0.710103
O O13 0.602490 0.899610 0.672225
O O14 0.969845 0.456000 0.786677
O O15 0.372858 0.117447 0.947133
O O16 0.761277 0.060151 0.349575
#
# Coordination Sequence:
#
# PCOD8170773 Si02
#       8
#     4   4   4   4   4   4   4   4
#     4  11  21  42  61  95 127 163 208 275 326 377
#     4  11  21  38  69  93 124 168 214 266 328 386
#     4  11  23  43  62  86 134 172 210 270 327 380
#     4  11  19  36  62  93 121 163 220 260 308 392
#     4  10  19  38  64  88 124 173 208 254 326 387
#     4  11  22  41  64  90 127 175 214 262 333 381
#     4   9  19  37  61  90 123 160 205 259 320 371
#     4  10  20  35  63  93 120 160 213 268 320 370
#
# _framework density 21.358837999999999
#
# number of rings (size 3 to 8) (size 9 to 14) (size 15 to 20)
#    0.000    1.500    5.000    2.250    0.000    3.000 
#    6.750    0.000    2.750    0.000    0.000    0.000 
#    0.000    0.000    0.000    0.000    0.000    0.000 
#
# Total GULP energy -396634.106738 kJ/mol
# GULP energy per Si atom -12394.815836 kJ/mol
# Density = 2.131022 g / cm^3
# Si number density = 21.358838 Si / 1000 Ang^3
#
#
#
# Elastic Constant Matrix: (Units=GPa)
#
#
# Indices 1 2 3 4 5 6 
#
# 1 50.2191 36.0532 2.6780 0.0000 0.0000 0.0000
# 2 36.0532 78.9212 6.2865 0.0000 0.0000 0.0000
# 3 2.6780 6.2865 66.0107 0.0000 0.0000 0.0000
# 4 0.0000 0.0000 0.0000 30.6592 0.0000 0.0000
# 5 0.0000 0.0000 0.0000 0.0000 27.0053 0.0000
# 6 0.0000 0.0000 0.0000 0.0000 0.0000 36.5163
#
#
#
# Elastic Compliance Matrix: (Units=1/GPa)
#
#
# Indices 1 2 3 4 5 6 
#
# 1 0.029631 -0.013543 0.000088 0.000000 0.000000 0.000000
# 2 -0.013543 0.018958 -0.001256 0.000000 0.000000 0.000000
# 3 0.000088 -0.001256 0.015265 0.000000 0.000000 0.000000
# 4 0.000000 0.000000 0.000000 0.032617 0.000000 0.000000
# 5 0.000000 0.000000 0.000000 0.000000 0.037030 0.000000
# 6 0.000000 0.000000 0.000000 0.000000 0.000000 0.027385
#
#
# Mechanical properties :
#
#
# Convention : Reuss Voigt Hill
#
# Bulk Modulus (GPa) = 29.04370 31.68737 30.36554
# Shear Modulus (GPa) = 24.77883 28.84505 26.81194
#
# Velocity S-wave (km/s) = 3.40975 3.67890 3.54688
# Velocity P-wave (km/s) = 5.39716 5.73704 5.56969
#
# Compressibility (1/GPa) = 0.03443087
#
# Stress axis : x y z
#
# Youngs Moduli (GPa) = 33.74854 52.74884 65.50883
#
# Poissons Ratio (x) = 0.71438 -0.00574
# Poissons Ratio (y) = 0.45706 0.08228
# Poissons Ratio (z) = -0.00296 0.06625
#
# Static dielectric constant tensor:
#      x y z
#    x 3.684660 0.000000 0.000000 
#    y 0.000000 3.922530 0.000000 
#    z 0.000000 0.000000 3.834990 
# 
# 
# High freq. dielectric constant tensor:
#      x y z
#    x 1.812770 0.000000 0.000000 
#    y 0.000000 1.828520 0.000000 
#    z 0.000000 0.000000 1.835340 
# 
# From -- ./inp_files/7661.got.cif
#   From: 2010.03.12/outbox.cif.g09.slc.cpg/sg33_4_cif.got.tgz:7661.got - 2010.04.14 01:49:19.
