data_PCOD8170994
_publ_section_title
;
Structure prediction by ZEFSAII (Michael W. Deem and Ramdas Pophale) SiO2 
 PCOD8170994
Probable space group: P N A 21
;
_chemical_formula_sum "Si O2"
_cell_formula_units_Z 24
_cell_length_a 9.557858
_cell_length_b 8.089210
_cell_length_c 15.224959
_cell_angle_alpha 90.000000
_cell_angle_beta 90.000000
_cell_angle_gamma 90.000000
_cell_volume 1177.125630
_symmetry_space_group_name_H-M "P N A 21"
_symmetry_group_IT_number 33
_symmetry_cell_setting 'orthorhombic'
loop_
_space_group_symop_operation_xyz
x,y,z
-x,-y,1/2+z
1/2-x,1/2+y,1/2+z
1/2+x,1/2-y,z
loop_
_atom_site_type_symbol
_atom_site_label
_atom_site_fract_x
_atom_site_fract_y
_atom_site_fract_z
Si Si1 0.238324 0.546779 0.417430
Si Si2 0.513248 0.058876 0.283452
Si Si3 0.763847 0.137463 0.814399
Si Si4 0.018322 0.119485 0.369300
Si Si5 0.854713 0.717959 0.039626
Si Si6 0.884687 0.338742 0.650416
O O1 0.224573 0.744917 0.401742
O O2 0.396056 0.507220 0.390467
O O3 0.201236 0.469302 0.514154
O O4 0.133261 0.452355 0.355070
O O5 0.460091 0.246655 0.297395
O O6 0.395259 0.919801 0.299646
O O7 0.586794 0.023906 0.188737
O O8 0.824308 0.227306 0.728782
O O9 0.852436 0.973764 0.826788
O O10 0.069150 0.199567 0.458799
O O11 0.723327 0.832714 0.069219
O O12 0.962824 0.719591 0.119490
#
# Coordination Sequence:
#
# PCOD8170994 Si02
#       6
#     4   4   4   4   4   4
#     4  10  21  38  64  90 125 165 214 252 313 382
#     4  10  21  38  64  90 124 167 212 255 314 380
#     4  11  23  41  65  94 124 170 218 261 316 388
#     4  11  23  41  65  94 123 169 220 260 317 389
#     4  11  22  41  64  92 132 170 205 265 324 374
#     4  11  22  41  64  92 132 169 207 263 326 373
#
# _framework density 20.388646000000001
#
# number of rings (size 3 to 8) (size 9 to 14) (size 15 to 20)
#    0.000    1.333    3.333    4.000    4.667    0.000 
#    0.000    3.333    0.000    0.000    0.000    0.000 
#    0.000    0.000    0.000    0.000    0.000    0.000 
#
# Total GULP energy -297326.641511 kJ/mol
# GULP energy per Si atom -12388.610063 kJ/mol
# Density = 2.034224 g / cm^3
# Si number density = 20.388646 Si / 1000 Ang^3
#
#
#
# Elastic Constant Matrix: (Units=GPa)
#
#
# Indices 1 2 3 4 5 6 
#
# 1 95.6649 24.2904 33.4970 0.0000 0.0000 0.0000
# 2 24.2904 95.9792 36.2770 0.0000 0.0000 0.0000
# 3 33.4970 36.2770 73.5142 0.0000 0.0000 0.0000
# 4 0.0000 0.0000 0.0000 27.0010 0.0000 0.0000
# 5 0.0000 0.0000 0.0000 0.0000 32.0676 0.0000
# 6 0.0000 0.0000 0.0000 0.0000 0.0000 41.2504
#
#
#
# Elastic Compliance Matrix: (Units=1/GPa)
#
#
# Indices 1 2 3 4 5 6 
#
# 1 0.012558 -0.001248 -0.005106 0.000000 0.000000 0.000000
# 2 -0.001248 0.012932 -0.005813 0.000000 0.000000 0.000000
# 3 -0.005106 -0.005813 0.018798 0.000000 0.000000 0.000000
# 4 0.000000 0.000000 0.000000 0.037036 0.000000 0.000000
# 5 0.000000 0.000000 0.000000 0.000000 0.031184 0.000000
# 6 0.000000 0.000000 0.000000 0.000000 0.000000 0.024242
#
#
# Mechanical properties :
#
#
# Convention : Reuss Voigt Hill
#
# Bulk Modulus (GPa) = 50.11641 50.36522 50.24082
# Shear Modulus (GPa) = 29.80893 31.47006 30.63950
#
# Velocity S-wave (km/s) = 3.82781 3.93301 3.88077
# Velocity P-wave (km/s) = 6.64605 6.73654 6.69145
#
# Compressibility (1/GPa) = 0.01995354
#
# Stress axis : x y z
#
# Youngs Moduli (GPa) = 79.63051 77.32849 53.19764
#
# Poissons Ratio (x) = 0.09652 0.27163
# Poissons Ratio (y) = 0.09940 0.30922
# Poissons Ratio (z) = 0.40660 0.44949
#
# Static dielectric constant tensor:
#      x y z
#    x 3.977430 0.000000 0.000000 
#    y 0.000000 3.795820 0.000000 
#    z 0.000000 0.000000 4.051270 
# 
# 
# High freq. dielectric constant tensor:
#      x y z
#    x 1.822530 0.000000 0.000000 
#    y 0.000000 1.780730 0.000000 
#    z 0.000000 0.000000 1.782390 
# 
# From -- ./inp_files/7526.got.cif
#   From: 2010.03.12/outbox.cif.g09.slc.cpg/sg33_4_cif.got.tgz:7526.got - 2010.04.14 01:49:19.
