data_PCOD8170295
_publ_section_title
;
Structure prediction by ZEFSAII (Michael W. Deem and Ramdas Pophale) SiO2 
 PCOD8170295
Probable space group: P M N 21
;
_chemical_formula_sum "Si O2"
_cell_formula_units_Z 24
_cell_length_a 14.107626
_cell_length_b 9.064341
_cell_length_c 8.823851
_cell_angle_alpha 90.000000
_cell_angle_beta 90.000000
_cell_angle_gamma 90.000000
_cell_volume 1128.361707
_symmetry_space_group_name_H-M "P M N 21"
_symmetry_group_IT_number 31
_symmetry_cell_setting 'orthorhombic'
loop_
_space_group_symop_operation_xyz
x,y,z
1/2-x,-y,1/2+z
-x,y,z
1/2+x,-y,1/2+z
loop_
_atom_site_type_symbol
_atom_site_label
_atom_site_fract_x
_atom_site_fract_y
_atom_site_fract_z
Si Si1 0.890794 0.906228 0.601630
Si Si2 0.724675 0.292981 0.903480
Si Si3 0.105840 0.432826 0.039736
Si Si4 0.392892 0.245224 0.414213
Si Si5 0.220202 0.193605 0.585538
Si Si6 0.607979 0.571992 0.899058
O O1 0.833842 0.851134 0.453915
O O2 0.883282 0.785680 0.735442
O O3 0.000000 0.935891 0.558288
O O4 0.840680 0.058225 0.650818
O O5 0.744971 0.293821 0.724942
O O6 0.662160 0.429953 0.961268
O O7 0.826098 0.302050 0.985478
O O8 0.113096 0.439588 0.219118
O O9 0.000000 0.389976 0.989335
O O10 0.134216 0.585797 0.955085
O O11 0.500000 0.209446 0.469968
O O12 0.317074 0.141608 0.501069
O O13 0.156534 0.282074 0.464930
O O14 0.500000 0.567678 0.956936
#
# Coordination Sequence:
#
# PCOD8170295 Si02
#       6
#     4   4   4   4   4   4
#     4  11  26  44  64  94 136 184 227 271 336 408
#     4  12  23  40  65  99 128 173 224 277 338 397
#     4  10  22  40  64  96 127 165 219 276 333 388
#     4  10  21  41  66  92 129 174 222 276 331 395
#     4  12  24  42  66  98 136 176 222 277 336 402
#     4  11  22  39  65  95 130 168 222 281 332 394
#
# _framework density 21.269776
#
# number of rings (size 3 to 8) (size 9 to 14) (size 15 to 20)
#    0.000    1.000    3.333    3.000    2.333    2.000 
#    0.000    0.833    0.000    0.000    0.000    0.000 
#    0.000    0.000    0.000    0.000    0.000    0.000 
#
# Total GULP energy -297613.216435 kJ/mol
# GULP energy per Si atom -12400.550685 kJ/mol
# Density = 2.122136 g / cm^3
# Si number density = 21.269776 Si / 1000 Ang^3
#
#
#
# Elastic Constant Matrix: (Units=GPa)
#
#
# Indices 1 2 3 4 5 6 
#
# 1 168.9544 48.7558 48.8754 0.0000 0.0000 0.0000
# 2 48.7558 77.7167 29.7206 0.0000 0.0000 0.0000
# 3 48.8754 29.7206 73.0028 0.0000 0.0000 0.0000
# 4 0.0000 0.0000 0.0000 29.2017 0.0000 0.0000
# 5 0.0000 0.0000 0.0000 0.0000 31.9090 0.0000
# 6 0.0000 0.0000 0.0000 0.0000 0.0000 33.8351
#
#
#
# Elastic Compliance Matrix: (Units=1/GPa)
#
#
# Indices 1 2 3 4 5 6 
#
# 1 0.008094 -0.003560 -0.003970 0.000000 0.000000 0.000000
# 2 -0.003560 0.016806 -0.004458 0.000000 0.000000 0.000000
# 3 -0.003970 -0.004458 0.018171 0.000000 0.000000 0.000000
# 4 0.000000 0.000000 0.000000 0.034245 0.000000 0.000000
# 5 0.000000 0.000000 0.000000 0.000000 0.031339 0.000000
# 6 0.000000 0.000000 0.000000 0.000000 0.000000 0.029555
#
#
# Mechanical properties :
#
#
# Convention : Reuss Voigt Hill
#
# Bulk Modulus (GPa) = 52.37108 63.81973 58.09541
# Shear Modulus (GPa) = 29.66451 31.81062 30.73757
#
# Velocity S-wave (km/s) = 3.73859 3.87147 3.80561
# Velocity P-wave (km/s) = 6.58117 7.07491 6.83250
#
# Compressibility (1/GPa) = 0.01909451
#
# Stress axis : x y z
#
# Youngs Moduli (GPa) = 123.54077 59.50406 55.03232
#
# Poissons Ratio (x) = 0.21183 0.21848
# Poissons Ratio (y) = 0.43979 0.24536
# Poissons Ratio (z) = 0.49045 0.26530
#
# Static dielectric constant tensor:
#      x y z
#    x 4.251890 0.000000 0.000000 
#    y 0.000000 3.556500 0.000000 
#    z 0.000000 0.000000 3.642680 
# 
# 
# High freq. dielectric constant tensor:
#      x y z
#    x 1.863070 0.000000 0.000000 
#    y 0.000000 1.808570 0.000000 
#    z 0.000000 0.000000 1.831240 
# 
# From -- ./inp_files/2434.got.cif
#   From: 2010.03.12/outbox.cif.g09.slc.cpg/sg31_2_cif.got.tgz:2434.got - 2010.04.14 01:42:59.
