data_PCOD8170213
_publ_section_title
;
Structure prediction by ZEFSAII (Michael W. Deem and Ramdas Pophale) SiO2 
 PCOD8170213
Probable space group: P M N 21
;
_chemical_formula_sum "Si O2"
_cell_formula_units_Z 32
_cell_length_a 9.028138
_cell_length_b 14.462344
_cell_length_c 12.424657
_cell_angle_alpha 90.000000
_cell_angle_beta 90.000000
_cell_angle_gamma 90.000000
_cell_volume 1622.263080
_symmetry_space_group_name_H-M "P M N 21"
_symmetry_group_IT_number 31
_symmetry_cell_setting 'orthorhombic'
loop_
_space_group_symop_operation_xyz
x,y,z
1/2-x,-y,1/2+z
-x,y,z
1/2+x,-y,1/2+z
loop_
_atom_site_type_symbol
_atom_site_label
_atom_site_fract_x
_atom_site_fract_y
_atom_site_fract_z
Si Si1 0.829147 0.137248 0.058610
Si Si2 0.672977 0.442255 0.782398
Si Si3 0.826424 0.939807 0.982449
Si Si4 0.176087 0.824801 0.777949
Si Si5 0.173386 0.357115 0.353548
Si Si6 0.672281 0.737316 0.365114
Si Si7 0.336607 0.170638 0.681688
Si Si8 0.338704 0.362805 0.564963
O O1 0.728770 0.134709 0.164419
O O2 0.000000 0.133305 0.095275
O O3 0.798335 0.228423 0.987176
O O4 0.790649 0.048580 0.983687
O O5 0.500000 0.429557 0.807289
O O6 0.730271 0.542954 0.815591
O O7 0.755322 0.363147 0.850738
O O8 0.706040 0.438230 0.654633
O O9 0.762278 0.890654 0.874662
O O10 0.000000 0.918240 0.984126
O O11 0.760154 0.896560 0.093194
O O12 0.239432 0.721778 0.789896
O O13 0.000000 0.820241 0.779086
O O14 0.208602 0.352755 0.479644
O O15 0.000000 0.342837 0.333500
O O16 0.500000 0.727818 0.340325
O O17 0.734672 0.817199 0.286285
O O18 0.500000 0.133852 0.716847
O O19 0.356493 0.269105 0.628495
O O20 0.500000 0.386696 0.512014
#
# Coordination Sequence:
#
# PCOD8170213 Si02
#       8
#     4   4   4   4   4   4   4   4
#     4  10  23  41  59  85 124 162 195 244 301 349
#     4   9  21  39  58  81 115 158 202 243 294 356
#     4   9  19  38  61  83 114 155 194 238 292 347
#     4  11  23  41  63  88 119 157 200 242 293 358
#     4  11  22  37  59  87 118 152 193 247 300 351
#     4  10  21  36  57  86 120 153 193 246 298 346
#     4   9  17  34  59  81 109 149 192 240 291 346
#     4   9  17  34  56  79 109 148 193 240 291 349
#
# _framework density 19.725529999999999
#
# number of rings (size 3 to 8) (size 9 to 14) (size 15 to 20)
#    0.000    2.250    1.250    1.875    1.750    5.000 
#    0.000    5.000    0.000    0.000    0.000    0.000 
#    0.000    0.000    0.000    0.000    0.000    0.000 
#
# Total GULP energy -396692.420907 kJ/mol
# GULP energy per Si atom -12396.638153 kJ/mol
# Density = 1.968063 g / cm^3
# Si number density = 19.725530 Si / 1000 Ang^3
#
#
#
# Elastic Constant Matrix: (Units=GPa)
#
#
# Indices 1 2 3 4 5 6 
#
# 1 70.1436 37.2465 38.3132 0.0000 0.0000 0.0000
# 2 37.2465 90.4153 44.3420 0.0000 0.0000 0.0000
# 3 38.3132 44.3420 93.5624 0.0000 0.0000 0.0000
# 4 0.0000 0.0000 0.0000 13.0501 0.0000 0.0000
# 5 0.0000 0.0000 0.0000 0.0000 20.6981 0.0000
# 6 0.0000 0.0000 0.0000 0.0000 0.0000 19.2646
#
#
#
# Elastic Compliance Matrix: (Units=1/GPa)
#
#
# Indices 1 2 3 4 5 6 
#
# 1 0.020323 -0.005590 -0.005673 0.000000 0.000000 0.000000
# 2 -0.005590 0.015947 -0.005269 0.000000 0.000000 0.000000
# 3 -0.005673 -0.005269 0.015508 0.000000 0.000000 0.000000
# 4 0.000000 0.000000 0.000000 0.076628 0.000000 0.000000
# 5 0.000000 0.000000 0.000000 0.000000 0.048314 0.000000
# 6 0.000000 0.000000 0.000000 0.000000 0.000000 0.051909
#
#
# Mechanical properties :
#
#
# Convention : Reuss Voigt Hill
#
# Bulk Modulus (GPa) = 53.43309 54.88053 54.15681
# Shear Modulus (GPa) = 18.66158 19.55052 19.10605
#
# Velocity S-wave (km/s) = 3.07915 3.15163 3.11560
# Velocity P-wave (km/s) = 6.30782 6.41297 6.36061
#
# Compressibility (1/GPa) = 0.01871500
#
# Stress axis : x y z
#
# Youngs Moduli (GPa) = 49.20418 62.70882 64.48268
#
# Poissons Ratio (x) = 0.35055 0.36581
# Poissons Ratio (y) = 0.27505 0.33973
# Poissons Ratio (z) = 0.27914 0.33038
#
# Static dielectric constant tensor:
#      x y z
#    x 3.556660 0.000000 0.000000 
#    y 0.000000 3.684420 0.000000 
#    z 0.000000 0.000000 3.794940 
# 
# 
# High freq. dielectric constant tensor:
#      x y z
#    x 1.752060 0.000000 0.000000 
#    y 0.000000 1.770590 0.000000 
#    z 0.000000 0.000000 1.767940 
# 
# From -- ./inp_files/3689.got.cif
#   From: 2010.03.12/outbox.cif.g09.slc.cpg/sg31_2_cif.got.tgz:3689.got - 2010.04.14 01:42:59.
