data_PCOD8170128
_publ_section_title
;
Structure prediction by ZEFSAII (Michael W. Deem and Ramdas Pophale) SiO2 
 PCOD8170128
Probable space group: P M N 21
;
_chemical_formula_sum "Si O2"
_cell_formula_units_Z 24
_cell_length_a 7.732510
_cell_length_b 13.415884
_cell_length_c 11.749000
_cell_angle_alpha 90.000000
_cell_angle_beta 90.000000
_cell_angle_gamma 90.000000
_cell_volume 1218.823134
_symmetry_space_group_name_H-M "P M N 21"
_symmetry_group_IT_number 31
_symmetry_cell_setting 'orthorhombic'
loop_
_space_group_symop_operation_xyz
x,y,z
1/2-x,-y,1/2+z
-x,y,z
1/2+x,-y,1/2+z
loop_
_atom_site_type_symbol
_atom_site_label
_atom_site_fract_x
_atom_site_fract_y
_atom_site_fract_z
Si Si1 0.808965 0.843485 0.795630
Si Si2 0.500000 0.818901 0.263101
Si Si3 0.801748 0.345016 0.434540
Si Si4 0.500000 0.682038 0.481756
Si Si5 0.691528 0.294629 0.676494
Si Si6 0.000000 0.996910 0.912799
Si Si7 0.802717 0.568044 0.385969
Si Si8 0.000000 0.134224 0.132723
O O1 0.748466 0.738599 0.844609
O O2 0.672256 0.884737 0.705014
O O3 0.000000 0.830548 0.737912
O O4 0.829865 0.925502 0.898296
O O5 0.500000 0.753755 0.375232
O O6 0.671776 0.795049 0.190021
O O7 0.500000 0.932796 0.301121
O O8 0.691504 0.337364 0.549341
O O9 0.765150 0.450795 0.375141
O O10 0.000000 0.333182 0.469873
O O11 0.673583 0.615056 0.479788
O O12 0.500000 0.750526 0.593514
O O13 0.500000 0.251854 0.702275
O O14 0.735269 0.385224 0.762172
O O15 0.000000 0.054684 0.030773
O O16 0.000000 0.588723 0.425561
#
# Coordination Sequence:
#
# PCOD8170128 Si02
#       8
#     4   2   4   2   4   2   4   2
#     4  10  24  44  61  94 123 160 210 258 313 384
#     4   9  18  41  56  86 119 145 208 256 301 367
#     4  11  21  39  60  86 130 162 201 261 304 367
#     4   9  20  35  64  84 119 167 192 259 299 357
#     4  10  20  36  59  88 118 164 204 247 310 361
#     4   9  24  45  66  92 124 159 210 261 317 385
#     4   9  21  37  56  89 127 162 215 246 295 376
#     4  11  22  47  66  92 132 161 206 266 327 363
#
# _framework density 19.691127000000002
#
# number of rings (size 3 to 8) (size 9 to 14) (size 15 to 20)
#    0.500    1.667    1.667    0.500    2.333    3.333 
#    3.000    3.333    0.000    0.000    0.000    0.000 
#    0.000    0.000    0.000    0.000    0.000    0.000 
#
# Total GULP energy -297501.150312 kJ/mol
# GULP energy per Si atom -12395.881263 kJ/mol
# Density = 1.964631 g / cm^3
# Si number density = 19.691127 Si / 1000 Ang^3
#
#
#
# Elastic Constant Matrix: (Units=GPa)
#
#
# Indices 1 2 3 4 5 6 
#
# 1 112.3509 38.4591 36.9860 0.0000 0.0000 0.0000
# 2 38.4591 101.9756 28.2289 0.0000 0.0000 0.0000
# 3 36.9860 28.2289 79.8025 0.0000 0.0000 0.0000
# 4 0.0000 0.0000 0.0000 33.4965 0.0000 0.0000
# 5 0.0000 0.0000 0.0000 0.0000 28.2312 0.0000
# 6 0.0000 0.0000 0.0000 0.0000 0.0000 22.4592
#
#
#
# Elastic Compliance Matrix: (Units=1/GPa)
#
#
# Indices 1 2 3 4 5 6 
#
# 1 0.011337 -0.003127 -0.004148 0.000000 0.000000 0.000000
# 2 -0.003127 0.011733 -0.002701 0.000000 0.000000 0.000000
# 3 -0.004148 -0.002701 0.015409 0.000000 0.000000 0.000000
# 4 0.000000 0.000000 0.000000 0.029854 0.000000 0.000000
# 5 0.000000 0.000000 0.000000 0.000000 0.035422 0.000000
# 6 0.000000 0.000000 0.000000 0.000000 0.000000 0.044525
#
#
# Mechanical properties :
#
#
# Convention : Reuss Voigt Hill
#
# Bulk Modulus (GPa) = 53.97753 55.71968 54.84860
# Shear Modulus (GPa) = 28.66840 29.53438 29.10139
#
# Velocity S-wave (km/s) = 3.81977 3.87703 3.84851
# Velocity P-wave (km/s) = 6.85024 6.95702 6.90384
#
# Compressibility (1/GPa) = 0.01852623
#
# Stress axis : x y z
#
# Youngs Moduli (GPa) = 88.20898 85.22674 64.89763
#
# Poissons Ratio (x) = 0.26653 0.26920
# Poissons Ratio (y) = 0.27585 0.17530
# Poissons Ratio (z) = 0.36589 0.23021
#
# Static dielectric constant tensor:
#      x y z
#    x 3.806890 0.000000 0.000000 
#    y 0.000000 3.677030 0.000000 
#    z 0.000000 0.000000 3.334510 
# 
# 
# High freq. dielectric constant tensor:
#      x y z
#    x 1.778330 0.000000 0.000000 
#    y 0.000000 1.766230 0.000000 
#    z 0.000000 0.000000 1.746410 
# 
# From -- ./inp_files/3492.got.cif
#   From: 2010.03.12/outbox.cif.g09.slc.cpg/sg31_2_cif.got.tgz:3492.got - 2010.04.14 01:42:59.
