data_PCOD8170091
_publ_section_title
;
Structure prediction by ZEFSAII (Michael W. Deem and Ramdas Pophale) SiO2 
 PCOD8170091
Probable space group: P M N 21
;
_chemical_formula_sum "Si O2"
_cell_formula_units_Z 32
_cell_length_a 8.885592
_cell_length_b 11.960811
_cell_length_c 15.290189
_cell_angle_alpha 90.000000
_cell_angle_beta 90.000000
_cell_angle_gamma 90.000000
_cell_volume 1625.024262
_symmetry_space_group_name_H-M "P M N 21"
_symmetry_group_IT_number 31
_symmetry_cell_setting 'orthorhombic'
loop_
_space_group_symop_operation_xyz
x,y,z
1/2-x,-y,1/2+z
-x,y,z
1/2+x,-y,1/2+z
loop_
_atom_site_type_symbol
_atom_site_label
_atom_site_fract_x
_atom_site_fract_y
_atom_site_fract_z
Si Si1 0.672550 0.257391 0.175970
Si Si2 0.678061 0.734446 0.377511
Si Si3 0.326522 0.494590 0.928816
Si Si4 0.826440 0.710762 0.872381
Si Si5 0.173653 0.495366 0.631399
Si Si6 0.178804 0.859529 0.031730
Si Si7 0.178212 0.110449 0.034827
Si Si8 0.178099 0.720684 0.197846
O O1 0.500000 0.249170 0.145254
O O2 0.690699 0.230407 0.278463
O O3 0.733538 0.381421 0.154862
O O4 0.767279 0.166359 0.124152
O O5 0.500000 0.737940 0.367539
O O6 0.727344 0.611514 0.405323
O O7 0.736345 0.821028 0.450814
O O8 0.752099 0.770943 0.286165
O O9 0.500000 0.467724 0.907707
O O10 0.270697 0.598070 0.871149
O O11 0.302451 0.527567 0.029339
O O12 0.000000 0.679006 0.891221
O O13 0.763284 0.795736 0.945278
O O14 0.270445 0.407241 0.686239
O O15 0.000000 0.482385 0.659525
O O16 0.238854 0.795502 0.117565
O O17 0.000000 0.862539 0.032113
O O18 0.244305 0.984997 0.030219
O O19 0.000000 0.108574 0.036657
O O20 0.000000 0.724056 0.204532
#
# Coordination Sequence:
#
# PCOD8170091 Si02
#       8
#     4   4   4   4   4   4   4   4
#     4  10  21  37  59  86 115 148 185 236 289 336
#     4  11  23  38  59  86 117 153 194 239 288 343
#     4  11  21  35  59  88 120 152 188 236 285 341
#     4  10  20  37  61  86 116 153 190 231 287 348
#     4  10  20  35  56  86 123 151 184 235 288 343
#     4   9  20  39  59  83 114 151 195 237 285 342
#     4  10  22  40  60  80 111 154 196 239 284 341
#     4  11  22  37  61  87 116 154 192 235 288 346
#
# _framework density 19.692012999999999
#
# number of rings (size 3 to 8) (size 9 to 14) (size 15 to 20)
#    0.000    1.750    2.500    1.875    0.000    4.000 
#    0.000    3.125    0.000    0.000    0.000    0.000 
#    0.000    0.000    0.000    0.000    0.000    0.000 
#
# Total GULP energy -396951.641691 kJ/mol
# GULP energy per Si atom -12404.738803 kJ/mol
# Density = 1.964719 g / cm^3
# Si number density = 19.692013 Si / 1000 Ang^3
#
#
#
# Elastic Constant Matrix: (Units=GPa)
#
#
# Indices 1 2 3 4 5 6 
#
# 1 43.1180 22.9705 33.7367 0.0000 0.0000 0.0000
# 2 22.9705 139.7661 54.5492 0.0000 0.0000 0.0000
# 3 33.7367 54.5492 112.6237 0.0000 0.0000 0.0000
# 4 0.0000 0.0000 0.0000 16.0203 0.0000 0.0000
# 5 0.0000 0.0000 0.0000 0.0000 31.1329 0.0000
# 6 0.0000 0.0000 0.0000 0.0000 0.0000 16.3011
#
#
#
# Elastic Compliance Matrix: (Units=1/GPa)
#
#
# Indices 1 2 3 4 5 6 
#
# 1 0.030652 -0.001793 -0.008313 0.000000 0.000000 0.000000
# 2 -0.001793 0.008927 -0.003787 0.000000 0.000000 0.000000
# 3 -0.008313 -0.003787 0.013204 0.000000 0.000000 0.000000
# 4 0.000000 0.000000 0.000000 0.062421 0.000000 0.000000
# 5 0.000000 0.000000 0.000000 0.000000 0.032120 0.000000
# 6 0.000000 0.000000 0.000000 0.000000 0.000000 0.061346
#
#
# Mechanical properties :
#
#
# Convention : Reuss Voigt Hill
#
# Bulk Modulus (GPa) = 40.00572 57.55784 48.78178
# Shear Modulus (GPa) = 20.42576 24.97427 22.70002
#
# Velocity S-wave (km/s) = 3.22415 3.56510 3.39890
# Velocity P-wave (km/s) = 5.84979 6.79993 6.34268
#
# Compressibility (1/GPa) = 0.02499642
#
# Stress axis : x y z
#
# Youngs Moduli (GPa) = 32.62420 112.01364 75.73666
#
# Poissons Ratio (x) = 0.20084 0.62964
# Poissons Ratio (y) = 0.05849 0.28681
# Poissons Ratio (z) = 0.27122 0.42419
#
# Static dielectric constant tensor:
#      x y z
#    x 3.373310 0.000000 0.000000 
#    y 0.000000 3.637150 0.000000 
#    z 0.000000 0.000000 3.789170 
# 
# 
# High freq. dielectric constant tensor:
#      x y z
#    x 1.749560 0.000000 0.000000 
#    y 0.000000 1.762870 0.000000 
#    z 0.000000 0.000000 1.783340 
# 
# From -- ./inp_files/4943.got.cif
#   From: 2010.03.12/outbox.cif.g09.slc.cpg/sg31_3_cif.got.tgz:4943.got - 2010.04.14 01:42:59.
