data_PCOD8170850
_publ_section_title
;
Structure prediction by ZEFSAII (Michael W. Deem and Ramdas Pophale) SiO2 
 PCOD8170850
Probable space group: P N A 21
;
_chemical_formula_sum "Si O2"
_cell_formula_units_Z 28
_cell_length_a 15.461046
_cell_length_b 8.116633
_cell_length_c 11.682991
_cell_angle_alpha 90.000000
_cell_angle_beta 90.000000
_cell_angle_gamma 90.000000
_cell_volume 1466.117656
_symmetry_space_group_name_H-M "P N A 21"
_symmetry_group_IT_number 33
_symmetry_cell_setting 'orthorhombic'
loop_
_space_group_symop_operation_xyz
x,y,z
-x,-y,1/2+z
1/2-x,1/2+y,1/2+z
1/2+x,1/2-y,z
loop_
_atom_site_type_symbol
_atom_site_label
_atom_site_fract_x
_atom_site_fract_y
_atom_site_fract_z
Si Si1 0.404698 0.000103 0.327620
Si Si2 0.272023 0.209452 0.451811
Si Si3 0.125397 0.997818 0.353507
Si Si4 0.471390 0.690906 0.453431
Si Si5 0.342154 0.492057 0.310376
Si Si6 0.241510 0.305913 0.706714
Si Si7 0.993969 0.203324 0.212409
O O1 0.355701 0.092322 0.432465
O O2 0.470093 0.119711 0.263113
O O3 0.462615 0.856944 0.380813
O O4 0.337878 0.929933 0.232374
O O5 0.277805 0.351408 0.355784
O O6 0.267649 0.296854 0.574322
O O7 0.187575 0.098715 0.437156
O O8 0.174792 0.871863 0.271420
O O9 0.064019 0.888506 0.431660
O O10 0.073024 0.130725 0.282364
O O11 0.393658 0.568325 0.418536
O O12 0.468466 0.729439 0.586675
O O13 0.282161 0.623788 0.248405
O O14 0.411036 0.418395 0.219268
#
# Coordination Sequence:
#
# PCOD8170850 Si02
#       7
#     4   4   4   4   4   4   4
#     4   9  22  36  52  81 108 138 182 213 260 324
#     4  10  20  37  56  78 108 140 174 221 264 307
#     4  10  22  34  54  84 104 134 186 214 254 326
#     4  10  20  37  55  77 109 141 172 219 264 308
#     4   9  20  36  56  79 106 138 176 213 264 320
#     4  10  20  37  56  78 108 140 174 221 264 307
#     4  10  20  37  55  77 109 141 172 219 264 308
#
# _framework density 19.098057000000001
#
# number of rings (size 3 to 8) (size 9 to 14) (size 15 to 20)
#    0.000    2.286    0.000    1.714    0.000    5.714 
#    0.000   11.429    0.000    0.000    0.000    0.000 
#    0.000    0.000    0.000    0.000    0.000    0.000 
#
# Total GULP energy -347236.748891 kJ/mol
# GULP energy per Si atom -12401.312460 kJ/mol
# Density = 1.905459 g / cm^3
# Si number density = 19.098057 Si / 1000 Ang^3
#
#
#
# Elastic Constant Matrix: (Units=GPa)
#
#
# Indices 1 2 3 4 5 6 
#
# 1 47.1281 17.6378 6.1406 0.0000 0.0000 0.0000
# 2 17.6378 93.8779 7.8614 0.0000 0.0000 0.0000
# 3 6.1406 7.8614 75.7551 0.0000 0.0000 0.0000
# 4 0.0000 0.0000 0.0000 21.8958 0.0000 0.0000
# 5 0.0000 0.0000 0.0000 0.0000 17.3784 0.0000
# 6 0.0000 0.0000 0.0000 0.0000 0.0000 36.7064
#
#
#
# Elastic Compliance Matrix: (Units=1/GPa)
#
#
# Indices 1 2 3 4 5 6 
#
# 1 0.022975 -0.004197 -0.001427 0.000000 0.000000 0.000000
# 2 -0.004197 0.011512 -0.000854 0.000000 0.000000 0.000000
# 3 -0.001427 -0.000854 0.013405 0.000000 0.000000 0.000000
# 4 0.000000 0.000000 0.000000 0.045671 0.000000 0.000000
# 5 0.000000 0.000000 0.000000 0.000000 0.057543 0.000000
# 6 0.000000 0.000000 0.000000 0.000000 0.000000 0.027243
#
#
# Mechanical properties :
#
#
# Convention : Reuss Voigt Hill
#
# Bulk Modulus (GPa) = 28.62404 31.11562 29.86983
# Shear Modulus (GPa) = 24.63645 27.53754 26.08700
#
# Velocity S-wave (km/s) = 3.59555 3.80136 3.69989
# Velocity P-wave (km/s) = 5.67959 5.96616 5.82464
#
# Compressibility (1/GPa) = 0.03493566
#
# Stress axis : x y z
#
# Youngs Moduli (GPa) = 43.52466 86.86400 74.60042
#
# Poissons Ratio (x) = 0.36458 0.10644
# Poissons Ratio (y) = 0.18268 0.06374
# Poissons Ratio (z) = 0.06210 0.07422
#
# Static dielectric constant tensor:
#      x y z
#    x 3.482040 0.000000 0.000000 
#    y 0.000000 3.649900 0.000000 
#    z 0.000000 0.000000 3.296330 
# 
# 
# High freq. dielectric constant tensor:
#      x y z
#    x 1.744040 0.000000 0.000000 
#    y 0.000000 1.758610 0.000000 
#    z 0.000000 0.000000 1.733500 
# 
# From -- ./inp_files/6715.got.cif
#   From: 2010.03.12/outbox.cif.g09.slc.cpg/sg33_4_cif.got.tgz:6715.got - 2010.04.14 01:49:19.
