data_PCOD8170764
_publ_section_title
;
Structure prediction by ZEFSAII (Michael W. Deem and Ramdas Pophale) SiO2 
 PCOD8170764
Probable space group: P N A 21
;
_chemical_formula_sum "Si O2"
_cell_formula_units_Z 28
_cell_length_a 26.919498
_cell_length_b 5.532934
_cell_length_c 6.917831
_cell_angle_alpha 90.000000
_cell_angle_beta 90.000000
_cell_angle_gamma 90.000000
_cell_volume 1030.368077
_symmetry_space_group_name_H-M "P N A 21"
_symmetry_group_IT_number 33
_symmetry_cell_setting 'orthorhombic'
loop_
_space_group_symop_operation_xyz
x,y,z
-x,-y,1/2+z
1/2-x,1/2+y,1/2+z
1/2+x,1/2-y,z
loop_
_atom_site_type_symbol
_atom_site_label
_atom_site_fract_x
_atom_site_fract_y
_atom_site_fract_z
Si Si1 0.075596 0.910899 0.277720
Si Si2 0.948221 0.440734 0.481443
Si Si3 0.167962 0.941777 0.668144
Si Si4 0.642050 0.063430 0.743261
Si Si5 0.984317 0.183879 0.128122
Si Si6 0.682050 0.542361 0.130531
Si Si7 0.722518 0.045915 0.065948
O O1 0.057897 0.943730 0.498443
O O2 0.132212 0.994944 0.257480
O O3 0.073187 0.640853 0.188942
O O4 0.036668 0.048623 0.140389
O O5 0.904589 0.598466 0.385914
O O6 0.960226 0.219673 0.336922
O O7 0.000811 0.572794 0.512855
O O8 0.138494 0.689090 0.618717
O O9 0.218088 0.949279 0.541046
O O10 0.140727 0.194933 0.610993
O O11 0.173032 0.946961 0.900594
O O12 0.694275 0.050358 0.860544
O O13 0.712012 0.296984 0.182119
O O14 0.708399 0.799281 0.184919
#
# Coordination Sequence:
#
# PCOD8170764 Si02
#       7
#     4   4   4   4   4   4   4
#     4  12  24  45  70 102 148 184 242 297 368 432
#     4  12  24  45  70 102 148 184 242 297 368 432
#     4  10  19  37  64  91 124 174 231 278 361 417
#     4  10  22  39  64  93 133 183 219 298 355 420
#     4  12  26  42  74 108 136 200 242 300 366 442
#     4  10  22  39  64  93 133 183 219 298 355 420
#     4  10  19  37  64  91 124 174 231 278 361 417
#
# _framework density 27.174757
#
# number of rings (size 3 to 8) (size 9 to 14) (size 15 to 20)
#    0.000    1.143    5.714    2.571    0.000    0.000 
#    0.000    8.571    0.000    0.000    0.000    0.000 
#    0.000    0.000    0.000    0.000    0.000    0.000 
#
# Total GULP energy -346903.751520 kJ/mol
# GULP energy per Si atom -12389.419697 kJ/mol
# Density = 2.711291 g / cm^3
# Si number density = 27.174757 Si / 1000 Ang^3
#
#
#
# Elastic Constant Matrix: (Units=GPa)
#
#
# Indices 1 2 3 4 5 6 
#
# 1 86.4723 28.2933 -3.8710 0.0000 0.0000 0.0000
# 2 28.2933 215.9059 9.4982 0.0000 0.0000 0.0000
# 3 -3.8710 9.4982 43.2305 0.0000 0.0000 0.0000
# 4 0.0000 0.0000 0.0000 22.3820 0.0000 0.0000
# 5 0.0000 0.0000 0.0000 0.0000 45.1406 0.0000
# 6 0.0000 0.0000 0.0000 0.0000 0.0000 46.1973
#
#
#
# Elastic Compliance Matrix: (Units=1/GPa)
#
#
# Indices 1 2 3 4 5 6 
#
# 1 0.012172 -0.001659 0.001454 0.000000 0.000000 0.000000
# 2 -0.001659 0.004903 -0.001226 0.000000 0.000000 0.000000
# 3 0.001454 -0.001226 0.023531 0.000000 0.000000 0.000000
# 4 0.000000 0.000000 0.000000 0.044679 0.000000 0.000000
# 5 0.000000 0.000000 0.000000 0.000000 0.022153 0.000000
# 6 0.000000 0.000000 0.000000 0.000000 0.000000 0.021646
#
#
# Mechanical properties :
#
#
# Convention : Reuss Voigt Hill
#
# Bulk Modulus (GPa) = 26.49294 45.93885 36.21590
# Shear Modulus (GPa) = 34.59545 43.52318 39.05932
#
# Velocity S-wave (km/s) = 3.57189 4.00635 3.79534
# Velocity P-wave (km/s) = 5.17508 6.19215 5.70632
#
# Compressibility (1/GPa) = 0.03774590
#
# Stress axis : x y z
#
# Youngs Moduli (GPa) = 82.15330 203.95718 42.49640
#
# Poissons Ratio (x) = 0.33839 -0.06181
# Poissons Ratio (y) = 0.13630 0.05209
# Poissons Ratio (z) = -0.11949 0.25001
#
# Static dielectric constant tensor:
#      x y z
#    x 4.815510 0.000000 0.000000 
#    y 0.000000 5.937040 0.000000 
#    z 0.000000 0.000000 4.501780 
# 
# 
# High freq. dielectric constant tensor:
#      x y z
#    x 2.096490 0.000000 0.000000 
#    y 0.000000 2.106040 0.000000 
#    z 0.000000 0.000000 2.073660 
# 
# From -- ./inp_files/5270.got.cif
#   From: 2010.03.12/outbox.cif.g09.slc.cpg/sg33_3_cif.got.tgz:5270.got - 2010.04.14 01:49:19.
