data_PCOD8170718
_publ_section_title
;
Structure prediction by ZEFSAII (Michael W. Deem and Ramdas Pophale) SiO2 
 PCOD8170718
Probable space group: P N A 21
;
_chemical_formula_sum "Si O2"
_cell_formula_units_Z 32
_cell_length_a 5.302912
_cell_length_b 16.971137
_cell_length_c 16.663967
_cell_angle_alpha 90.000000
_cell_angle_beta 90.000000
_cell_angle_gamma 90.000000
_cell_volume 1499.697807
_symmetry_space_group_name_H-M "P N A 21"
_symmetry_group_IT_number 33
_symmetry_cell_setting 'orthorhombic'
loop_
_space_group_symop_operation_xyz
x,y,z
-x,-y,1/2+z
1/2-x,1/2+y,1/2+z
1/2+x,1/2-y,z
loop_
_atom_site_type_symbol
_atom_site_label
_atom_site_fract_x
_atom_site_fract_y
_atom_site_fract_z
Si Si1 0.485306 0.958528 0.584150
Si Si2 0.517932 0.458557 0.186185
Si Si3 0.529725 0.535133 0.349840
Si Si4 0.594501 0.782885 0.549341
Si Si5 0.617370 0.716643 0.371963
Si Si6 0.529893 0.035674 0.420495
Si Si7 0.888689 0.783205 0.723017
Si Si8 0.375103 0.782815 0.900415
O O1 0.218733 0.967157 0.627804
O O2 0.504037 0.872444 0.543959
O O3 0.718867 0.974515 0.642318
O O4 0.490806 0.024061 0.515128
O O5 0.488969 0.523694 0.255130
O O6 0.516166 0.372429 0.226689
O O7 0.598137 0.623605 0.371731
O O8 0.266859 0.516864 0.393624
O O9 0.767110 0.482538 0.376452
O O10 0.376869 0.725740 0.590017
O O11 0.661163 0.749118 0.461803
O O12 0.376500 0.756349 0.327785
O O13 0.597907 0.124310 0.399063
O O14 0.605582 0.774608 0.682871
O O15 0.825137 0.751120 0.811393
O O16 0.613921 0.741968 0.944906
#
# Coordination Sequence:
#
# PCOD8170718 Si02
#       8
#     4   4   4   4   4   4   4   4
#     4  12  26  41  61  94 135 171 204 260 334 394
#     4  12  26  41  61  94 135 171 204 260 334 394
#     4  12  23  42  69  94 128 175 227 272 313 384
#     4  10  19  35  55  85 123 160 204 247 307 382
#     4  10  20  36  61  91 120 156 215 273 312 362
#     4  12  23  42  69  94 128 175 227 272 313 384
#     4  10  19  35  55  85 123 160 204 247 307 382
#     4  10  20  36  61  91 120 156 215 273 312 362
#
# _framework density 21.337631999999999
#
# number of rings (size 3 to 8) (size 9 to 14) (size 15 to 20)
#    0.000    1.000    0.000   10.500    0.000    3.000 
#    0.000    0.000    0.000    4.500    0.000    0.000 
#    0.000    0.000    0.000    0.000    0.000    0.000 
#
# Total GULP energy -396885.010609 kJ/mol
# GULP energy per Si atom -12402.656582 kJ/mol
# Density = 2.128907 g / cm^3
# Si number density = 21.337632 Si / 1000 Ang^3
#
#
#
# Elastic Constant Matrix: (Units=GPa)
#
#
# Indices 1 2 3 4 5 6 
#
# 1 155.7489 14.4246 9.3238 0.0000 0.0000 0.0000
# 2 14.4246 74.5706 33.3431 0.0000 0.0000 0.0000
# 3 9.3238 33.3431 67.5613 0.0000 0.0000 0.0000
# 4 0.0000 0.0000 0.0000 35.7119 0.0000 0.0000
# 5 0.0000 0.0000 0.0000 0.0000 23.2756 0.0000
# 6 0.0000 0.0000 0.0000 0.0000 0.0000 42.9225
#
#
#
# Elastic Compliance Matrix: (Units=1/GPa)
#
#
# Indices 1 2 3 4 5 6 
#
# 1 0.006544 -0.001106 -0.000357 0.000000 0.000000 0.000000
# 2 -0.001106 0.017394 -0.008432 0.000000 0.000000 0.000000
# 3 -0.000357 -0.008432 0.019012 0.000000 0.000000 0.000000
# 4 0.000000 0.000000 0.000000 0.028002 0.000000 0.000000
# 5 0.000000 0.000000 0.000000 0.000000 0.042963 0.000000
# 6 0.000000 0.000000 0.000000 0.000000 0.000000 0.023298
#
#
# Mechanical properties :
#
#
# Convention : Reuss Voigt Hill
#
# Bulk Modulus (GPa) = 43.17760 45.78488 44.48124
# Shear Modulus (GPa) = 30.35373 36.43460 33.39417
#
# Velocity S-wave (km/s) = 3.77576 4.13671 3.96035
# Velocity P-wave (km/s) = 6.26800 6.65736 6.46561
#
# Compressibility (1/GPa) = 0.02316016
#
# Stress axis : x y z
#
# Youngs Moduli (GPa) = 152.80178 57.49027 52.59846
#
# Poissons Ratio (x) = 0.06360 0.01879
# Poissons Ratio (y) = 0.16903 0.44350
# Poissons Ratio (z) = 0.05458 0.48475
#
# Static dielectric constant tensor:
#      x y z
#    x 5.098590 0.000000 0.000000 
#    y 0.000000 3.676130 0.000000 
#    z 0.000000 0.000000 3.813780 
# 
# 
# High freq. dielectric constant tensor:
#      x y z
#    x 1.895230 0.000000 0.000000 
#    y 0.000000 1.818370 0.000000 
#    z 0.000000 0.000000 1.817870 
# 
# From -- ./inp_files/8371.got.cif
#   From: 2010.03.12/outbox.cif.g09.slc.cpg/sg33_5_cif.got.tgz:8371.got - 2010.04.14 01:49:19.
