data_PCOD8170691
_publ_section_title
;
Structure prediction by ZEFSAII (Michael W. Deem and Ramdas Pophale) SiO2 
 PCOD8170691
Probable space group: P N A 21
;
_chemical_formula_sum "Si O2"
_cell_formula_units_Z 24
_cell_length_a 5.172521
_cell_length_b 18.336132
_cell_length_c 12.211425
_cell_angle_alpha 90.000000
_cell_angle_beta 90.000000
_cell_angle_gamma 90.000000
_cell_volume 1158.180733
_symmetry_space_group_name_H-M "P N A 21"
_symmetry_group_IT_number 33
_symmetry_cell_setting 'orthorhombic'
loop_
_space_group_symop_operation_xyz
x,y,z
-x,-y,1/2+z
1/2-x,1/2+y,1/2+z
1/2+x,1/2-y,z
loop_
_atom_site_type_symbol
_atom_site_label
_atom_site_fract_x
_atom_site_fract_y
_atom_site_fract_z
Si Si1 0.165676 0.573616 0.758410
Si Si2 0.015451 0.062992 0.456911
Si Si3 0.029459 0.453440 0.591098
Si Si4 0.231345 0.219603 0.169353
Si Si5 0.543166 0.210599 0.608185
Si Si6 0.796847 0.685804 0.879051
O O1 0.943260 0.617415 0.822459
O O2 0.375584 0.535391 0.838990
O O3 0.030418 0.511768 0.687547
O O4 0.311864 0.633143 0.680177
O O5 0.241197 0.049054 0.543909
O O6 0.750626 0.024747 0.500831
O O7 0.953150 0.149364 0.440223
O O8 0.089834 0.373631 0.640894
O O9 0.497218 0.240328 0.106039
O O10 0.307825 0.255668 0.289815
O O11 0.279041 0.242364 0.657779
O O12 0.520205 0.218406 0.474624
#
# Coordination Sequence:
#
# PCOD8170691 Si02
#       6
#     4   4   4   4   4   4
#     4  11  22  38  55  83 123 153 183 228 281 344
#     4  11  21  40  52  84 118 153 182 228 281 336
#     4  11  26  34  56  86 117 151 193 221 283 346
#     4  10  19  29  53  84 108 148 169 216 290 351
#     4  11  20  34  54  81 114 140 181 232 290 342
#     4  10  20  33  58  86 112 147 174 233 301 345
#
# _framework density 20.722156999999999
#
# number of rings (size 3 to 8) (size 9 to 14) (size 15 to 20)
#    0.000    1.333    5.000    4.000    4.667    0.000 
#    0.000    0.000    0.000    0.000    0.000   14.000 
#    0.000    0.000    0.000    0.000    0.000    0.000 
#
# Total GULP energy -297396.973412 kJ/mol
# GULP energy per Si atom -12391.540559 kJ/mol
# Density = 2.067499 g / cm^3
# Si number density = 20.722157 Si / 1000 Ang^3
#
#
#
# Elastic Constant Matrix: (Units=GPa)
#
#
# Indices 1 2 3 4 5 6 
#
# 1 128.7870 23.6269 15.7457 0.0000 0.0000 0.0000
# 2 23.6269 96.1901 28.6607 0.0000 0.0000 0.0000
# 3 15.7457 28.6607 23.9494 0.0000 0.0000 0.0000
# 4 0.0000 0.0000 0.0000 34.6600 0.0000 0.0000
# 5 0.0000 0.0000 0.0000 0.0000 15.7266 0.0000
# 6 0.0000 0.0000 0.0000 0.0000 0.0000 35.5553
#
#
#
# Elastic Compliance Matrix: (Units=1/GPa)
#
#
# Indices 1 2 3 4 5 6 
#
# 1 0.008470 -0.000655 -0.004785 0.000000 0.000000 0.000000
# 2 -0.000655 0.016208 -0.018966 0.000000 0.000000 0.000000
# 3 -0.004785 -0.018966 0.067598 0.000000 0.000000 0.000000
# 4 0.000000 0.000000 0.000000 0.028852 0.000000 0.000000
# 5 0.000000 0.000000 0.000000 0.000000 0.063587 0.000000
# 6 0.000000 0.000000 0.000000 0.000000 0.000000 0.028125
#
#
# Mechanical properties :
#
#
# Convention : Reuss Voigt Hill
#
# Bulk Modulus (GPa) = 23.00758 42.77700 32.89229
# Shear Modulus (GPa) = 18.10686 29.24792 23.67739
#
# Velocity S-wave (km/s) = 2.95920 3.76098 3.38392
# Velocity P-wave (km/s) = 4.77523 6.28871 5.58349
#
# Compressibility (1/GPa) = 0.04346394
#
# Stress axis : x y z
#
# Youngs Moduli (GPa) = 118.06512 61.69816 14.79343
#
# Poissons Ratio (x) = 0.04039 0.07079
# Poissons Ratio (y) = 0.07729 0.28057
# Poissons Ratio (z) = 0.56496 1.17016
#
# Static dielectric constant tensor:
#      x y z
#    x 4.210240 0.000000 0.000000 
#    y 0.000000 3.677250 0.000000 
#    z 0.000000 0.000000 3.122170 
# 
# 
# High freq. dielectric constant tensor:
#      x y z
#    x 1.851190 0.000000 0.000000 
#    y 0.000000 1.797380 0.000000 
#    z 0.000000 0.000000 1.725030 
# 
# From -- ./inp_files/5512.got.cif
#   From: 2010.03.12/outbox.cif.g09.slc.cpg/sg33_3_cif.got.tgz:5512.got - 2010.04.14 01:49:19.
