data_PCOD8170731
_publ_section_title
;
Structure prediction by ZEFSAII (Michael W. Deem and Ramdas Pophale) SiO2 
 PCOD8170731
Probable space group: P N A 21
;
_chemical_formula_sum "Si O2"
_cell_formula_units_Z 28
_cell_length_a 13.851929
_cell_length_b 11.112222
_cell_length_c 8.135824
_cell_angle_alpha 90.000000
_cell_angle_beta 90.000000
_cell_angle_gamma 90.000000
_cell_volume 1252.312487
_symmetry_space_group_name_H-M "P N A 21"
_symmetry_group_IT_number 33
_symmetry_cell_setting 'orthorhombic'
loop_
_space_group_symop_operation_xyz
x,y,z
-x,-y,1/2+z
1/2-x,1/2+y,1/2+z
1/2+x,1/2-y,z
loop_
_atom_site_type_symbol
_atom_site_label
_atom_site_fract_x
_atom_site_fract_y
_atom_site_fract_z
Si Si1 0.895546 0.988524 0.386740
Si Si2 0.658280 0.066504 0.821225
Si Si3 0.912808 0.896792 0.913301
Si Si4 0.671152 0.669745 0.122755
Si Si5 0.526135 0.265260 0.741143
Si Si6 0.793082 0.082232 0.096283
Si Si7 0.719011 0.809262 0.790409
O O1 0.865384 0.035149 0.567784
O O2 0.803705 0.007868 0.266179
O O3 0.985828 0.073142 0.323063
O O4 0.928807 0.850172 0.384853
O O5 0.733740 0.155101 0.729956
O O6 0.555123 0.128126 0.787360
O O7 0.658125 0.930354 0.754524
O O8 0.687653 0.062032 0.014662
O O9 0.834308 0.835117 0.794320
O O10 0.931458 0.808124 0.066221
O O11 0.872099 0.028115 0.970154
O O12 0.589708 0.731052 0.236365
O O13 0.688527 0.752307 0.964068
O O14 0.806314 0.223176 0.137637
#
# Coordination Sequence:
#
# PCOD8170731 Si02
#       7
#     4   4   4   4   4   4   4
#     4   9  19  36  64  87 111 147 205 257 289 338
#     4  11  22  37  60  88 121 162 191 242 310 351
#     4   9  17  36  61  84 112 150 198 248 295 339
#     4  10  21  39  61  83 120 156 196 253 292 348
#     4  10  19  35  60  88 112 149 201 240 295 351
#     4   9  20  35  54  90 117 145 199 246 288 354
#     4  10  20  38  58  80 123 159 190 244 303 363
#
# _framework density 22.358636000000001
#
# number of rings (size 3 to 8) (size 9 to 14) (size 15 to 20)
#    0.000    2.286    1.429    1.714    2.000    0.000 
#    2.571    2.857   15.714    0.000    0.000    0.000 
#    0.000    0.000    0.000    0.000    0.000    0.000 
#
# Total GULP energy -346985.065794 kJ/mol
# GULP energy per Si atom -12392.323778 kJ/mol
# Density = 2.230775 g / cm^3
# Si number density = 22.358636 Si / 1000 Ang^3
#
#
#
# Elastic Constant Matrix: (Units=GPa)
#
#
# Indices 1 2 3 4 5 6 
#
# 1 45.8253 8.1460 16.3755 0.0000 0.0000 0.0000
# 2 8.1460 92.6174 8.8885 0.0000 0.0000 0.0000
# 3 16.3755 8.8885 40.7981 0.0000 0.0000 0.0000
# 4 0.0000 0.0000 0.0000 31.0611 0.0000 0.0000
# 5 0.0000 0.0000 0.0000 0.0000 27.5332 0.0000
# 6 0.0000 0.0000 0.0000 0.0000 0.0000 27.0695
#
#
#
# Elastic Compliance Matrix: (Units=1/GPa)
#
#
# Indices 1 2 3 4 5 6 
#
# 1 0.025627 -0.001294 -0.010004 0.000000 0.000000 0.000000
# 2 -0.001294 0.011093 -0.001897 0.000000 0.000000 0.000000
# 3 -0.010004 -0.001897 0.028940 0.000000 0.000000 0.000000
# 4 0.000000 0.000000 0.000000 0.032195 0.000000 0.000000
# 5 0.000000 0.000000 0.000000 0.000000 0.036320 0.000000
# 6 0.000000 0.000000 0.000000 0.000000 0.000000 0.036942
#
#
# Mechanical properties :
#
#
# Convention : Reuss Voigt Hill
#
# Bulk Modulus (GPa) = 25.46557 27.34008 26.40282
# Shear Modulus (GPa) = 23.74202 26.85479 25.29841
#
# Velocity S-wave (km/s) = 3.26217 3.46944 3.36740
# Velocity P-wave (km/s) = 5.05998 5.32014 5.19169
#
# Compressibility (1/GPa) = 0.03926871
#
# Stress axis : x y z
#
# Youngs Moduli (GPa) = 39.02131 90.14685 34.55442
#
# Poissons Ratio (x) = 0.11664 0.34569
# Poissons Ratio (y) = 0.05049 0.06557
# Poissons Ratio (z) = 0.39038 0.17105
#
# Static dielectric constant tensor:
#      x y z
#    x 3.966500 0.000000 0.000000 
#    y 0.000000 4.050430 0.000000 
#    z 0.000000 0.000000 3.912740 
# 
# 
# High freq. dielectric constant tensor:
#      x y z
#    x 1.860280 0.000000 0.000000 
#    y 0.000000 1.871340 0.000000 
#    z 0.000000 0.000000 1.865590 
# 
# From -- ./inp_files/4329.got.cif
#   From: 2010.03.12/outbox.cif.g09.slc.cpg/sg33_3_cif.got.tgz:4329.got - 2010.04.14 01:49:19.
