data_PCOD8170469
_publ_section_title
;
Structure prediction by ZEFSAII (Michael W. Deem and Ramdas Pophale) SiO2 
 PCOD8170469
Probable space group: P B A 2
;
_chemical_formula_sum "Si O2"
_cell_formula_units_Z 28
_cell_length_a 8.541929
_cell_length_b 20.257400
_cell_length_c 8.261656
_cell_angle_alpha 90.000000
_cell_angle_beta 90.000000
_cell_angle_gamma 90.000000
_cell_volume 1429.574421
_symmetry_space_group_name_H-M "P B A 2"
_symmetry_group_IT_number 32
_symmetry_cell_setting 'orthorhombic'
loop_
_space_group_symop_operation_xyz
x,y,z
-x,-y,z
1/2-x,1/2+y,z
1/2+x,1/2-y,z
loop_
_atom_site_type_symbol
_atom_site_label
_atom_site_fract_x
_atom_site_fract_y
_atom_site_fract_z
Si Si1 0.536165 0.733281 0.189130
Si Si2 0.113274 0.599188 0.524420
Si Si3 0.322148 0.475289 0.486661
Si Si4 0.697322 0.173305 0.008767
Si Si5 0.305896 0.851029 0.642382
Si Si6 0.280958 0.719824 0.423754
Si Si7 0.908805 0.561672 0.223425
O O1 0.420683 0.769479 0.064573
O O2 0.632099 0.678791 0.090468
O O3 0.444865 0.700790 0.340331
O O4 0.658891 0.781426 0.275755
O O5 0.205803 0.531434 0.561459
O O6 0.236494 0.659353 0.539592
O O7 0.978168 0.615823 0.653431
O O8 0.021553 0.597454 0.353099
O O9 0.500000 0.500000 0.474663
O O10 0.316399 0.409116 0.596316
O O11 0.255327 0.458192 0.308823
O O12 0.624162 0.104869 0.066261
O O13 0.728952 0.177354 0.818654
O O14 0.294010 0.790260 0.515322
O O15 0.000000 0.500000 0.150228
#
# Coordination Sequence:
#
# PCOD8170469 Si02
#       7
#     4   4   4   4   4   4   4
#     4  10  21  37  61  86 120 154 209 249 301 363
#     4  10  20  38  64  88 115 165 211 245 297 369
#     4  10  22  39  63  90 116 159 217 260 290 362
#     4  11  23  39  59  92 127 159 195 259 323 363
#     4  11  24  39  60  89 133 158 199 251 323 370
#     4  11  20  38  63  90 115 160 208 254 294 367
#     4   9  19  40  61  84 116 163 210 243 300 369
#
# _framework density 19.586248999999999
#
# number of rings (size 3 to 8) (size 9 to 14) (size 15 to 20)
#    0.000    1.714    2.857    3.857    6.000    1.143 
#    0.000    0.714    0.000    0.000    0.000    0.000 
#    0.000    0.000    0.000    0.000    0.000    0.000 
#
# Total GULP energy -346968.991107 kJ/mol
# GULP energy per Si atom -12391.749682 kJ/mol
# Density = 1.954167 g / cm^3
# Si number density = 19.586249 Si / 1000 Ang^3
#
#
#
# Elastic Constant Matrix: (Units=GPa)
#
#
# Indices 1 2 3 4 5 6 
#
# 1 112.7366 40.2657 32.8818 0.0000 0.0000 0.0000
# 2 40.2657 106.6686 28.5978 0.0000 0.0000 0.0000
# 3 32.8818 28.5978 79.7100 0.0000 0.0000 0.0000
# 4 0.0000 0.0000 0.0000 26.0775 0.0000 0.0000
# 5 0.0000 0.0000 0.0000 0.0000 19.0779 0.0000
# 6 0.0000 0.0000 0.0000 0.0000 0.0000 32.4565
#
#
#
# Elastic Compliance Matrix: (Units=1/GPa)
#
#
# Indices 1 2 3 4 5 6 
#
# 1 0.011017 -0.003253 -0.003378 0.000000 0.000000 0.000000
# 2 -0.003253 0.011333 -0.002724 0.000000 0.000000 0.000000
# 3 -0.003378 -0.002724 0.014916 0.000000 0.000000 0.000000
# 4 0.000000 0.000000 0.000000 0.038347 0.000000 0.000000
# 5 0.000000 0.000000 0.000000 0.000000 0.052417 0.000000
# 6 0.000000 0.000000 0.000000 0.000000 0.000000 0.030810
#
#
# Mechanical properties :
#
#
# Convention : Reuss Voigt Hill
#
# Bulk Modulus (GPa) = 53.88877 55.84508 54.86692
# Shear Modulus (GPa) = 27.21285 28.68036 27.94661
#
# Velocity S-wave (km/s) = 3.73149 3.83078 3.78146
# Velocity P-wave (km/s) = 6.79254 6.93836 6.86584
#
# Compressibility (1/GPa) = 0.01855674
#
# Stress axis : x y z
#
# Youngs Moduli (GPa) = 90.76577 88.23619 67.04157
#
# Poissons Ratio (x) = 0.28706 0.22644
# Poissons Ratio (y) = 0.29529 0.18262
# Poissons Ratio (z) = 0.30657 0.24035
#
# Static dielectric constant tensor:
#      x y z
#    x 3.877830 0.000000 0.000000 
#    y 0.000000 3.675430 0.000000 
#    z 0.000000 0.000000 3.226580 
# 
# 
# High freq. dielectric constant tensor:
#      x y z
#    x 1.773450 0.000000 0.000000 
#    y 0.000000 1.767820 0.000000 
#    z 0.000000 0.000000 1.726690 
# 
# From -- ./inp_files/2512.got.cif
#   From: 2010.03.12/outbox.cif.g09.slc.cpg/sg32_2_cif.got.tgz:2512.got - 2010.04.14 01:46:39.
