data_PCOD8170510
_publ_section_title
;
Structure prediction by ZEFSAII (Michael W. Deem and Ramdas Pophale) SiO2 
 PCOD8170510
Probable space group: P B A 2
;
_chemical_formula_sum "Si O2"
_cell_formula_units_Z 32
_cell_length_a 13.106611
_cell_length_b 13.106614
_cell_length_c 8.189553
_cell_angle_alpha 90.000000
_cell_angle_beta 90.000000
_cell_angle_gamma 90.000000
_cell_volume 1406.828368
_symmetry_space_group_name_H-M "P B A 2"
_symmetry_group_IT_number 32
_symmetry_cell_setting 'orthorhombic'
loop_
_space_group_symop_operation_xyz
x,y,z
-x,-y,z
1/2-x,1/2+y,z
1/2+x,1/2-y,z
loop_
_atom_site_type_symbol
_atom_site_label
_atom_site_fract_x
_atom_site_fract_y
_atom_site_fract_z
Si Si1 0.658798 0.422159 0.271260
Si Si2 0.054672 0.350148 0.143781
Si Si3 0.266089 0.095725 0.757817
Si Si4 0.077999 0.781209 0.713906
Si Si5 0.218791 0.922001 0.515215
Si Si6 0.149852 0.554672 0.085340
Si Si7 0.422159 0.658798 0.957861
Si Si8 0.095725 0.266089 0.471304
O O1 0.670173 0.537116 0.343786
O O2 0.767683 0.386605 0.195792
O O3 0.632099 0.347629 0.422015
O O4 0.580793 0.419207 0.114560
O O5 0.124720 0.448262 0.171130
O O6 0.028620 0.308525 0.322695
O O7 0.948262 0.375280 0.057991
O O8 0.113395 0.267683 0.033329
O O9 0.336749 0.194526 0.732015
O O10 0.152371 0.132099 0.807106
O O11 0.265953 0.022210 0.602083
O O12 0.308525 0.028620 0.906426
O O13 0.124525 0.875475 0.614560
O O14 0.037116 0.829827 0.885335
O O15 0.977790 0.734047 0.627038
O O16 0.305474 0.836749 0.497106
#
# Coordination Sequence:
#
# PCOD8170510 Si02
#       8
#     4   4   4   4   4   4   4   4
#     4  10  23  47  69 101 140 181 236 287 349 428
#     4  10  21  40  70 101 135 177 235 293 349 410
#     4  11  26  43  70 103 141 186 234 290 359 415
#     4  12  26  46  72 102 144 186 233 297 358 426
#     4  12  26  46  72 102 144 186 233 297 358 426
#     4  10  21  40  70 101 135 177 235 293 349 410
#     4  10  23  47  69 101 140 181 236 287 349 428
#     4  11  26  43  70 103 141 186 234 290 359 415
#
# _framework density 22.746199000000001
#
# number of rings (size 3 to 8) (size 9 to 14) (size 15 to 20)
#    0.000    1.250    2.500    2.250    7.000    2.500 
#    0.000    8.750    0.000    0.000    0.000    0.000 
#    0.000    0.000    0.000    0.000    0.000    0.000 
#
# Total GULP energy -396656.622181 kJ/mol
# GULP energy per Si atom -12395.519443 kJ/mol
# Density = 2.269443 g / cm^3
# Si number density = 22.746199 Si / 1000 Ang^3
#
#
#
# Elastic Constant Matrix: (Units=GPa)
#
#
# Indices 1 2 3 4 5 6 
#
# 1 72.0614 45.0142 33.1811 0.0000 0.0000 0.0000
# 2 45.0142 72.0615 33.1811 0.0000 0.0000 0.0000
# 3 33.1811 33.1811 86.6283 0.0000 0.0000 0.0000
# 4 0.0000 0.0000 0.0000 34.5331 0.0000 0.0000
# 5 0.0000 0.0000 0.0000 0.0000 34.5331 0.0000
# 6 0.0000 0.0000 0.0000 0.0000 0.0000 34.7566
#
#
#
# Elastic Compliance Matrix: (Units=1/GPa)
#
#
# Indices 1 2 3 4 5 6 
#
# 1 0.023941 -0.013031 -0.004179 0.000000 0.000000 0.000000
# 2 -0.013031 0.023941 -0.004179 0.000000 0.000000 0.000000
# 3 -0.004179 -0.004179 0.014745 0.000000 0.000000 0.000000
# 4 0.000000 0.000000 0.000000 0.028958 0.000000 0.000000
# 5 0.000000 0.000000 0.000000 0.000000 0.028958 0.000000
# 6 0.000000 0.000000 0.000000 0.000000 0.000000 0.028771
#
#
# Mechanical properties :
#
#
# Convention : Reuss Voigt Hill
#
# Bulk Modulus (GPa) = 50.37879 50.38933 50.38406
# Shear Modulus (GPa) = 25.16244 28.72289 26.94266
#
# Velocity S-wave (km/s) = 3.32961 3.55738 3.44538
# Velocity P-wave (km/s) = 6.08095 6.25094 6.16653
#
# Compressibility (1/GPa) = 0.01984962
#
# Stress axis : x y z
#
# Youngs Moduli (GPa) = 41.76877 41.76882 67.82020
#
# Poissons Ratio (x) = 0.54429 0.28342
# Poissons Ratio (y) = 0.54429 0.28342
# Poissons Ratio (z) = 0.17455 0.17455
#
# Static dielectric constant tensor:
#      x y z
#    x 4.005950 0.000000 0.000000 
#    y 0.000000 4.005950 0.000000 
#    z 0.000000 0.000000 4.207430 
# 
# 
# High freq. dielectric constant tensor:
#      x y z
#    x 1.892720 0.000000 0.000000 
#    y 0.000000 1.892720 0.000000 
#    z 0.000000 0.000000 1.911150 
# 
# From -- ./inp_files/2874.got.cif
#   From: 2010.03.12/outbox.cif.g09.slc.cpg/sg32_2_cif.got.tgz:2874.got - 2010.04.14 01:46:39.
