data_PCOD8170335
_publ_section_title
;
Structure prediction by ZEFSAII (Michael W. Deem and Ramdas Pophale) SiO2 
 PCOD8170335
Probable space group: P M N 21
;
_chemical_formula_sum "Si O2"
_cell_formula_units_Z 28
_cell_length_a 27.079866
_cell_length_b 5.141259
_cell_length_c 8.877755
_cell_angle_alpha 90.000000
_cell_angle_beta 90.000000
_cell_angle_gamma 90.000000
_cell_volume 1236.001931
_symmetry_space_group_name_H-M "P M N 21"
_symmetry_group_IT_number 31
_symmetry_cell_setting 'orthorhombic'
loop_
_space_group_symop_operation_xyz
x,y,z
1/2-x,-y,1/2+z
-x,y,z
1/2+x,-y,1/2+z
loop_
_atom_site_type_symbol
_atom_site_label
_atom_site_fract_x
_atom_site_fract_y
_atom_site_fract_z
Si Si1 0.500000 0.074386 0.485461
Si Si2 0.360840 0.061290 0.012603
Si Si3 0.500000 0.571768 0.685388
Si Si4 0.785143 0.566956 0.636737
Si Si5 0.140694 0.255087 0.785014
Si Si6 0.897093 0.773007 0.936309
Si Si7 0.800576 0.305367 0.337968
Si Si8 0.099492 0.603306 0.272952
O O1 0.500000 0.281555 0.619824
O O2 0.548919 0.119598 0.384312
O O3 0.500000 0.785230 0.554644
O O4 0.403831 0.195235 0.913811
O O5 0.316977 0.976660 0.897364
O O6 0.334392 0.255870 0.129941
O O7 0.381843 0.826164 0.118040
O O8 0.448878 0.585366 0.781038
O O9 0.802324 0.337939 0.752358
O O10 0.772505 0.457503 0.471932
O O11 0.736991 0.715991 0.698386
O O12 0.110744 0.490932 0.861549
O O13 0.141568 0.999440 0.891314
O O14 0.896433 0.756502 0.116297
O O15 0.851002 0.439263 0.287333
#
# Coordination Sequence:
#
# PCOD8170335 Si02
#       8
#     2   4   2   4   4   4   4   4
#     4  10  22  42  64 107 138 171 221 301 335 414
#     4  10  23  44  65  95 143 178 227 282 343 409
#     4  10  22  42  70  97 142 173 229 289 349 390
#     4  10  23  44  62 100 136 183 222 280 331 416
#     4  11  23  43  67  98 135 186 214 284 339 414
#     4  11  23  41  73  99 135 175 234 276 350 402
#     4  10  24  41  67  96 140 175 233 274 342 404
#     4  10  24  42  67 105 129 183 230 290 336 417
#
# _framework density 22.653686
#
# number of rings (size 3 to 8) (size 9 to 14) (size 15 to 20)
#    0.000    1.714    1.429    1.714    8.000    4.571 
#    0.000    1.429    0.000    2.571    0.000    0.000 
#    0.000    0.000    0.000    0.000    0.000    0.000 
#
# Total GULP energy -346934.612702 kJ/mol
# GULP energy per Si atom -12390.521882 kJ/mol
# Density = 2.260212 g / cm^3
# Si number density = 22.653686 Si / 1000 Ang^3
#
#
#
# Elastic Constant Matrix: (Units=GPa)
#
#
# Indices 1 2 3 4 5 6 
#
# 1 81.3862 22.3653 51.7491 0.0000 0.0000 0.0000
# 2 22.3653 103.3452 40.8573 0.0000 0.0000 0.0000
# 3 51.7491 40.8573 89.5134 0.0000 0.0000 0.0000
# 4 0.0000 0.0000 0.0000 41.9399 0.0000 0.0000
# 5 0.0000 0.0000 0.0000 0.0000 20.7952 0.0000
# 6 0.0000 0.0000 0.0000 0.0000 0.0000 22.1827
#
#
#
# Elastic Compliance Matrix: (Units=1/GPa)
#
#
# Indices 1 2 3 4 5 6 
#
# 1 0.019436 0.000288 -0.011368 0.000000 0.000000 0.000000
# 2 0.000288 0.011811 -0.005558 0.000000 0.000000 0.000000
# 3 -0.011368 -0.005558 0.020280 0.000000 0.000000 0.000000
# 4 0.000000 0.000000 0.000000 0.023844 0.000000 0.000000
# 5 0.000000 0.000000 0.000000 0.000000 0.048088 0.000000
# 6 0.000000 0.000000 0.000000 0.000000 0.000000 0.045080
#
#
# Mechanical properties :
#
#
# Convention : Reuss Voigt Hill
#
# Bulk Modulus (GPa) = 54.78651 56.02092 55.40371
# Shear Modulus (GPa) = 24.05024 27.60175 25.82599
#
# Velocity S-wave (km/s) = 3.26183 3.49438 3.38010
# Velocity P-wave (km/s) = 6.19862 6.40811 6.30423
#
# Compressibility (1/GPa) = 0.01825267
#
# Stress axis : x y z
#
# Youngs Moduli (GPa) = 51.45063 84.66580 49.30947
#
# Poissons Ratio (x) = -0.02438 0.56054
# Poissons Ratio (y) = -0.01482 0.27404
# Poissons Ratio (z) = 0.58488 0.47053
#
# Static dielectric constant tensor:
#      x y z
#    x 4.213730 0.000000 0.000000 
#    y 0.000000 4.224710 0.000000 
#    z 0.000000 0.000000 4.152210 
# 
# 
# High freq. dielectric constant tensor:
#      x y z
#    x 1.870510 0.000000 0.000000 
#    y 0.000000 1.903830 0.000000 
#    z 0.000000 0.000000 1.889110 
# 
# From -- ./inp_files/3144.got.cif
#   From: 2010.03.12/outbox.cif.g09.slc.cpg/sg31_2_cif.got.tgz:3144.got - 2010.04.14 01:42:59.
