data_PCOD8170854
_publ_section_title
;
Structure prediction by ZEFSAII (Michael W. Deem and Ramdas Pophale) SiO2 
 PCOD8170854
Probable space group: P N A 21
;
_chemical_formula_sum "Si O2"
_cell_formula_units_Z 32
_cell_length_a 8.967598
_cell_length_b 20.183937
_cell_length_c 8.979504
_cell_angle_alpha 90.000000
_cell_angle_beta 90.000000
_cell_angle_gamma 90.000000
_cell_volume 1625.303092
_symmetry_space_group_name_H-M "P N A 21"
_symmetry_group_IT_number 33
_symmetry_cell_setting 'orthorhombic'
loop_
_space_group_symop_operation_xyz
x,y,z
-x,-y,1/2+z
1/2-x,1/2+y,1/2+z
1/2+x,1/2-y,z
loop_
_atom_site_type_symbol
_atom_site_label
_atom_site_fract_x
_atom_site_fract_y
_atom_site_fract_z
Si Si1 0.590509 0.073973 0.095570
Si Si2 0.441348 0.052349 0.400672
Si Si3 0.598262 0.433207 0.388706
Si Si4 0.388547 0.691925 0.073322
Si Si5 0.566899 0.560276 0.582515
Si Si6 0.916428 0.823354 0.410964
Si Si7 0.542744 0.823665 0.098017
Si Si8 0.933081 0.310708 0.936328
O O1 0.550751 0.050734 0.261039
O O2 0.766041 0.088270 0.088289
O O3 0.501756 0.140536 0.058302
O O4 0.541624 0.017857 0.980036
O O5 0.272744 0.065283 0.346595
O O6 0.497125 0.108452 0.515480
O O7 0.553941 0.361622 0.454499
O O8 0.562973 0.487422 0.513396
O O9 0.498549 0.446950 0.246429
O O10 0.448997 0.670907 0.235388
O O11 0.445982 0.764454 0.027454
O O12 0.212168 0.696152 0.074404
O O13 0.465736 0.608652 0.485494
O O14 0.744167 0.811567 0.446871
O O15 0.011631 0.762806 0.477463
O O16 0.507402 0.832232 0.273219
#
# Coordination Sequence:
#
# PCOD8170854 Si02
#       8
#     4   4   4   4   4   4   4   4
#     4  11  23  38  58  84 112 147 191 235 283 336
#     4  10  22  39  57  80 113 149 186 232 284 337
#     4  10  22  39  57  80 113 149 186 232 284 337
#     4   9  19  36  58  83 111 145 184 227 276 331
#     4  11  23  38  58  84 112 147 191 235 283 336
#     4  10  20  37  60  85 115 149 186 230 280 334
#     4   9  19  36  58  83 111 145 184 227 276 331
#     4  10  20  37  60  85 115 149 186 230 280 334
#
# _framework density 19.688635999999999
#
# number of rings (size 3 to 8) (size 9 to 14) (size 15 to 20)
#    0.000    2.000    0.000    3.000    0.000    7.000 
#    0.000    2.500    0.000    0.000    0.000    0.000 
#    0.000    0.000    0.000    0.000    0.000    0.000 
#
# Total GULP energy -396974.262085 kJ/mol
# GULP energy per Si atom -12405.445690 kJ/mol
# Density = 1.964382 g / cm^3
# Si number density = 19.688636 Si / 1000 Ang^3
#
#
#
# Elastic Constant Matrix: (Units=GPa)
#
#
# Indices 1 2 3 4 5 6 
#
# 1 59.9696 18.1169 16.3559 0.0000 0.0000 0.0000
# 2 18.1169 55.6985 -2.5414 0.0000 0.0000 0.0000
# 3 16.3559 -2.5414 57.3956 0.0000 0.0000 0.0000
# 4 0.0000 0.0000 0.0000 36.4510 0.0000 0.0000
# 5 0.0000 0.0000 0.0000 0.0000 31.5476 0.0000
# 6 0.0000 0.0000 0.0000 0.0000 0.0000 34.2761
#
#
#
# Elastic Compliance Matrix: (Units=1/GPa)
#
#
# Indices 1 2 3 4 5 6 
#
# 1 0.020441 -0.006928 -0.006132 0.000000 0.000000 0.000000
# 2 -0.006928 0.020339 0.002875 0.000000 0.000000 0.000000
# 3 -0.006132 0.002875 0.019298 0.000000 0.000000 0.000000
# 4 0.000000 0.000000 0.000000 0.027434 0.000000 0.000000
# 5 0.000000 0.000000 0.000000 0.000000 0.031698 0.000000
# 6 0.000000 0.000000 0.000000 0.000000 0.000000 0.029175
#
#
# Mechanical properties :
#
#
# Convention : Reuss Voigt Hill
#
# Bulk Modulus (GPa) = 25.18488 26.32516 25.75502
# Shear Modulus (GPa) = 27.47411 29.86374 28.66892
#
# Velocity S-wave (km/s) = 3.73960 3.89884 3.82005
# Velocity P-wave (km/s) = 5.60941 5.80239 5.70671
#
# Compressibility (1/GPa) = 0.03970637
#
# Stress axis : x y z
#
# Youngs Moduli (GPa) = 48.92244 49.16765 51.82004
#
# Poissons Ratio (x) = 0.34065 0.31774
# Poissons Ratio (y) = 0.33895 -0.14898
# Poissons Ratio (z) = 0.29998 -0.14135
#
# Static dielectric constant tensor:
#      x y z
#    x 3.577550 0.000000 0.000000 
#    y 0.000000 3.656570 0.000000 
#    z 0.000000 0.000000 3.531930 
# 
# 
# High freq. dielectric constant tensor:
#      x y z
#    x 1.768810 0.000000 0.000000 
#    y 0.000000 1.778310 0.000000 
#    z 0.000000 0.000000 1.763890 
# 
# From -- ./inp_files/3464.got.cif
#   From: 2010.03.12/outbox.cif.g09.slc.cpg/sg33_2_cif.got.tgz:3464.got - 2010.04.14 01:49:19.
