data_PCOD8170153
_publ_section_title
;
Structure prediction by ZEFSAII (Michael W. Deem and Ramdas Pophale) SiO2 
 PCOD8170153
Probable space group: P M N 21
;
_chemical_formula_sum "Si O2"
_cell_formula_units_Z 24
_cell_length_a 8.521454
_cell_length_b 15.232567
_cell_length_c 9.262067
_cell_angle_alpha 90.000000
_cell_angle_beta 90.000000
_cell_angle_gamma 90.000000
_cell_volume 1202.249816
_symmetry_space_group_name_H-M "P M N 21"
_symmetry_group_IT_number 31
_symmetry_cell_setting 'orthorhombic'
loop_
_space_group_symop_operation_xyz
x,y,z
1/2-x,-y,1/2+z
-x,y,z
1/2+x,-y,1/2+z
loop_
_atom_site_type_symbol
_atom_site_label
_atom_site_fract_x
_atom_site_fract_y
_atom_site_fract_z
Si Si1 0.816224 0.433402 0.337530
Si Si2 0.817191 0.097395 0.119856
Si Si3 0.817553 0.225460 0.597742
Si Si4 0.817781 0.594073 0.142128
Si Si5 0.684118 0.938528 0.292796
Si Si6 0.682462 0.253318 0.290054
O O1 0.760730 0.516498 0.245551
O O2 0.713894 0.437726 0.480884
O O3 0.777885 0.342419 0.255382
O O4 0.000000 0.436676 0.373730
O O5 0.763909 0.072452 0.958518
O O6 0.722949 0.183359 0.167269
O O7 0.000000 0.119687 0.125250
O O8 0.781132 0.018652 0.228517
O O9 0.777802 0.317258 0.676613
O O10 0.723748 0.215172 0.448296
O O11 0.000000 0.222220 0.559264
O O12 0.768430 0.148523 0.705833
O O13 0.000000 0.614504 0.162727
O O14 0.500000 0.959066 0.279702
O O15 0.500000 0.275338 0.285035
#
# Coordination Sequence:
#
# PCOD8170153 Si02
#       6
#     4   4   4   4   4   4
#     4  10  21  37  57  82 113 149 188 229 277 330
#     4  11  23  39  59  83 113 146 182 227 276 328
#     4  10  20  37  60  83 112 148 185 227 277 330
#     4  10  21  36  56  83 113 146 187 232 277 328
#     4  10  23  40  58  84 113 145 185 226 273 329
#     4  11  22  37  58  83 112 146 187 231 276 329
#
# _framework density 19.962572999999999
#
# number of rings (size 3 to 8) (size 9 to 14) (size 15 to 20)
#    0.000    1.667    0.000    6.500    0.000    9.333 
#    0.000    5.000    0.000    0.000    0.000    0.000 
#    0.000    0.000    0.000    0.000    0.000    0.000 
#
# Total GULP energy -297706.862553 kJ/mol
# GULP energy per Si atom -12404.452606 kJ/mol
# Density = 1.991714 g / cm^3
# Si number density = 19.962573 Si / 1000 Ang^3
#
#
#
# Elastic Constant Matrix: (Units=GPa)
#
#
# Indices 1 2 3 4 5 6 
#
# 1 48.0254 1.2964 3.2919 0.0000 0.0000 0.0000
# 2 1.2964 52.8555 -3.4617 0.0000 0.0000 0.0000
# 3 3.2919 -3.4617 36.2714 0.0000 0.0000 0.0000
# 4 0.0000 0.0000 0.0000 44.6597 0.0000 0.0000
# 5 0.0000 0.0000 0.0000 0.0000 19.0732 0.0000
# 6 0.0000 0.0000 0.0000 0.0000 0.0000 30.4764
#
#
#
# Elastic Compliance Matrix: (Units=1/GPa)
#
#
# Indices 1 2 3 4 5 6 
#
# 1 0.020974 -0.000643 -0.001965 0.000000 0.000000 0.000000
# 2 -0.000643 0.019058 0.001877 0.000000 0.000000 0.000000
# 3 -0.001965 0.001877 0.027927 0.000000 0.000000 0.000000
# 4 0.000000 0.000000 0.000000 0.022392 0.000000 0.000000
# 5 0.000000 0.000000 0.000000 0.000000 0.052430 0.000000
# 6 0.000000 0.000000 0.000000 0.000000 0.000000 0.032812
#
#
# Mechanical properties :
#
#
# Convention : Reuss Voigt Hill
#
# Bulk Modulus (GPa) = 15.03796 15.48950 15.26373
# Shear Modulus (GPa) = 25.09772 27.91023 26.50398
#
# Velocity S-wave (km/s) = 3.54960 3.74321 3.64769
# Velocity P-wave (km/s) = 4.93447 5.14376 5.04020
#
# Compressibility (1/GPa) = 0.06649837
#
# Stress axis : x y z
#
# Youngs Moduli (GPa) = 47.67725 52.47075 35.80708
#
# Poissons Ratio (x) = 0.03375 0.07036
# Poissons Ratio (y) = 0.03066 -0.06722
# Poissons Ratio (z) = 0.09368 -0.09850
#
# Static dielectric constant tensor:
#      x y z
#    x 3.610520 0.000000 0.000000 
#    y 0.000000 3.899660 0.000000 
#    z 0.000000 0.000000 3.611910 
# 
# 
# High freq. dielectric constant tensor:
#      x y z
#    x 1.785060 0.000000 0.000000 
#    y 0.000000 1.792880 0.000000 
#    z 0.000000 0.000000 1.772080 
# 
# From -- ./inp_files/1714.got.cif
#   From: 2010.03.12/outbox.cif.g09.slc.cpg/sg31_1_cif.got.tgz:1714.got - 2010.04.14 01:42:59.
