data_PCOD8170894
_publ_section_title
;
Structure prediction by ZEFSAII (Michael W. Deem and Ramdas Pophale) SiO2 
 PCOD8170894
Probable space group: P N A 21
;
_chemical_formula_sum "Si O2"
_cell_formula_units_Z 28
_cell_length_a 17.109397
_cell_length_b 6.578405
_cell_length_c 13.089996
_cell_angle_alpha 90.000000
_cell_angle_beta 90.000000
_cell_angle_gamma 90.000000
_cell_volume 1473.312335
_symmetry_space_group_name_H-M "P N A 21"
_symmetry_group_IT_number 33
_symmetry_cell_setting 'orthorhombic'
loop_
_space_group_symop_operation_xyz
x,y,z
-x,-y,1/2+z
1/2-x,1/2+y,1/2+z
1/2+x,1/2-y,z
loop_
_atom_site_type_symbol
_atom_site_label
_atom_site_fract_x
_atom_site_fract_y
_atom_site_fract_z
Si Si1 0.211635 0.239837 0.611140
Si Si2 0.152764 0.569473 0.985997
Si Si3 0.732680 0.224005 0.838987
Si Si4 0.016469 0.273445 0.999789
Si Si5 0.150366 0.615250 0.495690
Si Si6 0.907575 0.094042 0.149158
Si Si7 0.395664 0.458190 0.373855
O O1 0.278646 0.091520 0.568607
O O2 0.245039 0.324278 0.719005
O O3 0.195173 0.408578 0.524317
O O4 0.128603 0.130149 0.632312
O O5 0.187497 0.470178 0.883529
O O6 0.087042 0.420667 0.033581
O O7 0.114069 0.785210 0.959163
O O8 0.812866 0.263435 0.900137
O O9 0.686671 0.433857 0.854531
O O10 0.941671 0.411876 0.966046
O O11 0.041070 0.125236 0.907900
O O12 0.991471 0.125690 0.093794
O O13 0.155075 0.750168 0.599277
O O14 0.923188 0.141805 0.267672
#
# Coordination Sequence:
#
# PCOD8170894 Si02
#       7
#     4   4   4   4   4   4   4
#     4  11  21  37  67  83 114 167 196 245 305 345
#     4  11  20  39  60  87 122 154 197 247 298 350
#     4  10  21  39  59  92 112 151 212 245 282 364
#     4   9  23  37  56  88 122 149 195 250 286 366
#     4  10  20  41  57  88 122 151 201 250 288 362
#     4   9  21  40  60  83 117 158 196 241 301 360
#     4  10  20  39  61  83 117 158 193 242 306 349
#
# _framework density 19.004795000000001
#
# number of rings (size 3 to 8) (size 9 to 14) (size 15 to 20)
#    0.857    1.143    2.857    0.857    2.000    0.000 
#    5.143    0.000    0.000    0.000    0.000    0.000 
#    0.000    0.000    0.000    0.000    0.000    0.000 
#
# Total GULP energy -346993.834582 kJ/mol
# GULP energy per Si atom -12392.636949 kJ/mol
# Density = 1.896154 g / cm^3
# Si number density = 19.004795 Si / 1000 Ang^3
#
#
#
# Elastic Constant Matrix: (Units=GPa)
#
#
# Indices 1 2 3 4 5 6 
#
# 1 100.9375 32.5972 46.0877 0.0000 0.0000 0.0000
# 2 32.5972 67.2974 25.3835 0.0000 0.0000 0.0000
# 3 46.0877 25.3835 94.1084 0.0000 0.0000 0.0000
# 4 0.0000 0.0000 0.0000 30.0517 0.0000 0.0000
# 5 0.0000 0.0000 0.0000 0.0000 28.8359 0.0000
# 6 0.0000 0.0000 0.0000 0.0000 0.0000 31.5522
#
#
#
# Elastic Compliance Matrix: (Units=1/GPa)
#
#
# Indices 1 2 3 4 5 6 
#
# 1 0.013959 -0.004657 -0.005580 0.000000 0.000000 0.000000
# 2 -0.004657 0.018096 -0.002600 0.000000 0.000000 0.000000
# 3 -0.005580 -0.002600 0.014060 0.000000 0.000000 0.000000
# 4 0.000000 0.000000 0.000000 0.033276 0.000000 0.000000
# 5 0.000000 0.000000 0.000000 0.000000 0.034679 0.000000
# 6 0.000000 0.000000 0.000000 0.000000 0.000000 0.031694
#
#
# Mechanical properties :
#
#
# Convention : Reuss Voigt Hill
#
# Bulk Modulus (GPa) = 48.92219 52.27555 50.59887
# Shear Modulus (GPa) = 28.05036 28.63961 28.34499
#
# Velocity S-wave (km/s) = 3.84599 3.88618 3.86614
# Velocity P-wave (km/s) = 6.74686 6.90672 6.82726
#
# Compressibility (1/GPa) = 0.02044062
#
# Stress axis : x y z
#
# Youngs Moduli (GPa) = 71.63958 55.26150 71.12290
#
# Poissons Ratio (x) = 0.25733 0.39687
# Poissons Ratio (y) = 0.33359 0.18495
# Poissons Ratio (z) = 0.39975 0.14370
#
# Static dielectric constant tensor:
#      x y z
#    x 3.364300 0.000000 0.000000 
#    y 0.000000 3.321500 0.000000 
#    z 0.000000 0.000000 3.381600 
# 
# 
# High freq. dielectric constant tensor:
#      x y z
#    x 1.728730 0.000000 0.000000 
#    y 0.000000 1.734570 0.000000 
#    z 0.000000 0.000000 1.729240 
# 
# From -- ./inp_files/8204.got.cif
#   From: 2010.03.12/outbox.cif.g09.slc.cpg/sg33_5_cif.got.tgz:8204.got - 2010.04.14 01:49:19.
