data_PCOD8170476
_publ_section_title
;
Structure prediction by ZEFSAII (Michael W. Deem and Ramdas Pophale) SiO2 
 PCOD8170476
Probable space group: P B A 2
;
_chemical_formula_sum "Si O2"
_cell_formula_units_Z 28
_cell_length_a 8.315984
_cell_length_b 23.912308
_cell_length_c 6.462409
_cell_angle_alpha 90.000000
_cell_angle_beta 90.000000
_cell_angle_gamma 90.000000
_cell_volume 1285.078275
_symmetry_space_group_name_H-M "P B A 2"
_symmetry_group_IT_number 32
_symmetry_cell_setting 'orthorhombic'
loop_
_space_group_symop_operation_xyz
x,y,z
-x,-y,z
1/2-x,1/2+y,z
1/2+x,1/2-y,z
loop_
_atom_site_type_symbol
_atom_site_label
_atom_site_fract_x
_atom_site_fract_y
_atom_site_fract_z
Si Si1 0.000000 0.000000 0.530831
Si Si2 0.712607 0.444880 0.197014
Si Si3 0.332603 0.698682 0.786054
Si Si4 0.000000 0.500000 0.965251
Si Si5 0.992199 0.300869 0.568014
Si Si6 0.626860 0.829422 0.148134
Si Si7 0.384974 0.886347 0.840451
Si Si8 0.966554 0.090971 0.858328
O O1 0.852771 0.974279 0.402113
O O2 0.072559 0.951005 0.671433
O O3 0.786469 0.383899 0.247269
O O4 0.563565 0.439952 0.038758
O O5 0.846763 0.486186 0.106488
O O6 0.438341 0.748929 0.696533
O O7 0.438672 0.643718 0.773870
O O8 0.188784 0.687199 0.632378
O O9 0.260329 0.707393 0.020537
O O10 0.040158 0.447972 0.817338
O O11 0.104864 0.354999 0.617245
O O12 0.969245 0.292864 0.320472
O O13 0.491171 0.848555 0.990320
O O14 0.206821 0.887928 0.936530
#
# Coordination Sequence:
#
# PCOD8170476 Si02
#       8
#     2   4   4   2   4   4   4   4
#     4  12  22  36  62  92 120 162 210 254 304 370
#     4  10  22  39  58  87 126 164 207 255 314 374
#     4  10  23  42  62  90 125 159 206 259 313 373
#     4  10  20  40  60  84 126 164 202 262 314 362
#     4  11  22  41  65  91 121 163 212 256 310 376
#     4   9  22  42  62  87 123 163 203 257 315 374
#     4  10  22  38  61  89 122 162 205 254 311 371
#     4  11  23  41  62  90 128 164 202 257 311 368
#
# _framework density 21.788556
#
# number of rings (size 3 to 8) (size 9 to 14) (size 15 to 20)
#    0.000    1.714    0.000    4.714    0.000    6.857 
#    0.000    7.143    0.000    0.000    0.000    0.000 
#    0.000    0.000    0.000    0.000    0.000    0.000 
#
# Total GULP energy -347080.735477 kJ/mol
# GULP energy per Si atom -12395.740553 kJ/mol
# Density = 2.173896 g / cm^3
# Si number density = 21.788556 Si / 1000 Ang^3
#
#
#
# Elastic Constant Matrix: (Units=GPa)
#
#
# Indices 1 2 3 4 5 6 
#
# 1 129.3157 36.2998 37.6167 0.0000 0.0000 0.0000
# 2 36.2998 112.9510 56.1535 0.0000 0.0000 0.0000
# 3 37.6167 56.1535 108.7239 0.0000 0.0000 0.0000
# 4 0.0000 0.0000 0.0000 29.7339 0.0000 0.0000
# 5 0.0000 0.0000 0.0000 0.0000 25.0299 0.0000
# 6 0.0000 0.0000 0.0000 0.0000 0.0000 35.1071
#
#
#
# Elastic Compliance Matrix: (Units=1/GPa)
#
#
# Indices 1 2 3 4 5 6 
#
# 1 0.008857 -0.001780 -0.002145 0.000000 0.000000 0.000000
# 2 -0.001780 0.012270 -0.005721 0.000000 0.000000 0.000000
# 3 -0.002145 -0.005721 0.012895 0.000000 0.000000 0.000000
# 4 0.000000 0.000000 0.000000 0.033632 0.000000 0.000000
# 5 0.000000 0.000000 0.000000 0.000000 0.039952 0.000000
# 6 0.000000 0.000000 0.000000 0.000000 0.000000 0.028484
#
#
# Mechanical properties :
#
#
# Convention : Reuss Voigt Hill
#
# Bulk Modulus (GPa) = 67.89450 67.90341 67.89896
# Shear Modulus (GPa) = 31.19333 32.70224 31.94778
#
# Velocity S-wave (km/s) = 3.78780 3.87834 3.83334
# Velocity P-wave (km/s) = 7.09635 7.16154 7.12902
#
# Compressibility (1/GPa) = 0.01472873
#
# Stress axis : x y z
#
# Youngs Moduli (GPa) = 112.91021 81.50144 77.55180
#
# Poissons Ratio (x) = 0.14507 0.16634
# Poissons Ratio (y) = 0.20097 0.44369
# Poissons Ratio (z) = 0.24219 0.46629
#
# Static dielectric constant tensor:
#      x y z
#    x 4.144110 0.000000 0.000000 
#    y 0.000000 4.035070 0.000000 
#    z 0.000000 0.000000 3.902620 
# 
# 
# High freq. dielectric constant tensor:
#      x y z
#    x 1.870610 0.000000 0.000000 
#    y 0.000000 1.859720 0.000000 
#    z 0.000000 0.000000 1.840930 
# 
# From -- ./inp_files/580.got.cif
#   From: 2010.03.12/outbox.cif.g09.slc.cpg/sg32_1_cif.got.tgz:580.got - 2010.04.14 01:46:39.
