data_PCOD8170982
_publ_section_title
;
Structure prediction by ZEFSAII (Michael W. Deem and Ramdas Pophale) SiO2 
 PCOD8170982
Probable space group: P N A 21
;
_chemical_formula_sum "Si O2"
_cell_formula_units_Z 32
_cell_length_a 5.262464
_cell_length_b 17.338558
_cell_length_c 15.131488
_cell_angle_alpha 90.000000
_cell_angle_beta 90.000000
_cell_angle_gamma 90.000000
_cell_volume 1380.650490
_symmetry_space_group_name_H-M "P N A 21"
_symmetry_group_IT_number 33
_symmetry_cell_setting 'orthorhombic'
loop_
_space_group_symop_operation_xyz
x,y,z
-x,-y,1/2+z
1/2-x,1/2+y,1/2+z
1/2+x,1/2-y,z
loop_
_atom_site_type_symbol
_atom_site_label
_atom_site_fract_x
_atom_site_fract_y
_atom_site_fract_z
Si Si1 0.299094 0.283698 0.194970
Si Si2 0.612909 0.546214 0.950375
Si Si3 0.115128 0.454572 0.948952
Si Si4 0.798825 0.716314 0.495775
Si Si5 0.384847 0.454609 0.241779
Si Si6 0.887079 0.546259 0.240356
Si Si7 0.961868 0.217724 0.497189
Si Si8 0.961973 0.717801 0.193842
O O1 0.527592 0.234792 0.242173
O O2 0.250168 0.254101 0.095373
O O3 0.377463 0.372600 0.194737
O O4 0.364126 0.500051 0.980221
O O5 0.613898 0.559870 0.846029
O O6 0.865102 0.500609 0.980592
O O7 0.604028 0.627799 0.999377
O O8 0.113856 0.440090 0.844702
O O9 0.122650 0.372574 0.996009
O O10 0.527286 0.734761 0.448576
O O11 0.634816 0.500684 0.210146
O O12 0.135785 0.500057 0.210500
O O13 0.896085 0.627872 0.191391
O O14 0.229461 0.236725 0.448309
O O15 0.999487 0.249834 0.595586
O O16 0.729587 0.763306 0.242794
#
# Coordination Sequence:
#
# PCOD8170982 Si02
#       8
#     4   4   4   4   4   4   4   4
#     4  10  21  38  58  84 116 144 191 242 291 349
#     4  10  21  38  59  83 122 149 201 242 282 354
#     4  10  21  38  59  88 112 157 196 242 293 343
#     4  10  21  38  58  84 116 144 191 242 291 349
#     4  10  21  38  59  88 112 157 196 242 293 343
#     4  10  21  38  59  83 122 149 201 242 282 354
#     4  10  21  38  56  81 119 157 192 241 289 349
#     4  10  21  38  56  81 119 157 192 241 289 349
#
# _framework density 23.177482000000001
#
# number of rings (size 3 to 8) (size 9 to 14) (size 15 to 20)
#    0.000    2.000    0.000    3.000    0.000    2.000 
#   13.500    0.000    0.000    0.000    0.000    0.000 
#    0.000    0.000    0.000    0.000    0.000    0.000 
#
# Total GULP energy -396696.754410 kJ/mol
# GULP energy per Si atom -12396.773575 kJ/mol
# Density = 2.312473 g / cm^3
# Si number density = 23.177482 Si / 1000 Ang^3
#
#
#
# Elastic Constant Matrix: (Units=GPa)
#
#
# Indices 1 2 3 4 5 6 
#
# 1 282.4143 109.4222 20.0614 0.0000 0.0000 0.0000
# 2 109.4222 199.7093 20.6410 0.0000 0.0000 0.0000
# 3 20.0614 20.6410 14.6267 0.0000 0.0000 0.0000
# 4 0.0000 0.0000 0.0000 446.6087 0.0000 0.0000
# 5 0.0000 0.0000 0.0000 0.0000 12.3499 0.0000
# 6 0.0000 0.0000 0.0000 0.0000 0.0000 53.9048
#
#
#
# Elastic Compliance Matrix: (Units=1/GPa)
#
#
# Indices 1 2 3 4 5 6 
#
# 1 0.004623 -0.002198 -0.003238 0.000000 0.000000 0.000000
# 2 -0.002198 0.006907 -0.006733 0.000000 0.000000 0.000000
# 3 -0.003238 -0.006733 0.082311 0.000000 0.000000 0.000000
# 4 0.000000 0.000000 0.000000 0.002239 0.000000 0.000000
# 5 0.000000 0.000000 0.000000 0.000000 0.080972 0.000000
# 6 0.000000 0.000000 0.000000 0.000000 0.000000 0.018551
#
#
# Mechanical properties :
#
#
# Convention : Reuss Voigt Hill
#
# Bulk Modulus (GPa) = 14.38796 88.55549 51.47173
# Shear Modulus (GPa) = 20.56682 125.68106 73.12394
#
# Velocity S-wave (km/s) = 2.98209 7.37179 5.62299
# Velocity P-wave (km/s) = 4.25187 10.52369 8.02579
#
# Compressibility (1/GPa) = 0.06950256
#
# Stress axis : x y z
#
# Youngs Moduli (GPa) = 216.33001 144.77033 12.14902
#
# Poissons Ratio (x) = 0.31821 0.03934
# Poissons Ratio (y) = 0.47550 0.08180
# Poissons Ratio (z) = 0.70054 0.97474
#
# Static dielectric constant tensor:
#      x y z
#    x 2.564900 0.000000 0.000000 
#    y 0.000000 3.973920 0.000000 
#    z 0.000000 0.000000 3.513780 
# 
# 
# High freq. dielectric constant tensor:
#      x y z
#    x 1.956180 0.000000 0.000000 
#    y 0.000000 1.917660 0.000000 
#    z 0.000000 0.000000 1.877640 
# 
# From -- ./inp_files/8357.got.cif
#   From: 2010.03.12/outbox.cif.g09.slc.cpg/sg33_5_cif.got.tgz:8357.got - 2010.04.14 01:49:19.
