data_PCOD8170964
_publ_section_title
;
Structure prediction by ZEFSAII (Michael W. Deem and Ramdas Pophale) SiO2 
 PCOD8170964
Probable space group: P N A 21
;
_chemical_formula_sum "Si O2"
_cell_formula_units_Z 32
_cell_length_a 5.234426
_cell_length_b 19.172727
_cell_length_c 13.373160
_cell_angle_alpha 90.000000
_cell_angle_beta 90.000000
_cell_angle_gamma 90.000000
_cell_volume 1342.106543
_symmetry_space_group_name_H-M "P N A 21"
_symmetry_group_IT_number 33
_symmetry_cell_setting 'orthorhombic'
loop_
_space_group_symop_operation_xyz
x,y,z
-x,-y,1/2+z
1/2-x,1/2+y,1/2+z
1/2+x,1/2-y,z
loop_
_atom_site_type_symbol
_atom_site_label
_atom_site_fract_x
_atom_site_fract_y
_atom_site_fract_z
Si Si1 0.810022 0.281587 0.397690
Si Si2 0.774572 0.780349 0.123907
Si Si3 0.648129 0.425318 0.692999
Si Si4 0.146389 0.424493 0.818247
Si Si5 0.571311 0.924435 0.815583
Si Si6 0.940552 0.216440 0.084888
Si Si7 0.568977 0.575853 0.685960
Si Si8 0.985691 0.723734 0.366093
O O1 0.539372 0.262683 0.344296
O O2 0.777681 0.255047 0.510985
O O3 0.877205 0.363508 0.395062
O O4 0.494048 0.769308 0.175475
O O5 0.879012 0.859530 0.120042
O O6 0.438375 0.418422 0.781390
O O7 0.600734 0.498910 0.636303
O O8 0.940667 0.423103 0.729225
O O9 0.103065 0.500060 0.871387
O O10 0.084328 0.357165 0.887527
O O11 0.286967 0.915376 0.770655
O O12 0.784530 0.918322 0.729645
O O13 0.700498 0.256002 0.136273
O O14 0.905807 0.133629 0.099406
O O15 0.933018 0.235423 0.967588
O O16 0.760003 0.767628 0.308312
#
# Coordination Sequence:
#
# PCOD8170964 Si02
#       8
#     4   4   4   4   4   4   4   4
#     4  10  21  37  57  83 114 142 188 238 287 345
#     4  10  21  37  57  83 114 142 188 238 287 345
#     4  10  21  37  58  85 112 153 192 238 290 339
#     4  10  21  37  58  83 118 147 197 238 279 351
#     4  10  21  37  58  85 112 153 192 238 290 339
#     4  10  21  37  56  81 118 153 190 238 286 345
#     4  10  21  37  58  83 118 147 197 238 279 351
#     4  10  21  37  56  81 118 153 190 238 286 345
#
# _framework density 23.843115999999998
#
# number of rings (size 3 to 8) (size 9 to 14) (size 15 to 20)
#    0.000    2.000    0.000    3.000    0.000    6.000 
#    4.500    0.000   11.000    0.000    0.000    0.000 
#    0.000    0.000    0.000    0.000    0.000    0.000 
#
# Total GULP energy -396541.727840 kJ/mol
# GULP energy per Si atom -12391.928995 kJ/mol
# Density = 2.378885 g / cm^3
# Si number density = 23.843116 Si / 1000 Ang^3
#
#
#
# Elastic Constant Matrix: (Units=GPa)
#
#
# Indices 1 2 3 4 5 6 
#
# 1 184.9186 63.8242 17.9732 0.0000 0.0000 0.0000
# 2 63.8242 222.3391 26.4693 0.0000 0.0000 0.0000
# 3 17.9732 26.4693 21.7033 0.0000 0.0000 0.0000
# 4 0.0000 0.0000 0.0000 33.7351 0.0000 0.0000
# 5 0.0000 0.0000 0.0000 0.0000 14.5778 0.0000
# 6 0.0000 0.0000 0.0000 0.0000 0.0000 40.5935
#
#
#
# Elastic Compliance Matrix: (Units=1/GPa)
#
#
# Indices 1 2 3 4 5 6 
#
# 1 0.006219 -0.001371 -0.003478 0.000000 0.000000 0.000000
# 2 -0.001371 0.005564 -0.005650 0.000000 0.000000 0.000000
# 3 -0.003478 -0.005650 0.055847 0.000000 0.000000 0.000000
# 4 0.000000 0.000000 0.000000 0.029643 0.000000 0.000000
# 5 0.000000 0.000000 0.000000 0.000000 0.068598 0.000000
# 6 0.000000 0.000000 0.000000 0.000000 0.000000 0.024634
#
#
# Mechanical properties :
#
#
# Convention : Reuss Voigt Hill
#
# Bulk Modulus (GPa) = 21.44479 71.72161 46.58320
# Shear Modulus (GPa) = 22.02187 39.16090 30.59138
#
# Velocity S-wave (km/s) = 3.04240 4.05710 3.58582
# Velocity P-wave (km/s) = 4.62117 7.21753 6.06003
#
# Compressibility (1/GPa) = 0.04663136
#
# Stress axis : x y z
#
# Youngs Moduli (GPa) = 160.79534 179.73019 17.90608
#
# Poissons Ratio (x) = 0.24645 0.06228
# Poissons Ratio (y) = 0.22048 0.10117
# Poissons Ratio (z) = 0.55923 1.01551
#
# Static dielectric constant tensor:
#      x y z
#    x 5.400260 0.000000 0.000000 
#    y 0.000000 4.729340 0.000000 
#    z 0.000000 0.000000 3.555950 
# 
# 
# High freq. dielectric constant tensor:
#      x y z
#    x 1.993170 0.000000 0.000000 
#    y 0.000000 1.959270 0.000000 
#    z 0.000000 0.000000 1.892570 
# 
# From -- ./inp_files/7437.got.cif
#   From: 2010.03.12/outbox.cif.g09.slc.cpg/sg33_4_cif.got.tgz:7437.got - 2010.04.14 01:49:19.
