data_PCOD8170729
_publ_section_title
;
Structure prediction by ZEFSAII (Michael W. Deem and Ramdas Pophale) SiO2 
 PCOD8170729
Probable space group: P N A 21
;
_chemical_formula_sum "Si O2"
_cell_formula_units_Z 24
_cell_length_a 9.134082
_cell_length_b 23.584243
_cell_length_c 5.402084
_cell_angle_alpha 90.000000
_cell_angle_beta 90.000000
_cell_angle_gamma 90.000000
_cell_volume 1163.719147
_symmetry_space_group_name_H-M "P N A 21"
_symmetry_group_IT_number 33
_symmetry_cell_setting 'orthorhombic'
loop_
_space_group_symop_operation_xyz
x,y,z
-x,-y,1/2+z
1/2-x,1/2+y,1/2+z
1/2+x,1/2-y,z
loop_
_atom_site_type_symbol
_atom_site_label
_atom_site_fract_x
_atom_site_fract_y
_atom_site_fract_z
Si Si1 0.286975 0.806259 0.169660
Si Si2 0.044677 0.750368 0.464582
Si Si3 0.835729 0.459544 0.903295
Si Si4 0.295625 0.096354 0.412293
Si Si5 0.593084 0.077105 0.600860
Si Si6 0.800930 0.788037 0.779513
O O1 0.128620 0.791351 0.277418
O O2 0.425977 0.789916 0.336646
O O3 0.287178 0.874144 0.144316
O O4 0.298508 0.772437 0.914262
O O5 0.164568 0.709491 0.590117
O O6 0.958625 0.792135 0.649556
O O7 0.761622 0.428028 0.138610
O O8 0.824509 0.526067 0.961884
O O9 0.748199 0.443718 0.647311
O O10 0.009197 0.444531 0.853067
O O11 0.470936 0.104712 0.420880
O O12 0.215754 0.156960 0.454264
#
# Coordination Sequence:
#
# PCOD8170729 Si02
#       6
#     4   4   4   4   4   4
#     4  11  22  39  62  94 131 167 207 276 323 396
#     4  10  23  38  59  96 129 169 214 254 339 393
#     4  10  20  35  57  94 120 165 206 272 318 376
#     4  10  20  34  59  87 124 162 207 260 320 386
#     4  10  19  35  59  91 134 149 222 263 334 367
#     4  11  22  39  60  94 128 170 212 261 334 386
#
# _framework density 20.623532999999998
#
# number of rings (size 3 to 8) (size 9 to 14) (size 15 to 20)
#    1.000    0.667    1.667    4.000    4.667    1.333 
#    0.000    0.000    0.000    0.000    8.667    0.000 
#    0.000    0.000    0.000    0.000    0.000    0.000 
#
# Total GULP energy -297383.681099 kJ/mol
# GULP energy per Si atom -12390.986712 kJ/mol
# Density = 2.057659 g / cm^3
# Si number density = 20.623533 Si / 1000 Ang^3
#
#
#
# Elastic Constant Matrix: (Units=GPa)
#
#
# Indices 1 2 3 4 5 6 
#
# 1 62.3512 20.1968 15.8279 0.0000 0.0000 0.0000
# 2 20.1968 150.3089 36.4972 0.0000 0.0000 0.0000
# 3 15.8279 36.4972 111.2489 0.0000 0.0000 0.0000
# 4 0.0000 0.0000 0.0000 32.9672 0.0000 0.0000
# 5 0.0000 0.0000 0.0000 0.0000 21.7423 0.0000
# 6 0.0000 0.0000 0.0000 0.0000 0.0000 28.7241
#
#
#
# Elastic Compliance Matrix: (Units=1/GPa)
#
#
# Indices 1 2 3 4 5 6 
#
# 1 0.017102 -0.001855 -0.001825 0.000000 0.000000 0.000000
# 2 -0.001855 0.007430 -0.002174 0.000000 0.000000 0.000000
# 3 -0.001825 -0.002174 0.009962 0.000000 0.000000 0.000000
# 4 0.000000 0.000000 0.000000 0.030333 0.000000 0.000000
# 5 0.000000 0.000000 0.000000 0.000000 0.045993 0.000000
# 6 0.000000 0.000000 0.000000 0.000000 0.000000 0.034814
#
#
# Mechanical properties :
#
#
# Convention : Reuss Voigt Hill
#
# Bulk Modulus (GPa) = 43.88411 52.10586 47.99499
# Shear Modulus (GPa) = 30.31469 33.44585 31.88027
#
# Velocity S-wave (km/s) = 3.83810 4.03144 3.93596
# Velocity P-wave (km/s) = 6.40048 6.85493 6.63160
#
# Compressibility (1/GPa) = 0.02278729
#
# Stress axis : x y z
#
# Youngs Moduli (GPa) = 58.47193 134.58944 100.38590
#
# Poissons Ratio (x) = 0.24966 0.18317
# Poissons Ratio (y) = 0.10846 0.21820
# Poissons Ratio (z) = 0.10669 0.29255
#
# Static dielectric constant tensor:
#      x y z
#    x 3.426890 0.000000 0.000000 
#    y 0.000000 3.541380 0.000000 
#    z 0.000000 0.000000 3.854490 
# 
# 
# High freq. dielectric constant tensor:
#      x y z
#    x 1.762700 0.000000 0.000000 
#    y 0.000000 1.800280 0.000000 
#    z 0.000000 0.000000 1.813730 
# 
# From -- ./inp_files/458.got.cif
#   From: 2010.03.12/outbox.cif.g09.slc.cpg/sg33_1_cif.got.tgz:458.got - 2010.04.14 01:49:19.
