data_PCOD8170033
_publ_section_title
;
Structure prediction by ZEFSAII (Michael W. Deem and Ramdas Pophale) SiO2 
 PCOD8170033
Probable space group: P M N 21
;
_chemical_formula_sum "Si O2"
_cell_formula_units_Z 32
_cell_length_a 8.881842
_cell_length_b 14.080915
_cell_length_c 14.107980
_cell_angle_alpha 90.000000
_cell_angle_beta 90.000000
_cell_angle_gamma 90.000000
_cell_volume 1764.406932
_symmetry_space_group_name_H-M "P M N 21"
_symmetry_group_IT_number 31
_symmetry_cell_setting 'orthorhombic'
loop_
_space_group_symop_operation_xyz
x,y,z
1/2-x,-y,1/2+z
-x,y,z
1/2+x,-y,1/2+z
loop_
_atom_site_type_symbol
_atom_site_label
_atom_site_fract_x
_atom_site_fract_y
_atom_site_fract_z
Si Si1 0.829901 0.092788 0.300390
Si Si2 0.822741 0.762021 0.154935
Si Si3 0.677259 0.237980 0.945845
Si Si4 0.323408 0.896687 0.300391
Si Si5 0.326015 0.750100 0.645889
Si Si6 0.679274 0.604213 0.800390
Si Si7 0.677158 0.393397 0.800390
Si Si8 0.326015 0.750100 0.954891
O O1 0.803162 0.155201 0.206932
O O2 0.803163 0.155201 0.393848
O O3 0.000000 0.052542 0.300390
O O4 0.711641 0.007987 0.300390
O O5 0.744393 0.851011 0.205354
O O6 0.772045 0.664643 0.207129
O O7 0.000000 0.777021 0.164405
O O8 0.776899 0.757056 0.046504
O O9 0.500000 0.222981 0.936375
O O10 0.755605 0.148988 0.895427
O O11 0.727959 0.335356 0.893650
O O12 0.723101 0.242944 0.054276
O O13 0.500000 0.880531 0.300391
O O14 0.500000 0.738036 0.616265
O O15 0.267652 0.659585 0.706129
O O16 0.500000 0.605001 0.800390
O O17 0.750791 0.498452 0.800390
O O18 0.732348 0.659585 0.894652
O O19 0.500000 0.407625 0.800393
O O20 0.500000 0.738035 0.984516
#
# Coordination Sequence:
#
# PCOD8170033 Si02
#       8
#     4   4   4   4   4   4   4   4
#     4   9  19  36  54  74 102 133 167 209 256 301
#     4  10  20  34  52  75 106 138 166 205 254 300
#     4  10  20  34  52  75 106 138 166 205 254 300
#     4  11  22  36  55  76  98 129 171 213 251 299
#     4   9  18  33  54  77 101 133 171 209 249 297
#     4   8  15  31  53  75 102 135 171 210 249 293
#     4   8  16  31  50  73 102 137 171 204 250 299
#     4   9  18  33  54  77 101 133 171 209 249 297
#
# _framework density 18.136403999999999
#
# number of rings (size 3 to 8) (size 9 to 14) (size 15 to 20)
#    0.000    2.750    0.000    4.125    0.000    3.000 
#    0.000    1.875    0.000    7.500    0.000    0.000 
#    0.000    0.000    0.000    0.000    0.000    0.000 
#
# Total GULP energy -396776.000261 kJ/mol
# GULP energy per Si atom -12399.250008 kJ/mol
# Density = 1.809512 g / cm^3
# Si number density = 18.136404 Si / 1000 Ang^3
#
#
#
# Elastic Constant Matrix: (Units=GPa)
#
#
# Indices 1 2 3 4 5 6 
#
# 1 78.0796 41.0723 45.3444 0.0000 0.0000 0.0000
# 2 41.0723 129.2882 52.5829 0.0000 0.0000 0.0000
# 3 45.3444 52.5829 138.5030 0.0000 0.0000 0.0000
# 4 0.0000 0.0000 0.0000 12.6655 0.0000 0.0000
# 5 0.0000 0.0000 0.0000 0.0000 32.5758 0.0000
# 6 0.0000 0.0000 0.0000 0.0000 0.0000 18.0355
#
#
#
# Elastic Compliance Matrix: (Units=1/GPa)
#
#
# Indices 1 2 3 4 5 6 
#
# 1 0.017233 -0.003761 -0.004214 0.000000 0.000000 0.000000
# 2 -0.003761 0.009968 -0.002553 0.000000 0.000000 0.000000
# 3 -0.004214 -0.002553 0.009569 0.000000 0.000000 0.000000
# 4 0.000000 0.000000 0.000000 0.078955 0.000000 0.000000
# 5 0.000000 0.000000 0.000000 0.000000 0.030698 0.000000
# 6 0.000000 0.000000 0.000000 0.000000 0.000000 0.055446
#
#
# Mechanical properties :
#
#
# Convention : Reuss Voigt Hill
#
# Bulk Modulus (GPa) = 63.63758 69.31886 66.47822
# Shear Modulus (GPa) = 21.91426 26.44677 24.18052
#
# Velocity S-wave (km/s) = 3.47984 3.82280 3.65534
# Velocity P-wave (km/s) = 7.16311 7.60190 7.38576
#
# Compressibility (1/GPa) = 0.01571399
#
# Stress axis : x y z
#
# Youngs Moduli (GPa) = 58.02811 100.32405 104.50403
#
# Poissons Ratio (x) = 0.37728 0.44040
# Poissons Ratio (y) = 0.21822 0.26680
# Poissons Ratio (z) = 0.24454 0.25613
#
# Static dielectric constant tensor:
#      x y z
#    x 3.076460 0.000000 0.000000 
#    y 0.000000 3.565570 0.000000 
#    z 0.000000 0.000000 3.325580 
# 
# 
# High freq. dielectric constant tensor:
#      x y z
#    x 1.680990 0.000000 0.000000 
#    y 0.000000 1.706970 0.000000 
#    z 0.000000 0.000000 1.705380 
# 
# From -- ./inp_files/5117.got.cif
#   From: 2010.03.12/outbox.cif.g09.slc.cpg/sg31_3_cif.got.tgz:5117.got - 2010.04.14 01:42:59.
