data_PCOD8170592
_publ_section_title
;
Structure prediction by ZEFSAII (Michael W. Deem and Ramdas Pophale) SiO2 
 PCOD8170592
Probable space group: P B A 2
;
_chemical_formula_sum "Si O2"
_cell_formula_units_Z 20
_cell_length_a 8.080271
_cell_length_b 10.588132
_cell_length_c 8.454043
_cell_angle_alpha 90.000000
_cell_angle_beta 90.000000
_cell_angle_gamma 90.000000
_cell_volume 723.285445
_symmetry_space_group_name_H-M "P B A 2"
_symmetry_group_IT_number 32
_symmetry_cell_setting 'orthorhombic'
loop_
_space_group_symop_operation_xyz
x,y,z
-x,-y,z
1/2-x,1/2+y,z
1/2+x,1/2-y,z
loop_
_atom_site_type_symbol
_atom_site_label
_atom_site_fract_x
_atom_site_fract_y
_atom_site_fract_z
Si Si1 0.527615 0.639677 0.035960
Si Si2 0.192062 0.006411 0.662106
Si Si3 0.619685 0.228647 0.758566
Si Si4 0.185796 0.288847 0.248006
Si Si5 0.080556 0.645129 0.460242
O O1 0.500000 0.500000 0.957584
O O2 0.711725 0.645481 0.107825
O O3 0.397915 0.660764 0.178766
O O4 0.498422 0.754194 0.911591
O O5 0.223883 0.140609 0.748089
O O6 0.323956 0.014551 0.513422
O O7 0.249065 0.889150 0.774431
O O8 0.000000 0.000000 0.608094
O O9 0.507420 0.214030 0.605548
O O10 0.287616 0.249614 0.403787
O O11 0.041056 0.382217 0.311362
#
# Coordination Sequence:
#
# PCOD8170592 Si02
#       5
#     4   4   4   4   4
#     4  11  28  51  81 114 165 223 277 354 433 518
#     4  12  28  47  84 123 167 214 289 356 424 495
#     4  12  28  51  82 123 162 224 291 355 418 502
#     4  10  26  52  78 119 167 213 283 346 443 510
#     4  11  24  51  82 122 164 219 286 354 427 511
#
# _framework density 27.651598
#
# number of rings (size 3 to 8) (size 9 to 14) (size 15 to 20)
#    0.000    0.800    2.000    2.400    8.400    4.000 
#    0.000    3.000    0.000    0.000    0.000    0.000 
#    0.000    0.000    0.000    0.000    0.000    0.000 
#
# Total GULP energy -247924.872812 kJ/mol
# GULP energy per Si atom -12396.243641 kJ/mol
# Density = 2.758866 g / cm^3
# Si number density = 27.651598 Si / 1000 Ang^3
#
#
#
# Elastic Constant Matrix: (Units=GPa)
#
#
# Indices 1 2 3 4 5 6 
#
# 1 183.7476 80.7827 83.4575 0.0000 0.0000 0.0000
# 2 80.7827 184.9648 49.9884 0.0000 0.0000 0.0000
# 3 83.4575 49.9884 118.3951 0.0000 0.0000 0.0000
# 4 0.0000 0.0000 0.0000 44.0564 0.0000 0.0000
# 5 0.0000 0.0000 0.0000 0.0000 35.8486 0.0000
# 6 0.0000 0.0000 0.0000 0.0000 0.0000 45.2117
#
#
#
# Elastic Compliance Matrix: (Units=1/GPa)
#
#
# Indices 1 2 3 4 5 6 
#
# 1 0.008908 -0.002476 -0.005234 0.000000 0.000000 0.000000
# 2 -0.002476 0.006791 -0.001122 0.000000 0.000000 0.000000
# 3 -0.005234 -0.001122 0.012609 0.000000 0.000000 0.000000
# 4 0.000000 0.000000 0.000000 0.022698 0.000000 0.000000
# 5 0.000000 0.000000 0.000000 0.000000 0.027895 0.000000
# 6 0.000000 0.000000 0.000000 0.000000 0.000000 0.022118
#
#
# Mechanical properties :
#
#
# Convention : Reuss Voigt Hill
#
# Bulk Modulus (GPa) = 93.94299 101.72942 97.83620
# Shear Modulus (GPa) = 40.90586 43.21527 42.06057
#
# Velocity S-wave (km/s) = 3.85038 3.95758 3.90435
# Velocity P-wave (km/s) = 7.33586 7.59953 7.46885
#
# Compressibility (1/GPa) = 0.01064475
#
# Stress axis : x y z
#
# Youngs Moduli (GPa) = 112.25818 147.25276 79.30591
#
# Poissons Ratio (x) = 0.36460 0.41508
# Poissons Ratio (y) = 0.27796 0.08897
# Poissons Ratio (z) = 0.58755 0.16520
#
# Static dielectric constant tensor:
#      x y z
#    x 5.654040 0.000000 0.000000 
#    y 0.000000 4.970210 0.000000 
#    z 0.000000 0.000000 5.138890 
# 
# 
# High freq. dielectric constant tensor:
#      x y z
#    x 2.146900 0.000000 0.000000 
#    y 0.000000 2.102640 0.000000 
#    z 0.000000 0.000000 2.117890 
# 
# From -- ./inp_files/2198.got.cif
#   From: 2010.03.12/outbox.cif.g09.slc.cpg/sg32_2_cif.got.tgz:2198.got - 2010.04.14 01:46:39.
