data_PCOD8170252
_publ_section_title
;
Structure prediction by ZEFSAII (Michael W. Deem and Ramdas Pophale) SiO2 
 PCOD8170252
Probable space group: P M N 21
;
_chemical_formula_sum "Si O2"
_cell_formula_units_Z 32
_cell_length_a 8.672000
_cell_length_b 15.285932
_cell_length_c 12.010347
_cell_angle_alpha 90.000000
_cell_angle_beta 90.000000
_cell_angle_gamma 90.000000
_cell_volume 1592.086822
_symmetry_space_group_name_H-M "P M N 21"
_symmetry_group_IT_number 31
_symmetry_cell_setting 'orthorhombic'
loop_
_space_group_symop_operation_xyz
x,y,z
1/2-x,-y,1/2+z
-x,y,z
1/2+x,-y,1/2+z
loop_
_atom_site_type_symbol
_atom_site_label
_atom_site_fract_x
_atom_site_fract_y
_atom_site_fract_z
Si Si1 0.673260 0.156554 0.664730
Si Si2 0.317362 0.086727 0.430306
Si Si3 0.682859 0.753643 0.798283
Si Si4 0.319900 0.586352 0.388719
Si Si5 0.680982 0.591815 0.947245
Si Si6 0.673867 0.356708 0.668440
Si Si7 0.319495 0.893268 0.389431
Si Si8 0.816610 0.258816 0.046564
O O1 0.500000 0.128635 0.699436
O O2 0.731325 0.103967 0.557400
O O3 0.678411 0.257056 0.629298
O O4 0.787686 0.138489 0.765201
O O5 0.500000 0.094402 0.414718
O O6 0.240116 0.154796 0.346551
O O7 0.250756 0.990369 0.404417
O O8 0.500000 0.754275 0.795945
O O9 0.743034 0.672102 0.871779
O O10 0.747438 0.742856 0.672459
O O11 0.500000 0.564223 0.399726
O O12 0.219595 0.498567 0.386677
O O13 0.288018 0.633198 0.271891
O O14 0.263853 0.651144 0.487263
O O15 0.500000 0.601426 0.967356
O O16 0.767283 0.586698 0.064982
O O17 0.500000 0.386232 0.699682
O O18 0.500000 0.897754 0.409414
O O19 0.247886 0.824438 0.478288
O O20 0.000000 0.253914 0.044001
#
# Coordination Sequence:
#
# PCOD8170252 Si02
#       8
#     4   4   4   4   4   4   4   4
#     4  10  21  38  61  86 117 154 199 251 300 349
#     4  10  22  39  59  88 120 155 196 246 300 352
#     4  10  22  40  62  85 117 159 198 242 294 357
#     4  11  23  40  64  90 120 159 201 251 305 361
#     4  11  24  40  61  92 123 156 203 252 301 364
#     4  11  22  40  64  87 119 160 203 254 304 358
#     4  10  21  38  61  86 118 156 199 245 295 357
#     4   9  20  39  60  84 116 157 197 237 293 354
#
# _framework density 20.099406999999999
#
# number of rings (size 3 to 8) (size 9 to 14) (size 15 to 20)
#    0.000    1.750    2.500    1.125    3.500    2.000 
#    0.000    1.875    0.000    0.000    0.000    0.000 
#    0.000    0.000    0.000    0.000    0.000    0.000 
#
# Total GULP energy -396884.252095 kJ/mol
# GULP energy per Si atom -12402.632878 kJ/mol
# Density = 2.005366 g / cm^3
# Si number density = 20.099407 Si / 1000 Ang^3
#
#
#
# Elastic Constant Matrix: (Units=GPa)
#
#
# Indices 1 2 3 4 5 6 
#
# 1 26.6173 23.4291 18.7649 0.0000 0.0000 0.0000
# 2 23.4291 124.7222 45.9787 0.0000 0.0000 0.0000
# 3 18.7649 45.9787 131.0710 0.0000 0.0000 0.0000
# 4 0.0000 0.0000 0.0000 31.1172 0.0000 0.0000
# 5 0.0000 0.0000 0.0000 0.0000 29.5537 0.0000
# 6 0.0000 0.0000 0.0000 0.0000 0.0000 26.9113
#
#
#
# Elastic Compliance Matrix: (Units=1/GPa)
#
#
# Indices 1 2 3 4 5 6 
#
# 1 0.046910 -0.007277 -0.004163 0.000000 0.000000 0.000000
# 2 -0.007277 0.010338 -0.002584 0.000000 0.000000 0.000000
# 3 -0.004163 -0.002584 0.009132 0.000000 0.000000 0.000000
# 4 0.000000 0.000000 0.000000 0.032137 0.000000 0.000000
# 5 0.000000 0.000000 0.000000 0.000000 0.033837 0.000000
# 6 0.000000 0.000000 0.000000 0.000000 0.000000 0.037159
#
#
# Mechanical properties :
#
#
# Convention : Reuss Voigt Hill
#
# Bulk Modulus (GPa) = 26.08926 50.97289 38.53108
# Shear Modulus (GPa) = 23.77118 30.46563 27.11841
#
# Velocity S-wave (km/s) = 3.44274 3.89748 3.67715
# Velocity P-wave (km/s) = 5.36764 6.75791 6.10250
#
# Compressibility (1/GPa) = 0.03832995
#
# Stress axis : x y z
#
# Youngs Moduli (GPa) = 21.31738 96.73385 109.50401
#
# Poissons Ratio (x) = 0.70397 0.45587
# Poissons Ratio (y) = 0.15513 0.28301
# Poissons Ratio (z) = 0.08875 0.25001
#
# Static dielectric constant tensor:
#      x y z
#    x 3.370820 0.000000 0.000000 
#    y 0.000000 3.810300 0.000000 
#    z 0.000000 0.000000 3.705790 
# 
# 
# High freq. dielectric constant tensor:
#      x y z
#    x 1.761630 0.000000 0.000000 
#    y 0.000000 1.795160 0.000000 
#    z 0.000000 0.000000 1.793420 
# 
# From -- ./inp_files/3604.got.cif
#   From: 2010.03.12/outbox.cif.g09.slc.cpg/sg31_2_cif.got.tgz:3604.got - 2010.04.14 01:42:59.
