data_PCOD8170511
_publ_section_title
;
Structure prediction by ZEFSAII (Michael W. Deem and Ramdas Pophale) SiO2 
 PCOD8170511
Probable space group: P B A 2
;
_chemical_formula_sum "Si O2"
_cell_formula_units_Z 30
_cell_length_a 5.553518
_cell_length_b 28.792788
_cell_length_c 8.338992
_cell_angle_alpha 90.000000
_cell_angle_beta 90.000000
_cell_angle_gamma 90.000000
_cell_volume 1333.415382
_symmetry_space_group_name_H-M "P B A 2"
_symmetry_group_IT_number 32
_symmetry_cell_setting 'orthorhombic'
loop_
_space_group_symop_operation_xyz
x,y,z
-x,-y,z
1/2-x,1/2+y,z
1/2+x,1/2-y,z
loop_
_atom_site_type_symbol
_atom_site_label
_atom_site_fract_x
_atom_site_fract_y
_atom_site_fract_z
Si Si1 0.550842 0.400531 0.521240
Si Si2 0.438340 0.639709 0.016205
Si Si3 0.270765 0.423044 0.223665
Si Si4 0.888317 0.346519 0.286116
Si Si5 0.153540 0.576034 0.803769
Si Si6 0.017589 0.278015 0.542110
Si Si7 0.000000 0.500000 0.040112
Si Si8 0.281985 0.852683 0.749925
O O1 0.370637 0.429380 0.404911
O O2 0.683635 0.435482 0.646909
O O3 0.414100 0.358337 0.609111
O O4 0.756608 0.375024 0.423316
O O5 0.514111 0.592599 0.108372
O O6 0.299351 0.671679 0.147846
O O7 0.253476 0.622939 0.882948
O O8 0.660621 0.663731 0.919785
O O9 0.078443 0.381470 0.206778
O O10 0.171688 0.471694 0.159504
O O11 0.021905 0.302964 0.367783
O O12 0.885299 0.594252 0.762459
O O13 0.155221 0.532504 0.922549
O O14 0.262052 0.248040 0.557427
O O15 0.025984 0.314541 0.690264
#
# Coordination Sequence:
#
# PCOD8170511 Si02
#       8
#     4   4   4   4   4   4   2   4
#     4  10  21  40  73  95 130 200 231 278 366 440
#     4  10  22  39  74  93 128 202 223 278 372 445
#     4  11  22  42  68  99 137 186 229 300 344 448
#     4  11  21  44  69 101 140 184 236 286 382 434
#     4  11  22  42  68  99 137 186 229 300 344 448
#     4  12  27  44  74 110 144 187 249 320 360 451
#     4  12  24  42  66 106 146 170 254 290 364 422
#     4  11  21  44  69 101 140 184 236 286 382 434
#
# _framework density 22.498614
#
# number of rings (size 3 to 8) (size 9 to 14) (size 15 to 20)
#    0.000    1.067    5.333    0.800    3.733    0.533 
#    0.000    5.333    0.000    0.000    0.000    0.000 
#    0.000    0.000    0.000    0.000    0.000    0.000 
#
# Total GULP energy -371768.202857 kJ/mol
# GULP energy per Si atom -12392.273429 kJ/mol
# Density = 2.244741 g / cm^3
# Si number density = 22.498614 Si / 1000 Ang^3
#
#
#
# Elastic Constant Matrix: (Units=GPa)
#
#
# Indices 1 2 3 4 5 6 
#
# 1 100.4302 37.1578 54.0863 0.0000 0.0000 0.0000
# 2 37.1578 82.1047 45.7240 0.0000 0.0000 0.0000
# 3 54.0863 45.7240 155.9982 0.0000 0.0000 0.0000
# 4 0.0000 0.0000 0.0000 32.2367 0.0000 0.0000
# 5 0.0000 0.0000 0.0000 0.0000 59.2907 0.0000
# 6 0.0000 0.0000 0.0000 0.0000 0.0000 27.4734
#
#
#
# Elastic Compliance Matrix: (Units=1/GPa)
#
#
# Indices 1 2 3 4 5 6 
#
# 1 0.013321 -0.004131 -0.003408 0.000000 0.000000 0.000000
# 2 -0.004131 0.015836 -0.003210 0.000000 0.000000 0.000000
# 3 -0.003408 -0.003210 0.008533 0.000000 0.000000 0.000000
# 4 0.000000 0.000000 0.000000 0.031021 0.000000 0.000000
# 5 0.000000 0.000000 0.000000 0.000000 0.016866 0.000000
# 6 0.000000 0.000000 0.000000 0.000000 0.000000 0.036399
#
#
# Mechanical properties :
#
#
# Convention : Reuss Voigt Hill
#
# Bulk Modulus (GPa) = 61.75263 68.05214 64.90239
# Shear Modulus (GPa) = 33.58657 37.23782 35.41220
#
# Velocity S-wave (km/s) = 3.86791 4.07273 3.97164
# Velocity P-wave (km/s) = 6.88872 7.24079 7.06695
#
# Compressibility (1/GPa) = 0.01619364
#
# Stress axis : x y z
#
# Youngs Moduli (GPa) = 75.07129 63.14554 117.19821
#
# Poissons Ratio (x) = 0.26084 0.39937
# Poissons Ratio (y) = 0.31010 0.37616
# Poissons Ratio (z) = 0.25582 0.20267
#
# Static dielectric constant tensor:
#      x y z
#    x 4.286270 0.000000 0.000000 
#    y 0.000000 3.581470 0.000000 
#    z 0.000000 0.000000 4.399240 
# 
# 
# High freq. dielectric constant tensor:
#      x y z
#    x 1.907080 0.000000 0.000000 
#    y 0.000000 1.830000 0.000000 
#    z 0.000000 0.000000 1.908700 
# 
# From -- ./inp_files/2057.got.cif
#   From: 2010.03.12/outbox.cif.g09.slc.cpg/sg32_2_cif.got.tgz:2057.got - 2010.04.14 01:46:39.
