data_PCOD8170471
_publ_section_title
;
Structure prediction by ZEFSAII (Michael W. Deem and Ramdas Pophale) SiO2 
 PCOD8170471
Probable space group: P B A 2
;
_chemical_formula_sum "Si O2"
_cell_formula_units_Z 30
_cell_length_a 14.499692
_cell_length_b 12.112518
_cell_length_c 8.409286
_cell_angle_alpha 90.000000
_cell_angle_beta 90.000000
_cell_angle_gamma 90.000000
_cell_volume 1476.904234
_symmetry_space_group_name_H-M "P B A 2"
_symmetry_group_IT_number 32
_symmetry_cell_setting 'orthorhombic'
loop_
_space_group_symop_operation_xyz
x,y,z
-x,-y,z
1/2-x,1/2+y,z
1/2+x,1/2-y,z
loop_
_atom_site_type_symbol
_atom_site_label
_atom_site_fract_x
_atom_site_fract_y
_atom_site_fract_z
Si Si1 0.500000 0.500000 0.575100
Si Si2 0.093237 0.808294 0.395970
Si Si3 0.319266 0.731742 0.913898
Si Si4 0.024620 0.379401 0.528884
Si Si5 0.364979 0.298300 0.036112
Si Si6 0.270889 0.844722 0.606984
Si Si7 0.999291 0.629162 0.897570
Si Si8 0.655369 0.502725 0.812920
O O1 0.473315 0.400249 0.463850
O O2 0.582971 0.458598 0.684624
O O3 0.190907 0.807992 0.486776
O O4 0.036440 0.695994 0.414052
O O5 0.106843 0.833368 0.211653
O O6 0.244000 0.774895 0.038431
O O7 0.286238 0.746224 0.731716
O O8 0.409451 0.803478 0.955813
O O9 0.327020 0.599115 0.932679
O O10 0.134991 0.364561 0.509702
O O11 0.000000 0.500000 0.469261
O O12 0.992263 0.358747 0.708775
O O13 0.413519 0.186318 0.978506
O O14 0.388905 0.397790 0.915453
O O15 0.244696 0.953158 0.714059
O O16 0.000000 0.500000 0.947891
#
# Coordination Sequence:
#
# PCOD8170471 Si02
#       8
#     2   4   4   4   4   4   4   4
#     4  10  20  40  66  86 120 162 216 264 298 368
#     4  11  24  42  58  95 133 165 199 256 334 380
#     4  10  21  38  66  92 121 167 211 269 306 369
#     4  10  21  39  66  93 122 167 217 261 301 373
#     4  11  25  39  61  95 135 163 201 264 324 390
#     4   9  21  38  62  94 123 163 215 263 307 373
#     4  10  22  40  68  94 124 168 222 261 306 369
#     4  10  20  38  66  92 121 163 222 262 307 363
#
# _framework density 20.312757999999999
#
# number of rings (size 3 to 8) (size 9 to 14) (size 15 to 20)
#    0.000    1.867    0.000    4.800    9.333    3.200 
#    2.400    0.000    0.000    0.000    0.000    0.000 
#    0.000    0.000    0.000    0.000    0.000    0.000 
#
# Total GULP energy -371994.387820 kJ/mol
# GULP energy per Si atom -12399.812927 kJ/mol
# Density = 2.026653 g / cm^3
# Si number density = 20.312758 Si / 1000 Ang^3
#
#
#
# Elastic Constant Matrix: (Units=GPa)
#
#
# Indices 1 2 3 4 5 6 
#
# 1 117.4761 51.6515 36.9543 0.0000 0.0000 0.0000
# 2 51.6515 130.4353 32.7047 0.0000 0.0000 0.0000
# 3 36.9543 32.7047 76.5548 0.0000 0.0000 0.0000
# 4 0.0000 0.0000 0.0000 3.8164 0.0000 0.0000
# 5 0.0000 0.0000 0.0000 0.0000 -6.5452 0.0000
# 6 0.0000 0.0000 0.0000 0.0000 0.0000 30.4537
#
#
#
# Elastic Compliance Matrix: (Units=1/GPa)
#
#
# Indices 1 2 3 4 5 6 
#
# 1 0.011288 -0.003476 -0.003964 0.000000 0.000000 0.000000
# 2 -0.003476 0.009657 -0.002448 0.000000 0.000000 0.000000
# 3 -0.003964 -0.002448 0.016022 0.000000 0.000000 0.000000
# 4 0.000000 0.000000 0.000000 0.262024 0.000000 0.000000
# 5 0.000000 0.000000 0.000000 0.000000 -0.152783 0.000000
# 6 0.000000 0.000000 0.000000 0.000000 0.000000 0.032837
#
#
# Mechanical properties :
#
#
# Convention : Reuss Voigt Hill
#
# Bulk Modulus (GPa) = 58.16872 63.00970 60.58921
# Shear Modulus (GPa) = 24.44409 19.08869 21.76639
#
# Velocity S-wave (km/s) = 3.47275 3.06884 3.27702
# Velocity P-wave (km/s) = 6.69169 6.60637 6.64917
#
# Compressibility (1/GPa) = 0.01719137
#
# Stress axis : x y z
#
# Youngs Moduli (GPa) = 88.59335 103.55430 62.41610
#
# Poissons Ratio (x) = 0.35995 0.24740
# Poissons Ratio (y) = 0.30795 0.15277
# Poissons Ratio (z) = 0.35116 0.25345
#
# Static dielectric constant tensor:
#      x y z
#    x 3.939920 0.000000 0.000000 
#    y 0.000000 3.932590 0.000000 
#    z 0.000000 0.000000 3.367100 
# 
# 
# High freq. dielectric constant tensor:
#      x y z
#    x 1.805950 0.000000 0.000000 
#    y 0.000000 1.801470 0.000000 
#    z 0.000000 0.000000 1.764940 
# 
# From -- ./inp_files/2843.got.cif
#   From: 2010.03.12/outbox.cif.g09.slc.cpg/sg32_2_cif.got.tgz:2843.got - 2010.04.14 01:46:39.
