data_PCOD8170245
_publ_section_title
;
Structure prediction by ZEFSAII (Michael W. Deem and Ramdas Pophale) SiO2 
 PCOD8170245
Probable space group: P M N 21
;
_chemical_formula_sum "Si O2"
_cell_formula_units_Z 24
_cell_length_a 8.933291
_cell_length_b 9.362013
_cell_length_c 15.089803
_cell_angle_alpha 90.000000
_cell_angle_beta 90.000000
_cell_angle_gamma 90.000000
_cell_volume 1262.014344
_symmetry_space_group_name_H-M "P M N 21"
_symmetry_group_IT_number 31
_symmetry_cell_setting 'orthorhombic'
loop_
_space_group_symop_operation_xyz
x,y,z
1/2-x,-y,1/2+z
-x,y,z
1/2+x,-y,1/2+z
loop_
_atom_site_type_symbol
_atom_site_label
_atom_site_fract_x
_atom_site_fract_y
_atom_site_fract_z
Si Si1 0.172667 0.340544 0.058500
Si Si2 0.176627 0.152970 0.723392
Si Si3 0.174117 0.671871 0.071520
Si Si4 0.826221 0.834015 0.407958
Si Si5 0.672653 0.858131 0.719576
Si Si6 0.671887 0.838871 0.920437
O O1 0.212141 0.505653 0.065944
O O2 0.211663 0.268565 0.152463
O O3 0.000000 0.314900 0.033283
O O4 0.275175 0.274277 0.982979
O O5 0.229921 0.265648 0.651146
O O6 0.239077 0.200737 0.818127
O O7 0.000000 0.153555 0.727329
O O8 0.230090 0.995795 0.694795
O O9 0.000000 0.699534 0.089745
O O10 0.218476 0.744114 0.978997
O O11 0.000000 0.811703 0.387807
O O12 0.793828 0.995093 0.439809
O O13 0.500000 0.906164 0.714173
O O14 0.708669 0.802753 0.818277
O O15 0.500000 0.802530 0.943688
#
# Coordination Sequence:
#
# PCOD8170245 Si02
#       6
#     4   4   4   4   4   4
#     4  10  22  38  56  82 115 150 186 225 273 328
#     4  11  22  37  59  85 111 142 185 232 277 329
#     4  11  23  37  54  81 117 153 186 224 275 330
#     4  10  21  38  60  84 110 143 185 231 279 329
#     4   9  19  38  61  82 108 143 185 232 278 325
#     4   9  19  36  58  84 109 141 187 232 276 327
#
# _framework density 19.017216000000001
#
# number of rings (size 3 to 8) (size 9 to 14) (size 15 to 20)
#    0.000    2.000    0.000    4.500    0.000    9.333 
#    0.000    1.667    0.000    0.000    0.000    0.000 
#    0.000    0.000    0.000    0.000    0.000    0.000 
#
# Total GULP energy -297720.927137 kJ/mol
# GULP energy per Si atom -12405.038631 kJ/mol
# Density = 1.897393 g / cm^3
# Si number density = 19.017216 Si / 1000 Ang^3
#
#
#
# Elastic Constant Matrix: (Units=GPa)
#
#
# Indices 1 2 3 4 5 6 
#
# 1 117.7648 71.0081 68.9876 0.0000 0.0000 0.0000
# 2 71.0081 120.6628 82.9868 0.0000 0.0000 0.0000
# 3 68.9876 82.9868 129.2151 0.0000 0.0000 0.0000
# 4 0.0000 0.0000 0.0000 -2.4371 0.0000 0.0000
# 5 0.0000 0.0000 0.0000 0.0000 36.4281 0.0000
# 6 0.0000 0.0000 0.0000 0.0000 0.0000 28.9041
#
#
#
# Elastic Compliance Matrix: (Units=1/GPa)
#
#
# Indices 1 2 3 4 5 6 
#
# 1 0.014215 -0.005634 -0.003971 0.000000 0.000000 0.000000
# 2 -0.005634 0.017078 -0.007960 0.000000 0.000000 0.000000
# 3 -0.003971 -0.007960 0.014971 0.000000 0.000000 0.000000
# 4 0.000000 0.000000 0.000000 -0.410323 0.000000 0.000000
# 5 0.000000 0.000000 0.000000 0.000000 0.027451 0.000000
# 6 0.000000 0.000000 0.000000 0.000000 0.000000 0.034597
#
#
# Mechanical properties :
#
#
# Convention : Reuss Voigt Hill
#
# Bulk Modulus (GPa) = 89.81514 90.40084 90.10799
# Shear Modulus (GPa) = -18.99910 22.22303 1.61197
#
# Velocity S-wave (km/s) = -3.16420 3.42215 0.92167
# Velocity P-wave (km/s) = 5.82935 7.95326 6.97265
#
# Compressibility (1/GPa) = 0.01113398
#
# Stress axis : x y z
#
# Youngs Moduli (GPa) = 70.34880 58.55608 66.79569
#
# Poissons Ratio (x) = 0.32992 0.26523
# Poissons Ratio (y) = 0.39637 0.53168
# Poissons Ratio (z) = 0.27933 0.46609
#
# Static dielectric constant tensor:
#      x y z
#    x 3.492370 0.000000 0.000000 
#    y 0.000000 3.421490 0.000000 
#    z 0.000000 0.000000 3.601710 
# 
# 
# High freq. dielectric constant tensor:
#      x y z
#    x 1.742810 0.000000 0.000000 
#    y 0.000000 1.733490 0.000000 
#    z 0.000000 0.000000 1.752130 
# 
# From -- ./inp_files/4731.got.cif
#   From: 2010.03.12/outbox.cif.g09.slc.cpg/sg31_3_cif.got.tgz:4731.got - 2010.04.14 01:42:59.
