data_PCOD8170370
_publ_section_title
;
Structure prediction by ZEFSAII (Michael W. Deem and Ramdas Pophale) SiO2 
 PCOD8170370
Probable space group: P M N 21
;
_chemical_formula_sum "Si O2"
_cell_formula_units_Z 32
_cell_length_a 8.866612
_cell_length_b 12.088437
_cell_length_c 14.515849
_cell_angle_alpha 90.000000
_cell_angle_beta 90.000000
_cell_angle_gamma 90.000000
_cell_volume 1555.859219
_symmetry_space_group_name_H-M "P M N 21"
_symmetry_group_IT_number 31
_symmetry_cell_setting 'orthorhombic'
loop_
_space_group_symop_operation_xyz
x,y,z
1/2-x,-y,1/2+z
-x,y,z
1/2+x,-y,1/2+z
loop_
_atom_site_type_symbol
_atom_site_label
_atom_site_fract_x
_atom_site_fract_y
_atom_site_fract_z
Si Si1 0.679480 0.905230 0.118310
Si Si2 0.177411 0.599065 0.329552
Si Si3 0.322370 0.947072 0.914755
Si Si4 0.321994 0.516442 0.005575
Si Si5 0.331737 0.184213 0.911909
Si Si6 0.676565 0.322940 0.637986
Si Si7 0.667468 0.291394 0.102812
Si Si8 0.323709 0.882808 0.716672
O O1 0.500000 0.902598 0.126494
O O2 0.747610 0.794148 0.163522
O O3 0.737695 0.014917 0.169453
O O4 0.737805 0.899805 0.011749
O O5 0.232929 0.501096 0.398417
O O6 0.253957 0.714807 0.361827
O O7 0.212152 0.587869 0.220874
O O8 0.000000 0.608555 0.350007
O O9 0.500000 0.963729 0.927389
O O10 0.284169 0.873073 0.825789
O O11 0.247525 0.067842 0.895497
O O12 0.500000 0.536355 0.011511
O O13 0.240984 0.625285 0.044150
O O14 0.273138 0.409667 0.065980
O O15 0.500000 0.176285 0.869978
O O16 0.338330 0.203506 0.020788
O O17 0.500000 0.303515 0.627633
O O18 0.500000 0.305600 0.145060
O O19 0.777092 0.237733 0.178614
O O20 0.500000 0.902195 0.700549
#
# Coordination Sequence:
#
# PCOD8170370 Si02
#       8
#     4   4   4   4   4   4   4   4
#     4  11  22  39  60  82 115 158 195 227 277 348
#     4   8  16  32  58  84 106 144 192 230 275 341
#     4   9  18  32  53  79 110 152 190 218 266 345
#     4   9  19  38  62  83 107 149 197 232 275 344
#     4   8  12  26  53  77  98 134 186 226 253 313
#     4  11  22  38  59  86 118 148 187 243 294 330
#     4   9  17  33  57  79 104 141 186 230 275 329
#     4  11  21  34  56  86 116 146 187 236 283 330
#
# _framework density 20.567413999999999
#
# number of rings (size 3 to 8) (size 9 to 14) (size 15 to 20)
#    0.000    2.500    1.250    3.375    0.000    2.500 
#    2.250    3.750    0.000    0.750    0.000    0.000 
#    0.000    0.000    0.000    0.000    0.000    0.000 
#
# Total GULP energy -396449.795849 kJ/mol
# GULP energy per Si atom -12389.056120 kJ/mol
# Density = 2.052060 g / cm^3
# Si number density = 20.567414 Si / 1000 Ang^3
#
#
#
# Elastic Constant Matrix: (Units=GPa)
#
#
# Indices 1 2 3 4 5 6 
#
# 1 59.5731 14.5403 25.9807 0.0000 0.0000 0.0000
# 2 14.5403 39.0891 0.5216 0.0000 0.0000 0.0000
# 3 25.9807 0.5216 87.4945 0.0000 0.0000 0.0000
# 4 0.0000 0.0000 0.0000 29.9297 0.0000 0.0000
# 5 0.0000 0.0000 0.0000 0.0000 19.8263 0.0000
# 6 0.0000 0.0000 0.0000 0.0000 0.0000 0.9657
#
#
#
# Elastic Compliance Matrix: (Units=1/GPa)
#
#
# Indices 1 2 3 4 5 6 
#
# 1 0.021476 -0.007904 -0.006330 0.000000 0.000000 0.000000
# 2 -0.007904 0.028494 0.002177 0.000000 0.000000 0.000000
# 3 -0.006330 0.002177 0.013296 0.000000 0.000000 0.000000
# 4 0.000000 0.000000 0.000000 0.033412 0.000000 0.000000
# 5 0.000000 0.000000 0.000000 0.000000 0.050438 0.000000
# 6 0.000000 0.000000 0.000000 0.000000 0.000000 1.035482
#
#
# Mechanical properties :
#
#
# Convention : Reuss Voigt Hill
#
# Bulk Modulus (GPa) = 25.54162 29.80465 27.67313
# Shear Modulus (GPa) = 4.09916 19.81860 11.95888
#
# Velocity S-wave (km/s) = 1.41328 3.10755 2.41394
# Velocity P-wave (km/s) = 3.88698 5.23435 4.61015
#
# Compressibility (1/GPa) = 0.03915178
#
# Stress axis : x y z
#
# Youngs Moduli (GPa) = 46.56385 35.09549 75.21096
#
# Poissons Ratio (x) = 0.27740 0.47608
# Poissons Ratio (y) = 0.36804 -0.16375
# Poissons Ratio (z) = 0.29475 -0.07641
#
# Static dielectric constant tensor:
#      x y z
#    x 3.272750 0.000000 0.000000 
#    y 0.000000 3.610730 0.000000 
#    z 0.000000 0.000000 3.883820 
# 
# 
# High freq. dielectric constant tensor:
#      x y z
#    x 1.757680 0.000000 0.000000 
#    y 0.000000 1.796750 0.000000 
#    z 0.000000 0.000000 1.809490 
# 
# From -- ./inp_files/5063.got.cif
#   From: 2010.03.12/outbox.cif.g09.slc.cpg/sg31_3_cif.got.tgz:5063.got - 2010.04.14 01:42:59.
