data_PCOD8170020
_publ_section_title
;
Structure prediction by ZEFSAII (Michael W. Deem and Ramdas Pophale) SiO2 
 PCOD8170020
Probable space group: P M N 21
;
_chemical_formula_sum "Si O2"
_cell_formula_units_Z 24
_cell_length_a 9.138630
_cell_length_b 15.267302
_cell_length_c 9.343359
_cell_angle_alpha 90.000000
_cell_angle_beta 90.000000
_cell_angle_gamma 90.000000
_cell_volume 1303.606228
_symmetry_space_group_name_H-M "P M N 21"
_symmetry_group_IT_number 31
_symmetry_cell_setting 'orthorhombic'
loop_
_space_group_symop_operation_xyz
x,y,z
1/2-x,-y,1/2+z
-x,y,z
1/2+x,-y,1/2+z
loop_
_atom_site_type_symbol
_atom_site_label
_atom_site_fract_x
_atom_site_fract_y
_atom_site_fract_z
Si Si1 0.670701 0.253398 0.139750
Si Si2 0.674199 0.065987 0.643427
Si Si3 0.671411 0.574451 0.676139
Si Si4 0.670099 0.224292 0.457300
Si Si5 0.330696 0.419350 0.468493
Si Si6 0.670554 0.082576 0.970239
O O1 0.500000 0.276497 0.152805
O O2 0.754591 0.342336 0.098239
O O3 0.729779 0.218957 0.294166
O O4 0.701189 0.182273 0.017628
O O5 0.500000 0.062530 0.635776
O O6 0.741245 0.149610 0.557736
O O7 0.738306 0.978863 0.574740
O O8 0.725761 0.072055 0.807900
O O9 0.500000 0.591724 0.682381
O O10 0.711414 0.486375 0.591986
O O11 0.731790 0.558803 0.833503
O O12 0.500000 0.203731 0.454520
O O13 0.702606 0.320447 0.522799
O O14 0.500000 0.427398 0.422610
O O15 0.500000 0.059409 0.986464
#
# Coordination Sequence:
#
# PCOD8170020 Si02
#       6
#     4   4   4   4   4   4
#     4   9  18  34  53  71 100 140 175 211 257 308
#     4  10  20  34  54  78 103 133 172 216 256 302
#     4  10  20  33  53  80 106 136 175 215 255 301
#     4   8  15  31  52  70  94 133 172 205 249 302
#     4   9  19  35  53  75 105 139 173 210 257 311
#     4  10  21  35  53  78 104 135 173 209 256 314
#
# _framework density 18.410468000000002
#
# number of rings (size 3 to 8) (size 9 to 14) (size 15 to 20)
#    0.000    2.667    0.000    2.500    0.000    5.333 
#    0.000    8.333    0.000    0.000    0.000    0.000 
#    0.000    0.000    0.000    0.000    0.000    0.000 
#
# Total GULP energy -297567.060467 kJ/mol
# GULP energy per Si atom -12398.627519 kJ/mol
# Density = 1.836856 g / cm^3
# Si number density = 18.410468 Si / 1000 Ang^3
#
#
#
# Elastic Constant Matrix: (Units=GPa)
#
#
# Indices 1 2 3 4 5 6 
#
# 1 39.5477 28.1105 21.9802 0.0000 0.0000 0.0000
# 2 28.1105 78.8326 27.1153 0.0000 0.0000 0.0000
# 3 21.9802 27.1153 70.5788 0.0000 0.0000 0.0000
# 4 0.0000 0.0000 0.0000 40.7249 0.0000 0.0000
# 5 0.0000 0.0000 0.0000 0.0000 22.4335 0.0000
# 6 0.0000 0.0000 0.0000 0.0000 0.0000 29.6097
#
#
#
# Elastic Compliance Matrix: (Units=1/GPa)
#
#
# Indices 1 2 3 4 5 6 
#
# 1 0.036969 -0.010627 -0.007431 0.000000 0.000000 0.000000
# 2 -0.010627 0.017671 -0.003480 0.000000 0.000000 0.000000
# 3 -0.007431 -0.003480 0.017819 0.000000 0.000000 0.000000
# 4 0.000000 0.000000 0.000000 0.024555 0.000000 0.000000
# 5 0.000000 0.000000 0.000000 0.000000 0.044576 0.000000
# 6 0.000000 0.000000 0.000000 0.000000 0.000000 0.033773
#
#
# Mechanical properties :
#
#
# Convention : Reuss Voigt Hill
#
# Bulk Modulus (GPa) = 34.02974 38.15234 36.09104
# Shear Modulus (GPa) = 21.90741 26.00382 23.95561
#
# Velocity S-wave (km/s) = 3.45330 3.76233 3.61112
# Velocity P-wave (km/s) = 5.86723 6.29616 6.08548
#
# Compressibility (1/GPa) = 0.02938606
#
# Stress axis : x y z
#
# Youngs Moduli (GPa) = 27.04949 56.58896 56.11853
#
# Poissons Ratio (x) = 0.60136 0.41699
# Poissons Ratio (y) = 0.28745 0.19527
# Poissons Ratio (z) = 0.20099 0.19690
#
# Static dielectric constant tensor:
#      x y z
#    x 3.171630 0.000000 0.000000 
#    y 0.000000 3.576890 0.000000 
#    z 0.000000 0.000000 3.447600 
# 
# 
# High freq. dielectric constant tensor:
#      x y z
#    x 1.690880 0.000000 0.000000 
#    y 0.000000 1.726670 0.000000 
#    z 0.000000 0.000000 1.711050 
# 
# From -- ./inp_files/1664.got.cif
#   From: 2010.03.12/outbox.cif.g09.slc.cpg/sg31_1_cif.got.tgz:1664.got - 2010.04.14 01:42:59.
