data_PCOD8170307
_publ_section_title
;
Structure prediction by ZEFSAII (Michael W. Deem and Ramdas Pophale) SiO2 
 PCOD8170307
Probable space group: P M N 21
;
_chemical_formula_sum "Si O2"
_cell_formula_units_Z 32
_cell_length_a 8.813242
_cell_length_b 11.818924
_cell_length_c 15.210383
_cell_angle_alpha 90.000000
_cell_angle_beta 90.000000
_cell_angle_gamma 90.000000
_cell_volume 1584.359693
_symmetry_space_group_name_H-M "P M N 21"
_symmetry_group_IT_number 31
_symmetry_cell_setting 'orthorhombic'
loop_
_space_group_symop_operation_xyz
x,y,z
1/2-x,-y,1/2+z
-x,y,z
1/2+x,-y,1/2+z
loop_
_atom_site_type_symbol
_atom_site_label
_atom_site_fract_x
_atom_site_fract_y
_atom_site_fract_z
Si Si1 0.321515 0.216778 0.766700
Si Si2 0.322775 0.792570 0.933132
Si Si3 0.824370 0.343370 0.606951
Si Si4 0.675985 0.393888 0.093196
Si Si5 0.178818 0.001948 0.009089
Si Si6 0.178950 0.002660 0.694866
Si Si7 0.322426 0.243986 0.257228
Si Si8 0.178252 0.248703 0.945505
O O1 0.500000 0.204182 0.770751
O O2 0.277297 0.291417 0.683160
O O3 0.261707 0.277725 0.854501
O O4 0.248424 0.091904 0.763072
O O5 0.500000 0.819226 0.929307
O O6 0.270213 0.727396 0.845337
O O7 0.280253 0.713364 0.014846
O O8 0.230677 0.910695 0.936688
O O9 0.786327 0.474857 0.599623
O O10 0.000000 0.322295 0.630347
O O11 0.500000 0.370275 0.071841
O O12 0.721710 0.337554 0.185585
O O13 0.776759 0.342706 0.015924
O O14 0.000000 0.996262 0.023396
O O15 0.261817 0.967014 0.098439
O O16 0.231799 0.125969 0.979586
O O17 0.230968 0.877439 0.720729
O O18 0.000000 0.016523 0.695785
O O19 0.500000 0.245010 0.278769
O O20 0.000000 0.252185 0.929036
#
# Coordination Sequence:
#
# PCOD8170307 Si02
#       8
#     4   4   4   4   4   4   4   4
#     4  12  25  40  63  92 124 164 207 250 302 370
#     4  11  23  38  61  90 123 162 200 248 304 365
#     4  10  23  43  64  88 122 162 206 259 310 356
#     4  10  22  43  66  89 120 162 210 256 306 363
#     4  11  22  37  61  92 124 159 199 247 304 369
#     4  11  21  37  62  91 124 158 197 249 309 366
#     4  10  22  39  62  90 122 159 198 250 305 363
#     4  11  24  41  63  92 127 162 201 255 308 362
#
# _framework density 20.197434000000001
#
# number of rings (size 3 to 8) (size 9 to 14) (size 15 to 20)
#    0.000    1.250    2.500    3.375    0.000    8.000 
#    0.000    2.500    0.000    0.000    0.000    0.000 
#    0.000    0.000    0.000    0.000    0.000    0.000 
#
# Total GULP energy -397050.872596 kJ/mol
# GULP energy per Si atom -12407.839769 kJ/mol
# Density = 2.015146 g / cm^3
# Si number density = 20.197434 Si / 1000 Ang^3
#
#
#
# Elastic Constant Matrix: (Units=GPa)
#
#
# Indices 1 2 3 4 5 6 
#
# 1 86.3596 38.8237 46.3427 0.0000 0.0000 0.0000
# 2 38.8237 112.7797 37.4704 0.0000 0.0000 0.0000
# 3 46.3427 37.4704 119.7513 0.0000 0.0000 0.0000
# 4 0.0000 0.0000 0.0000 11.7072 0.0000 0.0000
# 5 0.0000 0.0000 0.0000 0.0000 39.1355 0.0000
# 6 0.0000 0.0000 0.0000 0.0000 0.0000 20.0360
#
#
#
# Elastic Compliance Matrix: (Units=1/GPa)
#
#
# Indices 1 2 3 4 5 6 
#
# 1 0.015982 -0.003847 -0.004981 0.000000 0.000000 0.000000
# 2 -0.003847 0.010821 -0.001897 0.000000 0.000000 0.000000
# 3 -0.004981 -0.001897 0.010872 0.000000 0.000000 0.000000
# 4 0.000000 0.000000 0.000000 0.085417 0.000000 0.000000
# 5 0.000000 0.000000 0.000000 0.000000 0.025552 0.000000
# 6 0.000000 0.000000 0.000000 0.000000 0.000000 0.049910
#
#
# Mechanical properties :
#
#
# Convention : Reuss Voigt Hill
#
# Bulk Modulus (GPa) = 61.63435 62.68491 62.15963
# Shear Modulus (GPa) = 22.18142 27.25934 24.72038
#
# Velocity S-wave (km/s) = 3.31755 3.67774 3.50228
# Velocity P-wave (km/s) = 6.72733 7.00983 6.87004
#
# Compressibility (1/GPa) = 0.01622472
#
# Stress axis : x y z
#
# Youngs Moduli (GPa) = 62.57110 92.40916 91.97922
#
# Poissons Ratio (x) = 0.35547 0.45817
# Poissons Ratio (y) = 0.24069 0.17452
# Poissons Ratio (z) = 0.31168 0.17534
#
# Static dielectric constant tensor:
#      x y z
#    x 3.564210 0.000000 0.000000 
#    y 0.000000 3.661320 0.000000 
#    z 0.000000 0.000000 3.758250 
# 
# 
# High freq. dielectric constant tensor:
#      x y z
#    x 1.788790 0.000000 0.000000 
#    y 0.000000 1.786480 0.000000 
#    z 0.000000 0.000000 1.801770 
# 
# From -- ./inp_files/4889.got.cif
#   From: 2010.03.12/outbox.cif.g09.slc.cpg/sg31_3_cif.got.tgz:4889.got - 2010.04.14 01:42:59.
