data_PCOD8170546
_publ_section_title
;
Structure prediction by ZEFSAII (Michael W. Deem and Ramdas Pophale) SiO2 
 PCOD8170546
Probable space group: P B A 2
;
_chemical_formula_sum "Si O2"
_cell_formula_units_Z 30
_cell_length_a 20.451157
_cell_length_b 11.994183
_cell_length_c 5.342734
_cell_angle_alpha 90.000000
_cell_angle_beta 90.000000
_cell_angle_gamma 90.000000
_cell_volume 1310.545507
_symmetry_space_group_name_H-M "P B A 2"
_symmetry_group_IT_number 32
_symmetry_cell_setting 'orthorhombic'
loop_
_space_group_symop_operation_xyz
x,y,z
-x,-y,z
1/2-x,1/2+y,z
1/2+x,1/2-y,z
loop_
_atom_site_type_symbol
_atom_site_label
_atom_site_fract_x
_atom_site_fract_y
_atom_site_fract_z
Si Si1 0.053437 0.215127 0.992100
Si Si2 0.179945 0.788727 0.937424
Si Si3 0.591303 0.099529 0.378086
Si Si4 0.106333 0.840114 0.426830
Si Si5 0.500000 0.500000 0.241678
Si Si6 0.874622 0.446721 0.991961
Si Si7 0.030533 0.655309 0.631850
Si Si8 0.826811 0.670876 0.793146
O O1 0.121391 0.227255 0.833695
O O2 0.988381 0.251825 0.842393
O O3 0.065042 0.295854 0.224282
O O4 0.039730 0.088614 0.073469
O O5 0.140529 0.837249 0.699953
O O6 0.172232 0.658528 0.004745
O O7 0.254615 0.791644 0.855528
O O8 0.157721 0.851484 0.193613
O O9 0.535444 0.087446 0.585974
O O10 0.661671 0.127419 0.507855
O O11 0.587572 0.975176 0.251939
O O12 0.065134 0.724229 0.403475
O O13 0.054728 0.941567 0.415850
O O14 0.919984 0.433567 0.751644
O O15 0.837444 0.565863 0.977438
#
# Coordination Sequence:
#
# PCOD8170546 Si02
#       8
#     4   4   4   4   2   4   4   4
#     4  10  23  42  69 101 147 181 241 307 361 445
#     4  11  27  50  68 103 148 189 250 296 357 447
#     4  10  22  42  66 102 138 183 238 304 368 434
#     4  11  26  45  73 103 146 190 237 308 354 446
#     4  12  22  46  74 108 144 196 242 298 404 432
#     4  10  24  41  69 100 135 189 228 299 373 420
#     4  10  22  43  63 109 144 180 236 313 371 449
#     4  10  25  46  67 101 139 191 248 300 356 446
#
# _framework density 22.891231000000001
#
# number of rings (size 3 to 8) (size 9 to 14) (size 15 to 20)
#    0.000    1.600    1.333    1.600    7.467    9.067 
#    2.400    0.000    0.000    0.000    0.000    0.000 
#    0.000    0.000    0.000    0.000    0.000    0.000 
#
# Total GULP energy -371654.320715 kJ/mol
# GULP energy per Si atom -12388.477357 kJ/mol
# Density = 2.283913 g / cm^3
# Si number density = 22.891231 Si / 1000 Ang^3
#
#
#
# Elastic Constant Matrix: (Units=GPa)
#
#
# Indices 1 2 3 4 5 6 
#
# 1 124.5777 48.4608 28.9987 0.0000 0.0000 0.0000
# 2 48.4608 138.5731 30.7494 0.0000 0.0000 0.0000
# 3 28.9987 30.7494 84.9750 0.0000 0.0000 0.0000
# 4 0.0000 0.0000 0.0000 40.3489 0.0000 0.0000
# 5 0.0000 0.0000 0.0000 0.0000 21.9558 0.0000
# 6 0.0000 0.0000 0.0000 0.0000 0.0000 34.8214
#
#
#
# Elastic Compliance Matrix: (Units=1/GPa)
#
#
# Indices 1 2 3 4 5 6 
#
# 1 0.009674 -0.002882 -0.002258 0.000000 0.000000 0.000000
# 2 -0.002882 0.008705 -0.002167 0.000000 0.000000 0.000000
# 3 -0.002258 -0.002167 0.013323 0.000000 0.000000 0.000000
# 4 0.000000 0.000000 0.000000 0.024784 0.000000 0.000000
# 5 0.000000 0.000000 0.000000 0.000000 0.045546 0.000000
# 6 0.000000 0.000000 0.000000 0.000000 0.000000 0.028718
#
#
# Mechanical properties :
#
#
# Convention : Reuss Voigt Hill
#
# Bulk Modulus (GPa) = 58.52084 62.72708 60.62396
# Shear Modulus (GPa) = 33.09952 35.41967 34.25960
#
# Velocity S-wave (km/s) = 3.80669 3.93784 3.87282
# Velocity P-wave (km/s) = 6.70383 6.93810 6.82197
#
# Compressibility (1/GPa) = 0.01708793
#
# Stress axis : x y z
#
# Youngs Moduli (GPa) = 103.37082 114.87636 75.05884
#
# Poissons Ratio (x) = 0.33107 0.16952
# Poissons Ratio (y) = 0.29791 0.16262
# Poissons Ratio (z) = 0.23346 0.24888
#
# Static dielectric constant tensor:
#      x y z
#    x 4.059430 0.000000 0.000000 
#    y 0.000000 4.007760 0.000000 
#    z 0.000000 0.000000 4.419740 
# 
# 
# High freq. dielectric constant tensor:
#      x y z
#    x 1.889670 0.000000 0.000000 
#    y 0.000000 1.904150 0.000000 
#    z 0.000000 0.000000 1.922030 
# 
# From -- ./inp_files/1596.got.cif
#   From: 2010.03.12/outbox.cif.g09.slc.cpg/sg32_1_cif.got.tgz:1596.got - 2010.04.14 01:46:39.
