data_PCOD8170110
_publ_section_title
;
Structure prediction by ZEFSAII (Michael W. Deem and Ramdas Pophale) SiO2 
 PCOD8170110
Probable space group: P M N 21
;
_chemical_formula_sum "Si O2"
_cell_formula_units_Z 32
_cell_length_a 8.808084
_cell_length_b 16.025670
_cell_length_c 10.928888
_cell_angle_alpha 90.000000
_cell_angle_beta 90.000000
_cell_angle_gamma 90.000000
_cell_volume 1542.672076
_symmetry_space_group_name_H-M "P M N 21"
_symmetry_group_IT_number 31
_symmetry_cell_setting 'orthorhombic'
loop_
_space_group_symop_operation_xyz
x,y,z
1/2-x,-y,1/2+z
-x,y,z
1/2+x,-y,1/2+z
loop_
_atom_site_type_symbol
_atom_site_label
_atom_site_fract_x
_atom_site_fract_y
_atom_site_fract_z
Si Si1 0.821322 0.437478 0.178690
Si Si2 0.830310 0.274341 0.863910
Si Si3 0.669539 0.856667 0.168069
Si Si4 0.325119 0.748052 0.744325
Si Si5 0.328346 0.158361 0.043363
Si Si6 0.824850 0.856424 0.921226
Si Si7 0.822693 0.462950 0.902622
Si Si8 0.675149 0.023925 0.854232
O O1 0.777431 0.339488 0.182941
O O2 0.754174 0.477908 0.301866
O O3 0.000000 0.449725 0.185330
O O4 0.763751 0.473076 0.045369
O O5 0.832256 0.234703 0.729266
O O6 0.702382 0.226594 0.939172
O O7 0.785446 0.370532 0.855460
O O8 0.000000 0.265612 0.924382
O O9 0.500000 0.877015 0.117403
O O10 0.714401 0.928803 0.261963
O O11 0.795628 0.853889 0.064531
O O12 0.500000 0.748475 0.780747
O O13 0.287559 0.824668 0.653130
O O14 0.228108 0.767144 0.866284
O O15 0.500000 0.169666 0.090983
O O16 0.303293 0.065764 0.988771
O O17 0.000000 0.873355 0.895113
O O18 0.725225 0.928658 0.859091
O O19 0.000000 0.482643 0.900155
O O20 0.500000 0.031252 0.812405
#
# Coordination Sequence:
#
# PCOD8170110 Si02
#       8
#     4   4   4   4   4   4   4   4
#     4  10  23  42  64  93 128 167 214 264 325 393
#     4   9  18  37  63  87 116 157 199 244 304 368
#     4  10  21  39  62  88 120 158 204 253 310 373
#     4  11  23  42  64  85 121 164 207 256 314 375
#     4  10  20  35  61  92 119 148 198 251 296 359
#     4  12  26  41  59  87 124 162 207 257 313 374
#     4  10  21  40  64  94 129 165 211 265 318 388
#     4  10  22  40  61  88 121 159 202 252 308 366
#
# _framework density 20.743228999999999
#
# number of rings (size 3 to 8) (size 9 to 14) (size 15 to 20)
#    0.000    1.750    1.250    2.625    1.750    5.000 
#    0.000    3.750    0.000    0.000    0.000    0.000 
#    0.000    0.000    0.000    0.000    0.000    0.000 
#
# Total GULP energy -396687.776203 kJ/mol
# GULP energy per Si atom -12396.493006 kJ/mol
# Density = 2.069602 g / cm^3
# Si number density = 20.743229 Si / 1000 Ang^3
#
#
#
# Elastic Constant Matrix: (Units=GPa)
#
#
# Indices 1 2 3 4 5 6 
#
# 1 73.7973 36.5830 30.6849 0.0000 0.0000 0.0000
# 2 36.5830 69.6917 41.5783 0.0000 0.0000 0.0000
# 3 30.6849 41.5783 115.9590 0.0000 0.0000 0.0000
# 4 0.0000 0.0000 0.0000 28.1262 0.0000 0.0000
# 5 0.0000 0.0000 0.0000 0.0000 37.9213 0.0000
# 6 0.0000 0.0000 0.0000 0.0000 0.0000 22.9263
#
#
#
# Elastic Compliance Matrix: (Units=1/GPa)
#
#
# Indices 1 2 3 4 5 6 
#
# 1 0.018611 -0.008690 -0.001809 0.000000 0.000000 0.000000
# 2 -0.008690 0.022311 -0.005700 0.000000 0.000000 0.000000
# 3 -0.001809 -0.005700 0.011146 0.000000 0.000000 0.000000
# 4 0.000000 0.000000 0.000000 0.035554 0.000000 0.000000
# 5 0.000000 0.000000 0.000000 0.000000 0.026370 0.000000
# 6 0.000000 0.000000 0.000000 0.000000 0.000000 0.043618
#
#
# Mechanical properties :
#
#
# Convention : Reuss Voigt Hill
#
# Bulk Modulus (GPa) = 50.83943 53.01560 51.92751
# Shear Modulus (GPa) = 25.43675 27.83488 26.63582
#
# Velocity S-wave (km/s) = 3.50561 3.66714 3.58728
# Velocity P-wave (km/s) = 6.39905 6.59879 6.49969
#
# Compressibility (1/GPa) = 0.01966977
#
# Stress axis : x y z
#
# Youngs Moduli (GPa) = 53.73293 44.82004 89.71552
#
# Poissons Ratio (x) = 0.38949 0.16228
# Poissons Ratio (y) = 0.46694 0.51142
# Poissons Ratio (z) = 0.09719 0.25550
#
# Static dielectric constant tensor:
#      x y z
#    x 3.680940 0.000000 0.000000 
#    y 0.000000 3.738170 0.000000 
#    z 0.000000 0.000000 3.870410 
# 
# 
# High freq. dielectric constant tensor:
#      x y z
#    x 1.809270 0.000000 0.000000 
#    y 0.000000 1.803720 0.000000 
#    z 0.000000 0.000000 1.815280 
# 
# From -- ./inp_files/3721.got.cif
#   From: 2010.03.12/outbox.cif.g09.slc.cpg/sg31_2_cif.got.tgz:3721.got - 2010.04.14 01:42:59.
