data_PCOD8170968
_publ_section_title
;
Structure prediction by ZEFSAII (Michael W. Deem and Ramdas Pophale) SiO2 
 PCOD8170968
Probable space group: P N A 21
;
_chemical_formula_sum "Si O2"
_cell_formula_units_Z 32
_cell_length_a 17.677211
_cell_length_b 9.324783
_cell_length_c 9.833608
_cell_angle_alpha 90.000000
_cell_angle_beta 90.000000
_cell_angle_gamma 90.000000
_cell_volume 1620.934148
_symmetry_space_group_name_H-M "P N A 21"
_symmetry_group_IT_number 33
_symmetry_cell_setting 'orthorhombic'
loop_
_space_group_symop_operation_xyz
x,y,z
-x,-y,1/2+z
1/2-x,1/2+y,1/2+z
1/2+x,1/2-y,z
loop_
_atom_site_type_symbol
_atom_site_label
_atom_site_fract_x
_atom_site_fract_y
_atom_site_fract_z
Si Si1 0.676396 0.766307 0.495230
Si Si2 0.519557 0.433303 0.778927
Si Si3 0.219338 0.985099 0.010256
Si Si4 0.320239 0.468592 0.216573
Si Si5 0.061882 0.106483 0.071787
Si Si6 0.985183 0.383976 0.028168
Si Si7 0.270954 0.784070 0.229644
Si Si8 0.938097 0.612969 0.253419
O O1 0.707086 0.920628 0.541189
O O2 0.700376 0.647203 0.604201
O O3 0.586820 0.789406 0.479690
O O4 0.715148 0.717711 0.356542
O O5 0.589743 0.530045 0.731806
O O6 0.448634 0.505922 0.703363
O O7 0.527294 0.270159 0.728252
O O8 0.510499 0.442721 0.942192
O O9 0.148635 0.093408 0.026344
O O10 0.220510 0.852854 0.111603
O O11 0.219109 0.921599 0.857942
O O12 0.290940 0.626042 0.176270
O O13 0.042645 0.272918 0.103253
O O14 0.027720 0.448665 0.895271
O O15 0.963182 0.510906 0.130153
O O16 0.347089 0.873847 0.263580
#
# Coordination Sequence:
#
# PCOD8170968 Si02
#       8
#     4   4   4   4   4   4   4   4
#     4  11  21  40  63  91 120 166 202 248 310 366
#     4   9  19  37  59  82 116 153 197 252 296 359
#     4  10  22  40  59  88 123 160 200 253 308 366
#     4   9  20  39  59  84 119 153 202 249 298 361
#     4  10  21  37  60  87 118 158 203 251 305 361
#     4  11  22  42  62  90 125 166 207 255 310 366
#     4  10  22  42  62  89 127 159 203 259 308 364
#     4  10  23  43  60  89 128 161 202 259 311 363
#
# _framework density 19.741703999999999
#
# number of rings (size 3 to 8) (size 9 to 14) (size 15 to 20)
#    0.000    2.000    2.500    2.250    3.500    2.000 
#    9.000    2.500    0.000    0.000    0.000    0.000 
#    0.000    0.000    0.000    0.000    0.000    0.000 
#
# Total GULP energy -396708.293666 kJ/mol
# GULP energy per Si atom -12397.134177 kJ/mol
# Density = 1.969677 g / cm^3
# Si number density = 19.741704 Si / 1000 Ang^3
#
#
#
# Elastic Constant Matrix: (Units=GPa)
#
#
# Indices 1 2 3 4 5 6 
#
# 1 61.5859 14.1973 24.7117 0.0000 0.0000 0.0000
# 2 14.1973 57.5716 55.4098 0.0000 0.0000 0.0000
# 3 24.7117 55.4098 95.3682 0.0000 0.0000 0.0000
# 4 0.0000 0.0000 0.0000 43.9434 0.0000 0.0000
# 5 0.0000 0.0000 0.0000 0.0000 29.1606 0.0000
# 6 0.0000 0.0000 0.0000 0.0000 0.0000 28.1696
#
#
#
# Elastic Compliance Matrix: (Units=1/GPa)
#
#
# Indices 1 2 3 4 5 6 
#
# 1 0.018122 0.000115 -0.004762 0.000000 0.000000 0.000000
# 2 0.000115 0.039405 -0.022924 0.000000 0.000000 0.000000
# 3 -0.004762 -0.022924 0.025039 0.000000 0.000000 0.000000
# 4 0.000000 0.000000 0.000000 0.022757 0.000000 0.000000
# 5 0.000000 0.000000 0.000000 0.000000 0.034293 0.000000
# 6 0.000000 0.000000 0.000000 0.000000 0.000000 0.035499
#
#
# Mechanical properties :
#
#
# Convention : Reuss Voigt Hill
#
# Bulk Modulus (GPa) = 36.46746 44.79593 40.63170
# Shear Modulus (GPa) = 20.88562 28.26851 24.57707
#
# Velocity S-wave (km/s) = 3.25613 3.78818 3.53219
# Velocity P-wave (km/s) = 5.71393 6.47101 6.10422
#
# Compressibility (1/GPa) = 0.02742171
#
# Stress axis : x y z
#
# Youngs Moduli (GPa) = 55.18162 25.37753 39.93781
#
# Poissons Ratio (x) = -0.00291 0.19020
# Poissons Ratio (y) = -0.00632 0.91555
# Poissons Ratio (z) = 0.26279 0.58176
#
# Static dielectric constant tensor:
#      x y z
#    x 3.594360 0.000000 0.000000 
#    y 0.000000 3.456670 0.000000 
#    z 0.000000 0.000000 3.527200 
# 
# 
# High freq. dielectric constant tensor:
#      x y z
#    x 1.772740 0.000000 0.000000 
#    y 0.000000 1.761490 0.000000 
#    z 0.000000 0.000000 1.767950 
# 
# From -- ./inp_files/5042.got.cif
#   From: 2010.03.12/outbox.cif.g09.slc.cpg/sg33_3_cif.got.tgz:5042.got - 2010.04.14 01:49:19.
