data_PCOD8170587
_publ_section_title
;
Structure prediction by ZEFSAII (Michael W. Deem and Ramdas Pophale) SiO2 
 PCOD8170587
Probable space group: P B A 2
;
_chemical_formula_sum "Si O2"
_cell_formula_units_Z 32
_cell_length_a 15.850634
_cell_length_b 9.147471
_cell_length_c 10.101216
_cell_angle_alpha 90.000000
_cell_angle_beta 90.000000
_cell_angle_gamma 90.000000
_cell_volume 1464.607782
_symmetry_space_group_name_H-M "P B A 2"
_symmetry_group_IT_number 32
_symmetry_cell_setting 'orthorhombic'
loop_
_space_group_symop_operation_xyz
x,y,z
-x,-y,z
1/2-x,1/2+y,z
1/2+x,1/2-y,z
loop_
_atom_site_type_symbol
_atom_site_label
_atom_site_fract_x
_atom_site_fract_y
_atom_site_fract_z
Si Si1 0.551441 0.138562 0.884140
Si Si2 0.836527 0.509350 0.675824
Si Si3 0.027319 0.163807 0.656335
Si Si4 0.685621 0.395989 0.283078
Si Si5 0.947426 0.376431 0.469585
Si Si6 0.845774 0.234757 0.252674
Si Si7 0.709541 0.298035 0.582531
Si Si8 0.521835 0.335274 0.124588
O O1 0.638689 0.075370 0.819731
O O2 0.497032 0.232039 0.776978
O O3 0.500000 0.000000 0.935970
O O4 0.566642 0.245657 0.007490
O O5 0.921737 0.476395 0.595427
O O6 0.784075 0.360589 0.674744
O O7 0.780054 0.623247 0.590236
O O8 0.127180 0.157570 0.663171
O O9 0.998015 0.231970 0.516331
O O10 0.000000 0.000000 0.676586
O O11 0.764654 0.327116 0.197211
O O12 0.686106 0.570206 0.270190
O O13 0.703241 0.350261 0.432662
O O14 0.593090 0.336642 0.239680
O O15 0.866962 0.313238 0.392380
O O16 0.000000 0.500000 0.385005
O O17 0.933471 0.241745 0.169114
O O18 0.500000 0.500000 0.078592
#
# Coordination Sequence:
#
# PCOD8170587 Si02
#       8
#     4   4   4   4   4   4   4   4
#     4  11  22  44  65  90 127 176 227 285 329 404
#     4  11  23  39  62  96 136 170 217 281 345 414
#     4  11  22  37  64  93 124 175 219 275 343 403
#     4  11  23  43  65 102 144 175 234 291 354 418
#     4  12  21  40  63  95 137 165 226 276 349 424
#     4  11  25  40  70  98 133 183 222 296 352 427
#     4  11  22  37  61  95 134 170 207 280 354 410
#     4  10  25  47  66  95 136 187 248 285 342 419
#
# _framework density 21.848852999999998
#
# number of rings (size 3 to 8) (size 9 to 14) (size 15 to 20)
#    0.000    1.000    5.000    2.625    1.750    2.500 
#    0.000    8.750    0.000    0.000    0.000    0.000 
#    0.000    0.000    0.000    0.000    0.000    0.000 
#
# Total GULP energy -396462.525807 kJ/mol
# GULP energy per Si atom -12389.453931 kJ/mol
# Density = 2.179912 g / cm^3
# Si number density = 21.848853 Si / 1000 Ang^3
#
#
#
# Elastic Constant Matrix: (Units=GPa)
#
#
# Indices 1 2 3 4 5 6 
#
# 1 117.2389 51.3030 28.3501 0.0000 0.0000 0.0000
# 2 51.3030 126.6926 37.0165 0.0000 0.0000 0.0000
# 3 28.3501 37.0165 77.9305 0.0000 0.0000 0.0000
# 4 0.0000 0.0000 0.0000 34.9128 0.0000 0.0000
# 5 0.0000 0.0000 0.0000 0.0000 15.5911 0.0000
# 6 0.0000 0.0000 0.0000 0.0000 0.0000 38.3088
#
#
#
# Elastic Compliance Matrix: (Units=1/GPa)
#
#
# Indices 1 2 3 4 5 6 
#
# 1 0.010660 -0.003697 -0.002122 0.000000 0.000000 0.000000
# 2 -0.003697 0.010447 -0.003617 0.000000 0.000000 0.000000
# 3 -0.002122 -0.003617 0.015322 0.000000 0.000000 0.000000
# 4 0.000000 0.000000 0.000000 0.028643 0.000000 0.000000
# 5 0.000000 0.000000 0.000000 0.000000 0.064139 0.000000
# 6 0.000000 0.000000 0.000000 0.000000 0.000000 0.026104
#
#
# Mechanical properties :
#
#
# Convention : Reuss Voigt Hill
#
# Bulk Modulus (GPa) = 56.95768 61.68904 59.32336
# Shear Modulus (GPa) = 27.77150 31.44202 29.60676
#
# Velocity S-wave (km/s) = 3.56908 3.79762 3.68512
# Velocity P-wave (km/s) = 6.56582 6.89384 6.73183
#
# Compressibility (1/GPa) = 0.01755690
#
# Stress axis : x y z
#
# Youngs Moduli (GPa) = 93.80455 95.72090 65.26466
#
# Poissons Ratio (x) = 0.35386 0.13850
# Poissons Ratio (y) = 0.34678 0.23609
# Poissons Ratio (z) = 0.19907 0.34626
#
# Static dielectric constant tensor:
#      x y z
#    x 4.196750 0.000000 0.000000 
#    y 0.000000 4.041390 0.000000 
#    z 0.000000 0.000000 3.552290 
# 
# 
# High freq. dielectric constant tensor:
#      x y z
#    x 1.866140 0.000000 0.000000 
#    y 0.000000 1.882590 0.000000 
#    z 0.000000 0.000000 1.815410 
# 
# From -- ./inp_files/3942.got.cif
#   From: 2010.03.12/outbox.cif.g09.slc.cpg/sg32_2_cif.got.tgz:3942.got - 2010.04.14 01:46:39.
