data_PCOD8170657
_publ_section_title
;
Structure prediction by ZEFSAII (Michael W. Deem and Ramdas Pophale) SiO2 
 PCOD8170657
Probable space group: P N A 21
;
_chemical_formula_sum "Si O2"
_cell_formula_units_Z 32
_cell_length_a 5.403511
_cell_length_b 30.287966
_cell_length_c 8.751801
_cell_angle_alpha 90.000000
_cell_angle_beta 90.000000
_cell_angle_gamma 90.000000
_cell_volume 1432.331632
_symmetry_space_group_name_H-M "P N A 21"
_symmetry_group_IT_number 33
_symmetry_cell_setting 'orthorhombic'
loop_
_space_group_symop_operation_xyz
x,y,z
-x,-y,1/2+z
1/2-x,1/2+y,1/2+z
1/2+x,1/2-y,z
loop_
_atom_site_type_symbol
_atom_site_label
_atom_site_fract_x
_atom_site_fract_y
_atom_site_fract_z
Si Si1 0.077361 0.476812 0.225590
Si Si2 0.645355 0.438901 0.738408
Si Si3 0.609679 0.728939 0.844409
Si Si4 0.078981 0.063132 0.093305
Si Si5 0.233736 0.931412 0.004436
Si Si6 0.936176 0.865419 0.810930
Si Si7 0.584091 0.764300 0.184489
Si Si8 0.389317 0.138259 0.585532
O O1 0.112302 0.530068 0.212549
O O2 0.309553 0.453983 0.143013
O O3 0.085151 0.463460 0.406820
O O4 0.812409 0.464624 0.156945
O O5 0.420921 0.458335 0.633286
O O6 0.687325 0.388581 0.683932
O O7 0.567105 0.439578 0.912334
O O8 0.859416 0.749860 0.771864
O O9 0.617945 0.676725 0.805698
O O10 0.609341 0.736604 0.026441
O O11 0.125038 0.114922 0.142669
O O12 0.367205 0.890842 0.086413
O O13 0.044250 0.909560 0.886194
O O14 0.696819 0.851457 0.911197
O O15 0.841146 0.753854 0.274151
O O16 0.550250 0.816107 0.165804
#
# Coordination Sequence:
#
# PCOD8170657 Si02
#       8
#     4   4   4   4   4   4   4   4
#     4  11  25  44  67  88 127 172 230 263 322 383
#     4  11  27  39  64  93 133 171 215 270 333 389
#     4  10  18  29  56  91 119 155 202 268 305 370
#     4  11  26  44  65  95 129 174 212 277 325 392
#     4  10  22  40  62  93 123 171 211 278 307 393
#     4  10  20  37  61  92 126 162 215 263 324 376
#     4  10  19  32  56  91 122 154 205 269 311 370
#     4  11  21  37  63  93 127 165 214 268 325 381
#
# _framework density 22.341194999999999
#
# number of rings (size 3 to 8) (size 9 to 14) (size 15 to 20)
#    0.000    1.500    3.750    2.250    7.000    0.000 
#    0.000    0.000    0.000    1.500    0.000    0.000 
#    0.000    0.000    0.000    0.000    0.000    0.000 
#
# Total GULP energy -396582.419325 kJ/mol
# GULP energy per Si atom -12393.200604 kJ/mol
# Density = 2.229035 g / cm^3
# Si number density = 22.341195 Si / 1000 Ang^3
#
#
#
# Elastic Constant Matrix: (Units=GPa)
#
#
# Indices 1 2 3 4 5 6 
#
# 1 120.9248 12.5840 11.7035 0.0000 0.0000 0.0000
# 2 12.5840 100.7357 17.8698 0.0000 0.0000 0.0000
# 3 11.7035 17.8698 85.5455 0.0000 0.0000 0.0000
# 4 0.0000 0.0000 0.0000 17.6177 0.0000 0.0000
# 5 0.0000 0.0000 0.0000 0.0000 10.2065 0.0000
# 6 0.0000 0.0000 0.0000 0.0000 0.0000 34.8143
#
#
#
# Elastic Compliance Matrix: (Units=1/GPa)
#
#
# Indices 1 2 3 4 5 6 
#
# 1 0.008456 -0.000884 -0.000972 0.000000 0.000000 0.000000
# 2 -0.000884 0.010401 -0.002052 0.000000 0.000000 0.000000
# 3 -0.000972 -0.002052 0.012251 0.000000 0.000000 0.000000
# 4 0.000000 0.000000 0.000000 0.056761 0.000000 0.000000
# 5 0.000000 0.000000 0.000000 0.000000 0.097976 0.000000
# 6 0.000000 0.000000 0.000000 0.000000 0.000000 0.028724
#
#
# Mechanical properties :
#
#
# Convention : Reuss Voigt Hill
#
# Bulk Modulus (GPa) = 42.93211 43.50228 43.21719
# Shear Modulus (GPa) = 21.72500 30.19762 25.96131
#
# Velocity S-wave (km/s) = 3.12175 3.68048 3.41257
# Velocity P-wave (km/s) = 5.67909 6.12987 5.90878
#
# Compressibility (1/GPa) = 0.02329259
#
# Stress axis : x y z
#
# Youngs Moduli (GPa) = 118.26380 96.14131 81.62395
#
# Poissons Ratio (x) = 0.08497 0.07935
# Poissons Ratio (y) = 0.10452 0.16748
# Poissons Ratio (z) = 0.11498 0.19727
#
# Static dielectric constant tensor:
#      x y z
#    x 4.511200 0.000000 0.000000 
#    y 0.000000 4.181630 0.000000 
#    z 0.000000 0.000000 3.779870 
# 
# 
# High freq. dielectric constant tensor:
#      x y z
#    x 1.895610 0.000000 0.000000 
#    y 0.000000 1.887940 0.000000 
#    z 0.000000 0.000000 1.827300 
# 
# From -- ./inp_files/2832.got.cif
#   From: 2010.03.12/outbox.cif.g09.slc.cpg/sg33_2_cif.got.tgz:2832.got - 2010.04.14 01:49:19.
