data_PCOD8170018
_publ_section_title
;
Structure prediction by ZEFSAII (Michael W. Deem and Ramdas Pophale) SiO2 
 PCOD8170018
Probable space group: P M N 21
;
_chemical_formula_sum "Si O2"
_cell_formula_units_Z 32
_cell_length_a 9.004461
_cell_length_b 14.218037
_cell_length_c 14.017371
_cell_angle_alpha 90.000000
_cell_angle_beta 90.000000
_cell_angle_gamma 90.000000
_cell_volume 1794.584571
_symmetry_space_group_name_H-M "P M N 21"
_symmetry_group_IT_number 31
_symmetry_cell_setting 'orthorhombic'
loop_
_space_group_symop_operation_xyz
x,y,z
1/2-x,-y,1/2+z
-x,y,z
1/2+x,-y,1/2+z
loop_
_atom_site_type_symbol
_atom_site_label
_atom_site_fract_x
_atom_site_fract_y
_atom_site_fract_z
Si Si1 0.822786 0.359412 0.065030
Si Si2 0.666578 0.820824 0.102032
Si Si3 0.167053 0.190678 0.393193
Si Si4 0.824082 0.964631 0.990083
Si Si5 0.329889 0.827983 0.469936
Si Si6 0.328486 0.716065 0.285498
Si Si7 0.323506 0.633063 0.780944
Si Si8 0.823902 0.550667 0.390435
O O1 0.768980 0.380886 0.172271
O O2 0.000000 0.365292 0.052867
O O3 0.762839 0.255376 0.035792
O O4 0.750808 0.435733 0.993979
O O5 0.500000 0.852057 0.131871
O O6 0.766889 0.914842 0.087865
O O7 0.731321 0.752901 0.183619
O O8 0.663881 0.765135 0.000831
O O9 0.263182 0.094216 0.397806
O O10 0.238990 0.268236 0.322791
O O11 0.000000 0.164824 0.360126
O O12 0.000000 0.964497 0.985583
O O13 0.755651 0.070150 0.987774
O O14 0.500000 0.838232 0.498998
O O15 0.310268 0.801609 0.359413
O O16 0.500000 0.682529 0.281090
O O17 0.226316 0.629739 0.315761
O O18 0.500000 0.637467 0.783629
O O19 0.267339 0.547890 0.846742
O O20 0.000000 0.554049 0.401936
#
# Coordination Sequence:
#
# PCOD8170018 Si02
#       8
#     4   4   4   4   4   4   4   4
#     4   9  18  36  56  73  96 139 178 200 240 315
#     4   8  16  30  49  70  95 128 168 202 238 293
#     4   8  16  32  48  68  97 131 166 201 241 296
#     4   9  16  29  46  70 101 129 159 207 256 289
#     4   8  15  29  50  70  95 129 168 203 241 295
#     4   9  17  33  53  71  95 136 174 199 239 311
#     4   9  18  34  55  74 100 134 170 208 252 300
#     4  10  20  33  51  78 105 126 159 218 265 287
#
# _framework density 17.831424999999999
#
# number of rings (size 3 to 8) (size 9 to 14) (size 15 to 20)
#    0.750    2.500    0.000    1.125    0.000    1.500 
#    2.250    9.375    0.000    0.000    0.000    0.000 
#    0.000    0.000    0.000    0.000    0.000    0.000 
#
# Total GULP energy -396451.278870 kJ/mol
# GULP energy per Si atom -12389.102465 kJ/mol
# Density = 1.779084 g / cm^3
# Si number density = 17.831425 Si / 1000 Ang^3
#
#
#
# Elastic Constant Matrix: (Units=GPa)
#
#
# Indices 1 2 3 4 5 6 
#
# 1 44.1126 28.5677 21.4383 0.0000 0.0000 0.0000
# 2 28.5677 110.9821 52.1515 0.0000 0.0000 0.0000
# 3 21.4383 52.1515 100.5745 0.0000 0.0000 0.0000
# 4 0.0000 0.0000 0.0000 21.6223 0.0000 0.0000
# 5 0.0000 0.0000 0.0000 0.0000 21.8157 0.0000
# 6 0.0000 0.0000 0.0000 0.0000 0.0000 22.9050
#
#
#
# Elastic Compliance Matrix: (Units=1/GPa)
#
#
# Indices 1 2 3 4 5 6 
#
# 1 0.027844 -0.005789 -0.002933 0.000000 0.000000 0.000000
# 2 -0.005789 0.013117 -0.005568 0.000000 0.000000 0.000000
# 3 -0.002933 -0.005568 0.013455 0.000000 0.000000 0.000000
# 4 0.000000 0.000000 0.000000 0.046249 0.000000 0.000000
# 5 0.000000 0.000000 0.000000 0.000000 0.045839 0.000000
# 6 0.000000 0.000000 0.000000 0.000000 0.000000 0.043659
#
#
# Mechanical properties :
#
#
# Convention : Reuss Voigt Hill
#
# Bulk Modulus (GPa) = 38.70553 51.10936 44.90744
# Shear Modulus (GPa) = 21.99224 23.50273 22.74748
#
# Velocity S-wave (km/s) = 3.51571 3.63444 3.57556
# Velocity P-wave (km/s) = 6.18334 6.80712 6.50272
#
# Compressibility (1/GPa) = 0.02583610
#
# Stress axis : x y z
#
# Youngs Moduli (GPa) = 35.91469 76.23808 74.32087
#
# Poissons Ratio (x) = 0.44132 0.21802
# Poissons Ratio (y) = 0.20790 0.41379
# Poissons Ratio (z) = 0.10535 0.42446
#
# Static dielectric constant tensor:
#      x y z
#    x 2.987110 0.000000 0.000000 
#    y 0.000000 3.379390 0.000000 
#    z 0.000000 0.000000 3.315140 
# 
# 
# High freq. dielectric constant tensor:
#      x y z
#    x 1.660200 0.000000 0.000000 
#    y 0.000000 1.683100 0.000000 
#    z 0.000000 0.000000 1.683160 
# 
# From -- ./inp_files/5127.got.cif
#   From: 2010.03.12/outbox.cif.g09.slc.cpg/sg31_3_cif.got.tgz:5127.got - 2010.04.14 01:42:59.
