data_PCOD8170744
_publ_section_title
;
Structure prediction by ZEFSAII (Michael W. Deem and Ramdas Pophale) SiO2 
 PCOD8170744
Probable space group: P N A 21
;
_chemical_formula_sum "Si O2"
_cell_formula_units_Z 24
_cell_length_a 9.951436
_cell_length_b 13.462153
_cell_length_c 7.810811
_cell_angle_alpha 90.000000
_cell_angle_beta 90.000000
_cell_angle_gamma 90.000000
_cell_volume 1046.396807
_symmetry_space_group_name_H-M "P N A 21"
_symmetry_group_IT_number 33
_symmetry_cell_setting 'orthorhombic'
loop_
_space_group_symop_operation_xyz
x,y,z
-x,-y,1/2+z
1/2-x,1/2+y,1/2+z
1/2+x,1/2-y,z
loop_
_atom_site_type_symbol
_atom_site_label
_atom_site_fract_x
_atom_site_fract_y
_atom_site_fract_z
Si Si1 0.155960 0.510031 0.045320
Si Si2 0.547305 0.728043 0.499617
Si Si3 0.308054 0.812075 0.328853
Si Si4 0.815430 0.050705 0.583100
Si Si5 0.423456 0.470838 0.209963
Si Si6 0.413958 0.081769 0.204096
O O1 0.298268 0.533697 0.134260
O O2 0.036514 0.498242 0.184212
O O3 0.165250 0.410138 0.937071
O O4 0.120631 0.594596 0.905723
O O5 0.435581 0.739365 0.348716
O O6 0.686971 0.749600 0.408493
O O7 0.537332 0.621401 0.588788
O O8 0.532985 0.811579 0.644961
O O9 0.267606 0.849599 0.137538
O O10 0.878582 0.065929 0.396551
O O11 0.715794 0.956022 0.596302
O O12 0.941232 0.037502 0.716746
#
# Coordination Sequence:
#
# PCOD8170744 Si02
#       6
#     4   4   4   4   4   4
#     4   9  19  35  57  86 116 153 195 237 294 364
#     4  10  20  38  61  88 121 155 197 257 308 350
#     4   9  20  37  57  83 117 154 196 242 300 357
#     4  11  22  39  60  86 119 164 206 244 302 378
#     4  11  22  39  61  86 120 160 205 251 303 366
#     4  10  19  36  60  85 119 158 197 245 301 359
#
# _framework density 22.935849000000001
#
# number of rings (size 3 to 8) (size 9 to 14) (size 15 to 20)
#    0.000    2.000    0.000    5.000    0.000    0.000 
#    0.000   16.667    0.000    0.000    0.000    0.000 
#    0.000    0.000    0.000    0.000    0.000    0.000 
#
# Total GULP energy -297476.680831 kJ/mol
# GULP energy per Si atom -12394.861701 kJ/mol
# Density = 2.288365 g / cm^3
# Si number density = 22.935849 Si / 1000 Ang^3
#
#
#
# Elastic Constant Matrix: (Units=GPa)
#
#
# Indices 1 2 3 4 5 6 
#
# 1 143.1134 22.4701 31.5815 0.0000 0.0000 0.0000
# 2 22.4701 33.6661 21.6526 0.0000 0.0000 0.0000
# 3 31.5815 21.6526 106.0361 0.0000 0.0000 0.0000
# 4 0.0000 0.0000 0.0000 25.5016 0.0000 0.0000
# 5 0.0000 0.0000 0.0000 0.0000 46.1884 0.0000
# 6 0.0000 0.0000 0.0000 0.0000 0.0000 26.4914
#
#
#
# Elastic Compliance Matrix: (Units=1/GPa)
#
#
# Indices 1 2 3 4 5 6 
#
# 1 0.008004 -0.004385 -0.001489 0.000000 0.000000 0.000000
# 2 -0.004385 0.036597 -0.006167 0.000000 0.000000 0.000000
# 3 -0.001489 -0.006167 0.011133 0.000000 0.000000 0.000000
# 4 0.000000 0.000000 0.000000 0.039213 0.000000 0.000000
# 5 0.000000 0.000000 0.000000 0.000000 0.021650 0.000000
# 6 0.000000 0.000000 0.000000 0.000000 0.000000 0.037748
#
#
# Mechanical properties :
#
#
# Convention : Reuss Voigt Hill
#
# Bulk Modulus (GPa) = 31.59246 48.24712 39.91979
# Shear Modulus (GPa) = 26.45800 33.44370 29.95085
#
# Velocity S-wave (km/s) = 3.40010 3.82270 3.61758
# Velocity P-wave (km/s) = 5.40541 6.36910 5.90694
#
# Compressibility (1/GPa) = 0.03165312
#
# Stress axis : x y z
#
# Youngs Moduli (GPa) = 124.93034 27.32491 89.81969
#
# Poissons Ratio (x) = 0.11982 0.13370
# Poissons Ratio (y) = 0.54783 0.55392
# Poissons Ratio (z) = 0.18597 0.16851
#
# Static dielectric constant tensor:
#      x y z
#    x 4.655800 0.000000 0.000000 
#    y 0.000000 3.749130 0.000000 
#    z 0.000000 0.000000 4.226180 
# 
# 
# High freq. dielectric constant tensor:
#      x y z
#    x 1.932360 0.000000 0.000000 
#    y 0.000000 1.870600 0.000000 
#    z 0.000000 0.000000 1.895310 
# 
# From -- ./inp_files/3163.got.cif
#   From: 2010.03.12/outbox.cif.g09.slc.cpg/sg33_2_cif.got.tgz:3163.got - 2010.04.14 01:49:19.
