data_PCOD8170513
_publ_section_title
;
Structure prediction by ZEFSAII (Michael W. Deem and Ramdas Pophale) SiO2 
 PCOD8170513
Probable space group: P B A 2
;
_chemical_formula_sum "Si O2"
_cell_formula_units_Z 24
_cell_length_a 15.202233
_cell_length_b 9.314577
_cell_length_c 8.633500
_cell_angle_alpha 90.000000
_cell_angle_beta 90.000000
_cell_angle_gamma 90.000000
_cell_volume 1222.524060
_symmetry_space_group_name_H-M "P B A 2"
_symmetry_group_IT_number 32
_symmetry_cell_setting 'orthorhombic'
loop_
_space_group_symop_operation_xyz
x,y,z
-x,-y,z
1/2-x,1/2+y,z
1/2+x,1/2-y,z
loop_
_atom_site_type_symbol
_atom_site_label
_atom_site_fract_x
_atom_site_fract_y
_atom_site_fract_z
Si Si1 0.265055 0.420537 0.423940
Si Si2 0.183491 0.192039 0.240090
Si Si3 0.570803 0.121396 0.424071
Si Si4 0.985171 0.835980 0.692861
Si Si5 0.324779 0.324616 0.751537
Si Si6 0.685432 0.379166 0.884184
O O1 0.265252 0.287740 0.302549
O O2 0.316407 0.548463 0.341424
O O3 0.163167 0.455777 0.472341
O O4 0.318929 0.381888 0.576413
O O5 0.091961 0.278400 0.273487
O O6 0.196015 0.164739 0.060742
O O7 0.537681 0.226773 0.557124
O O8 0.500000 0.000000 0.382330
O O9 0.073856 0.778202 0.775507
O O10 0.909128 0.831356 0.821403
O O11 0.000000 0.000000 0.633485
O O12 0.300359 0.450690 0.871583
O O13 0.261109 0.191725 0.779834
#
# Coordination Sequence:
#
# PCOD8170513 Si02
#       6
#     4   4   4   4   4   4
#     4  10  21  41  65  92 123 168 215 259 307 386
#     4  10  22  40  63  89 131 164 205 259 323 376
#     4  10  23  40  63  94 127 161 213 263 312 384
#     4  10  22  41  63  92 125 164 216 264 313 373
#     4  11  22  38  68  88 124 169 214 259 312 372
#     4  11  22  42  59  96 128 164 209 261 318 381
#
# _framework density 19.631516000000001
#
# number of rings (size 3 to 8) (size 9 to 14) (size 15 to 20)
#    1.000    0.667    1.667    4.000    4.667    0.000 
#    3.000    8.333    0.000    0.000    0.000    0.000 
#    0.000    0.000    0.000    0.000    0.000    0.000 
#
# Total GULP energy -297454.490899 kJ/mol
# GULP energy per Si atom -12393.937121 kJ/mol
# Density = 1.958683 g / cm^3
# Si number density = 19.631516 Si / 1000 Ang^3
#
#
#
# Elastic Constant Matrix: (Units=GPa)
#
#
# Indices 1 2 3 4 5 6 
#
# 1 102.9947 15.1780 14.5442 0.0000 0.0000 0.0000
# 2 15.1780 59.3679 36.8164 0.0000 0.0000 0.0000
# 3 14.5442 36.8164 90.5370 0.0000 0.0000 0.0000
# 4 0.0000 0.0000 0.0000 33.0557 0.0000 0.0000
# 5 0.0000 0.0000 0.0000 0.0000 14.3884 0.0000
# 6 0.0000 0.0000 0.0000 0.0000 0.0000 41.1785
#
#
#
# Elastic Compliance Matrix: (Units=1/GPa)
#
#
# Indices 1 2 3 4 5 6 
#
# 1 0.010129 -0.002114 -0.000768 0.000000 0.000000 0.000000
# 2 -0.002114 0.022965 -0.008999 0.000000 0.000000 0.000000
# 3 -0.000768 -0.008999 0.014828 0.000000 0.000000 0.000000
# 4 0.000000 0.000000 0.000000 0.030252 0.000000 0.000000
# 5 0.000000 0.000000 0.000000 0.000000 0.069500 0.000000
# 6 0.000000 0.000000 0.000000 0.000000 0.000000 0.024285
#
#
# Mechanical properties :
#
#
# Convention : Reuss Voigt Hill
#
# Bulk Modulus (GPa) = 41.38814 42.88632 42.13723
# Shear Modulus (GPa) = 24.53701 30.14857 27.34279
#
# Velocity S-wave (km/s) = 3.53920 3.92308 3.73607
# Velocity P-wave (km/s) = 6.15057 6.51259 6.33417
#
# Compressibility (1/GPa) = 0.02416151
#
# Stress axis : x y z
#
# Youngs Moduli (GPa) = 98.72530 43.54412 67.43996
#
# Poissons Ratio (x) = 0.09203 0.05178
# Poissons Ratio (y) = 0.20866 0.60690
# Poissons Ratio (z) = 0.07579 0.39186
#
# Static dielectric constant tensor:
#      x y z
#    x 3.674000 0.000000 0.000000 
#    y 0.000000 3.650960 0.000000 
#    z 0.000000 0.000000 3.316290 
# 
# 
# High freq. dielectric constant tensor:
#      x y z
#    x 1.766100 0.000000 0.000000 
#    y 0.000000 1.770930 0.000000 
#    z 0.000000 0.000000 1.748060 
# 
# From -- ./inp_files/2987.got.cif
#   From: 2010.03.12/outbox.cif.g09.slc.cpg/sg32_2_cif.got.tgz:2987.got - 2010.04.14 01:46:39.
