data_PCOD8170217
_publ_section_title
;
Structure prediction by ZEFSAII (Michael W. Deem and Ramdas Pophale) SiO2 
 PCOD8170217
Probable space group: P M N 21
;
_chemical_formula_sum "Si O2"
_cell_formula_units_Z 24
_cell_length_a 9.356170
_cell_length_b 15.072132
_cell_length_c 9.094988
_cell_angle_alpha 90.000000
_cell_angle_beta 90.000000
_cell_angle_gamma 90.000000
_cell_volume 1282.551827
_symmetry_space_group_name_H-M "P M N 21"
_symmetry_group_IT_number 31
_symmetry_cell_setting 'orthorhombic'
loop_
_space_group_symop_operation_xyz
x,y,z
1/2-x,-y,1/2+z
-x,y,z
1/2+x,-y,1/2+z
loop_
_atom_site_type_symbol
_atom_site_label
_atom_site_fract_x
_atom_site_fract_y
_atom_site_fract_z
Si Si1 0.165610 0.436780 0.297200
Si Si2 0.661336 0.912778 0.950894
Si Si3 0.833824 0.600364 0.506865
Si Si4 0.330232 0.720513 0.006559
Si Si5 0.659932 0.941934 0.291261
Si Si6 0.331019 0.742036 0.334656
O O1 0.186289 0.530086 0.376913
O O2 0.262040 0.438259 0.153027
O O3 0.223156 0.359888 0.405877
O O4 0.000000 0.420238 0.255816
O O5 0.500000 0.911468 0.892564
O O6 0.728176 0.813468 0.940215
O O7 0.743711 0.979541 0.848142
O O8 0.668779 0.945553 0.116864
O O9 0.755797 0.690907 0.460511
O O10 0.000000 0.618897 0.538639
O O11 0.500000 0.727093 0.013142
O O12 0.278433 0.707230 0.174675
O O13 0.500000 0.959997 0.346132
O O14 0.708807 0.845707 0.350628
O O15 0.500000 0.726317 0.356518
#
# Coordination Sequence:
#
# PCOD8170217 Si02
#       6
#     4   4   4   4   4   4
#     4  10  21  37  56  77 104 139 174 208 255 314
#     4   9  18  33  53  76 103 135 174 220 260 300
#     4  11  23  36  54  82 109 134 171 216 257 301
#     4   8  16  34  57  76  97 135 181 214 252 311
#     4   9  19  34  52  76 104 138 177 212 257 314
#     4   9  18  36  58  75 101 141 177 212 257 310
#
# _framework density 18.712695
#
# number of rings (size 3 to 8) (size 9 to 14) (size 15 to 20)
#    0.000    2.667    0.000    3.500    0.000    5.333 
#    0.000    9.167    0.000    0.000    0.000    0.000 
#    0.000    0.000    0.000    0.000    0.000    0.000 
#
# Total GULP energy -297574.077798 kJ/mol
# GULP energy per Si atom -12398.919908 kJ/mol
# Density = 1.867010 g / cm^3
# Si number density = 18.712695 Si / 1000 Ang^3
#
#
#
# Elastic Constant Matrix: (Units=GPa)
#
#
# Indices 1 2 3 4 5 6 
#
# 1 53.4898 15.2796 16.8076 0.0000 0.0000 0.0000
# 2 15.2796 58.0336 0.5698 0.0000 0.0000 0.0000
# 3 16.8076 0.5698 34.8080 0.0000 0.0000 0.0000
# 4 0.0000 0.0000 0.0000 34.7349 0.0000 0.0000
# 5 0.0000 0.0000 0.0000 0.0000 31.6091 0.0000
# 6 0.0000 0.0000 0.0000 0.0000 0.0000 22.0517
#
#
#
# Elastic Compliance Matrix: (Units=1/GPa)
#
#
# Indices 1 2 3 4 5 6 
#
# 1 0.024100 -0.006232 -0.011535 0.000000 0.000000 0.000000
# 2 -0.006232 0.018846 0.002701 0.000000 0.000000 0.000000
# 3 -0.011535 0.002701 0.034255 0.000000 0.000000 0.000000
# 4 0.000000 0.000000 0.000000 0.028789 0.000000 0.000000
# 5 0.000000 0.000000 0.000000 0.000000 0.031636 0.000000
# 6 0.000000 0.000000 0.000000 0.000000 0.000000 0.045348
#
#
# Mechanical properties :
#
#
# Convention : Reuss Voigt Hill
#
# Bulk Modulus (GPa) = 21.24599 23.51615 22.38107
# Shear Modulus (GPa) = 21.85356 25.25745 23.55550
#
# Velocity S-wave (km/s) = 3.42108 3.67788 3.55180
# Velocity P-wave (km/s) = 5.19457 5.53443 5.36719
#
# Compressibility (1/GPa) = 0.04706770
#
# Stress axis : x y z
#
# Youngs Moduli (GPa) = 41.49399 53.06250 29.19315
#
# Poissons Ratio (x) = 0.33068 0.33674
# Poissons Ratio (y) = 0.25859 -0.07884
# Poissons Ratio (z) = 0.47863 -0.14330
#
# Static dielectric constant tensor:
#      x y z
#    x 3.291610 0.000000 0.000000 
#    y 0.000000 3.565160 0.000000 
#    z 0.000000 0.000000 3.335130 
# 
# 
# High freq. dielectric constant tensor:
#      x y z
#    x 1.703600 0.000000 0.000000 
#    y 0.000000 1.738600 0.000000 
#    z 0.000000 0.000000 1.723160 
# 
# From -- ./inp_files/1683.got.cif
#   From: 2010.03.12/outbox.cif.g09.slc.cpg/sg31_1_cif.got.tgz:1683.got - 2010.04.14 01:42:59.
