data_PCOD8170019
_publ_section_title
;
Structure prediction by ZEFSAII (Michael W. Deem and Ramdas Pophale) SiO2 
 PCOD8170019
Probable space group: P M N 21
;
_chemical_formula_sum "Si O2"
_cell_formula_units_Z 32
_cell_length_a 9.265153
_cell_length_b 13.560750
_cell_length_c 12.879475
_cell_angle_alpha 90.000000
_cell_angle_beta 90.000000
_cell_angle_gamma 90.000000
_cell_volume 1618.208453
_symmetry_space_group_name_H-M "P M N 21"
_symmetry_group_IT_number 31
_symmetry_cell_setting 'orthorhombic'
loop_
_space_group_symop_operation_xyz
x,y,z
1/2-x,-y,1/2+z
-x,y,z
1/2+x,-y,1/2+z
loop_
_atom_site_type_symbol
_atom_site_label
_atom_site_fract_x
_atom_site_fract_y
_atom_site_fract_z
Si Si1 0.830052 0.257375 0.177320
Si Si2 0.839964 0.554396 0.918790
Si Si3 0.672349 0.118794 0.015215
Si Si4 0.828586 0.174864 0.807337
Si Si5 0.158427 0.475725 0.134655
Si Si6 0.329891 0.902232 0.083657
Si Si7 0.331454 0.606280 0.259386
Si Si8 0.669253 0.750302 0.912520
O O1 0.776641 0.370986 0.172454
O O2 0.797257 0.217112 0.293474
O O3 0.000000 0.249307 0.149202
O O4 0.737680 0.198417 0.093426
O O5 0.778537 0.485654 0.828344
O O6 0.737014 0.645604 0.939496
O O7 0.000000 0.594960 0.892131
O O8 0.850267 0.475287 0.011054
O O9 0.500000 0.131441 0.008053
O O10 0.740953 0.126050 0.900966
O O11 0.718670 0.012913 0.059847
O O12 0.775586 0.126972 0.698722
O O13 0.782247 0.289375 0.804688
O O14 0.000000 0.160956 0.824837
O O15 0.251398 0.575362 0.154313
O O16 0.000000 0.487970 0.185008
O O17 0.500000 0.891382 0.080976
O O18 0.266551 0.830652 0.993437
O O19 0.500000 0.609756 0.238241
O O20 0.500000 0.737969 0.928270
#
# Coordination Sequence:
#
# PCOD8170019 Si02
#       8
#     4   4   4   4   4   4   4   4
#     4  10  21  38  61  88 120 159 197 235 291 358
#     4  10  20  33  52  82 121 152 182 233 285 329
#     4  11  24  40  61  89 118 150 196 254 300 341
#     4  10  21  41  63  84 117 159 198 237 294 364
#     4  10  20  35  55  83 118 154 192 234 278 335
#     4   9  21  40  62  88 116 149 195 250 299 346
#     4  10  20  35  57  83 113 152 191 229 278 339
#     4  10  20  38  63  87 115 155 199 238 283 352
#
# _framework density 19.774956
#
# number of rings (size 3 to 8) (size 9 to 14) (size 15 to 20)
#    0.000    2.000    1.250    1.875    1.750    5.000 
#    0.000    3.750    0.000    0.000    0.000    0.000 
#    0.000    0.000    0.000    0.000    0.000    0.000 
#
# Total GULP energy -396657.184094 kJ/mol
# GULP energy per Si atom -12395.537003 kJ/mol
# Density = 1.972995 g / cm^3
# Si number density = 19.774956 Si / 1000 Ang^3
#
#
#
# Elastic Constant Matrix: (Units=GPa)
#
#
# Indices 1 2 3 4 5 6 
#
# 1 51.2403 48.6567 44.1351 0.0000 0.0000 0.0000
# 2 48.6567 123.0137 57.3973 0.0000 0.0000 0.0000
# 3 44.1351 57.3973 125.8818 0.0000 0.0000 0.0000
# 4 0.0000 0.0000 0.0000 34.4927 0.0000 0.0000
# 5 0.0000 0.0000 0.0000 0.0000 28.2740 0.0000
# 6 0.0000 0.0000 0.0000 0.0000 0.0000 25.2319
#
#
#
# Elastic Compliance Matrix: (Units=1/GPa)
#
#
# Indices 1 2 3 4 5 6 
#
# 1 0.036550 -0.010769 -0.007905 0.000000 0.000000 0.000000
# 2 -0.010769 0.013499 -0.002379 0.000000 0.000000 0.000000
# 3 -0.007905 -0.002379 0.011800 0.000000 0.000000 0.000000
# 4 0.000000 0.000000 0.000000 0.028992 0.000000 0.000000
# 5 0.000000 0.000000 0.000000 0.000000 0.035368 0.000000
# 6 0.000000 0.000000 0.000000 0.000000 0.000000 0.039632
#
#
# Mechanical properties :
#
#
# Convention : Reuss Voigt Hill
#
# Bulk Modulus (GPa) = 50.64870 66.72378 58.68624
# Shear Modulus (GPa) = 23.30693 27.59616 25.45154
#
# Velocity S-wave (km/s) = 3.43681 3.73971 3.59145
# Velocity P-wave (km/s) = 6.43561 7.24307 6.85124
#
# Compressibility (1/GPa) = 0.01974384
#
# Stress axis : x y z
#
# Youngs Moduli (GPa) = 27.35956 74.08051 84.74376
#
# Poissons Ratio (x) = 0.79776 0.66987
# Poissons Ratio (y) = 0.29463 0.20163
# Poissons Ratio (z) = 0.21627 0.17626
#
# Static dielectric constant tensor:
#      x y z
#    x 3.412490 0.000000 0.000000 
#    y 0.000000 3.639640 0.000000 
#    z 0.000000 0.000000 3.792530 
# 
# 
# High freq. dielectric constant tensor:
#      x y z
#    x 1.749100 0.000000 0.000000 
#    y 0.000000 1.772540 0.000000 
#    z 0.000000 0.000000 1.788160 
# 
# From -- ./inp_files/3699.got.cif
#   From: 2010.03.12/outbox.cif.g09.slc.cpg/sg31_2_cif.got.tgz:3699.got - 2010.04.14 01:42:59.
