data_PCOD8170761
_publ_section_title
;
Structure prediction by ZEFSAII (Michael W. Deem and Ramdas Pophale) SiO2 
 PCOD8170761
Probable space group: P N A 21
;
_chemical_formula_sum "Si O2"
_cell_formula_units_Z 28
_cell_length_a 16.185887
_cell_length_b 17.243552
_cell_length_c 4.995130
_cell_angle_alpha 90.000000
_cell_angle_beta 90.000000
_cell_angle_gamma 90.000000
_cell_volume 1394.151693
_symmetry_space_group_name_H-M "P N A 21"
_symmetry_group_IT_number 33
_symmetry_cell_setting 'orthorhombic'
loop_
_space_group_symop_operation_xyz
x,y,z
-x,-y,1/2+z
1/2-x,1/2+y,1/2+z
1/2+x,1/2-y,z
loop_
_atom_site_type_symbol
_atom_site_label
_atom_site_fract_x
_atom_site_fract_y
_atom_site_fract_z
Si Si1 0.611745 0.294356 0.540540
Si Si2 0.284872 0.563402 0.119587
Si Si3 0.496607 0.690409 0.540660
Si Si4 0.525150 0.861799 0.609892
Si Si5 0.584617 0.122790 0.611383
Si Si6 0.680492 0.968585 0.617499
Si Si7 0.548416 0.526056 0.628476
O O1 0.693164 0.345611 0.589456
O O2 0.581712 0.309697 0.239316
O O3 0.633790 0.203997 0.583971
O O4 0.538127 0.319310 0.740809
O O5 0.256277 0.548491 0.421230
O O6 0.364570 0.511653 0.053848
O O7 0.211172 0.540919 0.920407
O O8 0.546642 0.770707 0.574808
O O9 0.557561 0.619132 0.602731
O O10 0.453902 0.887327 0.404607
O O11 0.607627 0.908869 0.555457
O O12 0.491381 0.880633 0.904364
O O13 0.650313 0.055591 0.563652
O O14 0.477530 0.495692 0.428782
#
# Coordination Sequence:
#
# PCOD8170761 Si02
#       7
#     4   4   4   4   4   4   4
#     4  10  20  38  61  83 114 150 194 241 290 343
#     4  12  24  38  58  86 127 159 184 243 306 352
#     4  10  19  37  62  88 106 146 207 241 284 336
#     4  10  21  39  65  87 114 153 201 255 281 347
#     4  10  21  40  66  86 111 158 205 240 285 352
#     4  12  24  40  57  92 122 154 196 239 310 348
#     4  12  21  38  63  82 114 156 201 241 276 348
#
# _framework density 20.083897
#
# number of rings (size 3 to 8) (size 9 to 14) (size 15 to 20)
#    0.000    1.143    2.857    4.286    0.000    0.000 
#    5.143    0.000    0.000    0.000    0.000    0.000 
#    0.000    0.000    0.000    0.000    0.000    0.000 
#
# Total GULP energy -347384.012434 kJ/mol
# GULP energy per Si atom -12406.571873 kJ/mol
# Density = 2.003819 g / cm^3
# Si number density = 20.083897 Si / 1000 Ang^3
#
#
#
# Elastic Constant Matrix: (Units=GPa)
#
#
# Indices 1 2 3 4 5 6 
#
# 1 69.1942 60.3329 6.9121 0.0000 0.0000 0.0000
# 2 60.3329 152.7085 20.1093 0.0000 0.0000 0.0000
# 3 6.9121 20.1093 75.9349 0.0000 0.0000 0.0000
# 4 0.0000 0.0000 0.0000 25.4795 0.0000 0.0000
# 5 0.0000 0.0000 0.0000 0.0000 29.9146 0.0000
# 6 0.0000 0.0000 0.0000 0.0000 0.0000 20.0412
#
#
#
# Elastic Compliance Matrix: (Units=1/GPa)
#
#
# Indices 1 2 3 4 5 6 
#
# 1 0.022054 -0.008754 0.000311 0.000000 0.000000 0.000000
# 2 -0.008754 0.010260 -0.001920 0.000000 0.000000 0.000000
# 3 0.000311 -0.001920 0.013649 0.000000 0.000000 0.000000
# 4 0.000000 0.000000 0.000000 0.039247 0.000000 0.000000
# 5 0.000000 0.000000 0.000000 0.000000 0.033428 0.000000
# 6 0.000000 0.000000 0.000000 0.000000 0.000000 0.049897
#
#
# Mechanical properties :
#
#
# Convention : Reuss Voigt Hill
#
# Bulk Modulus (GPa) = 39.62550 52.50514 46.06532
# Shear Modulus (GPa) = 25.29395 29.11928 27.20661
#
# Velocity S-wave (km/s) = 3.55267 3.81186 3.68455
# Velocity P-wave (km/s) = 6.04991 6.75081 6.40995
#
# Compressibility (1/GPa) = 0.02523628
#
# Stress axis : x y z
#
# Youngs Moduli (GPa) = 45.34297 97.46645 73.26326
#
# Poissons Ratio (x) = 0.85324 -0.02277
# Poissons Ratio (y) = 0.39694 0.14068
# Poissons Ratio (z) = -0.01409 0.18716
#
# Static dielectric constant tensor:
#      x y z
#    x 3.192910 0.000000 0.000000 
#    y 0.000000 3.979080 0.000000 
#    z 0.000000 0.000000 3.769890 
# 
# 
# High freq. dielectric constant tensor:
#      x y z
#    x 1.745800 0.000000 0.000000 
#    y 0.000000 1.803260 0.000000 
#    z 0.000000 0.000000 1.805120 
# 
# From -- ./inp_files/1447.got.cif
#   From: 2010.03.12/outbox.cif.g09.slc.cpg/sg33_1_cif.got.tgz:1447.got - 2010.04.14 01:49:19.
