data_PCOD8170905
_publ_section_title
;
Structure prediction by ZEFSAII (Michael W. Deem and Ramdas Pophale) SiO2 
 PCOD8170905
Probable space group: P N A 21
;
_chemical_formula_sum "Si O2"
_cell_formula_units_Z 28
_cell_length_a 5.397917
_cell_length_b 25.981264
_cell_length_c 8.443383
_cell_angle_alpha 90.000000
_cell_angle_beta 90.000000
_cell_angle_gamma 90.000000
_cell_volume 1184.139772
_symmetry_space_group_name_H-M "P N A 21"
_symmetry_group_IT_number 33
_symmetry_cell_setting 'orthorhombic'
loop_
_space_group_symop_operation_xyz
x,y,z
-x,-y,1/2+z
1/2-x,1/2+y,1/2+z
1/2+x,1/2-y,z
loop_
_atom_site_type_symbol
_atom_site_label
_atom_site_fract_x
_atom_site_fract_y
_atom_site_fract_z
Si Si1 0.445264 0.890505 0.281630
Si Si2 0.092625 0.406350 0.423729
Si Si3 0.473729 0.734242 0.708302
Si Si4 0.405976 0.449357 0.998871
Si Si5 0.601174 0.380566 0.245332
Si Si6 0.775405 0.494782 0.790910
Si Si7 0.469235 0.224724 0.860636
O O1 0.231867 0.903395 0.407290
O O2 0.644359 0.935820 0.289459
O O3 0.561273 0.835736 0.326004
O O4 0.349549 0.889118 0.101752
O O5 0.841672 0.380215 0.358354
O O6 0.341118 0.391457 0.330981
O O7 0.056289 0.468254 0.402143
O O8 0.736217 0.741475 0.803041
O O9 0.421151 0.675349 0.668333
O O10 0.527975 0.766452 0.548660
O O11 0.625003 0.422018 0.102614
O O12 0.229576 0.481714 0.115580
O O13 0.505293 0.491321 0.873414
O O14 0.226095 0.253014 0.786269
#
# Coordination Sequence:
#
# PCOD8170905 Si02
#       7
#     4   4   4   4   4   4   4
#     4  12  27  45  77 103 152 197 246 311 370 443
#     4  11  28  47  70 110 149 194 242 297 377 449
#     4  10  20  39  71 100 136 175 242 294 353 426
#     4  11  26  43  72 107 148 196 250 300 375 446
#     4  11  26  47  72 104 147 193 241 306 368 441
#     4  11  27  42  73 108 151 196 245 303 370 453
#     4  10  24  43  69 106 137 181 248 301 357 430
#
# _framework density 23.645858
#
# number of rings (size 3 to 8) (size 9 to 14) (size 15 to 20)
#    0.000    1.143    0.000    4.286   22.000    0.000 
#    0.000    4.286    0.000    0.000    0.000    0.000 
#    0.000    0.000    0.000    0.000    0.000    0.000 
#
# Total GULP energy -347008.099005 kJ/mol
# GULP energy per Si atom -12393.146393 kJ/mol
# Density = 2.359204 g / cm^3
# Si number density = 23.645858 Si / 1000 Ang^3
#
#
#
# Elastic Constant Matrix: (Units=GPa)
#
#
# Indices 1 2 3 4 5 6 
#
# 1 156.4527 39.6377 27.3948 0.0000 0.0000 0.0000
# 2 39.6377 155.4394 34.7403 0.0000 0.0000 0.0000
# 3 27.3948 34.7403 102.8798 0.0000 0.0000 0.0000
# 4 0.0000 0.0000 0.0000 28.7308 0.0000 0.0000
# 5 0.0000 0.0000 0.0000 0.0000 23.3812 0.0000
# 6 0.0000 0.0000 0.0000 0.0000 0.0000 31.1569
#
#
#
# Elastic Compliance Matrix: (Units=1/GPa)
#
#
# Indices 1 2 3 4 5 6 
#
# 1 0.007006 -0.001481 -0.001365 0.000000 0.000000 0.000000
# 2 -0.001481 0.007272 -0.002061 0.000000 0.000000 0.000000
# 3 -0.001365 -0.002061 0.010780 0.000000 0.000000 0.000000
# 4 0.000000 0.000000 0.000000 0.034806 0.000000 0.000000
# 5 0.000000 0.000000 0.000000 0.000000 0.042769 0.000000
# 6 0.000000 0.000000 0.000000 0.000000 0.000000 0.032096
#
#
# Mechanical properties :
#
#
# Convention : Reuss Voigt Hill
#
# Bulk Modulus (GPa) = 65.60878 68.70194 67.15536
# Shear Modulus (GPa) = 33.41694 37.52038 35.46866
#
# Velocity S-wave (km/s) = 3.76337 3.98774 3.87718
# Velocity P-wave (km/s) = 6.83305 7.09369 6.96459
#
# Compressibility (1/GPa) = 0.01524186
#
# Stress axis : x y z
#
# Youngs Moduli (GPa) = 142.73272 137.51777 92.76773
#
# Poissons Ratio (x) = 0.20372 0.12666
# Poissons Ratio (y) = 0.21145 0.19120
# Poissons Ratio (z) = 0.19488 0.28343
#
# Static dielectric constant tensor:
#      x y z
#    x 4.727600 0.000000 0.000000 
#    y 0.000000 4.415090 0.000000 
#    z 0.000000 0.000000 4.167980 
# 
# 
# High freq. dielectric constant tensor:
#      x y z
#    x 1.946930 0.000000 0.000000 
#    y 0.000000 1.949330 0.000000 
#    z 0.000000 0.000000 1.912610 
# 
# From -- ./inp_files/2747.got.cif
#   From: 2010.03.12/outbox.cif.g09.slc.cpg/sg33_2_cif.got.tgz:2747.got - 2010.04.14 01:49:19.
