data_PCOD8170267
_publ_section_title
;
Structure prediction by ZEFSAII (Michael W. Deem and Ramdas Pophale) SiO2 
 PCOD8170267
Probable space group: P M N 21
;
_chemical_formula_sum "Si O2"
_cell_formula_units_Z 32
_cell_length_a 14.361830
_cell_length_b 9.356409
_cell_length_c 11.640171
_cell_angle_alpha 90.000000
_cell_angle_beta 90.000000
_cell_angle_gamma 90.000000
_cell_volume 1564.149788
_symmetry_space_group_name_H-M "P M N 21"
_symmetry_group_IT_number 31
_symmetry_cell_setting 'orthorhombic'
loop_
_space_group_symop_operation_xyz
x,y,z
1/2-x,-y,1/2+z
-x,y,z
1/2+x,-y,1/2+z
loop_
_atom_site_type_symbol
_atom_site_label
_atom_site_fract_x
_atom_site_fract_y
_atom_site_fract_z
Si Si1 0.107097 0.207301 0.575800
Si Si2 0.106812 0.531249 0.968836
Si Si3 0.892257 0.843240 0.055006
Si Si4 0.105616 0.486425 0.702501
Si Si5 0.604071 0.060618 0.806939
Si Si6 0.603805 0.730512 0.820577
Si Si7 0.232579 0.958352 0.518037
Si Si8 0.270852 0.660755 0.622861
O O1 0.127674 0.319526 0.677369
O O2 0.133398 0.280516 0.453776
O O3 0.168224 0.065590 0.592980
O O4 0.000000 0.157903 0.573289
O O5 0.138099 0.686102 0.014467
O O6 0.167905 0.407033 0.022951
O O7 0.000000 0.502262 0.001654
O O8 0.122682 0.522817 0.833850
O O9 0.872608 0.852382 0.191396
O O10 0.828574 0.958228 0.987095
O O11 0.000000 0.875873 0.025270
O O12 0.171191 0.585191 0.625779
O O13 0.000000 0.520198 0.664737
O O14 0.500000 0.101940 0.850862
O O15 0.606667 0.893533 0.777884
O O16 0.680472 0.097109 0.903702
O O17 0.500000 0.667320 0.802947
O O18 0.675735 0.639805 0.744163
O O19 0.255736 0.826600 0.598859
#
# Coordination Sequence:
#
# PCOD8170267 Si02
#       8
#     4   4   4   4   4   4   4   4
#     4   9  20  42  67  86 118 165 206 254 309 370
#     4  10  24  44  62  87 124 166 208 256 309 369
#     4  10  21  39  62  86 122 171 212 256 313 370
#     4  10  24  44  62  87 128 168 206 252 312 373
#     4   9  19  38  61  88 123 159 203 260 310 364
#     4   9  18  36  62  90 118 153 203 256 304 357
#     4  11  22  34  62  97 124 156 208 262 314 371
#     4  12  24  35  62  93 125 158 204 258 309 368
#
# _framework density 20.458399
#
# number of rings (size 3 to 8) (size 9 to 14) (size 15 to 20)
#    0.000    2.000    1.250    2.250    5.250    3.500 
#    0.000    0.000    0.000    6.000    0.000    0.000 
#    0.000    0.000    0.000    0.000    0.000    0.000 
#
# Total GULP energy -396846.599558 kJ/mol
# GULP energy per Si atom -12401.456236 kJ/mol
# Density = 2.041184 g / cm^3
# Si number density = 20.458399 Si / 1000 Ang^3
#
#
#
# Elastic Constant Matrix: (Units=GPa)
#
#
# Indices 1 2 3 4 5 6 
#
# 1 117.4451 52.8046 42.1876 0.0000 0.0000 0.0000
# 2 52.8046 100.2843 40.3139 0.0000 0.0000 0.0000
# 3 42.1876 40.3139 80.7661 0.0000 0.0000 0.0000
# 4 0.0000 0.0000 0.0000 37.1028 0.0000 0.0000
# 5 0.0000 0.0000 0.0000 0.0000 29.7070 0.0000
# 6 0.0000 0.0000 0.0000 0.0000 0.0000 29.9080
#
#
#
# Elastic Compliance Matrix: (Units=1/GPa)
#
#
# Indices 1 2 3 4 5 6 
#
# 1 0.012072 -0.004781 -0.003919 0.000000 0.000000 0.000000
# 2 -0.004781 0.014368 -0.004674 0.000000 0.000000 0.000000
# 3 -0.003919 -0.004674 0.016762 0.000000 0.000000 0.000000
# 4 0.000000 0.000000 0.000000 0.026952 0.000000 0.000000
# 5 0.000000 0.000000 0.000000 0.000000 0.033662 0.000000
# 6 0.000000 0.000000 0.000000 0.000000 0.000000 0.033436
#
#
# Mechanical properties :
#
#
# Convention : Reuss Voigt Hill
#
# Bulk Modulus (GPa) = 60.78091 63.23420 62.00755
# Shear Modulus (GPa) = 29.50094 30.22286 29.86190
#
# Velocity S-wave (km/s) = 3.80148 3.84771 3.82467
# Velocity P-wave (km/s) = 7.00303 7.12149 7.06251
#
# Compressibility (1/GPa) = 0.01645253
#
# Stress axis : x y z
#
# Youngs Moduli (GPa) = 82.83586 69.59827 59.65902
#
# Poissons Ratio (x) = 0.33275 0.23383
# Poissons Ratio (y) = 0.39603 0.27888
# Poissons Ratio (z) = 0.32467 0.32534
#
# Static dielectric constant tensor:
#      x y z
#    x 3.966330 0.000000 0.000000 
#    y 0.000000 3.491770 0.000000 
#    z 0.000000 0.000000 3.535470 
# 
# 
# High freq. dielectric constant tensor:
#      x y z
#    x 1.819130 0.000000 0.000000 
#    y 0.000000 1.782260 0.000000 
#    z 0.000000 0.000000 1.787750 
# 
# From -- ./inp_files/4282.got.cif
#   From: 2010.03.12/outbox.cif.g09.slc.cpg/sg31_3_cif.got.tgz:4282.got - 2010.04.14 01:42:59.
