data_PCOD8170366
_publ_section_title
;
Structure prediction by ZEFSAII (Michael W. Deem and Ramdas Pophale) SiO2 
 PCOD8170366
Probable space group: P M N 21
;
_chemical_formula_sum "Si O2"
_cell_formula_units_Z 24
_cell_length_a 20.559782
_cell_length_b 11.575686
_cell_length_c 4.948077
_cell_angle_alpha 90.000000
_cell_angle_beta 90.000000
_cell_angle_gamma 90.000000
_cell_volume 1177.610563
_symmetry_space_group_name_H-M "P M N 21"
_symmetry_group_IT_number 31
_symmetry_cell_setting 'orthorhombic'
loop_
_space_group_symop_operation_xyz
x,y,z
1/2-x,-y,1/2+z
-x,y,z
1/2+x,-y,1/2+z
loop_
_atom_site_type_symbol
_atom_site_label
_atom_site_fract_x
_atom_site_fract_y
_atom_site_fract_z
Si Si1 0.627103 0.622351 0.113610
Si Si2 0.000000 0.683408 0.127037
Si Si3 0.689736 0.387772 0.062859
Si Si4 0.242617 0.927980 0.882771
Si Si5 0.678655 0.728382 0.627990
Si Si6 0.640085 0.259005 0.545287
Si Si7 0.000000 0.521036 0.634567
O O1 0.682549 0.525035 0.078612
O O2 0.648970 0.719922 0.329097
O O3 0.560266 0.562512 0.187529
O O4 0.621513 0.689353 0.830718
O O5 0.000000 0.577476 0.337962
O O6 0.065518 0.762097 0.147199
O O7 0.000000 0.626759 0.835536
O O8 0.761980 0.360627 0.159541
O O9 0.637452 0.331577 0.268528
O O10 0.678046 0.334334 0.767226
O O11 0.295506 0.853665 0.714945
O O12 0.178297 0.860127 0.984641
O O13 0.223052 0.022347 0.654065
#
# Coordination Sequence:
#
# PCOD8170366 Si02
#       7
#     4   2   4   4   4   4   2
#     4  12  21  37  55  88 124 166 192 232 290 367
#     4  12  20  40  56  89 124 161 198 242 290 377
#     4  11  20  36  55  91 122 158 187 240 296 370
#     4  11  23  42  64  88 115 156 210 274 328 351
#     4  11  23  36  60  86 118 154 202 247 304 360
#     4  11  21  36  62  88 121 156 200 247 312 363
#     4  12  24  36  60  81 132 173 196 226 286 371
#
# _framework density 20.380251000000001
#
# number of rings (size 3 to 8) (size 9 to 14) (size 15 to 20)
#    0.000    0.667    3.333    8.000    0.000    0.000 
#    0.000    0.000    0.000    6.000    0.000    0.000 
#    0.000    0.000    0.000    0.000    0.000    0.000 
#
# Total GULP energy -297498.494705 kJ/mol
# GULP energy per Si atom -12395.770613 kJ/mol
# Density = 2.033387 g / cm^3
# Si number density = 20.380251 Si / 1000 Ang^3
#
#
#
# Elastic Constant Matrix: (Units=GPa)
#
#
# Indices 1 2 3 4 5 6 
#
# 1 86.9542 35.6554 22.4343 0.0000 0.0000 0.0000
# 2 35.6554 72.2898 32.9378 0.0000 0.0000 0.0000
# 3 22.4343 32.9378 114.6914 0.0000 0.0000 0.0000
# 4 0.0000 0.0000 0.0000 42.9814 0.0000 0.0000
# 5 0.0000 0.0000 0.0000 0.0000 25.1409 0.0000
# 6 0.0000 0.0000 0.0000 0.0000 0.0000 19.9978
#
#
#
# Elastic Compliance Matrix: (Units=1/GPa)
#
#
# Indices 1 2 3 4 5 6 
#
# 1 0.014496 -0.006740 -0.000900 0.000000 0.000000 0.000000
# 2 -0.006740 0.019050 -0.004152 0.000000 0.000000 0.000000
# 3 -0.000900 -0.004152 0.010088 0.000000 0.000000 0.000000
# 4 0.000000 0.000000 0.000000 0.023266 0.000000 0.000000
# 5 0.000000 0.000000 0.000000 0.000000 0.039776 0.000000
# 6 0.000000 0.000000 0.000000 0.000000 0.000000 0.050006
#
#
# Mechanical properties :
#
#
# Convention : Reuss Voigt Hill
#
# Bulk Modulus (GPa) = 49.87822 50.66560 50.27191
# Shear Modulus (GPa) = 26.74543 29.81789 28.28166
#
# Velocity S-wave (km/s) = 3.62653 3.82917 3.72923
# Velocity P-wave (km/s) = 6.48556 6.66815 6.57749
#
# Compressibility (1/GPa) = 0.02004883
#
# Stress axis : x y z
#
# Youngs Moduli (GPa) = 68.98376 52.49478 99.13170
#
# Poissons Ratio (x) = 0.35381 0.08921
# Poissons Ratio (y) = 0.46494 0.41163
# Poissons Ratio (z) = 0.06208 0.21798
#
# Static dielectric constant tensor:
#      x y z
#    x 3.648700 0.000000 0.000000 
#    y 0.000000 3.518020 0.000000 
#    z 0.000000 0.000000 3.951510 
# 
# 
# High freq. dielectric constant tensor:
#      x y z
#    x 1.778800 0.000000 0.000000 
#    y 0.000000 1.768190 0.000000 
#    z 0.000000 0.000000 1.826150 
# 
# From -- ./inp_files/963.got.cif
#   From: 2010.03.12/outbox.cif.g09.slc.cpg/sg31_1_cif.got.tgz:963.got - 2010.04.14 01:42:59.
