data_PCOD8170788
_publ_section_title
;
Structure prediction by ZEFSAII (Michael W. Deem and Ramdas Pophale) SiO2 
 PCOD8170788
Probable space group: P N A 21
;
_chemical_formula_sum "Si O2"
_cell_formula_units_Z 32
_cell_length_a 15.483845
_cell_length_b 17.524401
_cell_length_c 5.581111
_cell_angle_alpha 90.000000
_cell_angle_beta 90.000000
_cell_angle_gamma 90.000000
_cell_volume 1514.407172
_symmetry_space_group_name_H-M "P N A 21"
_symmetry_group_IT_number 33
_symmetry_cell_setting 'orthorhombic'
loop_
_space_group_symop_operation_xyz
x,y,z
-x,-y,1/2+z
1/2-x,1/2+y,1/2+z
1/2+x,1/2-y,z
loop_
_atom_site_type_symbol
_atom_site_label
_atom_site_fract_x
_atom_site_fract_y
_atom_site_fract_z
Si Si1 0.926139 0.193810 0.027300
Si Si2 0.348456 0.195624 0.412598
Si Si3 0.536951 0.532927 0.614301
Si Si4 0.857351 0.577169 0.374198
Si Si5 0.181490 0.568803 0.592568
Si Si6 0.965284 0.344150 0.812453
Si Si7 0.712561 0.665686 0.150137
Si Si8 0.722224 0.536818 0.769813
O O1 0.876673 0.237962 0.234409
O O2 0.984125 0.124024 0.125283
O O3 0.983502 0.256365 0.887359
O O4 0.858551 0.150352 0.853021
O O5 0.289294 0.127846 0.302143
O O6 0.435252 0.158146 0.533478
O O7 0.289060 0.243143 0.597797
O O8 0.499382 0.500003 0.365524
O O9 0.640498 0.517063 0.604060
O O10 0.864455 0.504631 0.203141
O O11 0.806723 0.646471 0.250630
O O12 0.810430 0.554277 0.622424
O O13 0.954730 0.605341 0.395693
O O14 0.115674 0.619832 0.445620
O O15 0.260854 0.538215 0.433835
O O16 0.694301 0.610402 0.924739
#
# Coordination Sequence:
#
# PCOD8170788 Si02
#       8
#     4   4   4   4   4   4   4   4
#     4  10  21  43  68  91 132 177 232 275 361 412
#     4  10  20  41  67  90 132 179 229 281 356 412
#     4  12  26  44  77 105 138 188 238 301 351 420
#     4  11  23  39  68  97 136 179 232 277 353 425
#     4  10  24  37  65  99 135 179 226 286 351 419
#     4  10  24  40  66  99 134 180 228 294 346 419
#     4  10  19  39  71  91 126 184 227 277 345 431
#     4  11  23  43  68  96 139 182 232 283 357 430
#
# _framework density 21.130381
#
# number of rings (size 3 to 8) (size 9 to 14) (size 15 to 20)
#    0.000    1.500    2.500    1.500    7.000    3.000 
#    0.000    7.500    5.500    0.000    0.000    0.000 
#    0.000    0.000    0.000    0.000    0.000    0.000 
#
# Total GULP energy -396471.300458 kJ/mol
# GULP energy per Si atom -12389.728139 kJ/mol
# Density = 2.108229 g / cm^3
# Si number density = 21.130381 Si / 1000 Ang^3
#
#
#
# Elastic Constant Matrix: (Units=GPa)
#
#
# Indices 1 2 3 4 5 6 
#
# 1 55.7417 46.7614 29.6844 0.0000 0.0000 0.0000
# 2 46.7614 138.4002 48.9167 0.0000 0.0000 0.0000
# 3 29.6844 48.9167 107.1890 0.0000 0.0000 0.0000
# 4 0.0000 0.0000 0.0000 40.1002 0.0000 0.0000
# 5 0.0000 0.0000 0.0000 0.0000 24.8470 0.0000
# 6 0.0000 0.0000 0.0000 0.0000 0.0000 27.3167
#
#
#
# Elastic Compliance Matrix: (Units=1/GPa)
#
#
# Indices 1 2 3 4 5 6 
#
# 1 0.026304 -0.007527 -0.003850 0.000000 0.000000 0.000000
# 2 -0.007527 0.010769 -0.002830 0.000000 0.000000 0.000000
# 3 -0.003850 -0.002830 0.011687 0.000000 0.000000 0.000000
# 4 0.000000 0.000000 0.000000 0.024938 0.000000 0.000000
# 5 0.000000 0.000000 0.000000 0.000000 0.040246 0.000000
# 6 0.000000 0.000000 0.000000 0.000000 0.000000 0.036608
#
#
# Mechanical properties :
#
#
# Convention : Reuss Voigt Hill
#
# Bulk Modulus (GPa) = 49.14729 61.33955 55.24342
# Shear Modulus (GPa) = 26.91842 30.18401 28.55121
#
# Velocity S-wave (km/s) = 3.57307 3.78360 3.67984
# Velocity P-wave (km/s) = 6.35075 6.94116 6.65251
#
# Compressibility (1/GPa) = 0.02034700
#
# Stress axis : x y z
#
# Youngs Moduli (GPa) = 38.01683 92.86133 85.56583
#
# Poissons Ratio (x) = 0.69895 0.32940
# Poissons Ratio (y) = 0.28614 0.24215
# Poissons Ratio (z) = 0.14635 0.26280
#
# Static dielectric constant tensor:
#      x y z
#    x 3.453860 0.000000 0.000000 
#    y 0.000000 4.213310 0.000000 
#    z 0.000000 0.000000 4.222430 
# 
# 
# High freq. dielectric constant tensor:
#      x y z
#    x 1.785410 0.000000 0.000000 
#    y 0.000000 1.849020 0.000000 
#    z 0.000000 0.000000 1.846710 
# 
# From -- ./inp_files/1522.got.cif
#   From: 2010.03.12/outbox.cif.g09.slc.cpg/sg33_1_cif.got.tgz:1522.got - 2010.04.14 01:49:19.
