data_PCOD8170253
_publ_section_title
;
Structure prediction by ZEFSAII (Michael W. Deem and Ramdas Pophale) SiO2 
 PCOD8170253
Probable space group: P M N 21
;
_chemical_formula_sum "Si O2"
_cell_formula_units_Z 24
_cell_length_a 8.821773
_cell_length_b 11.973468
_cell_length_c 11.912247
_cell_angle_alpha 90.000000
_cell_angle_beta 90.000000
_cell_angle_gamma 90.000000
_cell_volume 1258.257495
_symmetry_space_group_name_H-M "P M N 21"
_symmetry_group_IT_number 31
_symmetry_cell_setting 'orthorhombic'
loop_
_space_group_symop_operation_xyz
x,y,z
1/2-x,-y,1/2+z
-x,y,z
1/2+x,-y,1/2+z
loop_
_atom_site_type_symbol
_atom_site_label
_atom_site_fract_x
_atom_site_fract_y
_atom_site_fract_z
Si Si1 0.323673 0.670748 0.500000
Si Si2 0.679274 0.157317 0.165172
Si Si3 0.821805 0.779782 0.907519
Si Si4 0.678661 0.419449 0.556876
Si Si5 0.678988 0.079613 0.618466
Si Si6 0.822814 0.278915 0.743390
O O1 0.500000 0.691854 0.526400
O O2 0.221317 0.750161 0.574829
O O3 0.275368 0.544690 0.527710
O O4 0.285587 0.694430 0.371495
O O5 0.500000 0.142657 0.170065
O O6 0.749011 0.194249 0.285787
O O7 0.751594 0.041353 0.130240
O O8 0.000000 0.776598 0.893077
O O9 0.765720 0.659960 0.954450
O O10 0.774133 0.875754 0.995414
O O11 0.500000 0.404453 0.575529
O O12 0.760937 0.382343 0.670805
O O13 0.500000 0.073550 0.632769
O O14 0.742682 0.162583 0.713015
O O15 0.000000 0.265719 0.721467
#
# Coordination Sequence:
#
# PCOD8170253 Si02
#       6
#     4   4   4   4   4   4
#     4  10  23  39  58  85 120 157 190 233 291 346
#     4  11  23  37  59  89 117 148 195 241 283 341
#     4   8  18  37  60  81 109 151 188 229 285 342
#     4   9  19  39  62  83 113 155 195 232 286 345
#     4  10  21  40  62  83 115 155 192 234 293 347
#     4  10  21  38  61  87 116 152 194 237 288 343
#
# _framework density 19.073998
#
# number of rings (size 3 to 8) (size 9 to 14) (size 15 to 20)
#    0.000    2.333    0.000    2.500    4.667    2.000 
#    0.000    7.500    0.000    0.000    0.000    0.000 
#    0.000    0.000    0.000    0.000    0.000    0.000 
#
# Total GULP energy -297630.317590 kJ/mol
# GULP energy per Si atom -12401.263233 kJ/mol
# Density = 1.903058 g / cm^3
# Si number density = 19.073998 Si / 1000 Ang^3
#
#
#
# Elastic Constant Matrix: (Units=GPa)
#
#
# Indices 1 2 3 4 5 6 
#
# 1 67.7470 59.4735 52.9504 0.0000 0.0000 0.0000
# 2 59.4735 171.2836 86.9104 0.0000 0.0000 0.0000
# 3 52.9504 86.9104 142.1483 0.0000 0.0000 0.0000
# 4 0.0000 0.0000 0.0000 23.4983 0.0000 0.0000
# 5 0.0000 0.0000 0.0000 0.0000 27.0231 0.0000
# 6 0.0000 0.0000 0.0000 0.0000 0.0000 30.2975
#
#
#
# Elastic Compliance Matrix: (Units=1/GPa)
#
#
# Indices 1 2 3 4 5 6 
#
# 1 0.023919 -0.005486 -0.005556 0.000000 0.000000 0.000000
# 2 -0.005486 0.009723 -0.003901 0.000000 0.000000 0.000000
# 3 -0.005556 -0.003901 0.011489 0.000000 0.000000 0.000000
# 4 0.000000 0.000000 0.000000 0.042556 0.000000 0.000000
# 5 0.000000 0.000000 0.000000 0.000000 0.037005 0.000000
# 6 0.000000 0.000000 0.000000 0.000000 0.000000 0.033006
#
#
# Mechanical properties :
#
#
# Convention : Reuss Voigt Hill
#
# Bulk Modulus (GPa) = 65.59191 86.64974 76.12083
# Shear Modulus (GPa) = 25.95164 28.28677 27.11920
#
# Velocity S-wave (km/s) = 3.69260 3.85515 3.77475
# Velocity P-wave (km/s) = 7.25556 8.08351 7.68070
#
# Compressibility (1/GPa) = 0.01524578
#
# Stress axis : x y z
#
# Youngs Moduli (GPa) = 41.80714 102.85393 87.03760
#
# Poissons Ratio (x) = 0.56430 0.48354
# Poissons Ratio (y) = 0.22937 0.33951
# Poissons Ratio (z) = 0.23226 0.40120
#
# Static dielectric constant tensor:
#      x y z
#    x 3.371110 0.000000 0.000000 
#    y 0.000000 3.631790 0.000000 
#    z 0.000000 0.000000 3.731960 
# 
# 
# High freq. dielectric constant tensor:
#      x y z
#    x 1.730460 0.000000 0.000000 
#    y 0.000000 1.752770 0.000000 
#    z 0.000000 0.000000 1.750560 
# 
# From -- ./inp_files/3439.got.cif
#   From: 2010.03.12/outbox.cif.g09.slc.cpg/sg31_2_cif.got.tgz:3439.got - 2010.04.14 01:42:59.
