data_PCOD8170004
_publ_section_title
;
Structure prediction by ZEFSAII (Michael W. Deem and Ramdas Pophale) SiO2 
 PCOD8170004
Probable space group: P M N 21
;
_chemical_formula_sum "Si O2"
_cell_formula_units_Z 32
_cell_length_a 8.644888
_cell_length_b 15.238721
_cell_length_c 12.070454
_cell_angle_alpha 90.000000
_cell_angle_beta 90.000000
_cell_angle_gamma 90.000000
_cell_volume 1590.125837
_symmetry_space_group_name_H-M "P M N 21"
_symmetry_group_IT_number 31
_symmetry_cell_setting 'orthorhombic'
loop_
_space_group_symop_operation_xyz
x,y,z
1/2-x,-y,1/2+z
-x,y,z
1/2+x,-y,1/2+z
loop_
_atom_site_type_symbol
_atom_site_label
_atom_site_fract_x
_atom_site_fract_y
_atom_site_fract_z
Si Si1 0.678759 0.601710 0.731100
Si Si2 0.815667 0.898606 0.730055
Si Si3 0.819071 0.594855 0.271018
Si Si4 0.682017 0.257323 0.390254
Si Si5 0.672407 0.355276 0.009204
Si Si6 0.672851 0.155088 0.994558
Si Si7 0.683875 0.088643 0.767937
Si Si8 0.681688 0.753109 0.132765
O O1 0.500000 0.611930 0.763706
O O2 0.730271 0.500372 0.727423
O O3 0.778346 0.656665 0.818617
O O4 0.705325 0.635268 0.606931
O O5 0.763203 0.830104 0.824746
O O6 0.748303 0.863185 0.612924
O O7 0.000000 0.907366 0.731346
O O8 0.735607 0.991198 0.742882
O O9 0.777454 0.590024 0.401493
O O10 0.726059 0.669151 0.206112
O O11 0.000000 0.614709 0.253649
O O12 0.500000 0.255809 0.410923
O O13 0.766776 0.262241 0.507027
O O14 0.500000 0.381978 0.051119
O O15 0.671807 0.256663 0.966210
O O16 0.500000 0.117192 0.003372
O O17 0.755395 0.109321 0.889717
O O18 0.500000 0.096745 0.768046
O O19 0.745206 0.156836 0.677244
O O20 0.500000 0.764646 0.136318
#
# Coordination Sequence:
#
# PCOD8170004 Si02
#       8
#     4   4   4   4   4   4   4   4
#     4  11  24  40  62  98 131 161 208 263 314 373
#     4  10  22  41  63  92 124 161 208 258 309 371
#     4  10  23  43  65  91 127 168 211 259 314 374
#     4  11  24  44  67  90 126 172 213 258 318 378
#     4  10  19  40  67  87 118 167 211 255 313 373
#     4   9  18  38  65  87 115 157 207 256 304 358
#     4  11  23  41  65  93 125 165 206 255 318 377
#     4  12  26  43  64  92 128 167 212 264 316 374
#
# _framework density 20.124193999999999
#
# number of rings (size 3 to 8) (size 9 to 14) (size 15 to 20)
#    0.000    1.500    2.500    2.250    3.500    2.500 
#    0.000    0.625    0.000    0.000    0.000    0.000 
#    0.000    0.000    0.000    0.000    0.000    0.000 
#
# Total GULP energy -396785.882094 kJ/mol
# GULP energy per Si atom -12399.558815 kJ/mol
# Density = 2.007839 g / cm^3
# Si number density = 20.124194 Si / 1000 Ang^3
#
#
#
# Elastic Constant Matrix: (Units=GPa)
#
#
# Indices 1 2 3 4 5 6 
#
# 1 56.9645 34.2640 25.5192 0.0000 0.0000 0.0000
# 2 34.2640 107.7321 33.9087 0.0000 0.0000 0.0000
# 3 25.5192 33.9087 110.8816 0.0000 0.0000 0.0000
# 4 0.0000 0.0000 0.0000 27.7116 0.0000 0.0000
# 5 0.0000 0.0000 0.0000 0.0000 22.9295 0.0000
# 6 0.0000 0.0000 0.0000 0.0000 0.0000 32.8346
#
#
#
# Elastic Compliance Matrix: (Units=1/GPa)
#
#
# Indices 1 2 3 4 5 6 
#
# 1 0.022779 -0.006191 -0.003349 0.000000 0.000000 0.000000
# 2 -0.006191 0.011953 -0.002231 0.000000 0.000000 0.000000
# 3 -0.003349 -0.002231 0.010472 0.000000 0.000000 0.000000
# 4 0.000000 0.000000 0.000000 0.036086 0.000000 0.000000
# 5 0.000000 0.000000 0.000000 0.000000 0.043612 0.000000
# 6 0.000000 0.000000 0.000000 0.000000 0.000000 0.030456
#
#
# Mechanical properties :
#
#
# Convention : Reuss Voigt Hill
#
# Bulk Modulus (GPa) = 46.16259 51.44021 48.80140
# Shear Modulus (GPa) = 26.86445 28.82088 27.84267
#
# Velocity S-wave (km/s) = 3.65764 3.78848 3.72363
# Velocity P-wave (km/s) = 6.38955 6.68982 6.54141
#
# Compressibility (1/GPa) = 0.02166256
#
# Stress axis : x y z
#
# Youngs Moduli (GPa) = 43.90036 83.65896 95.49592
#
# Poissons Ratio (x) = 0.51789 0.31985
# Poissons Ratio (y) = 0.27177 0.21302
# Poissons Ratio (z) = 0.14704 0.18662
#
# Static dielectric constant tensor:
#      x y z
#    x 3.538720 0.000000 0.000000 
#    y 0.000000 3.706330 0.000000 
#    z 0.000000 0.000000 3.908780 
# 
# 
# High freq. dielectric constant tensor:
#      x y z
#    x 1.768880 0.000000 0.000000 
#    y 0.000000 1.793970 0.000000 
#    z 0.000000 0.000000 1.802800 
# 
# From -- ./inp_files/3711.got.cif
#   From: 2010.03.12/outbox.cif.g09.slc.cpg/sg31_2_cif.got.tgz:3711.got - 2010.04.14 01:42:59.
