data_PCOD8170611
_publ_section_title
;
Structure prediction by ZEFSAII (Michael W. Deem and Ramdas Pophale) SiO2 
 PCOD8170611
Probable space group: P B A 2
;
_chemical_formula_sum "Si O2"
_cell_formula_units_Z 22
_cell_length_a 13.379731
_cell_length_b 10.403237
_cell_length_c 6.021892
_cell_angle_alpha 90.000000
_cell_angle_beta 90.000000
_cell_angle_gamma 90.000000
_cell_volume 838.202278
_symmetry_space_group_name_H-M "P B A 2"
_symmetry_group_IT_number 32
_symmetry_cell_setting 'orthorhombic'
loop_
_space_group_symop_operation_xyz
x,y,z
-x,-y,z
1/2-x,1/2+y,z
1/2+x,1/2-y,z
loop_
_atom_site_type_symbol
_atom_site_label
_atom_site_fract_x
_atom_site_fract_y
_atom_site_fract_z
Si Si1 0.861941 0.032198 0.180820
Si Si2 0.920560 0.822825 0.507484
Si Si3 0.662492 0.063711 0.412386
Si Si4 0.500000 0.000000 0.103224
Si Si5 0.944262 0.246018 0.900196
Si Si6 0.259420 0.099200 0.787705
O O1 0.774003 0.095467 0.328064
O O2 0.929225 0.934372 0.325025
O O3 0.940012 0.140927 0.098130
O O4 0.809187 0.961057 0.976835
O O5 0.914259 0.682916 0.397582
O O6 0.812427 0.832735 0.616317
O O7 0.012685 0.827016 0.681396
O O8 0.602031 0.970059 0.242749
O O9 0.670478 0.004869 0.660267
O O10 0.487088 0.870453 0.954398
O O11 0.829526 0.286690 0.871149
#
# Coordination Sequence:
#
# PCOD8170611 Si02
#       6
#     4   4   4   2   4   4
#     4  11  26  50  78 113 163 210 262 333 411 477
#     4  11  27  48  78 115 155 211 263 329 406 481
#     4  11  24  47  78 113 156 201 270 326 400 483
#     4  12  26  46  82 118 152 220 272 340 404 478
#     4  12  26  49  82 113 165 207 274 337 399 495
#     4  11  24  50  77 116 153 214 263 330 407 475
#
# _framework density 26.246644
#
# number of rings (size 3 to 8) (size 9 to 14) (size 15 to 20)
#    0.000    0.727    1.818    4.364    7.636    0.727 
#    9.818    0.000    0.000    0.000    0.000    0.000 
#    0.000    0.000    0.000    0.000    0.000    0.000 
#
# Total GULP energy -272813.724963 kJ/mol
# GULP energy per Si atom -12400.623862 kJ/mol
# Density = 2.618691 g / cm^3
# Si number density = 26.246644 Si / 1000 Ang^3
#
#
#
# Elastic Constant Matrix: (Units=GPa)
#
#
# Indices 1 2 3 4 5 6 
#
# 1 100.5722 45.2186 39.0653 0.0000 0.0000 0.0000
# 2 45.2186 139.3025 69.5525 0.0000 0.0000 0.0000
# 3 39.0653 69.5525 123.5131 0.0000 0.0000 0.0000
# 4 0.0000 0.0000 0.0000 51.4989 0.0000 0.0000
# 5 0.0000 0.0000 0.0000 0.0000 67.3862 0.0000
# 6 0.0000 0.0000 0.0000 0.0000 0.0000 48.9387
#
#
#
# Elastic Compliance Matrix: (Units=1/GPa)
#
#
# Indices 1 2 3 4 5 6 
#
# 1 0.012073 -0.002799 -0.002242 0.000000 0.000000 0.000000
# 2 -0.002799 0.010636 -0.005104 0.000000 0.000000 0.000000
# 3 -0.002242 -0.005104 0.011679 0.000000 0.000000 0.000000
# 4 0.000000 0.000000 0.000000 0.019418 0.000000 0.000000
# 5 0.000000 0.000000 0.000000 0.000000 0.014840 0.000000
# 6 0.000000 0.000000 0.000000 0.000000 0.000000 0.020434
#
#
# Mechanical properties :
#
#
# Convention : Reuss Voigt Hill
#
# Bulk Modulus (GPa) = 70.93509 74.56230 72.74870
# Shear Modulus (GPa) = 43.83339 47.53485 45.68412
#
# Velocity S-wave (km/s) = 4.09107 4.26030 4.17654
# Velocity P-wave (km/s) = 7.02857 7.25742 7.14391
#
# Compressibility (1/GPa) = 0.01409740
#
# Stress axis : x y z
#
# Youngs Moduli (GPa) = 82.83200 94.02414 85.62114
#
# Poissons Ratio (x) = 0.26322 0.19196
# Poissons Ratio (y) = 0.23189 0.43698
# Poissons Ratio (z) = 0.18570 0.47987
#
# Static dielectric constant tensor:
#      x y z
#    x 4.601560 0.000000 0.000000 
#    y 0.000000 4.688410 0.000000 
#    z 0.000000 0.000000 4.958990 
# 
# 
# High freq. dielectric constant tensor:
#      x y z
#    x 2.068610 0.000000 0.000000 
#    y 0.000000 2.050120 0.000000 
#    z 0.000000 0.000000 2.061460 
# 
# From -- ./inp_files/1169.got.cif
#   From: 2010.03.12/outbox.cif.g09.slc.cpg/sg32_1_cif.got.tgz:1169.got - 2010.04.14 01:46:39.
