data_PCOD8170992
_publ_section_title
;
Structure prediction by ZEFSAII (Michael W. Deem and Ramdas Pophale) SiO2 
 PCOD8170992
Probable space group: P N A 21
;
_chemical_formula_sum "Si O2"
_cell_formula_units_Z 28
_cell_length_a 10.160218
_cell_length_b 5.412729
_cell_length_c 19.149058
_cell_angle_alpha 90.000000
_cell_angle_beta 90.000000
_cell_angle_gamma 90.000000
_cell_volume 1053.092997
_symmetry_space_group_name_H-M "P N A 21"
_symmetry_group_IT_number 33
_symmetry_cell_setting 'orthorhombic'
loop_
_space_group_symop_operation_xyz
x,y,z
-x,-y,1/2+z
1/2-x,1/2+y,1/2+z
1/2+x,1/2-y,z
loop_
_atom_site_type_symbol
_atom_site_label
_atom_site_fract_x
_atom_site_fract_y
_atom_site_fract_z
Si Si1 0.925819 0.693182 0.175810
Si Si2 0.305683 0.976213 0.968439
Si Si3 0.867382 0.927480 0.338768
Si Si4 0.222751 0.578845 0.810426
Si Si5 0.963527 0.813589 0.715023
Si Si6 0.110334 0.971653 0.434735
Si Si7 0.844957 0.101298 0.602494
O O1 0.945562 0.431559 0.215663
O O2 0.036928 0.702798 0.114435
O O3 0.784276 0.706699 0.140446
O O4 0.950055 0.932477 0.226913
O O5 0.257558 0.016984 0.888942
O O6 0.373786 0.240675 0.988918
O O7 0.406580 0.739396 0.973361
O O8 0.181931 0.938827 0.020549
O O9 0.831227 0.693621 0.285578
O O10 0.886897 0.201206 0.302909
O O11 0.996187 0.876860 0.383586
O O12 0.352709 0.682664 0.774165
O O13 0.253843 0.516961 0.891624
O O14 0.889722 0.843763 0.639726
#
# Coordination Sequence:
#
# PCOD8170992 Si02
#       7
#     4   4   4   4   4   4   4
#     4  10  25  41  65  93 131 164 225 260 332 382
#     4  10  23  37  60  87 124 159 215 255 325 376
#     4  10  21  38  62  90 122 163 206 265 315 384
#     4  10  21  40  60  92 121 162 210 257 320 383
#     4  10  24  40  65  94 131 170 219 270 329 388
#     4  10  22  38  60  89 123 162 210 260 323 375
#     4  10  26  42  66  95 132 174 221 269 330 392
#
# _framework density 26.588343999999999
#
# number of rings (size 3 to 8) (size 9 to 14) (size 15 to 20)
#    0.857    1.143    0.000    1.714    6.000    3.429 
#    0.000    0.000    0.000    0.000    0.000    0.000 
#    0.000    0.000    0.000    0.000    0.000    0.000 
#
# Total GULP energy -347035.012181 kJ/mol
# GULP energy per Si atom -12394.107578 kJ/mol
# Density = 2.652783 g / cm^3
# Si number density = 26.588344 Si / 1000 Ang^3
#
#
#
# Elastic Constant Matrix: (Units=GPa)
#
#
# Indices 1 2 3 4 5 6 
#
# 1 90.6201 40.4119 -2.5405 0.0000 0.0000 0.0000
# 2 40.4119 222.9128 38.6774 0.0000 0.0000 0.0000
# 3 -2.5405 38.6774 63.9573 0.0000 0.0000 0.0000
# 4 0.0000 0.0000 0.0000 32.6561 0.0000 0.0000
# 5 0.0000 0.0000 0.0000 0.0000 46.5525 0.0000
# 6 0.0000 0.0000 0.0000 0.0000 0.0000 37.8955
#
#
#
# Elastic Compliance Matrix: (Units=1/GPa)
#
#
# Indices 1 2 3 4 5 6 
#
# 1 0.012240 -0.002573 0.002042 0.000000 0.000000 0.000000
# 2 -0.002573 0.005553 -0.003460 0.000000 0.000000 0.000000
# 3 0.002042 -0.003460 0.017809 0.000000 0.000000 0.000000
# 4 0.000000 0.000000 0.000000 0.030622 0.000000 0.000000
# 5 0.000000 0.000000 0.000000 0.000000 0.021481 0.000000
# 6 0.000000 0.000000 0.000000 0.000000 0.000000 0.026388
#
#
# Mechanical properties :
#
#
# Convention : Reuss Voigt Hill
#
# Bulk Modulus (GPa) = 36.20634 58.95421 47.58027
# Shear Modulus (GPa) = 38.08575 43.48358 40.78466
#
# Velocity S-wave (km/s) = 3.78884 4.04844 3.92079
# Velocity P-wave (km/s) = 5.72603 6.63884 6.19926
#
# Compressibility (1/GPa) = 0.02761947
#
# Stress axis : x y z
#
# Youngs Moduli (GPa) = 81.69992 180.08364 56.15099
#
# Poissons Ratio (x) = 0.46342 -0.11468
# Poissons Ratio (y) = 0.21024 0.19430
# Poissons Ratio (z) = -0.16686 0.62314
#
# Static dielectric constant tensor:
#      x y z
#    x 4.476100 0.000000 0.000000 
#    y 0.000000 5.399960 0.000000 
#    z 0.000000 0.000000 4.687780 
# 
# 
# High freq. dielectric constant tensor:
#      x y z
#    x 2.068820 0.000000 0.000000 
#    y 0.000000 2.097230 0.000000 
#    z 0.000000 0.000000 2.073590 
# 
# From -- ./inp_files/9050.got.cif
#   From: 2010.03.12/outbox.cif.g09.slc.cpg/sg33_5_cif.got.tgz:9050.got - 2010.04.14 01:49:19.
