data_PCOD8170694
_publ_section_title
;
Structure prediction by ZEFSAII (Michael W. Deem and Ramdas Pophale) SiO2 
 PCOD8170694
Probable space group: P N A 21
;
_chemical_formula_sum "Si O2"
_cell_formula_units_Z 28
_cell_length_a 5.170456
_cell_length_b 20.559959
_cell_length_c 15.214016
_cell_angle_alpha 90.000000
_cell_angle_beta 90.000000
_cell_angle_gamma 90.000000
_cell_volume 1617.316285
_symmetry_space_group_name_H-M "P N A 21"
_symmetry_group_IT_number 33
_symmetry_cell_setting 'orthorhombic'
loop_
_space_group_symop_operation_xyz
x,y,z
-x,-y,1/2+z
1/2-x,1/2+y,1/2+z
1/2+x,1/2-y,z
loop_
_atom_site_type_symbol
_atom_site_label
_atom_site_fract_x
_atom_site_fract_y
_atom_site_fract_z
Si Si1 0.241525 0.934078 0.146830
Si Si2 0.017792 0.022147 0.009369
Si Si3 0.639043 0.208614 0.594423
Si Si4 0.086829 0.413730 0.276715
Si Si5 0.009735 0.444831 0.093494
Si Si6 0.601976 0.210707 0.390982
Si Si7 0.584839 0.492435 0.310366
O O1 0.325618 0.859182 0.145064
O O2 0.489500 0.981805 0.135342
O O3 0.123100 0.946817 0.244034
O O4 0.044842 0.954530 0.066284
O O5 0.261483 0.068839 0.031861
O O6 0.014625 0.011957 0.905946
O O7 0.763396 0.061775 0.035233
O O8 0.370589 0.242706 0.620892
O O9 0.637431 0.190826 0.492000
O O10 0.008783 0.395397 0.176269
O O11 0.154366 0.351225 0.332546
O O12 0.356827 0.451195 0.267099
O O13 0.852581 0.452855 0.322712
O O14 0.315885 0.235391 0.368340
#
# Coordination Sequence:
#
# PCOD8170694 Si02
#       7
#     4   4   4   4   4   4   4
#     4   9  21  34  51  74 109 131 173 216 257 319
#     4  10  19  32  49  76 107 131 163 213 272 312
#     4  10  22  33  49  71 102 143 175 205 255 309
#     4  11  19  35  51  77 104 140 175 218 255 325
#     4   9  19  33  50  74 105 132 166 210 276 303
#     4  10  21  34  49  77 107 141 180 209 253 322
#     4  11  21  31  55  79 102 140 176 215 280 310
#
# _framework density 17.312633000000002
#
# number of rings (size 3 to 8) (size 9 to 14) (size 15 to 20)
#    0.857    1.143    1.429    2.571    4.000    1.143 
#    0.000    0.000    0.000    0.000    0.000    6.000 
#    0.000    0.000    0.000    0.000    0.000    0.000 
#
# Total GULP energy -346974.279840 kJ/mol
# GULP energy per Si atom -12391.938566 kJ/mol
# Density = 1.727323 g / cm^3
# Si number density = 17.312633 Si / 1000 Ang^3
#
#
#
# Elastic Constant Matrix: (Units=GPa)
#
#
# Indices 1 2 3 4 5 6 
#
# 1 85.9801 9.3286 14.3452 0.0000 0.0000 0.0000
# 2 9.3286 59.2976 30.3929 0.0000 0.0000 0.0000
# 3 14.3452 30.3929 102.6396 0.0000 0.0000 0.0000
# 4 0.0000 0.0000 0.0000 28.5809 0.0000 0.0000
# 5 0.0000 0.0000 0.0000 0.0000 26.1769 0.0000
# 6 0.0000 0.0000 0.0000 0.0000 0.0000 13.4961
#
#
#
# Elastic Compliance Matrix: (Units=1/GPa)
#
#
# Indices 1 2 3 4 5 6 
#
# 1 0.011982 -0.001210 -0.001316 0.000000 0.000000 0.000000
# 2 -0.001210 0.020004 -0.005754 0.000000 0.000000 0.000000
# 3 -0.001316 -0.005754 0.011631 0.000000 0.000000 0.000000
# 4 0.000000 0.000000 0.000000 0.034988 0.000000 0.000000
# 5 0.000000 0.000000 0.000000 0.000000 0.038202 0.000000
# 6 0.000000 0.000000 0.000000 0.000000 0.000000 0.074095
#
#
# Mechanical properties :
#
#
# Convention : Reuss Voigt Hill
#
# Bulk Modulus (GPa) = 36.96235 39.56121 38.26178
# Shear Modulus (GPa) = 23.09672 26.57416 24.83544
#
# Velocity S-wave (km/s) = 3.65649 3.92210 3.79162
# Velocity P-wave (km/s) = 6.26281 6.58872 6.42783
#
# Compressibility (1/GPa) = 0.02705455
#
# Stress axis : x y z
#
# Youngs Moduli (GPa) = 83.46194 49.99051 85.97953
#
# Poissons Ratio (x) = 0.06050 0.11316
# Poissons Ratio (y) = 0.10101 0.49475
# Poissons Ratio (z) = 0.10985 0.28766
#
# Static dielectric constant tensor:
#      x y z
#    x 3.420820 0.000000 0.000000 
#    y 0.000000 2.787600 0.000000 
#    z 0.000000 0.000000 3.180860 
# 
# 
# High freq. dielectric constant tensor:
#      x y z
#    x 1.690860 0.000000 0.000000 
#    y 0.000000 1.616410 0.000000 
#    z 0.000000 0.000000 1.664360 
# 
# From -- ./inp_files/7464.got.cif
#   From: 2010.03.12/outbox.cif.g09.slc.cpg/sg33_4_cif.got.tgz:7464.got - 2010.04.14 01:49:19.
