data_PCOD8170248
_publ_section_title
;
Structure prediction by ZEFSAII (Michael W. Deem and Ramdas Pophale) SiO2 
 PCOD8170248
Probable space group: P M N 21
;
_chemical_formula_sum "Si O2"
_cell_formula_units_Z 24
_cell_length_a 8.898897
_cell_length_b 15.177976
_cell_length_c 8.801752
_cell_angle_alpha 90.000000
_cell_angle_beta 90.000000
_cell_angle_gamma 90.000000
_cell_volume 1188.828395
_symmetry_space_group_name_H-M "P M N 21"
_symmetry_group_IT_number 31
_symmetry_cell_setting 'orthorhombic'
loop_
_space_group_symop_operation_xyz
x,y,z
1/2-x,-y,1/2+z
-x,y,z
1/2+x,-y,1/2+z
loop_
_atom_site_type_symbol
_atom_site_label
_atom_site_fract_x
_atom_site_fract_y
_atom_site_fract_z
Si Si1 0.821886 0.264150 0.788160
Si Si2 0.822527 0.234053 0.451291
Si Si3 0.325247 0.933640 0.763234
Si Si4 0.674205 0.105698 0.951609
Si Si5 0.826217 0.401124 0.265960
Si Si6 0.827080 0.576583 0.447027
O O1 0.755230 0.243253 0.620882
O O2 0.765731 0.192127 0.907618
O O3 0.766648 0.359655 0.838442
O O4 0.000000 0.263352 0.789037
O O5 0.772621 0.140410 0.383348
O O6 0.763058 0.311963 0.342737
O O7 0.000000 0.242270 0.463541
O O8 0.500000 0.920747 0.721833
O O9 0.224545 0.926923 0.615434
O O10 0.292260 0.028836 0.832244
O O11 0.500000 0.129914 0.956843
O O12 0.804404 0.477826 0.388390
O O13 0.000000 0.391174 0.217292
O O14 0.728963 0.420465 0.118656
O O15 0.000000 0.605622 0.441935
#
# Coordination Sequence:
#
# PCOD8170248 Si02
#       6
#     4   4   4   4   4   4
#     4  11  22  39  62  84 114 157 198 239 294 348
#     4   9  19  37  60  84 110 149 198 237 278 344
#     4  10  21  38  60  85 116 155 196 238 288 346
#     4  11  23  38  58  88 121 152 195 244 287 341
#     4  10  21  38  60  85 116 155 196 238 288 346
#     4  11  23  38  58  88 121 152 195 244 287 341
#
# _framework density 20.187943000000001
#
# number of rings (size 3 to 8) (size 9 to 14) (size 15 to 20)
#    0.000    1.667    0.000    4.500    0.000    6.667 
#    0.000    3.333    0.000    0.000    0.000    0.000 
#    0.000    0.000    0.000    0.000    0.000    0.000 
#
# Total GULP energy -297739.250789 kJ/mol
# GULP energy per Si atom -12405.802116 kJ/mol
# Density = 2.014199 g / cm^3
# Si number density = 20.187943 Si / 1000 Ang^3
#
#
#
# Elastic Constant Matrix: (Units=GPa)
#
#
# Indices 1 2 3 4 5 6 
#
# 1 68.1134 23.9355 29.7526 0.0000 0.0000 0.0000
# 2 23.9355 68.1827 -8.1883 0.0000 0.0000 0.0000
# 3 29.7526 -8.1883 90.9120 0.0000 0.0000 0.0000
# 4 0.0000 0.0000 0.0000 33.8940 0.0000 0.0000
# 5 0.0000 0.0000 0.0000 0.0000 34.3125 0.0000
# 6 0.0000 0.0000 0.0000 0.0000 0.0000 27.4305
#
#
#
# Elastic Compliance Matrix: (Units=1/GPa)
#
#
# Indices 1 2 3 4 5 6 
#
# 1 0.020888 -0.008243 -0.007579 0.000000 0.000000 0.000000
# 2 -0.008243 0.018080 0.004326 0.000000 0.000000 0.000000
# 3 -0.007579 0.004326 0.013870 0.000000 0.000000 0.000000
# 4 0.000000 0.000000 0.000000 0.029504 0.000000 0.000000
# 5 0.000000 0.000000 0.000000 0.000000 0.029144 0.000000
# 6 0.000000 0.000000 0.000000 0.000000 0.000000 0.036456
#
#
# Mechanical properties :
#
#
# Convention : Reuss Voigt Hill
#
# Bulk Modulus (GPa) = 33.50455 35.35641 34.43048
# Shear Modulus (GPa) = 27.64252 31.24130 29.44191
#
# Velocity S-wave (km/s) = 3.70436 3.93812 3.82303
# Velocity P-wave (km/s) = 5.91006 6.18305 6.04809
#
# Compressibility (1/GPa) = 0.02984670
#
# Stress axis : x y z
#
# Youngs Moduli (GPa) = 47.87339 55.31068 72.10064
#
# Poissons Ratio (x) = 0.45593 0.54642
# Poissons Ratio (y) = 0.39462 -0.31191
# Poissons Ratio (z) = 0.36281 -0.23928
#
# Static dielectric constant tensor:
#      x y z
#    x 3.532790 0.000000 0.000000 
#    y 0.000000 3.843700 0.000000 
#    z 0.000000 0.000000 3.769780 
# 
# 
# High freq. dielectric constant tensor:
#      x y z
#    x 1.772560 0.000000 0.000000 
#    y 0.000000 1.805140 0.000000 
#    z 0.000000 0.000000 1.802330 
# 
# From -- ./inp_files/1670.got.cif
#   From: 2010.03.12/outbox.cif.g09.slc.cpg/sg31_1_cif.got.tgz:1670.got - 2010.04.14 01:42:59.
