data_PCOD8170343
_publ_section_title
;
Structure prediction by ZEFSAII (Michael W. Deem and Ramdas Pophale) SiO2 
 PCOD8170343
Probable space group: P M N 21
;
_chemical_formula_sum "Si O2"
_cell_formula_units_Z 24
_cell_length_a 11.978882
_cell_length_b 5.229129
_cell_length_c 17.110261
_cell_angle_alpha 90.000000
_cell_angle_beta 90.000000
_cell_angle_gamma 90.000000
_cell_volume 1071.771679
_symmetry_space_group_name_H-M "P M N 21"
_symmetry_group_IT_number 31
_symmetry_cell_setting 'orthorhombic'
loop_
_space_group_symop_operation_xyz
x,y,z
1/2-x,-y,1/2+z
-x,y,z
1/2+x,-y,1/2+z
loop_
_atom_site_type_symbol
_atom_site_label
_atom_site_fract_x
_atom_site_fract_y
_atom_site_fract_z
Si Si1 0.756470 0.779296 0.172660
Si Si2 0.289759 0.567725 0.939032
Si Si3 0.500000 0.186217 0.737137
Si Si4 0.000000 0.309353 0.343063
Si Si5 0.743444 0.265474 0.077359
Si Si6 0.126823 0.283111 0.830403
Si Si7 0.880166 0.957695 0.977172
O O1 0.745080 0.494901 0.138771
O O2 0.685205 0.798566 0.250882
O O3 0.888593 0.829930 0.184880
O O4 0.702720 0.006341 0.120114
O O5 0.394041 0.699632 0.899271
O O6 0.203990 0.494760 0.870594
O O7 0.220708 0.762504 0.994943
O O8 0.330025 0.344463 0.999702
O O9 0.500000 0.443547 0.788100
O O10 0.500000 0.946487 0.794060
O O11 0.863380 0.199227 0.036317
O O12 0.000000 0.385125 0.816132
O O13 0.123577 0.038253 0.886709
O O14 0.000000 0.831443 0.995612
#
# Coordination Sequence:
#
# PCOD8170343 Si02
#       7
#     4   4   2   2   4   4   4
#     4  12  25  45  67 102 144 178 225 280 350 410
#     4  11  23  47  70 103 137 180 237 281 339 407
#     4  12  26  44  70 110 134 183 222 298 345 410
#     4  12  26  44  78  98 140 181 236 286 341 414
#     4  11  26  43  67  99 143 182 220 280 344 410
#     4  10  23  43  72  98 133 179 232 284 333 403
#     4  10  22  43  72 102 132 177 230 285 336 400
#
# _framework density 22.392828999999999
#
# number of rings (size 3 to 8) (size 9 to 14) (size 15 to 20)
#    0.000    1.000    3.333    2.500    7.000    0.667 
#    3.000    0.000    0.000    0.000    0.000    0.000 
#    0.000    0.000    0.000    0.000    0.000    0.000 
#
# Total GULP energy -297358.639297 kJ/mol
# GULP energy per Si atom -12389.943304 kJ/mol
# Density = 2.234186 g / cm^3
# Si number density = 22.392829 Si / 1000 Ang^3
#
#
#
# Elastic Constant Matrix: (Units=GPa)
#
#
# Indices 1 2 3 4 5 6 
#
# 1 62.8049 -2.6889 -7.3626 0.0000 0.0000 0.0000
# 2 -2.6889 126.1320 25.9191 0.0000 0.0000 0.0000
# 3 -7.3626 25.9191 91.7576 0.0000 0.0000 0.0000
# 4 0.0000 0.0000 0.0000 47.5742 0.0000 0.0000
# 5 0.0000 0.0000 0.0000 0.0000 -3.6095 0.0000
# 6 0.0000 0.0000 0.0000 0.0000 0.0000 11.5759
#
#
#
# Elastic Compliance Matrix: (Units=1/GPa)
#
#
# Indices 1 2 3 4 5 6 
#
# 1 0.016074 0.000082 0.001267 0.000000 0.000000 0.000000
# 2 0.000082 0.008417 -0.002371 0.000000 0.000000 0.000000
# 3 0.001267 -0.002371 0.011670 0.000000 0.000000 0.000000
# 4 0.000000 0.000000 0.000000 0.021020 0.000000 0.000000
# 5 0.000000 0.000000 0.000000 0.000000 -0.277045 0.000000
# 6 0.000000 0.000000 0.000000 0.000000 0.000000 0.086386
#
#
# Mechanical properties :
#
#
# Convention : Reuss Voigt Hill
#
# Bulk Modulus (GPa) = 29.31092 34.71442 32.01267
# Shear Modulus (GPa) = -41.64553 28.76323 -6.44115
#
# Velocity S-wave (km/s) = -4.31718 3.58786 -1.69785
# Velocity P-wave (km/s) = 3.42534 5.71837 3.23781
#
# Compressibility (1/GPa) = 0.03411698
#
# Stress axis : x y z
#
# Youngs Moduli (GPa) = 62.21101 118.80456 85.69235
#
# Poissons Ratio (x) = -0.00979 -0.10853
# Poissons Ratio (y) = -0.00513 0.20318
# Poissons Ratio (z) = -0.07879 0.28169
#
# Static dielectric constant tensor:
#      x y z
#    x 3.922510 0.000000 0.000000 
#    y 0.000000 4.061230 0.000000 
#    z 0.000000 0.000000 4.270750 
# 
# 
# High freq. dielectric constant tensor:
#      x y z
#    x 1.857190 0.000000 0.000000 
#    y 0.000000 1.887540 0.000000 
#    z 0.000000 0.000000 1.905360 
# 
# From -- ./inp_files/5968.got.cif
#   From: 2010.03.12/outbox.cif.g09.slc.cpg/sg31_3_cif.got.tgz:5968.got - 2010.04.14 01:42:59.
