data_PCOD8170482
_publ_section_title
;
Structure prediction by ZEFSAII (Michael W. Deem and Ramdas Pophale) SiO2 
 PCOD8170482
Probable space group: P B A 2
;
_chemical_formula_sum "Si O2"
_cell_formula_units_Z 26
_cell_length_a 12.756420
_cell_length_b 18.208428
_cell_length_c 4.989895
_cell_angle_alpha 90.000000
_cell_angle_beta 90.000000
_cell_angle_gamma 90.000000
_cell_volume 1159.024643
_symmetry_space_group_name_H-M "P B A 2"
_symmetry_group_IT_number 32
_symmetry_cell_setting 'orthorhombic'
loop_
_space_group_symop_operation_xyz
x,y,z
-x,-y,z
1/2-x,1/2+y,z
1/2+x,1/2-y,z
loop_
_atom_site_type_symbol
_atom_site_label
_atom_site_fract_x
_atom_site_fract_y
_atom_site_fract_z
Si Si1 0.213845 0.084426 0.975430
Si Si2 0.500000 0.000000 0.374550
Si Si3 0.788877 0.081228 0.773645
Si Si4 0.656672 0.881943 0.498034
Si Si5 0.339945 0.884475 0.250714
Si Si6 0.998188 0.740737 0.358160
Si Si7 0.001619 0.160796 0.858794
O O1 0.282080 0.133346 0.771913
O O2 0.095380 0.112229 0.976808
O O3 0.217120 0.001617 0.873754
O O4 0.262482 0.091896 0.269830
O O5 0.570992 0.946059 0.555812
O O6 0.425858 0.948348 0.192713
O O7 0.741295 0.089682 0.478345
O O8 0.908134 0.106881 0.776946
O O9 0.721365 0.130819 0.976693
O O10 0.600908 0.805920 0.428434
O O11 0.395426 0.808697 0.323368
O O12 0.966075 0.796474 0.591427
O O13 0.030653 0.781931 0.087405
#
# Coordination Sequence:
#
# PCOD8170482 Si02
#       7
#     4   2   4   4   4   4   4
#     4  12  24  44  67 101 125 180 214 277 317 385
#     4  10  20  42  64 100 126 162 198 286 314 388
#     4  12  24  44  67 101 125 180 214 277 317 385
#     4  11  24  41  71  96 135 161 224 269 336 376
#     4  11  24  41  71  96 135 161 224 269 336 376
#     4  11  26  45  63 104 125 184 208 272 329 390
#     4  12  27  44  66  89 146 172 226 252 318 401
#
# _framework density 22.432653999999999
#
# number of rings (size 3 to 8) (size 9 to 14) (size 15 to 20)
#    0.000    0.615    3.077    4.154    0.000   12.308 
#    0.000    4.615    0.000    0.000    0.000    0.000 
#    0.000    0.000    0.000    0.000    0.000    0.000 
#
# Total GULP energy -322529.890303 kJ/mol
# GULP energy per Si atom -12404.995781 kJ/mol
# Density = 2.238160 g / cm^3
# Si number density = 22.432654 Si / 1000 Ang^3
#
#
#
# Elastic Constant Matrix: (Units=GPa)
#
#
# Indices 1 2 3 4 5 6 
#
# 1 130.4548 32.5638 26.6287 0.0000 0.0000 0.0000
# 2 32.5638 49.6896 3.3501 0.0000 0.0000 0.0000
# 3 26.6287 3.3501 87.8867 0.0000 0.0000 0.0000
# 4 0.0000 0.0000 0.0000 27.2413 0.0000 0.0000
# 5 0.0000 0.0000 0.0000 0.0000 29.5388 0.0000
# 6 0.0000 0.0000 0.0000 0.0000 0.0000 23.2984
#
#
#
# Elastic Compliance Matrix: (Units=1/GPa)
#
#
# Indices 1 2 3 4 5 6 
#
# 1 0.009775 -0.006222 -0.002724 0.000000 0.000000 0.000000
# 2 -0.006222 0.024138 0.000965 0.000000 0.000000 0.000000
# 3 -0.002724 0.000965 0.012167 0.000000 0.000000 0.000000
# 4 0.000000 0.000000 0.000000 0.036709 0.000000 0.000000
# 5 0.000000 0.000000 0.000000 0.000000 0.033854 0.000000
# 6 0.000000 0.000000 0.000000 0.000000 0.000000 0.042921
#
#
# Mechanical properties :
#
#
# Convention : Reuss Voigt Hill
#
# Bulk Modulus (GPa) = 33.20455 43.67959 38.44207
# Shear Modulus (GPa) = 26.94472 29.71493 28.32983
#
# Velocity S-wave (km/s) = 3.46950 3.64349 3.55756
# Velocity P-wave (km/s) = 5.55733 6.10031 5.83514
#
# Compressibility (1/GPa) = 0.03011635
#
# Stress axis : x y z
#
# Youngs Moduli (GPa) = 102.30417 41.42928 82.18962
#
# Poissons Ratio (x) = 0.25778 0.22392
# Poissons Ratio (y) = 0.63655 -0.07933
# Poissons Ratio (z) = 0.27873 -0.03999
#
# Static dielectric constant tensor:
#      x y z
#    x 4.177440 0.000000 0.000000 
#    y 0.000000 4.131720 0.000000 
#    z 0.000000 0.000000 4.086690 
# 
# 
# High freq. dielectric constant tensor:
#      x y z
#    x 1.895860 0.000000 0.000000 
#    y 0.000000 1.889900 0.000000 
#    z 0.000000 0.000000 1.884060 
# 
# From -- ./inp_files/912.got.cif
#   From: 2010.03.12/outbox.cif.g09.slc.cpg/sg32_1_cif.got.tgz:912.got - 2010.04.14 01:46:39.
