data_PCOD8170279
_publ_section_title
;
Structure prediction by ZEFSAII (Michael W. Deem and Ramdas Pophale) SiO2 
 PCOD8170279
Probable space group: P M N 21
;
_chemical_formula_sum "Si O2"
_cell_formula_units_Z 28
_cell_length_a 12.696457
_cell_length_b 19.729968
_cell_length_c 5.312249
_cell_angle_alpha 90.000000
_cell_angle_beta 90.000000
_cell_angle_gamma 90.000000
_cell_volume 1330.722042
_symmetry_space_group_name_H-M "P M N 21"
_symmetry_group_IT_number 31
_symmetry_cell_setting 'orthorhombic'
loop_
_space_group_symop_operation_xyz
x,y,z
1/2-x,-y,1/2+z
-x,y,z
1/2+x,-y,1/2+z
loop_
_atom_site_type_symbol
_atom_site_label
_atom_site_fract_x
_atom_site_fract_y
_atom_site_fract_z
Si Si1 0.239944 0.767681 0.777990
Si Si2 0.382451 0.984516 0.236489
Si Si3 0.885172 0.474826 0.548254
Si Si4 0.882546 0.350415 0.185702
Si Si5 0.287752 0.402625 0.829297
Si Si6 0.193794 0.082630 0.236414
Si Si7 0.122881 0.733232 0.258660
O O1 0.328091 0.710259 0.843805
O O2 0.300260 0.836847 0.722158
O O3 0.169699 0.749736 0.533876
O O4 0.170176 0.777657 0.030232
O O5 0.500000 0.013181 0.228246
O O6 0.368675 0.941324 0.490274
O O7 0.309942 0.050644 0.232583
O O8 0.364329 0.937823 0.992858
O O9 0.889793 0.422569 0.319849
O O10 0.775059 0.459920 0.680476
O O11 0.874080 0.554528 0.483940
O O12 0.000000 0.468393 0.691916
O O13 0.000000 0.327840 0.101189
O O14 0.806233 0.359884 0.952204
O O15 0.355173 0.345806 0.682639
O O16 0.000000 0.748255 0.271544
#
# Coordination Sequence:
#
# PCOD8170279 Si02
#       7
#     4   4   4   4   4   4   4
#     4  11  23  43  63  91 128 162 203 252 304 369
#     4  10  21  39  64  94 129 165 208 257 304 360
#     4  11  21  36  57  80 108 150 200 249 309 364
#     4  10  22  38  57  82 114 155 199 247 305 366
#     4  11  21  39  57  84 115 153 201 266 308 367
#     4  10  22  40  63  95 129 166 208 255 306 363
#     4  11  24  41  63  90 123 163 207 256 310 369
#
# _framework density 21.041208000000001
#
# number of rings (size 3 to 8) (size 9 to 14) (size 15 to 20)
#    0.000    1.429    2.857    2.571    0.000    2.286 
#    0.000    1.429    0.000    0.000    0.000    0.000 
#    0.000    0.000    0.000    0.000    0.000    0.000 
#
# Total GULP energy -346916.071663 kJ/mol
# GULP energy per Si atom -12389.859702 kJ/mol
# Density = 2.099332 g / cm^3
# Si number density = 21.041208 Si / 1000 Ang^3
#
#
#
# Elastic Constant Matrix: (Units=GPa)
#
#
# Indices 1 2 3 4 5 6 
#
# 1 112.4338 8.5506 25.9413 0.0000 0.0000 0.0000
# 2 8.5506 60.7662 7.4057 0.0000 0.0000 0.0000
# 3 25.9413 7.4057 101.2067 0.0000 0.0000 0.0000
# 4 0.0000 0.0000 0.0000 20.4649 0.0000 0.0000
# 5 0.0000 0.0000 0.0000 0.0000 12.5696 0.0000
# 6 0.0000 0.0000 0.0000 0.0000 0.0000 14.7683
#
#
#
# Elastic Compliance Matrix: (Units=1/GPa)
#
#
# Indices 1 2 3 4 5 6 
#
# 1 0.009519 -0.001052 -0.002363 0.000000 0.000000 0.000000
# 2 -0.001052 0.016721 -0.000954 0.000000 0.000000 0.000000
# 3 -0.002363 -0.000954 0.010556 0.000000 0.000000 0.000000
# 4 0.000000 0.000000 0.000000 0.048864 0.000000 0.000000
# 5 0.000000 0.000000 0.000000 0.000000 0.079557 0.000000
# 6 0.000000 0.000000 0.000000 0.000000 0.000000 0.067713
#
#
# Mechanical properties :
#
#
# Convention : Reuss Voigt Hill
#
# Bulk Modulus (GPa) = 35.63891 39.80021 37.71956
# Shear Modulus (GPa) = 19.91870 25.06117 22.48993
#
# Velocity S-wave (km/s) = 3.08011 3.45491 3.27288
# Velocity P-wave (km/s) = 5.44278 5.90522 5.67871
#
# Compressibility (1/GPa) = 0.02805922
#
# Stress axis : x y z
#
# Youngs Moduli (GPa) = 105.04971 59.80597 94.73040
#
# Poissons Ratio (x) = 0.06289 0.22385
# Poissons Ratio (y) = 0.11046 0.09037
# Poissons Ratio (z) = 0.24824 0.05705
#
# Static dielectric constant tensor:
#      x y z
#    x 4.177630 0.000000 0.000000 
#    y 0.000000 3.777620 0.000000 
#    z 0.000000 0.000000 3.792650 
# 
# 
# High freq. dielectric constant tensor:
#      x y z
#    x 1.837810 0.000000 0.000000 
#    y 0.000000 1.820870 0.000000 
#    z 0.000000 0.000000 1.812750 
# 
# From -- ./inp_files/412.got.cif
#   From: 2010.03.12/outbox.cif.g09.slc.cpg/sg31_1_cif.got.tgz:412.got - 2010.04.14 01:42:59.
