data_PCOD8170061
_publ_section_title
;
Structure prediction by ZEFSAII (Michael W. Deem and Ramdas Pophale) SiO2 
 PCOD8170061
Probable space group: P M N 21
;
_chemical_formula_sum "Si O2"
_cell_formula_units_Z 24
_cell_length_a 9.191711
_cell_length_b 15.164349
_cell_length_c 9.227115
_cell_angle_alpha 90.000000
_cell_angle_beta 90.000000
_cell_angle_gamma 90.000000
_cell_volume 1286.133544
_symmetry_space_group_name_H-M "P M N 21"
_symmetry_group_IT_number 31
_symmetry_cell_setting 'orthorhombic'
loop_
_space_group_symop_operation_xyz
x,y,z
1/2-x,-y,1/2+z
-x,y,z
1/2+x,-y,1/2+z
loop_
_atom_site_type_symbol
_atom_site_label
_atom_site_fract_x
_atom_site_fract_y
_atom_site_fract_z
Si Si1 0.670237 0.408915 0.337680
Si Si2 0.670730 0.094020 0.828029
Si Si3 0.834224 0.236432 0.000343
Si Si4 0.330052 0.930031 0.028381
Si Si5 0.834001 0.433544 0.048604
Si Si6 0.329368 0.765967 0.832209
O O1 0.500000 0.391020 0.330109
O O2 0.725654 0.438404 0.181890
O O3 0.711057 0.487731 0.444391
O O4 0.747183 0.319838 0.392850
O O5 0.500000 0.103247 0.803849
O O6 0.732121 0.185797 0.887983
O O7 0.740753 0.069615 0.675450
O O8 0.709532 0.018505 0.942898
O O9 0.000000 0.205347 0.975919
O O10 0.816395 0.340166 0.966319
O O11 0.785232 0.215909 0.165413
O O12 0.500000 0.924445 0.065218
O O13 0.281262 0.848309 0.928788
O O14 0.000000 0.442711 0.104200
O O15 0.500000 0.746707 0.841636
#
# Coordination Sequence:
#
# PCOD8170061 Si02
#       6
#     4   4   4   4   4   4
#     4  10  20  34  55  82 108 138 180 226 266 307
#     4  11  23  37  56  83 109 136 177 224 263 306
#     4   9  18  36  58  77 105 144 179 214 263 322
#     4  10  22  39  57  78 108 145 177 210 264 325
#     4   9  20  37  54  76 109 146 179 214 265 324
#     4   9  19  37  58  78 105 143 180 214 263 324
#
# _framework density 18.660581000000001
#
# number of rings (size 3 to 8) (size 9 to 14) (size 15 to 20)
#    0.000    2.333    0.000    3.000    0.000    8.667 
#    0.000    5.000    0.000    0.000    0.000    0.000 
#    0.000    0.000    0.000    0.000    0.000    0.000 
#
# Total GULP energy -297669.925245 kJ/mol
# GULP energy per Si atom -12402.913552 kJ/mol
# Density = 1.861811 g / cm^3
# Si number density = 18.660581 Si / 1000 Ang^3
#
#
#
# Elastic Constant Matrix: (Units=GPa)
#
#
# Indices 1 2 3 4 5 6 
#
# 1 56.3976 28.7271 26.3220 0.0000 0.0000 0.0000
# 2 28.7271 71.0265 9.1885 0.0000 0.0000 0.0000
# 3 26.3220 9.1885 45.4129 0.0000 0.0000 0.0000
# 4 0.0000 0.0000 0.0000 35.8564 0.0000 0.0000
# 5 0.0000 0.0000 0.0000 0.0000 32.8877 0.0000
# 6 0.0000 0.0000 0.0000 0.0000 0.0000 29.5354
#
#
#
# Elastic Compliance Matrix: (Units=1/GPa)
#
#
# Indices 1 2 3 4 5 6 
#
# 1 0.030099 -0.010183 -0.015385 0.000000 0.000000 0.000000
# 2 -0.010183 0.017903 0.002280 0.000000 0.000000 0.000000
# 3 -0.015385 0.002280 0.030477 0.000000 0.000000 0.000000
# 4 0.000000 0.000000 0.000000 0.027889 0.000000 0.000000
# 5 0.000000 0.000000 0.000000 0.000000 0.030407 0.000000
# 6 0.000000 0.000000 0.000000 0.000000 0.000000 0.033858
#
#
# Mechanical properties :
#
#
# Convention : Reuss Voigt Hill
#
# Bulk Modulus (GPa) = 31.34692 33.47915 32.41304
# Shear Modulus (GPa) = 21.94494 26.89585 24.42039
#
# Velocity S-wave (km/s) = 3.43301 3.80059 3.62147
# Velocity P-wave (km/s) = 5.70518 6.10241 5.90713
#
# Compressibility (1/GPa) = 0.03190106
#
# Stress axis : x y z
#
# Youngs Moduli (GPa) = 33.22364 55.85656 32.81216
#
# Poissons Ratio (x) = 0.56881 0.50483
# Poissons Ratio (y) = 0.33833 -0.07481
# Poissons Ratio (z) = 0.51116 -0.12736
#
# Static dielectric constant tensor:
#      x y z
#    x 3.376040 0.000000 0.000000 
#    y 0.000000 3.595710 0.000000 
#    z 0.000000 0.000000 3.337860 
# 
# 
# High freq. dielectric constant tensor:
#      x y z
#    x 1.724470 0.000000 0.000000 
#    y 0.000000 1.737650 0.000000 
#    z 0.000000 0.000000 1.718370 
# 
# From -- ./inp_files/1685.got.cif
#   From: 2010.03.12/outbox.cif.g09.slc.cpg/sg31_1_cif.got.tgz:1685.got - 2010.04.14 01:42:59.
