data_PCOD8170346
_publ_section_title
;
Structure prediction by ZEFSAII (Michael W. Deem and Ramdas Pophale) SiO2 
 PCOD8170346
Probable space group: P M N 21
;
_chemical_formula_sum "Si O2"
_cell_formula_units_Z 20
_cell_length_a 10.264185
_cell_length_b 11.946432
_cell_length_c 7.965421
_cell_angle_alpha 90.000000
_cell_angle_beta 90.000000
_cell_angle_gamma 90.000000
_cell_volume 976.723015
_symmetry_space_group_name_H-M "P M N 21"
_symmetry_group_IT_number 31
_symmetry_cell_setting 'orthorhombic'
loop_
_space_group_symop_operation_xyz
x,y,z
1/2-x,-y,1/2+z
-x,y,z
1/2+x,-y,1/2+z
loop_
_atom_site_type_symbol
_atom_site_label
_atom_site_fract_x
_atom_site_fract_y
_atom_site_fract_z
Si Si1 0.646542 0.867483 0.763720
Si Si2 0.352604 0.076336 0.980149
Si Si3 0.645596 0.550026 0.241913
Si Si4 0.243829 0.348829 0.425183
Si Si5 0.644845 0.281315 0.753174
O O1 0.500000 0.886098 0.693133
O O2 0.751747 0.891316 0.622429
O O3 0.672110 0.950028 0.920054
O O4 0.656389 0.740301 0.826995
O O5 0.500000 0.089890 0.050511
O O6 0.330066 0.156728 0.820130
O O7 0.500000 0.578304 0.304274
O O8 0.678480 0.422212 0.288804
O O9 0.655062 0.568392 0.040267
O O10 0.747598 0.634439 0.333518
O O11 0.342617 0.282369 0.549727
O O12 0.500000 0.322839 0.802769
#
# Coordination Sequence:
#
# PCOD8170346 Si02
#       5
#     4   4   4   4   4
#     4  11  24  43  66  94 128 167 209 258 313 376
#     4  10  23  42  65  95 129 161 205 260 316 374
#     4  10  23  41  63  90 123 167 213 260 311 369
#     4  10  23  40  62  91 125 166 212 261 304 374
#     4   9  21  40  62  90 125 161 203 261 316 371
#
# _framework density 20.476635000000002
#
# number of rings (size 3 to 8) (size 9 to 14) (size 15 to 20)
#    1.200    0.800    0.000    2.400    2.800    4.800 
#    0.000    0.000    0.000    0.000    0.000    0.000 
#    0.000    0.000    0.000    0.000    0.000    0.000 
#
# Total GULP energy -247857.511091 kJ/mol
# GULP energy per Si atom -12392.875555 kJ/mol
# Density = 2.043003 g / cm^3
# Si number density = 20.476635 Si / 1000 Ang^3
#
#
#
# Elastic Constant Matrix: (Units=GPa)
#
#
# Indices 1 2 3 4 5 6 
#
# 1 150.2645 64.3236 54.6999 0.0000 0.0000 0.0000
# 2 64.3236 108.6831 47.5507 0.0000 0.0000 0.0000
# 3 54.6999 47.5507 89.1747 0.0000 0.0000 0.0000
# 4 0.0000 0.0000 0.0000 41.4580 0.0000 0.0000
# 5 0.0000 0.0000 0.0000 0.0000 23.8364 0.0000
# 6 0.0000 0.0000 0.0000 0.0000 0.0000 28.9335
#
#
#
# Elastic Compliance Matrix: (Units=1/GPa)
#
#
# Indices 1 2 3 4 5 6 
#
# 1 0.009816 -0.004141 -0.003813 0.000000 0.000000 0.000000
# 2 -0.004141 0.013748 -0.004791 0.000000 0.000000 0.000000
# 3 -0.003813 -0.004791 0.016107 0.000000 0.000000 0.000000
# 4 0.000000 0.000000 0.000000 0.024121 0.000000 0.000000
# 5 0.000000 0.000000 0.000000 0.000000 0.041953 0.000000
# 6 0.000000 0.000000 0.000000 0.000000 0.000000 0.034562
#
#
# Mechanical properties :
#
#
# Convention : Reuss Voigt Hill
#
# Bulk Modulus (GPa) = 70.51335 75.69673 73.10504
# Shear Modulus (GPa) = 29.32168 30.94879 30.13524
#
# Velocity S-wave (km/s) = 3.78823 3.89192 3.84042
# Velocity P-wave (km/s) = 7.32427 7.56595 7.44609
#
# Compressibility (1/GPa) = 0.01418171
#
# Stress axis : x y z
#
# Youngs Moduli (GPa) = 101.87927 72.73791 62.08428
#
# Poissons Ratio (x) = 0.30122 0.23671
# Poissons Ratio (y) = 0.42190 0.29742
# Poissons Ratio (z) = 0.38843 0.34846
#
# Static dielectric constant tensor:
#      x y z
#    x 3.671340 0.000000 0.000000 
#    y 0.000000 3.672250 0.000000 
#    z 0.000000 0.000000 3.367180 
# 
# 
# High freq. dielectric constant tensor:
#      x y z
#    x 1.804140 0.000000 0.000000 
#    y 0.000000 1.804030 0.000000 
#    z 0.000000 0.000000 1.775320 
# 
# From -- ./inp_files/1639.got.cif
#   From: 2010.03.12/outbox.cif.g09.slc.cpg/sg31_1_cif.got.tgz:1639.got - 2010.04.14 01:42:59.
