data_PCOD8170827
_publ_section_title
;
Structure prediction by ZEFSAII (Michael W. Deem and Ramdas Pophale) SiO2 
 PCOD8170827
Probable space group: P N A 21
;
_chemical_formula_sum "Si O2"
_cell_formula_units_Z 32
_cell_length_a 17.328643
_cell_length_b 17.396797
_cell_length_c 5.110501
_cell_angle_alpha 90.000000
_cell_angle_beta 90.000000
_cell_angle_gamma 90.000000
_cell_volume 1540.626373
_symmetry_space_group_name_H-M "P N A 21"
_symmetry_group_IT_number 33
_symmetry_cell_setting 'orthorhombic'
loop_
_space_group_symop_operation_xyz
x,y,z
-x,-y,1/2+z
1/2-x,1/2+y,1/2+z
1/2+x,1/2-y,z
loop_
_atom_site_type_symbol
_atom_site_label
_atom_site_fract_x
_atom_site_fract_y
_atom_site_fract_z
Si Si1 0.737512 0.603760 0.498950
Si Si2 0.786401 0.830573 0.668056
Si Si3 0.519104 0.956470 0.890231
Si Si4 0.407184 0.459959 0.216400
Si Si5 0.630254 0.115006 0.384161
Si Si6 0.421738 0.562896 0.718096
Si Si7 0.682992 0.972885 0.709252
Si Si8 0.280910 0.768622 0.163568
O O1 0.665533 0.598549 0.701038
O O2 0.814149 0.636365 0.642837
O O3 0.757613 0.518954 0.393373
O O4 0.719268 0.666473 0.268465
O O5 0.870760 0.860904 0.753839
O O6 0.728266 0.899675 0.601002
O O7 0.798933 0.789611 0.393567
O O8 0.752886 0.776476 0.901600
O O9 0.460671 0.886886 0.807464
O O10 0.609531 0.937920 0.866112
O O11 0.498936 0.026225 0.693452
O O12 0.398296 0.519357 0.452384
O O13 0.487876 0.413279 0.229904
O O14 0.403945 0.504611 0.946678
O O15 0.642029 0.181564 0.599271
O O16 0.654459 0.029230 0.479453
#
# Coordination Sequence:
#
# PCOD8170827 Si02
#       8
#     4   4   4   4   4   4   4   4
#     4  11  20  41  64  90 117 166 201 251 303 370
#     4  12  23  41  60  89 123 163 204 253 305 361
#     4  10  20  35  59  94 119 144 197 255 301 352
#     4  10  21  36  64  93 117 147 205 256 305 347
#     4  10  21  41  63  88 123 163 203 247 308 370
#     4  10  21  38  59  93 121 148 195 266 304 353
#     4  10  22  35  67  94 117 154 207 263 299 347
#     4  11  26  39  60  83 129 169 202 239 309 380
#
# _framework density 20.770773999999999
#
# number of rings (size 3 to 8) (size 9 to 14) (size 15 to 20)
#    0.000    1.500    3.750    1.500    3.500    0.000 
#    0.000    2.500    0.000    0.000    0.000    0.000 
#    0.000    0.000    0.000    0.000    0.000    0.000 
#
# Total GULP energy -396544.943204 kJ/mol
# GULP energy per Si atom -12392.029475 kJ/mol
# Density = 2.072350 g / cm^3
# Si number density = 20.770774 Si / 1000 Ang^3
#
#
#
# Elastic Constant Matrix: (Units=GPa)
#
#
# Indices 1 2 3 4 5 6 
#
# 1 108.4230 32.1335 -7.2253 0.0000 0.0000 0.0000
# 2 32.1335 97.2204 32.0766 0.0000 0.0000 0.0000
# 3 -7.2253 32.0766 120.5345 0.0000 0.0000 0.0000
# 4 0.0000 0.0000 0.0000 23.3581 0.0000 0.0000
# 5 0.0000 0.0000 0.0000 0.0000 25.4307 0.0000
# 6 0.0000 0.0000 0.0000 0.0000 0.0000 13.6620
#
#
#
# Elastic Compliance Matrix: (Units=1/GPa)
#
#
# Indices 1 2 3 4 5 6 
#
# 1 0.010536 -0.004046 0.001708 0.000000 0.000000 0.000000
# 2 -0.004046 0.012830 -0.003657 0.000000 0.000000 0.000000
# 3 0.001708 -0.003657 0.009372 0.000000 0.000000 0.000000
# 4 0.000000 0.000000 0.000000 0.042812 0.000000 0.000000
# 5 0.000000 0.000000 0.000000 0.000000 0.039323 0.000000
# 6 0.000000 0.000000 0.000000 0.000000 0.000000 0.073196
#
#
# Mechanical properties :
#
#
# Convention : Reuss Voigt Hill
#
# Bulk Modulus (GPa) = 48.19573 48.90525 48.55049
# Shear Modulus (GPa) = 24.15776 30.43637 27.29706
#
# Velocity S-wave (km/s) = 3.41407 3.83214 3.62913
# Velocity P-wave (km/s) = 6.22858 6.57090 6.40203
#
# Compressibility (1/GPa) = 0.02074873
#
# Stress axis : x y z
#
# Youngs Moduli (GPa) = 94.91164 77.94399 106.70172
#
# Poissons Ratio (x) = 0.31537 -0.18228
# Poissons Ratio (y) = 0.38402 0.39018
# Poissons Ratio (z) = -0.16214 0.28502
#
# Static dielectric constant tensor:
#      x y z
#    x 4.122180 0.000000 0.000000 
#    y 0.000000 3.648550 0.000000 
#    z 0.000000 0.000000 3.851100 
# 
# 
# High freq. dielectric constant tensor:
#      x y z
#    x 1.806370 0.000000 0.000000 
#    y 0.000000 1.783530 0.000000 
#    z 0.000000 0.000000 1.827840 
# 
# From -- ./inp_files/1889.got.cif
#   From: 2010.03.12/outbox.cif.g09.slc.cpg/sg33_1_cif.got.tgz:1889.got - 2010.04.14 01:49:19.
