data_PCOD8170932
_publ_section_title
;
Structure prediction by ZEFSAII (Michael W. Deem and Ramdas Pophale) SiO2 
 PCOD8170932
Probable space group: P N A 21
;
_chemical_formula_sum "Si O2"
_cell_formula_units_Z 32
_cell_length_a 9.865700
_cell_length_b 11.872708
_cell_length_c 13.442393
_cell_angle_alpha 90.000000
_cell_angle_beta 90.000000
_cell_angle_gamma 90.000000
_cell_volume 1574.542110
_symmetry_space_group_name_H-M "P N A 21"
_symmetry_group_IT_number 33
_symmetry_cell_setting 'orthorhombic'
loop_
_space_group_symop_operation_xyz
x,y,z
-x,-y,1/2+z
1/2-x,1/2+y,1/2+z
1/2+x,1/2-y,z
loop_
_atom_site_type_symbol
_atom_site_label
_atom_site_fract_x
_atom_site_fract_y
_atom_site_fract_z
Si Si1 0.364710 0.789153 0.825860
Si Si2 0.471330 0.495560 0.149905
Si Si3 0.366055 0.159597 0.216628
Si Si4 0.264486 0.749251 0.403057
Si Si5 0.723729 0.550070 0.279386
Si Si6 0.419322 0.583350 0.946862
Si Si7 0.187518 0.992612 0.846742
Si Si8 0.016057 0.766279 0.534730
O O1 0.515510 0.793749 0.785056
O O2 0.268764 0.731703 0.742111
O O3 0.376824 0.710725 0.922613
O O4 0.317237 0.912241 0.860056
O O5 0.600991 0.555401 0.200189
O O6 0.358463 0.477239 0.233195
O O7 0.512784 0.376791 0.100758
O O8 0.403135 0.572583 0.065302
O O9 0.411798 0.171595 0.102205
O O10 0.342041 0.027086 0.233478
O O11 0.284827 0.826460 0.304128
O O12 0.270523 0.619642 0.370814
O O13 0.117508 0.787018 0.443200
O O14 0.375209 0.776433 0.488039
O O15 0.678120 0.498392 0.385001
O O16 0.573931 0.550961 0.922115
#
# Coordination Sequence:
#
# PCOD8170932 Si02
#       8
#     4   4   4   4   4   4   4   4
#     4  11  21  40  65  95 134 167 222 276 332 382
#     4  11  20  44  68  92 128 184 224 257 346 420
#     4  11  22  38  66 100 127 169 227 283 319 390
#     4  12  25  43  66  97 141 173 216 281 345 398
#     4  10  23  41  64  98 136 172 218 284 339 390
#     4  10  20  42  66  92 128 178 224 267 333 404
#     4  11  23  40  66  95 134 175 215 279 336 392
#     4  12  22  40  71  99 122 178 238 273 318 404
#
# _framework density 20.323369
#
# number of rings (size 3 to 8) (size 9 to 14) (size 15 to 20)
#    0.000    1.000    5.000    3.750    1.750    0.000 
#    2.250    0.000    0.000    0.000    0.000    0.000 
#    0.000    0.000    0.000    0.000    0.000    0.000 
#
# Total GULP energy -396821.304889 kJ/mol
# GULP energy per Si atom -12400.665778 kJ/mol
# Density = 2.027711 g / cm^3
# Si number density = 20.323369 Si / 1000 Ang^3
#
#
#
# Elastic Constant Matrix: (Units=GPa)
#
#
# Indices 1 2 3 4 5 6 
#
# 1 65.2180 32.4517 15.9872 0.0000 0.0000 0.0000
# 2 32.4517 140.7423 46.6190 0.0000 0.0000 0.0000
# 3 15.9872 46.6190 92.9351 0.0000 0.0000 0.0000
# 4 0.0000 0.0000 0.0000 38.2933 0.0000 0.0000
# 5 0.0000 0.0000 0.0000 0.0000 26.5281 0.0000
# 6 0.0000 0.0000 0.0000 0.0000 0.0000 25.9809
#
#
#
# Elastic Compliance Matrix: (Units=1/GPa)
#
#
# Indices 1 2 3 4 5 6 
#
# 1 0.017427 -0.003628 -0.001178 0.000000 0.000000 0.000000
# 2 -0.003628 0.009276 -0.004029 0.000000 0.000000 0.000000
# 3 -0.001178 -0.004029 0.012984 0.000000 0.000000 0.000000
# 4 0.000000 0.000000 0.000000 0.026114 0.000000 0.000000
# 5 0.000000 0.000000 0.000000 0.000000 0.037696 0.000000
# 6 0.000000 0.000000 0.000000 0.000000 0.000000 0.038490
#
#
# Mechanical properties :
#
#
# Convention : Reuss Voigt Hill
#
# Bulk Modulus (GPa) = 45.41924 54.33460 49.87692
# Shear Modulus (GPa) = 29.94067 31.74963 30.84515
#
# Velocity S-wave (km/s) = 3.84241 3.95678 3.90002
# Velocity P-wave (km/s) = 6.48709 6.90420 6.69889
#
# Compressibility (1/GPa) = 0.02201710
#
# Stress axis : x y z
#
# Youngs Moduli (GPa) = 57.38138 107.80102 77.01795
#
# Poissons Ratio (x) = 0.39111 0.09072
# Poissons Ratio (y) = 0.20819 0.31032
# Poissons Ratio (z) = 0.06759 0.43435
#
# Static dielectric constant tensor:
#      x y z
#    x 3.641730 0.000000 0.000000 
#    y 0.000000 3.712310 0.000000 
#    z 0.000000 0.000000 3.778100 
# 
# 
# High freq. dielectric constant tensor:
#      x y z
#    x 1.790240 0.000000 0.000000 
#    y 0.000000 1.789050 0.000000 
#    z 0.000000 0.000000 1.788750 
# 
# From -- ./inp_files/7625.got.cif
#   From: 2010.03.12/outbox.cif.g09.slc.cpg/sg33_4_cif.got.tgz:7625.got - 2010.04.14 01:49:19.
