data_PCOD8170081
_publ_section_title
;
Structure prediction by ZEFSAII (Michael W. Deem and Ramdas Pophale) SiO2 
 PCOD8170081
Probable space group: P M N 21
;
_chemical_formula_sum "Si O2"
_cell_formula_units_Z 24
_cell_length_a 9.202493
_cell_length_b 15.203283
_cell_length_c 9.225960
_cell_angle_alpha 90.000000
_cell_angle_beta 90.000000
_cell_angle_gamma 90.000000
_cell_volume 1290.786584
_symmetry_space_group_name_H-M "P M N 21"
_symmetry_group_IT_number 31
_symmetry_cell_setting 'orthorhombic'
loop_
_space_group_symop_operation_xyz
x,y,z
1/2-x,-y,1/2+z
-x,y,z
1/2+x,-y,1/2+z
loop_
_atom_site_type_symbol
_atom_site_label
_atom_site_fract_x
_atom_site_fract_y
_atom_site_fract_z
Si Si1 0.830741 0.768864 0.630070
Si Si2 0.669578 0.749458 0.336516
Si Si3 0.170841 0.924968 0.839500
Si Si4 0.165525 0.574111 0.324837
Si Si5 0.163004 0.571332 0.663212
Si Si6 0.668346 0.914672 0.141651
O O1 0.740253 0.784674 0.484342
O O2 0.781562 0.839499 0.748489
O O3 0.799300 0.672833 0.696925
O O4 0.000000 0.777911 0.588009
O O5 0.500000 0.734174 0.364920
O O6 0.740391 0.658903 0.281600
O O7 0.697763 0.819842 0.210879
O O8 0.000000 0.926489 0.866588
O O9 0.223256 0.011019 0.753060
O O10 0.245900 0.922913 0.993687
O O11 0.177647 0.553970 0.493545
O O12 0.221345 0.488346 0.243529
O O13 0.000000 0.592508 0.278529
O O14 0.000000 0.548841 0.716646
O O15 0.500000 0.929577 0.106520
#
# Coordination Sequence:
#
# PCOD8170081 Si02
#       6
#     4   4   4   4   4   4
#     4   9  19  36  56  79 107 139 178 221 263 313
#     4  10  20  35  55  79 108 141 177 219 266 314
#     4  10  21  37  57  81 109 142 179 218 262 314
#     4  10  21  36  55  79 106 140 180 219 264 317
#     4   9  19  35  53  77 108 138 174 221 266 312
#     4  10  22  37  54  81 112 140 176 220 263 312
#
# _framework density 18.593312999999998
#
# number of rings (size 3 to 8) (size 9 to 14) (size 15 to 20)
#    0.000    2.333    0.000    3.000    0.000    7.333 
#    0.000    3.333    0.000    0.000    0.000    0.000 
#    0.000    0.000    0.000    0.000    0.000    0.000 
#
# Total GULP energy -297678.356474 kJ/mol
# GULP energy per Si atom -12403.264853 kJ/mol
# Density = 1.855099 g / cm^3
# Si number density = 18.593313 Si / 1000 Ang^3
#
#
#
# Elastic Constant Matrix: (Units=GPa)
#
#
# Indices 1 2 3 4 5 6 
#
# 1 79.9681 39.7436 37.2001 0.0000 0.0000 0.0000
# 2 39.7436 89.0780 30.7338 0.0000 0.0000 0.0000
# 3 37.2001 30.7338 61.2390 0.0000 0.0000 0.0000
# 4 0.0000 0.0000 0.0000 31.4126 0.0000 0.0000
# 5 0.0000 0.0000 0.0000 0.0000 38.4629 0.0000
# 6 0.0000 0.0000 0.0000 0.0000 0.0000 14.7303
#
#
#
# Elastic Compliance Matrix: (Units=1/GPa)
#
#
# Indices 1 2 3 4 5 6 
#
# 1 0.019478 -0.005573 -0.009035 0.000000 0.000000 0.000000
# 2 -0.005573 0.015172 -0.004229 0.000000 0.000000 0.000000
# 3 -0.009035 -0.004229 0.023940 0.000000 0.000000 0.000000
# 4 0.000000 0.000000 0.000000 0.031834 0.000000 0.000000
# 5 0.000000 0.000000 0.000000 0.000000 0.025999 0.000000
# 6 0.000000 0.000000 0.000000 0.000000 0.000000 0.067887
#
#
# Mechanical properties :
#
#
# Convention : Reuss Voigt Hill
#
# Bulk Modulus (GPa) = 47.81047 49.51558 48.66302
# Shear Modulus (GPa) = 21.83828 25.09498 23.46663
#
# Velocity S-wave (km/s) = 3.43085 3.67778 3.55646
# Velocity P-wave (km/s) = 6.43925 6.68756 6.56458
#
# Compressibility (1/GPa) = 0.02091592
#
# Stress axis : x y z
#
# Youngs Moduli (GPa) = 51.34082 65.91257 41.77095
#
# Poissons Ratio (x) = 0.36733 0.37740
# Poissons Ratio (y) = 0.28612 0.17664
# Poissons Ratio (z) = 0.46386 0.27873
#
# Static dielectric constant tensor:
#      x y z
#    x 3.439320 0.000000 0.000000 
#    y 0.000000 3.586500 0.000000 
#    z 0.000000 0.000000 3.257490 
# 
# 
# High freq. dielectric constant tensor:
#      x y z
#    x 1.723760 0.000000 0.000000 
#    y 0.000000 1.736400 0.000000 
#    z 0.000000 0.000000 1.714860 
# 
# From -- ./inp_files/1673.got.cif
#   From: 2010.03.12/outbox.cif.g09.slc.cpg/sg31_1_cif.got.tgz:1673.got - 2010.04.14 01:42:59.
