data_PCOD8170716
_publ_section_title
;
Structure prediction by ZEFSAII (Michael W. Deem and Ramdas Pophale) SiO2 
 PCOD8170716
Probable space group: P N A 21
;
_chemical_formula_sum "Si O2"
_cell_formula_units_Z 28
_cell_length_a 29.603507
_cell_length_b 9.410489
_cell_length_c 5.017752
_cell_angle_alpha 90.000000
_cell_angle_beta 90.000000
_cell_angle_gamma 90.000000
_cell_volume 1397.862799
_symmetry_space_group_name_H-M "P N A 21"
_symmetry_group_IT_number 33
_symmetry_cell_setting 'orthorhombic'
loop_
_space_group_symop_operation_xyz
x,y,z
-x,-y,1/2+z
1/2-x,1/2+y,1/2+z
1/2+x,1/2-y,z
loop_
_atom_site_type_symbol
_atom_site_label
_atom_site_fract_x
_atom_site_fract_y
_atom_site_fract_z
Si Si1 0.471647 0.967772 0.625000
Si Si2 0.220687 0.540021 0.182116
Si Si3 0.059842 0.004082 0.603221
Si Si4 0.367300 0.295278 0.214587
Si Si5 0.469956 0.652262 0.605989
Si Si6 0.879825 0.376612 0.716921
Si Si7 0.233690 0.734253 0.674020
O O1 0.461768 0.808490 0.712267
O O2 0.494312 0.961654 0.334308
O O3 0.423113 0.039951 0.614385
O O4 0.166144 0.531910 0.199411
O O5 0.242545 0.628326 0.426374
O O6 0.233671 0.372271 0.180640
O O7 0.237578 0.629178 0.926447
O O8 0.059503 0.052823 0.298500
O O9 0.109615 0.946867 0.665157
O O10 0.047239 0.131662 0.804335
O O11 0.023087 0.879408 0.642412
O O12 0.374699 0.257762 0.522184
O O13 0.314863 0.308326 0.146787
O O14 0.388717 0.176601 0.017438
#
# Coordination Sequence:
#
# PCOD8170716 Si02
#       7
#     4   4   4   4   4   4   4
#     4  12  23  37  56  81 111 147 194 230 282 341
#     4  10  21  40  61  90 122 157 197 249 299 360
#     4  10  19  35  51  74 107 140 178 225 270 316
#     4  10  20  37  60  82 108 151 194 220 282 355
#     4  10  21  33  51  75 107 140 178 226 272 318
#     4  10  21  37  58  82 114 149 187 234 283 338
#     4  10  21  39  63  90 119 156 202 240 302 360
#
# _framework density 20.030577000000001
#
# number of rings (size 3 to 8) (size 9 to 14) (size 15 to 20)
#    0.000    1.714    0.000    5.143    0.000    2.286 
#    5.143    0.000    0.000    0.000    0.000    0.000 
#    0.000    0.000    0.000    0.000    0.000    0.000 
#
# Total GULP energy -347144.575878 kJ/mol
# GULP energy per Si atom -12398.020567 kJ/mol
# Density = 1.998499 g / cm^3
# Si number density = 20.030577 Si / 1000 Ang^3
#
#
#
# Elastic Constant Matrix: (Units=GPa)
#
#
# Indices 1 2 3 4 5 6 
#
# 1 73.7793 33.7311 18.1648 0.0000 0.0000 0.0000
# 2 33.7311 76.2305 14.0949 0.0000 0.0000 0.0000
# 3 18.1648 14.0949 104.3955 0.0000 0.0000 0.0000
# 4 0.0000 0.0000 0.0000 18.1030 0.0000 0.0000
# 5 0.0000 0.0000 0.0000 0.0000 23.1259 0.0000
# 6 0.0000 0.0000 0.0000 0.0000 0.0000 29.6950
#
#
#
# Elastic Compliance Matrix: (Units=1/GPa)
#
#
# Indices 1 2 3 4 5 6 
#
# 1 0.017405 -0.007324 -0.002040 0.000000 0.000000 0.000000
# 2 -0.007324 0.016536 -0.000958 0.000000 0.000000 0.000000
# 3 -0.002040 -0.000958 0.010063 0.000000 0.000000 0.000000
# 4 0.000000 0.000000 0.000000 0.055240 0.000000 0.000000
# 5 0.000000 0.000000 0.000000 0.000000 0.043242 0.000000
# 6 0.000000 0.000000 0.000000 0.000000 0.000000 0.033676
#
#
# Mechanical properties :
#
#
# Convention : Reuss Voigt Hill
#
# Bulk Modulus (GPa) = 42.80807 42.93186 42.86997
# Shear Modulus (GPa) = 24.43894 26.74574 25.59234
#
# Velocity S-wave (km/s) = 3.49676 3.65807 3.57832
# Velocity P-wave (km/s) = 6.14173 6.27069 6.20655
#
# Compressibility (1/GPa) = 0.02336008
#
# Stress axis : x y z
#
# Youngs Moduli (GPa) = 57.45597 60.47349 99.37192
#
# Poissons Ratio (x) = 0.44292 0.20267
# Poissons Ratio (y) = 0.42082 0.09522
# Poissons Ratio (z) = 0.11718 0.05795
#
# Static dielectric constant tensor:
#      x y z
#    x 3.592460 0.000000 0.000000 
#    y 0.000000 3.424270 0.000000 
#    z 0.000000 0.000000 3.879720 
# 
# 
# High freq. dielectric constant tensor:
#      x y z
#    x 1.771330 0.000000 0.000000 
#    y 0.000000 1.769030 0.000000 
#    z 0.000000 0.000000 1.802040 
# 
# From -- ./inp_files/2223.got.cif
#   From: 2010.03.12/outbox.cif.g09.slc.cpg/sg33_2_cif.got.tgz:2223.got - 2010.04.14 01:49:19.
