data_PCOD8170873
_publ_section_title
;
Structure prediction by ZEFSAII (Michael W. Deem and Ramdas Pophale) SiO2 
 PCOD8170873
Probable space group: P N A 21
;
_chemical_formula_sum "Si O2"
_cell_formula_units_Z 28
_cell_length_a 14.585845
_cell_length_b 13.320375
_cell_length_c 5.096777
_cell_angle_alpha 90.000000
_cell_angle_beta 90.000000
_cell_angle_gamma 90.000000
_cell_volume 990.247325
_symmetry_space_group_name_H-M "P N A 21"
_symmetry_group_IT_number 33
_symmetry_cell_setting 'orthorhombic'
loop_
_space_group_symop_operation_xyz
x,y,z
-x,-y,1/2+z
1/2-x,1/2+y,1/2+z
1/2+x,1/2-y,z
loop_
_atom_site_type_symbol
_atom_site_label
_atom_site_fract_x
_atom_site_fract_y
_atom_site_fract_z
Si Si1 0.807876 0.901327 0.386680
Si Si2 0.902623 0.364804 0.783572
Si Si3 0.883052 0.689160 0.415022
Si Si4 0.593284 0.083467 0.416802
Si Si5 0.958941 0.948863 0.747649
Si Si6 0.436635 0.255434 0.270402
Si Si7 0.276146 0.401338 0.187978
O O1 0.702697 0.865720 0.385123
O O2 0.871285 0.804031 0.329413
O O3 0.850517 0.947671 0.659496
O O4 0.823479 0.987522 0.160664
O O5 0.920342 0.336882 0.476730
O O6 0.945695 0.475839 0.833396
O O7 0.951898 0.282202 0.967465
O O8 0.941161 0.627334 0.196293
O O9 0.783419 0.634369 0.437376
O O10 0.934882 0.669547 0.699114
O O11 0.704018 0.079398 0.427788
O O12 0.985472 0.836624 0.840928
O O13 0.980271 0.025800 0.983880
O O14 0.341527 0.314857 0.283573
#
# Coordination Sequence:
#
# PCOD8170873 Si02
#       7
#     4   4   4   4   4   4   4
#     4  11  23  43  70 103 139 195 238 295 372 447
#     4  11  23  39  71  98 133 183 247 298 360 413
#     4  10  20  38  60  99 130 173 231 301 347 421
#     4   9  20  37  60  98 130 162 229 308 349 399
#     4  12  28  47  67 102 156 203 235 298 388 477
#     4  12  23  42  64 101 143 186 236 300 363 435
#     4   9  21  36  62  95 135 172 224 294 347 418
#
# _framework density 28.275760999999999
#
# number of rings (size 3 to 8) (size 9 to 14) (size 15 to 20)
#    0.857    0.571    2.857    2.571    0.000    3.429 
#    2.571    0.000    0.000    3.429    0.000    0.000 
#    0.000    0.000    0.000    0.000    0.000    0.000 
#
# Total GULP energy -346929.612459 kJ/mol
# GULP energy per Si atom -12390.343302 kJ/mol
# Density = 2.821140 g / cm^3
# Si number density = 28.275761 Si / 1000 Ang^3
#
#
#
# Elastic Constant Matrix: (Units=GPa)
#
#
# Indices 1 2 3 4 5 6 
#
# 1 112.2806 26.2598 33.7469 0.0000 0.0000 0.0000
# 2 26.2598 222.2679 83.7944 0.0000 0.0000 0.0000
# 3 33.7469 83.7944 145.5091 0.0000 0.0000 0.0000
# 4 0.0000 0.0000 0.0000 43.2309 0.0000 0.0000
# 5 0.0000 0.0000 0.0000 0.0000 39.3940 0.0000
# 6 0.0000 0.0000 0.0000 0.0000 0.0000 51.4600
#
#
#
# Elastic Compliance Matrix: (Units=1/GPa)
#
#
# Indices 1 2 3 4 5 6 
#
# 1 0.009598 -0.000377 -0.002009 0.000000 0.000000 0.000000
# 2 -0.000377 0.005761 -0.003231 0.000000 0.000000 0.000000
# 3 -0.002009 -0.003231 0.009199 0.000000 0.000000 0.000000
# 4 0.000000 0.000000 0.000000 0.023132 0.000000 0.000000
# 5 0.000000 0.000000 0.000000 0.000000 0.025385 0.000000
# 6 0.000000 0.000000 0.000000 0.000000 0.000000 0.019433
#
#
# Mechanical properties :
#
#
# Convention : Reuss Voigt Hill
#
# Bulk Modulus (GPa) = 75.04177 85.29553 80.16865
# Shear Modulus (GPa) = 46.21853 49.23407 47.72630
#
# Velocity S-wave (km/s) = 4.04736 4.17731 4.11285
# Velocity P-wave (km/s) = 6.95977 7.31421 7.13919
#
# Compressibility (1/GPa) = 0.01332591
#
# Stress axis : x y z
#
# Youngs Moduli (GPa) = 104.18616 173.56707 108.71008
#
# Poissons Ratio (x) = 0.06535 0.21842
# Poissons Ratio (y) = 0.03923 0.35119
# Poissons Ratio (z) = 0.20933 0.56071
#
# Static dielectric constant tensor:
#      x y z
#    x 6.020500 0.000000 0.000000 
#    y 0.000000 5.414390 0.000000 
#    z 0.000000 0.000000 4.761630 
# 
# 
# High freq. dielectric constant tensor:
#      x y z
#    x 2.201490 0.000000 0.000000 
#    y 0.000000 2.159640 0.000000 
#    z 0.000000 0.000000 2.121300 
# 
# From -- ./inp_files/1398.got.cif
#   From: 2010.03.12/outbox.cif.g09.slc.cpg/sg33_1_cif.got.tgz:1398.got - 2010.04.14 01:49:19.
