data_PCOD8170151
_publ_section_title
;
Structure prediction by ZEFSAII (Michael W. Deem and Ramdas Pophale) SiO2 
 PCOD8170151
Probable space group: P M N 21
;
_chemical_formula_sum "Si O2"
_cell_formula_units_Z 24
_cell_length_a 8.970665
_cell_length_b 14.949966
_cell_length_c 9.219000
_cell_angle_alpha 90.000000
_cell_angle_beta 90.000000
_cell_angle_gamma 90.000000
_cell_volume 1236.370570
_symmetry_space_group_name_H-M "P M N 21"
_symmetry_group_IT_number 31
_symmetry_cell_setting 'orthorhombic'
loop_
_space_group_symop_operation_xyz
x,y,z
1/2-x,-y,1/2+z
-x,y,z
1/2+x,-y,1/2+z
loop_
_atom_site_type_symbol
_atom_site_label
_atom_site_fract_x
_atom_site_fract_y
_atom_site_fract_z
Si Si1 0.824441 0.755137 0.630070
Si Si2 0.673525 0.771796 0.328523
Si Si3 0.324636 0.902567 0.803915
Si Si4 0.169314 0.594912 0.263844
Si Si5 0.168200 0.553465 0.593944
Si Si6 0.673033 0.941831 0.132425
O O1 0.759211 0.790035 0.477937
O O2 0.753463 0.809216 0.762838
O O3 0.786078 0.650945 0.654581
O O4 0.000000 0.771060 0.623415
O O5 0.500000 0.762067 0.363700
O O6 0.729461 0.682540 0.248541
O O7 0.707672 0.852622 0.220935
O O8 0.500000 0.889581 0.789249
O O9 0.272110 0.978557 0.693744
O O10 0.277782 0.927137 0.966781
O O11 0.183354 0.552443 0.421810
O O12 0.219307 0.520607 0.150294
O O13 0.000000 0.622888 0.230090
O O14 0.000000 0.530086 0.642414
O O15 0.500000 0.968910 0.143550
#
# Coordination Sequence:
#
# PCOD8170151 Si02
#       6
#     4   4   4   4   4   4
#     4  10  21  38  58  82 113 146 185 231 275 325
#     4  10  20  37  60  83 111 147 185 227 278 331
#     4  11  23  38  58  83 111 145 183 225 276 330
#     4  10  21  36  56  83 113 146 186 231 277 327
#     4   9  20  37  55  79 111 146 183 226 275 325
#     4  10  23  40  57  82 113 144 182 228 275 328
#
# _framework density 19.411655
#
# number of rings (size 3 to 8) (size 9 to 14) (size 15 to 20)
#    0.000    2.000    0.000    4.000    0.000   10.667 
#    0.000    5.000    0.000    0.000    0.000    0.000 
#    0.000    0.000    0.000    0.000    0.000    0.000 
#
# Total GULP energy -297717.927274 kJ/mol
# GULP energy per Si atom -12404.913636 kJ/mol
# Density = 1.936747 g / cm^3
# Si number density = 19.411655 Si / 1000 Ang^3
#
#
#
# Elastic Constant Matrix: (Units=GPa)
#
#
# Indices 1 2 3 4 5 6 
#
# 1 60.2693 7.8657 5.3889 0.0000 0.0000 0.0000
# 2 7.8657 46.2309 -1.3401 0.0000 0.0000 0.0000
# 3 5.3889 -1.3401 32.4037 0.0000 0.0000 0.0000
# 4 0.0000 0.0000 0.0000 35.1169 0.0000 0.0000
# 5 0.0000 0.0000 0.0000 0.0000 34.0087 0.0000
# 6 0.0000 0.0000 0.0000 0.0000 0.0000 35.1768
#
#
#
# Elastic Compliance Matrix: (Units=1/GPa)
#
#
# Indices 1 2 3 4 5 6 
#
# 1 0.017254 -0.003022 -0.002994 0.000000 0.000000 0.000000
# 2 -0.003022 0.022186 0.001420 0.000000 0.000000 0.000000
# 3 -0.002994 0.001420 0.031417 0.000000 0.000000 0.000000
# 4 0.000000 0.000000 0.000000 0.028476 0.000000 0.000000
# 5 0.000000 0.000000 0.000000 0.000000 0.029404 0.000000
# 6 0.000000 0.000000 0.000000 0.000000 0.000000 0.028428
#
#
# Mechanical properties :
#
#
# Convention : Reuss Voigt Hill
#
# Bulk Modulus (GPa) = 16.21686 18.08144 17.14915
# Shear Modulus (GPa) = 26.75018 29.32642 28.03830
#
# Velocity S-wave (km/s) = 3.71623 3.89107 3.80466
# Velocity P-wave (km/s) = 5.17554 5.43343 5.30605
#
# Compressibility (1/GPa) = 0.06166424
#
# Stress axis : x y z
#
# Youngs Moduli (GPa) = 57.95621 45.07350 31.82947
#
# Poissons Ratio (x) = 0.13623 0.09531
# Poissons Ratio (y) = 0.17517 -0.04520
# Poissons Ratio (z) = 0.17355 -0.06401
#
# Static dielectric constant tensor:
#      x y z
#    x 3.626440 0.000000 0.000000 
#    y 0.000000 3.612390 0.000000 
#    z 0.000000 0.000000 3.505870 
# 
# 
# High freq. dielectric constant tensor:
#      x y z
#    x 1.765030 0.000000 0.000000 
#    y 0.000000 1.764580 0.000000 
#    z 0.000000 0.000000 1.752800 
# 
# From -- ./inp_files/1698.got.cif
#   From: 2010.03.12/outbox.cif.g09.slc.cpg/sg31_1_cif.got.tgz:1698.got - 2010.04.14 01:42:59.
