data_PCOD8170640
_publ_section_title
;
Structure prediction by ZEFSAII (Michael W. Deem and Ramdas Pophale) SiO2 
 PCOD8170640
Probable space group: P N A 21
;
_chemical_formula_sum "Si O2"
_cell_formula_units_Z 32
_cell_length_a 5.363686
_cell_length_b 13.101622
_cell_length_c 26.883673
_cell_angle_alpha 90.000000
_cell_angle_beta 90.000000
_cell_angle_gamma 90.000000
_cell_volume 1889.195990
_symmetry_space_group_name_H-M "P N A 21"
_symmetry_group_IT_number 33
_symmetry_cell_setting 'orthorhombic'
loop_
_space_group_symop_operation_xyz
x,y,z
-x,-y,1/2+z
1/2-x,1/2+y,1/2+z
1/2+x,1/2-y,z
loop_
_atom_site_type_symbol
_atom_site_label
_atom_site_fract_x
_atom_site_fract_y
_atom_site_fract_z
Si Si1 0.250021 0.355418 0.590100
Si Si2 0.249983 0.353480 0.393724
Si Si3 0.749983 0.370242 0.434085
Si Si4 0.249979 0.630550 0.049295
Si Si5 0.250109 0.810191 0.206082
Si Si6 0.250116 0.871356 0.781437
Si Si7 0.749894 0.468053 0.248840
Si Si8 0.750093 0.781582 0.687914
O O1 0.501499 0.417171 0.575297
O O2 0.250102 0.251959 0.557873
O O3 0.249928 0.330957 0.647813
O O4 0.998598 0.417180 0.575271
O O5 0.499864 0.416869 0.408393
O O6 0.250018 0.251423 0.426611
O O7 0.249950 0.321282 0.335926
O O8 0.000125 0.416873 0.408404
O O9 0.749932 0.398255 0.491804
O O10 0.500210 0.750070 0.221125
O O11 0.249929 0.913827 0.236704
O O12 0.250128 0.780494 0.740885
O O13 0.496651 0.941395 0.778058
O O14 0.003633 0.941421 0.778038
O O15 0.749932 0.402242 0.197601
O O16 0.500100 0.749991 0.657799
#
# Coordination Sequence:
#
# PCOD8170640 Si02
#       8
#     4   4   4   4   4   4   4   4
#     4  10  16  27  44  56  74 114 145 192 215 271
#     4  10  18  25  39  59  87 120 149 177 202 252
#     4  10  19  24  38  65  88 116 150 189 190 268
#     4  10  16  28  40  60  85 110 153 178 222 252
#     4  12  21  35  48  66  83 115 165 210 245 261
#     4  10  19  31  46  63  90 123 155 186 227 271
#     4  10  21  31  45  65  85 111 158 208 229 268
#     4   8  16  27  44  60  80 111 141 180 220 263
#
# _framework density 16.938423
#
# number of rings (size 3 to 8) (size 9 to 14) (size 15 to 20)
#    0.000    2.000    2.500    5.250   10.500    0.000 
#    0.000    0.000    0.000    0.000    0.000    0.000 
#    0.000    0.000    0.000    0.000    0.000  435.000 
#
# Total GULP energy -396459.705995 kJ/mol
# GULP energy per Si atom -12389.365812 kJ/mol
# Density = 1.689987 g / cm^3
# Si number density = 16.938423 Si / 1000 Ang^3
#
#
#
# Elastic Constant Matrix: (Units=GPa)
#
#
# Indices 1 2 3 4 5 6 
#
# 1 201.8954 26.9441 12.3094 0.0000 0.0000 0.0000
# 2 26.9441 52.7522 14.5524 0.0000 0.0000 0.0000
# 3 12.3094 14.5524 24.0170 0.0000 0.0000 0.0000
# 4 0.0000 0.0000 0.0000 -3.3664 0.0000 0.0000
# 5 0.0000 0.0000 0.0000 0.0000 17.2484 0.0000
# 6 0.0000 0.0000 0.0000 0.0000 0.0000 14.9417
#
#
#
# Elastic Compliance Matrix: (Units=1/GPa)
#
#
# Indices 1 2 3 4 5 6 
#
# 1 0.005349 -0.002372 -0.001304 0.000000 0.000000 0.000000
# 2 -0.002372 0.023813 -0.013213 0.000000 0.000000 0.000000
# 3 -0.001304 -0.013213 0.050312 0.000000 0.000000 0.000000
# 4 0.000000 0.000000 0.000000 -0.297049 0.000000 0.000000
# 5 0.000000 0.000000 0.000000 0.000000 0.057977 0.000000
# 6 0.000000 0.000000 0.000000 0.000000 0.000000 0.066927
#
#
# Mechanical properties :
#
#
# Convention : Reuss Voigt Hill
#
# Bulk Modulus (GPa) = 21.88424 42.91962 32.40193
# Shear Modulus (GPa) = -114.51840 20.75531 -46.88154
#
# Velocity S-wave (km/s) = -8.23137 3.50428 -5.26666
# Velocity P-wave (km/s) = 8.79731 6.46274 4.22053
#
# Compressibility (1/GPa) = 0.04569498
#
# Stress axis : x y z
#
# Youngs Moduli (GPa) = 186.94440 41.99336 19.87611
#
# Poissons Ratio (x) = 0.09963 0.02592
# Poissons Ratio (y) = 0.44351 0.26262
# Poissons Ratio (z) = 0.24380 0.55486
#
# Static dielectric constant tensor:
#      x y z
#    x 5.251900 0.000000 0.000000 
#    y 0.000000 2.620740 0.000000 
#    z 0.000000 0.000000 2.834700 
# 
# 
# High freq. dielectric constant tensor:
#      x y z
#    x 1.708120 0.000000 0.000000 
#    y 0.000000 1.563310 0.000000 
#    z 0.000000 0.000000 1.619390 
# 
# From -- ./inp_files/9208.got.cif
#   From: 2010.03.12/outbox.cif.g09.slc.cpg/sg33_5_cif.got.tgz:9208.got - 2010.04.14 01:49:19.
