data_PCOD8170190
_publ_section_title
;
Structure prediction by ZEFSAII (Michael W. Deem and Ramdas Pophale) SiO2 
 PCOD8170190
Probable space group: P M N 21
;
_chemical_formula_sum "Si O2"
_cell_formula_units_Z 24
_cell_length_a 26.400214
_cell_length_b 5.205443
_cell_length_c 7.264822
_cell_angle_alpha 90.000000
_cell_angle_beta 90.000000
_cell_angle_gamma 90.000000
_cell_volume 998.366777
_symmetry_space_group_name_H-M "P M N 21"
_symmetry_group_IT_number 31
_symmetry_cell_setting 'orthorhombic'
loop_
_space_group_symop_operation_xyz
x,y,z
1/2-x,-y,1/2+z
-x,y,z
1/2+x,-y,1/2+z
loop_
_atom_site_type_symbol
_atom_site_label
_atom_site_fract_x
_atom_site_fract_y
_atom_site_fract_z
Si Si1 0.500000 0.387042 0.484401
Si Si2 0.213505 0.334314 0.286830
Si Si3 0.900025 0.826896 0.087677
Si Si4 0.107825 0.105885 0.731505
Si Si5 0.161972 0.848094 0.423398
Si Si6 0.180609 0.478894 0.902967
Si Si7 0.000000 0.117961 0.752817
O O1 0.550345 0.350213 0.608184
O O2 0.500000 0.677139 0.417631
O O3 0.500000 0.180317 0.317999
O O4 0.204917 0.065603 0.392930
O O5 0.200235 0.295632 0.070403
O O6 0.272904 0.395327 0.293507
O O7 0.181739 0.561702 0.386326
O O8 0.850824 0.693006 0.005188
O O9 0.884438 0.927288 0.288113
O O10 0.910374 0.051599 0.941310
O O11 0.137534 0.874203 0.627715
O O12 0.052711 0.166856 0.636250
O O13 0.146827 0.341223 0.746384
#
# Coordination Sequence:
#
# PCOD8170190 Si02
#       7
#     2   4   4   4   4   4   2
#     4  10  20  39  70  91 131 169 220 267 333 393
#     4  11  26  42  63 100 128 175 226 267 331 402
#     4  10  23  43  65  96 131 172 218 273 331 394
#     4  11  23  42  70  91 137 171 217 277 331 390
#     4  11  26  42  64  99 133 167 225 269 329 400
#     4  11  23  41  68  90 136 173 220 276 333 392
#     4  10  22  39  66 103 121 173 224 263 331 401
#
# _framework density 24.039259999999999
#
# number of rings (size 3 to 8) (size 9 to 14) (size 15 to 20)
#    0.000    1.333    3.333    1.000    7.000    0.667 
#    0.000    0.000    0.000    6.000    0.000    0.000 
#    0.000    0.000    0.000    0.000    0.000    0.000 
#
# Total GULP energy -297410.177845 kJ/mol
# GULP energy per Si atom -12392.090744 kJ/mol
# Density = 2.398455 g / cm^3
# Si number density = 24.039260 Si / 1000 Ang^3
#
#
#
# Elastic Constant Matrix: (Units=GPa)
#
#
# Indices 1 2 3 4 5 6 
#
# 1 160.1490 4.2894 14.8121 0.0000 0.0000 0.0000
# 2 4.2894 67.9934 -1.1873 0.0000 0.0000 0.0000
# 3 14.8121 -1.1873 48.3315 0.0000 0.0000 0.0000
# 4 0.0000 0.0000 0.0000 26.7928 0.0000 0.0000
# 5 0.0000 0.0000 0.0000 0.0000 21.9482 0.0000
# 6 0.0000 0.0000 0.0000 0.0000 0.0000 31.5674
#
#
#
# Elastic Compliance Matrix: (Units=1/GPa)
#
#
# Indices 1 2 3 4 5 6 
#
# 1 0.006440 -0.000441 -0.001984 0.000000 0.000000 0.000000
# 2 -0.000441 0.014744 0.000497 0.000000 0.000000 0.000000
# 3 -0.001984 0.000497 0.021311 0.000000 0.000000 0.000000
# 4 0.000000 0.000000 0.000000 0.037324 0.000000 0.000000
# 5 0.000000 0.000000 0.000000 0.000000 0.045562 0.000000
# 6 0.000000 0.000000 0.000000 0.000000 0.000000 0.031678
#
#
# Mechanical properties :
#
#
# Convention : Reuss Voigt Hill
#
# Bulk Modulus (GPa) = 25.88108 34.70027 30.29067
# Shear Modulus (GPa) = 28.76985 33.29898 31.03441
#
# Velocity S-wave (km/s) = 3.46321 3.72585 3.59693
# Velocity P-wave (km/s) = 5.17507 5.74243 5.46611
#
# Compressibility (1/GPa) = 0.03863827
#
# Stress axis : x y z
#
# Youngs Moduli (GPa) = 155.29094 67.82506 46.92455
#
# Poissons Ratio (x) = 0.02990 0.09311
# Poissons Ratio (y) = 0.06847 -0.02334
# Poissons Ratio (z) = 0.30815 -0.03373
#
# Static dielectric constant tensor:
#      x y z
#    x 4.957680 0.000000 0.000000 
#    y 0.000000 3.955130 0.000000 
#    z 0.000000 0.000000 4.550010 
# 
# 
# High freq. dielectric constant tensor:
#      x y z
#    x 1.979720 0.000000 0.000000 
#    y 0.000000 1.940720 0.000000 
#    z 0.000000 0.000000 1.927290 
# 
# From -- ./inp_files/3061.got.cif
#   From: 2010.03.12/outbox.cif.g09.slc.cpg/sg31_2_cif.got.tgz:3061.got - 2010.04.14 01:42:59.
