data_PCOD8170360
_publ_section_title
;
Structure prediction by ZEFSAII (Michael W. Deem and Ramdas Pophale) SiO2 
 PCOD8170360
Probable space group: P M N 21
;
_chemical_formula_sum "Si O2"
_cell_formula_units_Z 24
_cell_length_a 8.928675
_cell_length_b 12.335171
_cell_length_c 10.532927
_cell_angle_alpha 90.000000
_cell_angle_beta 90.000000
_cell_angle_gamma 90.000000
_cell_volume 1160.062168
_symmetry_space_group_name_H-M "P M N 21"
_symmetry_group_IT_number 31
_symmetry_cell_setting 'orthorhombic'
loop_
_space_group_symop_operation_xyz
x,y,z
1/2-x,-y,1/2+z
-x,y,z
1/2+x,-y,1/2+z
loop_
_atom_site_type_symbol
_atom_site_label
_atom_site_fract_x
_atom_site_fract_y
_atom_site_fract_z
Si Si1 0.676931 0.917720 0.577950
Si Si2 0.823052 0.721869 0.209401
Si Si3 0.830180 0.709681 0.665488
Si Si4 0.822226 0.943066 0.321547
Si Si5 0.323535 0.516514 0.772437
Si Si6 0.330974 0.330958 0.438328
O O1 0.500000 0.916105 0.564588
O O2 0.739467 0.795269 0.581842
O O3 0.745164 0.977768 0.454099
O O4 0.726936 0.979099 0.706068
O O5 0.758474 0.822949 0.287612
O O6 0.766707 0.607225 0.264630
O O7 0.000000 0.730506 0.216751
O O8 0.770166 0.731269 0.062109
O O9 0.753824 0.589968 0.661093
O O10 0.828093 0.747687 0.814577
O O11 0.000000 0.702463 0.612773
O O12 0.000000 0.946133 0.339916
O O13 0.500000 0.524998 0.755555
O O14 0.271873 0.563304 0.909327
O O15 0.500000 0.372999 0.464512
#
# Coordination Sequence:
#
# PCOD8170360 Si02
#       6
#     4   4   4   4   4   4
#     4  11  24  41  64  93 124 159 205 255 302 358
#     4   9  18  36  59  85 117 156 199 246 301 363
#     4   9  19  36  60  83 115 160 199 238 295 359
#     4  10  24  43  64  89 121 160 202 251 309 368
#     4   9  17  31  54  85 118 152 194 245 295 351
#     4   8  17  33  55  81 111 155 197 237 294 357
#
# _framework density 20.688547
#
# number of rings (size 3 to 8) (size 9 to 14) (size 15 to 20)
#    1.000    1.667    0.000    1.000    2.333    2.667 
#    0.000    7.500    0.000    0.000    0.000    0.000 
#    0.000    0.000    0.000    0.000    0.000    0.000 
#
# Total GULP energy -297331.096120 kJ/mol
# GULP energy per Si atom -12388.795672 kJ/mol
# Density = 2.064146 g / cm^3
# Si number density = 20.688547 Si / 1000 Ang^3
#
#
#
# Elastic Constant Matrix: (Units=GPa)
#
#
# Indices 1 2 3 4 5 6 
#
# 1 71.2250 33.0606 31.1442 0.0000 0.0000 0.0000
# 2 33.0606 88.1278 14.4639 0.0000 0.0000 0.0000
# 3 31.1442 14.4639 86.0774 0.0000 0.0000 0.0000
# 4 0.0000 0.0000 0.0000 32.6346 0.0000 0.0000
# 5 0.0000 0.0000 0.0000 0.0000 28.2479 0.0000
# 6 0.0000 0.0000 0.0000 0.0000 0.0000 16.3441
#
#
#
# Elastic Compliance Matrix: (Units=1/GPa)
#
#
# Indices 1 2 3 4 5 6 
#
# 1 0.019638 -0.006377 -0.006034 0.000000 0.000000 0.000000
# 2 -0.006377 0.013740 -0.000001 0.000000 0.000000 0.000000
# 3 -0.006034 -0.000001 0.013801 0.000000 0.000000 0.000000
# 4 0.000000 0.000000 0.000000 0.030642 0.000000 0.000000
# 5 0.000000 0.000000 0.000000 0.000000 0.035401 0.000000
# 6 0.000000 0.000000 0.000000 0.000000 0.000000 0.061184
#
#
# Mechanical properties :
#
#
# Convention : Reuss Voigt Hill
#
# Bulk Modulus (GPa) = 44.73415 44.75198 44.74306
# Shear Modulus (GPa) = 24.19169 26.56274 25.37721
#
# Velocity S-wave (km/s) = 3.42325 3.58709 3.50613
# Velocity P-wave (km/s) = 6.10692 6.23174 6.16964
#
# Compressibility (1/GPa) = 0.02235429
#
# Stress axis : x y z
#
# Youngs Moduli (GPa) = 50.92056 72.78202 72.45918
#
# Poissons Ratio (x) = 0.46413 0.43722
# Poissons Ratio (y) = 0.32472 0.00011
# Poissons Ratio (z) = 0.30725 0.00011
#
# Static dielectric constant tensor:
#      x y z
#    x 3.432260 0.000000 0.000000 
#    y 0.000000 3.708770 0.000000 
#    z 0.000000 0.000000 3.799610 
# 
# 
# High freq. dielectric constant tensor:
#      x y z
#    x 1.786860 0.000000 0.000000 
#    y 0.000000 1.796370 0.000000 
#    z 0.000000 0.000000 1.809820 
# 
# From -- ./inp_files/3461.got.cif
#   From: 2010.03.12/outbox.cif.g09.slc.cpg/sg31_2_cif.got.tgz:3461.got - 2010.04.14 01:42:59.
