data_PCOD8170595
_publ_section_title
;
Structure prediction by ZEFSAII (Michael W. Deem and Ramdas Pophale) SiO2 
 PCOD8170595
Probable space group: P B A 2
;
_chemical_formula_sum "Si O2"
_cell_formula_units_Z 24
_cell_length_a 8.906400
_cell_length_b 17.121703
_cell_length_c 7.560235
_cell_angle_alpha 90.000000
_cell_angle_beta 90.000000
_cell_angle_gamma 90.000000
_cell_volume 1152.880917
_symmetry_space_group_name_H-M "P B A 2"
_symmetry_group_IT_number 32
_symmetry_cell_setting 'orthorhombic'
loop_
_space_group_symop_operation_xyz
x,y,z
-x,-y,z
1/2-x,1/2+y,z
1/2+x,1/2-y,z
loop_
_atom_site_type_symbol
_atom_site_label
_atom_site_fract_x
_atom_site_fract_y
_atom_site_fract_z
Si Si1 0.561138 0.581430 0.825400
Si Si2 0.605636 0.068869 0.783395
Si Si3 0.454041 0.845620 0.122046
Si Si4 0.304992 0.264260 0.970714
Si Si5 0.969299 0.325102 0.503072
Si Si6 0.651144 0.310452 0.629192
O O1 0.500000 0.500000 0.915930
O O2 0.719608 0.557003 0.734339
O O3 0.591987 0.657238 0.949486
O O4 0.432507 0.610076 0.689597
O O5 0.544116 0.142877 0.680276
O O6 0.500000 0.000000 0.717421
O O7 0.588401 0.081386 0.995823
O O8 0.475638 0.869962 0.326064
O O9 0.605177 0.808175 0.045978
O O10 0.320549 0.782711 0.116294
O O11 0.222935 0.240774 0.788695
O O12 0.027658 0.235787 0.511518
O O13 0.789803 0.332804 0.503474
#
# Coordination Sequence:
#
# PCOD8170595 Si02
#       6
#     4   4   4   4   4   4
#     4  11  22  37  66  96 125 174 214 262 334 396
#     4  11  23  42  63  90 133 173 214 269 332 392
#     4  11  23  37  64  94 122 168 222 266 319 384
#     4  11  19  40  62  91 127 163 213 271 319 383
#     4  12  22  38  65  94 123 171 222 270 318 389
#     4  12  19  40  64  92 130 164 218 268 325 382
#
# _framework density 20.817415
#
# number of rings (size 3 to 8) (size 9 to 14) (size 15 to 20)
#    0.000    0.667    8.333    2.000    0.000    0.667 
#    0.000    0.000    0.000    7.000    0.000    0.000 
#    0.000    0.000    0.000    0.000    0.000    0.000 
#
# Total GULP energy -297338.166299 kJ/mol
# GULP energy per Si atom -12389.090262 kJ/mol
# Density = 2.077003 g / cm^3
# Si number density = 20.817415 Si / 1000 Ang^3
#
#
#
# Elastic Constant Matrix: (Units=GPa)
#
#
# Indices 1 2 3 4 5 6 
#
# 1 138.5284 24.3197 21.6187 0.0000 0.0000 0.0000
# 2 24.3197 70.7338 11.8715 0.0000 0.0000 0.0000
# 3 21.6187 11.8715 91.0765 0.0000 0.0000 0.0000
# 4 0.0000 0.0000 0.0000 13.0564 0.0000 0.0000
# 5 0.0000 0.0000 0.0000 0.0000 30.5594 0.0000
# 6 0.0000 0.0000 0.0000 0.0000 0.0000 42.6966
#
#
#
# Elastic Compliance Matrix: (Units=1/GPa)
#
#
# Indices 1 2 3 4 5 6 
#
# 1 0.007892 -0.002453 -0.001554 0.000000 0.000000 0.000000
# 2 -0.002453 0.015216 -0.001401 0.000000 0.000000 0.000000
# 3 -0.001554 -0.001401 0.011531 0.000000 0.000000 0.000000
# 4 0.000000 0.000000 0.000000 0.076591 0.000000 0.000000
# 5 0.000000 0.000000 0.000000 0.000000 0.032723 0.000000
# 6 0.000000 0.000000 0.000000 0.000000 0.000000 0.023421
#
#
# Mechanical properties :
#
#
# Convention : Reuss Voigt Hill
#
# Bulk Modulus (GPa) = 41.97417 46.21763 44.09590
# Shear Modulus (GPa) = 26.86296 33.43106 30.14701
#
# Velocity S-wave (km/s) = 3.59612 4.01174 3.80960
# Velocity P-wave (km/s) = 6.11961 6.61123 6.37016
#
# Compressibility (1/GPa) = 0.02382418
#
# Stress axis : x y z
#
# Youngs Moduli (GPa) = 126.71445 65.72062 86.72133
#
# Poissons Ratio (x) = 0.16119 0.13473
# Poissons Ratio (y) = 0.31078 0.12151
# Poissons Ratio (z) = 0.19686 0.09209
#
# Static dielectric constant tensor:
#      x y z
#    x 4.220430 0.000000 0.000000 
#    y 0.000000 3.606470 0.000000 
#    z 0.000000 0.000000 3.456300 
# 
# 
# High freq. dielectric constant tensor:
#      x y z
#    x 1.844560 0.000000 0.000000 
#    y 0.000000 1.798560 0.000000 
#    z 0.000000 0.000000 1.775100 
# 
# From -- ./inp_files/2399.got.cif
#   From: 2010.03.12/outbox.cif.g09.slc.cpg/sg32_2_cif.got.tgz:2399.got - 2010.04.14 01:46:39.
