data_PCOD8170040
_publ_section_title
;
Structure prediction by ZEFSAII (Michael W. Deem and Ramdas Pophale) SiO2 
 PCOD8170040
Probable space group: P M N 21
;
_chemical_formula_sum "Si O2"
_cell_formula_units_Z 24
_cell_length_a 8.845969
_cell_length_b 9.131285
_cell_length_c 16.206323
_cell_angle_alpha 90.000000
_cell_angle_beta 90.000000
_cell_angle_gamma 90.000000
_cell_volume 1309.066778
_symmetry_space_group_name_H-M "P M N 21"
_symmetry_group_IT_number 31
_symmetry_cell_setting 'orthorhombic'
loop_
_space_group_symop_operation_xyz
x,y,z
1/2-x,-y,1/2+z
-x,y,z
1/2+x,-y,1/2+z
loop_
_atom_site_type_symbol
_atom_site_label
_atom_site_fract_x
_atom_site_fract_y
_atom_site_fract_z
Si Si1 0.821719 0.826079 0.054990
Si Si2 0.824586 0.340676 0.222707
Si Si3 0.333175 0.915252 0.303886
Si Si4 0.173300 0.161562 0.388383
Si Si5 0.831150 0.909788 0.635075
Si Si6 0.178657 0.349935 0.700510
O O1 0.759518 0.705201 0.117825
O O2 0.000000 0.833528 0.064580
O O3 0.753277 0.987864 0.069213
O O4 0.774955 0.777482 0.962939
O O5 0.796915 0.265813 0.310809
O O6 0.763097 0.239000 0.148620
O O7 0.731004 0.488970 0.222863
O O8 0.000000 0.372353 0.206631
O O9 0.500000 0.910989 0.344963
O O10 0.277395 0.752372 0.279159
O O11 0.218308 0.993814 0.366296
O O12 0.341734 0.004543 0.219863
O O13 0.000000 0.162165 0.415960
O O14 0.000000 0.872183 0.602881
O O15 0.000000 0.343878 0.684952
#
# Coordination Sequence:
#
# PCOD8170040 Si02
#       6
#     4   4   4   4   4   4
#     4  11  21  34  54  78 105 136 176 222 264 309
#     4  10  20  34  54  80 108 139 176 215 258 312
#     4   8  16  31  51  74  98 129 169 209 251 303
#     4  10  20  34  53  77 105 136 173 217 265 314
#     4   9  17  32  53  75 101 133 170 209 253 306
#     4  10  20  35  55  78 107 141 176 214 261 316
#
# _framework density 18.333673000000001
#
# number of rings (size 3 to 8) (size 9 to 14) (size 15 to 20)
#    0.000    2.333    0.000    4.500    0.000    6.667 
#    0.000    1.667    0.000    4.000    0.000    0.000 
#    0.000    0.000    0.000    0.000    0.000    0.000 
#
# Total GULP energy -297580.345785 kJ/mol
# GULP energy per Si atom -12399.181074 kJ/mol
# Density = 1.829194 g / cm^3
# Si number density = 18.333673 Si / 1000 Ang^3
#
#
#
# Elastic Constant Matrix: (Units=GPa)
#
#
# Indices 1 2 3 4 5 6 
#
# 1 114.5768 32.9882 41.1706 0.0000 0.0000 0.0000
# 2 32.9882 100.6361 23.6452 0.0000 0.0000 0.0000
# 3 41.1706 23.6452 60.9547 0.0000 0.0000 0.0000
# 4 0.0000 0.0000 0.0000 15.9232 0.0000 0.0000
# 5 0.0000 0.0000 0.0000 0.0000 29.5254 0.0000
# 6 0.0000 0.0000 0.0000 0.0000 0.0000 33.2492
#
#
#
# Elastic Compliance Matrix: (Units=1/GPa)
#
#
# Indices 1 2 3 4 5 6 
#
# 1 0.011961 -0.002226 -0.007216 0.000000 0.000000 0.000000
# 2 -0.002226 0.011347 -0.002899 0.000000 0.000000 0.000000
# 3 -0.007216 -0.002899 0.022404 0.000000 0.000000 0.000000
# 4 0.000000 0.000000 0.000000 0.062801 0.000000 0.000000
# 5 0.000000 0.000000 0.000000 0.000000 0.033869 0.000000
# 6 0.000000 0.000000 0.000000 0.000000 0.000000 0.030076
#
#
# Mechanical properties :
#
#
# Convention : Reuss Voigt Hill
#
# Bulk Modulus (GPa) = 47.54498 52.41953 49.98226
# Shear Modulus (GPa) = 24.49185 27.63046 26.06115
#
# Velocity S-wave (km/s) = 3.65895 3.88633 3.77436
# Velocity P-wave (km/s) = 6.62118 6.98514 6.80559
#
# Compressibility (1/GPa) = 0.02103271
#
# Stress axis : x y z
#
# Youngs Moduli (GPa) = 83.60269 88.12622 44.63536
#
# Poissons Ratio (x) = 0.19613 0.32208
# Poissons Ratio (y) = 0.18606 0.12938
# Poissons Ratio (z) = 0.60325 0.25545
#
# Static dielectric constant tensor:
#      x y z
#    x 3.557460 0.000000 0.000000 
#    y 0.000000 3.453480 0.000000 
#    z 0.000000 0.000000 3.217860 
# 
# 
# High freq. dielectric constant tensor:
#      x y z
#    x 1.726080 0.000000 0.000000 
#    y 0.000000 1.701300 0.000000 
#    z 0.000000 0.000000 1.688960 
# 
# From -- ./inp_files/4737.got.cif
#   From: 2010.03.12/outbox.cif.g09.slc.cpg/sg31_3_cif.got.tgz:4737.got - 2010.04.14 01:42:59.
