data_PCOD8170802
_publ_section_title
;
Structure prediction by ZEFSAII (Michael W. Deem and Ramdas Pophale) SiO2 
 PCOD8170802
Probable space group: P N A 21
;
_chemical_formula_sum "Si O2"
_cell_formula_units_Z 24
_cell_length_a 15.011577
_cell_length_b 6.347111
_cell_length_c 11.537351
_cell_angle_alpha 90.000000
_cell_angle_beta 90.000000
_cell_angle_gamma 90.000000
_cell_volume 1099.280482
_symmetry_space_group_name_H-M "P N A 21"
_symmetry_group_IT_number 33
_symmetry_cell_setting 'orthorhombic'
loop_
_space_group_symop_operation_xyz
x,y,z
-x,-y,1/2+z
1/2-x,1/2+y,1/2+z
1/2+x,1/2-y,z
loop_
_atom_site_type_symbol
_atom_site_label
_atom_site_fract_x
_atom_site_fract_y
_atom_site_fract_z
Si Si1 0.295485 0.401673 0.909560
Si Si2 0.441400 0.150397 0.039998
Si Si3 0.135560 0.889836 0.741388
Si Si4 0.381789 0.667987 0.454006
Si Si5 0.348846 0.760871 0.073063
Si Si6 0.285207 0.576272 0.676057
O O1 0.191756 0.333247 0.907637
O O2 0.326253 0.432502 0.777482
O O3 0.351769 0.227349 0.975255
O O4 0.309645 0.627971 0.967982
O O5 0.438433 0.247836 0.172347
O O6 0.439332 0.893812 0.042344
O O7 0.521715 0.223544 0.957899
O O8 0.114439 0.951341 0.876238
O O9 0.134781 0.119408 0.684273
O O10 0.232640 0.779098 0.729789
O O11 0.365212 0.633003 0.590740
O O12 0.280950 0.945099 0.098063
#
# Coordination Sequence:
#
# PCOD8170802 Si02
#       6
#     4   4   4   4   4   4
#     4  11  23  43  67  95 134 179 222 285 329 399
#     4  10  25  44  64 103 137 173 228 282 330 406
#     4  10  22  44  67  96 137 172 227 283 319 409
#     4  12  23  44  70 101 132 185 221 268 357 390
#     4  10  19  45  63  90 135 166 218 284 320 393
#     4  11  22  40  71  95 129 179 226 268 343 391
#
# _framework density 21.832460999999999
#
# number of rings (size 3 to 8) (size 9 to 14) (size 15 to 20)
#    0.000    1.333    6.667    1.000    2.333    0.000 
#   15.000    0.000    0.000    0.000    0.000    0.000 
#    0.000    0.000    0.000    0.000    0.000    0.000 
#
# Total GULP energy -297348.380963 kJ/mol
# GULP energy per Si atom -12389.515873 kJ/mol
# Density = 2.178277 g / cm^3
# Si number density = 21.832461 Si / 1000 Ang^3
#
#
#
# Elastic Constant Matrix: (Units=GPa)
#
#
# Indices 1 2 3 4 5 6 
#
# 1 64.6116 24.3816 14.7537 0.0000 0.0000 0.0000
# 2 24.3816 90.5219 25.3659 0.0000 0.0000 0.0000
# 3 14.7537 25.3659 124.1682 0.0000 0.0000 0.0000
# 4 0.0000 0.0000 0.0000 25.0519 0.0000 0.0000
# 5 0.0000 0.0000 0.0000 0.0000 25.0678 0.0000
# 6 0.0000 0.0000 0.0000 0.0000 0.0000 16.7247
#
#
#
# Elastic Compliance Matrix: (Units=1/GPa)
#
#
# Indices 1 2 3 4 5 6 
#
# 1 0.017389 -0.004354 -0.001177 0.000000 0.000000 0.000000
# 2 -0.004354 0.012808 -0.002099 0.000000 0.000000 0.000000
# 3 -0.001177 -0.002099 0.008622 0.000000 0.000000 0.000000
# 4 0.000000 0.000000 0.000000 0.039917 0.000000 0.000000
# 5 0.000000 0.000000 0.000000 0.000000 0.039892 0.000000
# 6 0.000000 0.000000 0.000000 0.000000 0.000000 0.059792
#
#
# Mechanical properties :
#
#
# Convention : Reuss Voigt Hill
#
# Bulk Modulus (GPa) = 42.44568 45.36712 43.90640
# Shear Modulus (GPa) = 24.80990 27.68889 26.24940
#
# Velocity S-wave (km/s) = 3.37468 3.56511 3.47120
# Velocity P-wave (km/s) = 5.88798 6.14584 6.01829
#
# Compressibility (1/GPa) = 0.02355952
#
# Stress axis : x y z
#
# Youngs Moduli (GPa) = 57.50849 78.07649 115.97908
#
# Poissons Ratio (x) = 0.33993 0.13647
# Poissons Ratio (y) = 0.25038 0.24346
# Poissons Ratio (z) = 0.06767 0.16390
#
# Static dielectric constant tensor:
#      x y z
#    x 3.771860 0.000000 0.000000 
#    y 0.000000 4.078200 0.000000 
#    z 0.000000 0.000000 4.107140 
# 
# 
# High freq. dielectric constant tensor:
#      x y z
#    x 1.826020 0.000000 0.000000 
#    y 0.000000 1.862970 0.000000 
#    z 0.000000 0.000000 1.868970 
# 
# From -- ./inp_files/6620.got.cif
#   From: 2010.03.12/outbox.cif.g09.slc.cpg/sg33_4_cif.got.tgz:6620.got - 2010.04.14 01:49:19.
