data_PCOD8170753
_publ_section_title
;
Structure prediction by ZEFSAII (Michael W. Deem and Ramdas Pophale) SiO2 
 PCOD8170753
Probable space group: P N A 21
;
_chemical_formula_sum "Si O2"
_cell_formula_units_Z 32
_cell_length_a 14.668828
_cell_length_b 11.530318
_cell_length_c 8.896397
_cell_angle_alpha 90.000000
_cell_angle_beta 90.000000
_cell_angle_gamma 90.000000
_cell_volume 1504.703241
_symmetry_space_group_name_H-M "P N A 21"
_symmetry_group_IT_number 33
_symmetry_cell_setting 'orthorhombic'
loop_
_space_group_symop_operation_xyz
x,y,z
-x,-y,1/2+z
1/2-x,1/2+y,1/2+z
1/2+x,1/2-y,z
loop_
_atom_site_type_symbol
_atom_site_label
_atom_site_fract_x
_atom_site_fract_y
_atom_site_fract_z
Si Si1 0.182284 0.634745 0.885470
Si Si2 0.602960 0.069637 0.301494
Si Si3 0.952027 0.552056 0.462057
Si Si4 0.430908 0.335621 0.218082
Si Si5 0.454047 0.275917 0.878811
Si Si6 0.379236 0.675819 0.871850
Si Si7 0.793442 0.343962 0.731324
Si Si8 0.100250 0.094998 0.707797
O O1 0.137949 0.506373 0.889685
O O2 0.120497 0.730548 0.801720
O O3 0.283914 0.617560 0.815573
O O4 0.194051 0.677375 0.055270
O O5 0.532276 0.040187 0.434521
O O6 0.646408 0.188098 0.361374
O O7 0.678961 0.971979 0.285875
O O8 0.553852 0.082849 0.138552
O O9 0.978273 0.665944 0.367846
O O10 0.536396 0.348773 0.263580
O O11 0.380485 0.458694 0.236550
O O12 0.430069 0.310759 0.044213
O O13 0.355098 0.253156 0.807881
O O14 0.505595 0.376968 0.790181
O O15 0.409533 0.628053 0.033456
O O16 0.686668 0.333725 0.775203
#
# Coordination Sequence:
#
# PCOD8170753 Si02
#       8
#     4   4   4   4   4   4   4   4
#     4  10  21  39  68  92 126 167 211 267 325 391
#     4  10  19  36  65  88 121 157 206 266 315 382
#     4  10  19  37  62  94 121 157 213 268 320 372
#     4  12  23  43  65  98 129 174 213 269 326 390
#     4  11  23  40  66  94 132 169 215 270 324 382
#     4  11  22  40  64  92 126 174 213 253 332 386
#     4   9  22  42  63  94 122 168 213 265 326 376
#     4  11  25  43  61  90 137 174 214 262 322 395
#
# _framework density 21.266652000000001
#
# number of rings (size 3 to 8) (size 9 to 14) (size 15 to 20)
#    0.000    1.500    2.500    2.250    3.500    1.000 
#    9.000    0.000    0.000    0.000    0.000    0.000 
#    0.000    0.000    0.000    0.000    0.000    0.000 
#
# Total GULP energy -396613.548857 kJ/mol
# GULP energy per Si atom -12394.173402 kJ/mol
# Density = 2.121825 g / cm^3
# Si number density = 21.266652 Si / 1000 Ang^3
#
#
#
# Elastic Constant Matrix: (Units=GPa)
#
#
# Indices 1 2 3 4 5 6 
#
# 1 129.4022 20.3171 29.9680 0.0000 0.0000 0.0000
# 2 20.3171 48.0969 20.0077 0.0000 0.0000 0.0000
# 3 29.9680 20.0077 54.3626 0.0000 0.0000 0.0000
# 4 0.0000 0.0000 0.0000 26.8761 0.0000 0.0000
# 5 0.0000 0.0000 0.0000 0.0000 13.5605 0.0000
# 6 0.0000 0.0000 0.0000 0.0000 0.0000 28.8652
#
#
#
# Elastic Compliance Matrix: (Units=1/GPa)
#
#
# Indices 1 2 3 4 5 6 
#
# 1 0.009028 -0.002059 -0.004219 0.000000 0.000000 0.000000
# 2 -0.002059 0.025019 -0.008073 0.000000 0.000000 0.000000
# 3 -0.004219 -0.008073 0.023692 0.000000 0.000000 0.000000
# 4 0.000000 0.000000 0.000000 0.037208 0.000000 0.000000
# 5 0.000000 0.000000 0.000000 0.000000 0.073743 0.000000
# 6 0.000000 0.000000 0.000000 0.000000 0.000000 0.034644
#
#
# Mechanical properties :
#
#
# Convention : Reuss Voigt Hill
#
# Bulk Modulus (GPa) = 34.43830 41.38305 37.91068
# Shear Modulus (GPa) = 20.68542 24.63164 22.65853
#
# Velocity S-wave (km/s) = 3.12215 3.40697 3.26766
# Velocity P-wave (km/s) = 5.40609 5.91422 5.66585
#
# Compressibility (1/GPa) = 0.02903744
#
# Stress axis : x y z
#
# Youngs Moduli (GPa) = 110.76430 39.96909 42.20792
#
# Poissons Ratio (x) = 0.08228 0.17809
# Poissons Ratio (y) = 0.22801 0.34076
# Poissons Ratio (z) = 0.46734 0.32269
#
# Static dielectric constant tensor:
#      x y z
#    x 4.048610 0.000000 0.000000 
#    y 0.000000 4.021660 0.000000 
#    z 0.000000 0.000000 3.761340 
# 
# 
# High freq. dielectric constant tensor:
#      x y z
#    x 1.842810 0.000000 0.000000 
#    y 0.000000 1.834370 0.000000 
#    z 0.000000 0.000000 1.824350 
# 
# From -- ./inp_files/4457.got.cif
#   From: 2010.03.12/outbox.cif.g09.slc.cpg/sg33_3_cif.got.tgz:4457.got - 2010.04.14 01:49:19.
