data_PCOD8170455
_publ_section_title
;
Structure prediction by ZEFSAII (Michael W. Deem and Ramdas Pophale) SiO2 
 PCOD8170455
Probable space group: P B A 2
;
_chemical_formula_sum "Si O2"
_cell_formula_units_Z 32
_cell_length_a 15.109709
_cell_length_b 9.029131
_cell_length_c 11.202186
_cell_angle_alpha 90.000000
_cell_angle_beta 90.000000
_cell_angle_gamma 90.000000
_cell_volume 1528.286700
_symmetry_space_group_name_H-M "P B A 2"
_symmetry_group_IT_number 32
_symmetry_cell_setting 'orthorhombic'
loop_
_space_group_symop_operation_xyz
x,y,z
-x,-y,z
1/2-x,1/2+y,z
1/2+x,1/2-y,z
loop_
_atom_site_type_symbol
_atom_site_label
_atom_site_fract_x
_atom_site_fract_y
_atom_site_fract_z
Si Si1 0.800027 0.411817 0.851850
Si Si2 0.030088 0.666191 0.721714
Si Si3 0.199973 0.588183 0.125016
Si Si4 0.840753 0.714452 0.234921
Si Si5 0.872320 0.267327 0.488433
Si Si6 0.159247 0.285548 0.741945
Si Si7 0.530088 0.833809 0.255152
Si Si8 0.704110 0.091486 0.488433
O O1 0.893198 0.332888 0.821371
O O2 0.806374 0.586245 0.829748
O O3 0.721605 0.354704 0.765619
O O4 0.775961 0.379896 0.988433
O O5 0.066021 0.744114 0.603465
O O6 0.000000 0.500000 0.689525
O O7 0.943639 0.753721 0.770726
O O8 0.193626 0.413756 0.147119
O O9 0.278395 0.645296 0.211247
O O10 0.106802 0.667112 0.155495
O O11 0.839610 0.663870 0.372121
O O12 0.943639 0.753721 0.206140
O O13 0.933979 0.255886 0.373401
O O14 0.808906 0.124001 0.488433
O O15 0.812239 0.415661 0.488433
O O16 0.160390 0.336130 0.604745
O O17 0.500000 0.000000 0.287342
#
# Coordination Sequence:
#
# PCOD8170455 Si02
#       8
#     4   4   4   4   4   4   4   4
#     4  11  23  39  60  88 121 161 206 246 291 358
#     4  10  20  36  62  89 117 155 201 244 296 354
#     4  11  23  39  60  88 121 161 206 246 291 358
#     4  11  22  39  63  88 121 157 199 252 305 355
#     4  12  20  37  64  94 125 153 198 251 303 366
#     4  11  22  39  63  88 121 157 199 252 305 355
#     4  10  20  36  62  89 117 155 201 244 296 354
#     4  12  19  36  65  91 123 159 190 252 312 352
#
# _framework density 20.938479999999998
#
# number of rings (size 3 to 8) (size 9 to 14) (size 15 to 20)
#    0.000    1.000    7.500    1.875    0.000    5.500 
#    0.000    1.250    0.000    6.000    0.000    0.000 
#    0.000    0.000    0.000    0.000    0.000    0.000 
#
# Total GULP energy -396869.518446 kJ/mol
# GULP energy per Si atom -12402.172451 kJ/mol
# Density = 2.089082 g / cm^3
# Si number density = 20.938480 Si / 1000 Ang^3
#
#
#
# Elastic Constant Matrix: (Units=GPa)
#
#
# Indices 1 2 3 4 5 6 
#
# 1 137.7860 38.8198 13.5627 0.0000 0.0000 0.0000
# 2 38.8198 40.1740 14.0077 0.0000 0.0000 0.0000
# 3 13.5627 14.0077 96.6893 0.0000 0.0000 0.0000
# 4 0.0000 0.0000 0.0000 17.1869 0.0000 0.0000
# 5 0.0000 0.0000 0.0000 0.0000 23.2816 0.0000
# 6 0.0000 0.0000 0.0000 0.0000 0.0000 33.0725
#
#
#
# Elastic Compliance Matrix: (Units=1/GPa)
#
#
# Indices 1 2 3 4 5 6 
#
# 1 0.009973 -0.009635 -0.000003 0.000000 0.000000 0.000000
# 2 -0.009635 0.035526 -0.003795 0.000000 0.000000 0.000000
# 3 -0.000003 -0.003795 0.010893 0.000000 0.000000 0.000000
# 4 0.000000 0.000000 0.000000 0.058184 0.000000 0.000000
# 5 0.000000 0.000000 0.000000 0.000000 0.042952 0.000000
# 6 0.000000 0.000000 0.000000 0.000000 0.000000 0.030237
#
#
# Mechanical properties :
#
#
# Convention : Reuss Voigt Hill
#
# Bulk Modulus (GPa) = 33.87091 45.26996 39.57044
# Shear Modulus (GPa) = 22.27448 28.59213 25.43330
#
# Velocity S-wave (km/s) = 3.26514 3.69932 3.48899
# Velocity P-wave (km/s) = 5.51601 6.31775 5.93045
#
# Compressibility (1/GPa) = 0.02952386
#
# Stress axis : x y z
#
# Youngs Moduli (GPa) = 100.27465 28.14865 91.80516
#
# Poissons Ratio (x) = 0.27122 0.00027
# Poissons Ratio (y) = 0.96619 0.34841
# Poissons Ratio (z) = 0.00030 0.10683
#
# Static dielectric constant tensor:
#      x y z
#    x 4.259080 0.000000 0.000000 
#    y 0.000000 3.430510 0.000000 
#    z 0.000000 0.000000 3.650740 
# 
# 
# High freq. dielectric constant tensor:
#      x y z
#    x 1.837710 0.000000 0.000000 
#    y 0.000000 1.778400 0.000000 
#    z 0.000000 0.000000 1.819610 
# 
# From -- ./inp_files/3777.got.cif
#   From: 2010.03.12/outbox.cif.g09.slc.cpg/sg32_2_cif.got.tgz:3777.got - 2010.04.14 01:46:39.
