data_PCOD8170016
_publ_section_title
;
Structure prediction by ZEFSAII (Michael W. Deem and Ramdas Pophale) SiO2 
 PCOD8170016
Probable space group: P M N 21
;
_chemical_formula_sum "Si O2"
_cell_formula_units_Z 24
_cell_length_a 9.344158
_cell_length_b 14.540743
_cell_length_c 8.884532
_cell_angle_alpha 90.000000
_cell_angle_beta 90.000000
_cell_angle_gamma 90.000000
_cell_volume 1207.150248
_symmetry_space_group_name_H-M "P M N 21"
_symmetry_group_IT_number 31
_symmetry_cell_setting 'orthorhombic'
loop_
_space_group_symop_operation_xyz
x,y,z
1/2-x,-y,1/2+z
-x,y,z
1/2+x,-y,1/2+z
loop_
_atom_site_type_symbol
_atom_site_label
_atom_site_fract_x
_atom_site_fract_y
_atom_site_fract_z
Si Si1 0.341340 0.775195 0.885100
Si Si2 0.667550 0.893403 0.328053
Si Si3 0.331962 0.964739 0.006273
Si Si4 0.165813 0.537851 0.124111
Si Si5 0.341733 0.700860 0.221145
Si Si6 0.166034 0.610697 0.790093
O O1 0.500000 0.765276 0.812465
O O2 0.292972 0.882034 0.889320
O O3 0.228263 0.714239 0.792472
O O4 0.349903 0.742188 0.055769
O O5 0.500000 0.909368 0.350311
O O6 0.703035 0.784126 0.332297
O O7 0.751159 0.942048 0.462836
O O8 0.720834 0.937468 0.171964
O O9 0.500000 0.983164 0.003952
O O10 0.227402 0.618977 0.230443
O O11 0.250263 0.444565 0.160965
O O12 0.000000 0.525259 0.163639
O O13 0.190875 0.561028 0.949822
O O14 0.500000 0.662465 0.264973
O O15 0.000000 0.616057 0.747809
#
# Coordination Sequence:
#
# PCOD8170016 Si02
#       6
#     4   4   4   4   4   4
#     4   8  15  30  50  69  93 127 163 198 237 282
#     4   9  18  32  50  73  99 127 161 199 239 285
#     4   9  18  32  50  73  99 127 161 199 239 285
#     4  10  20  33  51  75  99 125 160 199 239 286
#     4   8  15  30  50  69  93 127 163 198 237 282
#     4  10  20  33  51  75  99 125 160 199 239 286
#
# _framework density 19.881535
#
# number of rings (size 3 to 8) (size 9 to 14) (size 15 to 20)
#    0.000    3.000    0.000    3.000    0.000    4.000 
#    0.000    5.000    0.000    2.000    0.000    0.000 
#    0.000    0.000    0.000    0.000    0.000    0.000 
#
# Total GULP energy -297531.264759 kJ/mol
# GULP energy per Si atom -12397.136032 kJ/mol
# Density = 1.983628 g / cm^3
# Si number density = 19.881535 Si / 1000 Ang^3
#
#
#
# Elastic Constant Matrix: (Units=GPa)
#
#
# Indices 1 2 3 4 5 6 
#
# 1 72.4963 6.6864 4.3625 0.0000 0.0000 0.0000
# 2 6.6864 24.6206 -11.6878 0.0000 0.0000 0.0000
# 3 4.3625 -11.6878 13.5863 0.0000 0.0000 0.0000
# 4 0.0000 0.0000 0.0000 30.2385 0.0000 0.0000
# 5 0.0000 0.0000 0.0000 0.0000 24.5267 0.0000
# 6 0.0000 0.0000 0.0000 0.0000 0.0000 36.3444
#
#
#
# Elastic Compliance Matrix: (Units=1/GPa)
#
#
# Indices 1 2 3 4 5 6 
#
# 1 0.015720 -0.011266 -0.014740 0.000000 0.000000 0.000000
# 2 -0.011266 0.076728 0.069624 0.000000 0.000000 0.000000
# 3 -0.014740 0.069624 0.138231 0.000000 0.000000 0.000000
# 4 0.000000 0.000000 0.000000 0.033070 0.000000 0.000000
# 5 0.000000 0.000000 0.000000 0.000000 0.040772 0.000000
# 6 0.000000 0.000000 0.000000 0.000000 0.000000 0.027515
#
#
# Mechanical properties :
#
#
# Convention : Reuss Voigt Hill
#
# Bulk Modulus (GPa) = 3.14550 12.15838 7.65194
# Shear Modulus (GPa) = 14.25428 25.64473 19.94950
#
# Velocity S-wave (km/s) = 2.68052 3.59538 3.17111
# Velocity P-wave (km/s) = 3.34152 4.83367 4.15513
#
# Compressibility (1/GPa) = 0.31791461
#
# Stress axis : x y z
#
# Youngs Moduli (GPa) = 63.61368 13.03309 7.23424
#
# Poissons Ratio (x) = 0.14684 0.10663
# Poissons Ratio (y) = 0.71669 -0.50368
# Poissons Ratio (z) = 0.93764 -0.90741
#
# Static dielectric constant tensor:
#      x y z
#    x 3.577290 0.000000 0.000000 
#    y 0.000000 3.779900 0.000000 
#    z 0.000000 0.000000 3.205400 
# 
# 
# High freq. dielectric constant tensor:
#      x y z
#    x 1.769870 0.000000 0.000000 
#    y 0.000000 1.780090 0.000000 
#    z 0.000000 0.000000 1.738150 
# 
# From -- ./inp_files/1702.got.cif
#   From: 2010.03.12/outbox.cif.g09.slc.cpg/sg31_1_cif.got.tgz:1702.got - 2010.04.14 01:42:59.
