data_PCOD8170094
_publ_section_title
;
Structure prediction by ZEFSAII (Michael W. Deem and Ramdas Pophale) SiO2 
 PCOD8170094
Probable space group: P M N 21
;
_chemical_formula_sum "Si O2"
_cell_formula_units_Z 32
_cell_length_a 8.901833
_cell_length_b 11.160840
_cell_length_c 16.398445
_cell_angle_alpha 90.000000
_cell_angle_beta 90.000000
_cell_angle_gamma 90.000000
_cell_volume 1629.217222
_symmetry_space_group_name_H-M "P M N 21"
_symmetry_group_IT_number 31
_symmetry_cell_setting 'orthorhombic'
loop_
_space_group_symop_operation_xyz
x,y,z
1/2-x,-y,1/2+z
-x,y,z
1/2+x,-y,1/2+z
loop_
_atom_site_type_symbol
_atom_site_label
_atom_site_fract_x
_atom_site_fract_y
_atom_site_fract_z
Si Si1 0.169540 0.687378 0.972980
Si Si2 0.329848 0.327392 0.767063
Si Si3 0.170597 0.423792 0.616042
Si Si4 0.168143 0.421629 0.328641
Si Si5 0.322161 0.926571 0.645399
Si Si6 0.326977 0.032094 0.474193
Si Si7 0.828647 0.681028 0.677325
Si Si8 0.324218 0.060411 0.809372
O O1 0.293177 0.627559 0.916453
O O2 0.000000 0.657193 0.945427
O O3 0.196493 0.827306 0.978326
O O4 0.200958 0.629928 0.059834
O O5 0.500000 0.320091 0.730382
O O6 0.204325 0.362083 0.701939
O O7 0.321529 0.433871 0.833603
O O8 0.285870 0.201181 0.806582
O O9 0.191349 0.567441 0.617936
O O10 0.000000 0.391392 0.590401
O O11 0.283012 0.359542 0.267296
O O12 0.000000 0.382123 0.303874
O O13 0.500000 0.938038 0.645350
O O14 0.259640 0.981064 0.559822
O O15 0.274269 0.788567 0.646377
O O16 0.260317 0.995555 0.726799
O O17 0.500000 0.995026 0.466367
O O18 0.246264 0.986716 0.392866
O O19 0.000000 0.725536 0.680169
O O20 0.500000 0.035515 0.815089
#
# Coordination Sequence:
#
# PCOD8170094 Si02
#       8
#     4   4   4   4   4   4   4   4
#     4  11  22  37  57  80 110 145 182 228 281 331
#     4   9  19  37  58  80 110 146 182 223 277 334
#     4  10  21  36  56  82 110 141 181 229 276 330
#     4  10  20  35  57  83 111 144 182 226 276 332
#     4  10  21  38  59  82 112 151 191 232 281 338
#     4  10  23  40  57  82 114 148 190 236 282 338
#     4  10  21  37  56  81 112 144 183 228 276 331
#     4  10  21  38  60  84 113 151 191 232 281 336
#
# _framework density 19.641332999999999
#
# number of rings (size 3 to 8) (size 9 to 14) (size 15 to 20)
#    0.000    2.000    0.000    3.000    0.000    9.500 
#    0.000    5.000    0.000    0.000    0.000    0.000 
#    0.000    0.000    0.000    0.000    0.000    0.000 
#
# Total GULP energy -396702.848864 kJ/mol
# GULP energy per Si atom -12396.964027 kJ/mol
# Density = 1.959663 g / cm^3
# Si number density = 19.641333 Si / 1000 Ang^3
#
#
#
# Elastic Constant Matrix: (Units=GPa)
#
#
# Indices 1 2 3 4 5 6 
#
# 1 36.9201 40.2675 31.6188 0.0000 0.0000 0.0000
# 2 40.2675 108.3960 54.6572 0.0000 0.0000 0.0000
# 3 31.6188 54.6572 121.8100 0.0000 0.0000 0.0000
# 4 0.0000 0.0000 0.0000 67.0937 0.0000 0.0000
# 5 0.0000 0.0000 0.0000 0.0000 29.5768 0.0000
# 6 0.0000 0.0000 0.0000 0.0000 0.0000 29.5924
#
#
#
# Elastic Compliance Matrix: (Units=1/GPa)
#
#
# Indices 1 2 3 4 5 6 
#
# 1 0.048537 -0.015093 -0.005827 0.000000 0.000000 0.000000
# 2 -0.015093 0.016616 -0.003538 0.000000 0.000000 0.000000
# 3 -0.005827 -0.003538 0.011310 0.000000 0.000000 0.000000
# 4 0.000000 0.000000 0.000000 0.014905 0.000000 0.000000
# 5 0.000000 0.000000 0.000000 0.000000 0.033810 0.000000
# 6 0.000000 0.000000 0.000000 0.000000 0.000000 0.033792
#
#
# Mechanical properties :
#
#
# Convention : Reuss Voigt Hill
#
# Bulk Modulus (GPa) = 36.30100 57.80146 47.05123
# Shear Modulus (GPa) = 23.03434 34.62475 28.82955
#
# Velocity S-wave (km/s) = 3.42826 4.20319 3.83534
# Velocity P-wave (km/s) = 5.84745 7.28341 6.60457
#
# Compressibility (1/GPa) = 0.02754745
#
# Stress axis : x y z
#
# Youngs Moduli (GPa) = 20.60298 60.18217 88.42069
#
# Poissons Ratio (x) = 0.90831 0.51520
# Poissons Ratio (y) = 0.31095 0.31285
# Poissons Ratio (z) = 0.12005 0.21293
#
# Static dielectric constant tensor:
#      x y z
#    x 3.512430 0.000000 0.000000 
#    y 0.000000 3.656860 0.000000 
#    z 0.000000 0.000000 3.543940 
# 
# 
# High freq. dielectric constant tensor:
#      x y z
#    x 1.762250 0.000000 0.000000 
#    y 0.000000 1.775780 0.000000 
#    z 0.000000 0.000000 1.761170 
# 
# From -- ./inp_files/5024.got.cif
#   From: 2010.03.12/outbox.cif.g09.slc.cpg/sg31_3_cif.got.tgz:5024.got - 2010.04.14 01:42:59.
