data_PCOD8170483
_publ_section_title
;
Structure prediction by ZEFSAII (Michael W. Deem and Ramdas Pophale) SiO2 
 PCOD8170483
Probable space group: P B A 2
;
_chemical_formula_sum "Si O2"
_cell_formula_units_Z 30
_cell_length_a 15.209403
_cell_length_b 8.476350
_cell_length_c 11.505488
_cell_angle_alpha 90.000000
_cell_angle_beta 90.000000
_cell_angle_gamma 90.000000
_cell_volume 1483.290080
_symmetry_space_group_name_H-M "P B A 2"
_symmetry_group_IT_number 32
_symmetry_cell_setting 'orthorhombic'
loop_
_space_group_symop_operation_xyz
x,y,z
-x,-y,z
1/2-x,1/2+y,z
1/2+x,1/2-y,z
loop_
_atom_site_type_symbol
_atom_site_label
_atom_site_fract_x
_atom_site_fract_y
_atom_site_fract_z
Si Si1 0.648065 0.286279 0.895200
Si Si2 0.036056 0.662654 0.921643
Si Si3 0.722454 0.560299 0.760328
Si Si4 0.973962 0.667154 0.289061
Si Si5 0.135184 0.649202 0.687752
Si Si6 0.868266 0.283562 0.147350
Si Si7 0.500000 0.000000 0.511622
Si Si8 0.685419 0.147284 0.144339
O O1 0.543968 0.267419 0.872167
O O2 0.672273 0.467418 0.864095
O O3 0.705104 0.176018 0.812724
O O4 0.668535 0.242557 0.026735
O O5 0.098331 0.611397 0.815889
O O6 0.000000 0.500000 0.978525
O O7 0.090433 0.755634 0.020387
O O8 0.772091 0.441243 0.673482
O O9 0.652688 0.661962 0.683476
O O10 0.963465 0.641546 0.428683
O O11 0.881199 0.727281 0.238245
O O12 0.000000 0.500000 0.229170
O O13 0.059533 0.765946 0.246529
O O14 0.072706 0.585666 0.587932
O O15 0.786761 0.170948 0.178772
O O16 0.831960 0.461678 0.141302
#
# Coordination Sequence:
#
# PCOD8170483 Si02
#       8
#     4   4   4   4   4   4   2   4
#     4  11  19  34  56  88 128 161 198 251 318 390
#     4  12  19  33  60  83 122 167 201 244 320 384
#     4  10  22  35  55  92 124 152 209 257 315 385
#     4   8  19  38  58  85 116 163 215 249 295 381
#     4  11  21  39  59  86 118 165 203 264 310 383
#     4  11  20  36  58  91 121 162 205 256 316 388
#     4  10  20  42  64  84 112 174 224 250 312 372
#     4  11  19  34  59  86 123 163 197 256 315 372
#
# _framework density 20.225307999999998
#
# number of rings (size 3 to 8) (size 9 to 14) (size 15 to 20)
#    0.400    1.067    4.667    2.800    0.000    0.533 
#    2.400    0.667    0.000    0.000   10.400    0.000 
#    0.000    0.000    0.000    0.000    0.000    0.000 
#
# Total GULP energy -371703.408991 kJ/mol
# GULP energy per Si atom -12390.113633 kJ/mol
# Density = 2.017927 g / cm^3
# Si number density = 20.225308 Si / 1000 Ang^3
#
#
#
# Elastic Constant Matrix: (Units=GPa)
#
#
# Indices 1 2 3 4 5 6 
#
# 1 135.0736 41.1394 36.4610 0.0000 0.0000 0.0000
# 2 41.1394 70.8502 24.2161 0.0000 0.0000 0.0000
# 3 36.4610 24.2161 95.6652 0.0000 0.0000 0.0000
# 4 0.0000 0.0000 0.0000 7.5539 0.0000 0.0000
# 5 0.0000 0.0000 0.0000 0.0000 18.5015 0.0000
# 6 0.0000 0.0000 0.0000 0.0000 0.0000 30.6568
#
#
#
# Elastic Compliance Matrix: (Units=1/GPa)
#
#
# Indices 1 2 3 4 5 6 
#
# 1 0.009484 -0.004676 -0.002431 0.000000 0.000000 0.000000
# 2 -0.004676 0.017757 -0.002713 0.000000 0.000000 0.000000
# 3 -0.002431 -0.002713 0.012066 0.000000 0.000000 0.000000
# 4 0.000000 0.000000 0.000000 0.132382 0.000000 0.000000
# 5 0.000000 0.000000 0.000000 0.000000 0.054050 0.000000
# 6 0.000000 0.000000 0.000000 0.000000 0.000000 0.032619
#
#
# Mechanical properties :
#
#
# Convention : Reuss Voigt Hill
#
# Bulk Modulus (GPa) = 50.84502 56.13579 53.49040
# Shear Modulus (GPa) = 17.57145 24.66061 21.11603
#
# Velocity S-wave (km/s) = 2.95071 3.49563 3.23467
# Velocity P-wave (km/s) = 6.06653 6.64139 6.36046
#
# Compressibility (1/GPa) = 0.01966761
#
# Stress axis : x y z
#
# Youngs Moduli (GPa) = 105.44429 56.31737 82.87560
#
# Poissons Ratio (x) = 0.26333 0.20146
# Poissons Ratio (y) = 0.49304 0.22481
# Poissons Ratio (z) = 0.25632 0.15277
#
# Static dielectric constant tensor:
#      x y z
#    x 4.165600 0.000000 0.000000 
#    y 0.000000 3.632770 0.000000 
#    z 0.000000 0.000000 3.311420 
# 
# 
# High freq. dielectric constant tensor:
#      x y z
#    x 1.809490 0.000000 0.000000 
#    y 0.000000 1.766460 0.000000 
#    z 0.000000 0.000000 1.752640 
# 
# From -- ./inp_files/3932.got.cif
#   From: 2010.03.12/outbox.cif.g09.slc.cpg/sg32_2_cif.got.tgz:3932.got - 2010.04.14 01:46:39.
