data_PCOD8170866
_publ_section_title
;
Structure prediction by ZEFSAII (Michael W. Deem and Ramdas Pophale) SiO2 
 PCOD8170866
Probable space group: P N A 21
;
_chemical_formula_sum "Si O2"
_cell_formula_units_Z 32
_cell_length_a 15.136400
_cell_length_b 8.035426
_cell_length_c 11.839865
_cell_angle_alpha 90.000000
_cell_angle_beta 90.000000
_cell_angle_gamma 90.000000
_cell_volume 1440.052258
_symmetry_space_group_name_H-M "P N A 21"
_symmetry_group_IT_number 33
_symmetry_cell_setting 'orthorhombic'
loop_
_space_group_symop_operation_xyz
x,y,z
-x,-y,1/2+z
1/2-x,1/2+y,1/2+z
1/2+x,1/2-y,z
loop_
_atom_site_type_symbol
_atom_site_label
_atom_site_fract_x
_atom_site_fract_y
_atom_site_fract_z
Si Si1 0.708371 0.351800 0.318230
Si Si2 0.097154 0.778350 0.862308
Si Si3 0.790067 0.064247 0.026305
Si Si4 0.438715 0.916533 0.779288
Si Si5 0.669265 0.426351 0.767001
Si Si6 0.127027 0.610881 0.080172
Si Si7 0.729438 0.132136 0.657978
Si Si8 0.823906 0.429397 0.945505
O O1 0.800961 0.262537 0.339486
O O2 0.669943 0.440086 0.431126
O O3 0.637738 0.221934 0.271638
O O4 0.722166 0.484401 0.220108
O O5 0.033550 0.671758 0.782175
O O6 0.089740 0.978827 0.836477
O O7 0.074336 0.727822 0.991451
O O8 0.826383 0.027963 0.149995
O O9 0.682966 0.039251 0.020219
O O10 0.819709 0.250895 0.001987
O O11 0.441661 0.030997 0.667584
O O12 0.419897 0.031594 0.889989
O O13 0.654767 0.228788 0.736057
O O14 0.756219 0.444281 0.842898
O O15 0.199524 0.721383 0.143941
O O16 0.692735 0.073558 0.537855
#
# Coordination Sequence:
#
# PCOD8170866 Si02
#       8
#     4   4   4   4   4   4   4   4
#     4  11  21  42  65  96 127 172 211 266 318 381
#     4  11  24  40  62  90 133 167 213 263 320 378
#     4  10  20  37  70  92 125 168 211 256 321 377
#     4  12  23  41  64  94 131 168 217 263 317 383
#     4  11  20  40  60  93 124 162 210 258 312 375
#     4  10  20  40  61  95 126 169 215 263 316 384
#     4  11  20  37  73  92 124 173 213 262 328 377
#     4  12  20  37  67  94 120 169 210 255 320 375
#
# _framework density 22.221413999999999
#
# number of rings (size 3 to 8) (size 9 to 14) (size 15 to 20)
#    0.000    1.000    6.250    3.000    0.000    2.000 
#    0.000    5.000    0.000    0.000    0.000    0.000 
#    0.000    0.000    0.000    0.000    0.000    0.000 
#
# Total GULP energy -396499.039359 kJ/mol
# GULP energy per Si atom -12390.594980 kJ/mol
# Density = 2.217084 g / cm^3
# Si number density = 22.221414 Si / 1000 Ang^3
#
#
#
# Elastic Constant Matrix: (Units=GPa)
#
#
# Indices 1 2 3 4 5 6 
#
# 1 17.5395 6.0655 13.8712 0.0000 0.0000 0.0000
# 2 6.0655 114.5128 46.1826 0.0000 0.0000 0.0000
# 3 13.8712 46.1826 127.4664 0.0000 0.0000 0.0000
# 4 0.0000 0.0000 0.0000 52.9438 0.0000 0.0000
# 5 0.0000 0.0000 0.0000 0.0000 18.9623 0.0000
# 6 0.0000 0.0000 0.0000 0.0000 0.0000 2.5099
#
#
#
# Elastic Compliance Matrix: (Units=1/GPa)
#
#
# Indices 1 2 3 4 5 6 
#
# 1 0.062426 -0.000664 -0.006553 0.000000 0.000000 0.000000
# 2 -0.000664 0.010234 -0.003636 0.000000 0.000000 0.000000
# 3 -0.006553 -0.003636 0.009876 0.000000 0.000000 0.000000
# 4 0.000000 0.000000 0.000000 0.018888 0.000000 0.000000
# 5 0.000000 0.000000 0.000000 0.000000 0.052736 0.000000
# 6 0.000000 0.000000 0.000000 0.000000 0.000000 0.398426
#
#
# Mechanical properties :
#
#
# Convention : Reuss Voigt Hill
#
# Bulk Modulus (GPa) = 16.43901 43.52858 29.98380
# Shear Modulus (GPa) = 8.40947 27.77648 18.09297
#
# Velocity S-wave (km/s) = 1.94746 3.53935 2.85654
# Velocity P-wave (km/s) = 3.53139 6.02775 4.93986
#
# Compressibility (1/GPa) = 0.06083091
#
# Stress axis : x y z
#
# Youngs Moduli (GPa) = 16.01897 97.71282 101.26015
#
# Poissons Ratio (x) = 0.06487 0.66354
# Poissons Ratio (y) = 0.01063 0.36815
# Poissons Ratio (z) = 0.10497 0.35525
#
# Static dielectric constant tensor:
#      x y z
#    x 3.540430 0.000000 0.000000 
#    y 0.000000 4.704780 0.000000 
#    z 0.000000 0.000000 4.377750 
# 
# 
# High freq. dielectric constant tensor:
#      x y z
#    x 1.813480 0.000000 0.000000 
#    y 0.000000 1.892840 0.000000 
#    z 0.000000 0.000000 1.895790 
# 
# From -- ./inp_files/6830.got.cif
#   From: 2010.03.12/outbox.cif.g09.slc.cpg/sg33_4_cif.got.tgz:6830.got - 2010.04.14 01:49:19.
