data_PCOD8170987
_publ_section_title
;
Structure prediction by ZEFSAII (Michael W. Deem and Ramdas Pophale) SiO2 
 PCOD8170987
Probable space group: P N A 21
;
_chemical_formula_sum "Si O2"
_cell_formula_units_Z 32
_cell_length_a 10.047638
_cell_length_b 12.429881
_cell_length_c 12.455838
_cell_angle_alpha 90.000000
_cell_angle_beta 90.000000
_cell_angle_gamma 90.000000
_cell_volume 1555.621374
_symmetry_space_group_name_H-M "P N A 21"
_symmetry_group_IT_number 33
_symmetry_cell_setting 'orthorhombic'
loop_
_space_group_symop_operation_xyz
x,y,z
-x,-y,1/2+z
1/2-x,1/2+y,1/2+z
1/2+x,1/2-y,z
loop_
_atom_site_type_symbol
_atom_site_label
_atom_site_fract_x
_atom_site_fract_y
_atom_site_fract_z
Si Si1 0.753836 0.656575 0.607930
Si Si2 0.471021 0.588313 0.347962
Si Si3 0.270817 0.515381 0.926634
Si Si4 0.232143 0.248172 0.516011
Si Si5 0.007107 0.436098 0.829738
Si Si6 0.239384 0.424638 0.336551
Si Si7 0.982573 0.251868 0.660894
Si Si8 0.483860 0.226837 0.011403
O O1 0.734351 0.547871 0.539339
O O2 0.715577 0.638436 0.730757
O O3 0.655124 0.749210 0.567826
O O4 0.904626 0.698440 0.599034
O O5 0.589166 0.503116 0.367113
O O6 0.330697 0.529107 0.348555
O O7 0.493037 0.648611 0.235377
O O8 0.463175 0.672861 0.443713
O O9 0.247725 0.640574 0.947275
O O10 0.158630 0.472948 0.845253
O O11 0.255021 0.349868 0.439773
O O12 0.083351 0.250171 0.561661
O O13 0.333740 0.253996 0.615119
O O14 0.912769 0.539231 0.818260
O O15 0.000084 0.363411 0.723840
O O16 0.955863 0.372643 0.933636
#
# Coordination Sequence:
#
# PCOD8170987 Si02
#       8
#     4   4   4   4   4   4   4   4
#     4  10  21  38  60  86 116 154 193 240 294 350
#     4  10  21  40  65  89 114 151 200 248 293 348
#     4  10  21  40  62  88 120 152 195 248 298 352
#     4  12  25  40  58  90 128 160 195 244 298 354
#     4  10  21  40  65  89 114 151 200 248 293 348
#     4  12  25  38  56  86 124 160 193 238 294 352
#     4  11  22  41  66  90 116 157 204 247 294 354
#     4   9  20  39  64  88 112 145 196 249 292 342
#
# _framework density 20.570558999999999
#
# number of rings (size 3 to 8) (size 9 to 14) (size 15 to 20)
#    0.000    1.500    0.000    5.250    0.000    9.000 
#    0.000    2.500    0.000    0.000    0.000    0.000 
#    0.000    0.000    0.000    0.000    0.000    0.000 
#
# Total GULP energy -397012.260296 kJ/mol
# GULP energy per Si atom -12406.633134 kJ/mol
# Density = 2.052374 g / cm^3
# Si number density = 20.570559 Si / 1000 Ang^3
#
#
#
# Elastic Constant Matrix: (Units=GPa)
#
#
# Indices 1 2 3 4 5 6 
#
# 1 76.3836 14.7278 17.5536 0.0000 0.0000 0.0000
# 2 14.7278 87.7957 27.3432 0.0000 0.0000 0.0000
# 3 17.5536 27.3432 86.2642 0.0000 0.0000 0.0000
# 4 0.0000 0.0000 0.0000 30.1606 0.0000 0.0000
# 5 0.0000 0.0000 0.0000 0.0000 27.2828 0.0000
# 6 0.0000 0.0000 0.0000 0.0000 0.0000 30.4106
#
#
#
# Elastic Compliance Matrix: (Units=1/GPa)
#
#
# Indices 1 2 3 4 5 6 
#
# 1 0.013937 -0.001614 -0.002324 0.000000 0.000000 0.000000
# 2 -0.001614 0.012825 -0.003737 0.000000 0.000000 0.000000
# 3 -0.002324 -0.003737 0.013250 0.000000 0.000000 0.000000
# 4 0.000000 0.000000 0.000000 0.033156 0.000000 0.000000
# 5 0.000000 0.000000 0.000000 0.000000 0.036653 0.000000
# 6 0.000000 0.000000 0.000000 0.000000 0.000000 0.032883
#
#
# Mechanical properties :
#
#
# Convention : Reuss Voigt Hill
#
# Bulk Modulus (GPa) = 40.54933 41.07698 40.81315
# Shear Modulus (GPa) = 30.07083 30.29208 30.18146
#
# Velocity S-wave (km/s) = 3.82755 3.84160 3.83458
# Velocity P-wave (km/s) = 6.26806 6.29995 6.28403
#
# Compressibility (1/GPa) = 0.02466132
#
# Stress axis : x y z
#
# Youngs Moduli (GPa) = 71.75043 77.97541 75.47365
#
# Poissons Ratio (x) = 0.12586 0.17543
# Poissons Ratio (y) = 0.11581 0.28201
# Poissons Ratio (z) = 0.16678 0.29136
#
# Static dielectric constant tensor:
#      x y z
#    x 3.784470 0.000000 0.000000 
#    y 0.000000 3.718790 0.000000 
#    z 0.000000 0.000000 3.657350 
# 
# 
# High freq. dielectric constant tensor:
#      x y z
#    x 1.817000 0.000000 0.000000 
#    y 0.000000 1.805250 0.000000 
#    z 0.000000 0.000000 1.802030 
# 
# From -- ./inp_files/6022.got.cif
#   From: 2010.03.12/outbox.cif.g09.slc.cpg/sg33_4_cif.got.tgz:6022.got - 2010.04.14 01:49:19.
