data_PCOD8170169
_publ_section_title
;
Structure prediction by ZEFSAII (Michael W. Deem and Ramdas Pophale) SiO2 
 PCOD8170169
Probable space group: P M N 21
;
_chemical_formula_sum "Si O2"
_cell_formula_units_Z 16
_cell_length_a 17.609636
_cell_length_b 7.869531
_cell_length_c 5.057195
_cell_angle_alpha 90.000000
_cell_angle_beta 90.000000
_cell_angle_gamma 90.000000
_cell_volume 700.823941
_symmetry_space_group_name_H-M "P M N 21"
_symmetry_group_IT_number 31
_symmetry_cell_setting 'orthorhombic'
loop_
_space_group_symop_operation_xyz
x,y,z
1/2-x,-y,1/2+z
-x,y,z
1/2+x,-y,1/2+z
loop_
_atom_site_type_symbol
_atom_site_label
_atom_site_fract_x
_atom_site_fract_y
_atom_site_fract_z
Si Si1 0.640960 0.726828 0.132220
Si Si2 0.360643 0.069483 0.380781
Si Si3 0.772225 0.208849 0.118270
Si Si4 0.500000 0.265310 0.544842
Si Si5 0.000000 0.512920 0.556712
O O1 0.705930 0.683114 0.354771
O O2 0.573312 0.594304 0.132182
O O3 0.606739 0.914886 0.199341
O O4 0.678264 0.709795 0.848732
O O5 0.317380 0.209000 0.194292
O O6 0.424699 0.150354 0.568389
O O7 0.296720 0.990678 0.579296
O O8 0.500000 0.323931 0.241869
O O9 0.500000 0.419217 0.754603
#
# Coordination Sequence:
#
# PCOD8170169 Si02
#       5
#     4   4   4   2   2
#     4  10  21  40  69  90 128 176 223 271 328 403
#     4  10  22  42  69 104 119 171 224 300 328 385
#     4  10  20  37  75  95 121 159 241 286 322 391
#     4  12  29  39  66  94 152 167 220 281 351 389
#     4  12  27  45  56 100 144 187 216 263 335 443
#
# _framework density 22.830271
#
# number of rings (size 3 to 8) (size 9 to 14) (size 15 to 20)
#    1.500    0.000    2.500    2.250    3.500    1.000 
#    0.000    5.000    0.000    0.000    0.000    0.000 
#    0.000    0.000    0.000    0.000    0.000    0.000 
#
# Total GULP energy -198254.984579 kJ/mol
# GULP energy per Si atom -12390.936536 kJ/mol
# Density = 2.277831 g / cm^3
# Si number density = 22.830271 Si / 1000 Ang^3
#
#
#
# Elastic Constant Matrix: (Units=GPa)
#
#
# Indices 1 2 3 4 5 6 
#
# 1 106.9078 27.9028 20.6248 0.0000 0.0000 0.0000
# 2 27.9028 44.9380 8.0908 0.0000 0.0000 0.0000
# 3 20.6248 8.0908 114.8451 0.0000 0.0000 0.0000
# 4 0.0000 0.0000 0.0000 35.0899 0.0000 0.0000
# 5 0.0000 0.0000 0.0000 0.0000 32.4305 0.0000
# 6 0.0000 0.0000 0.0000 0.0000 0.0000 4.7609
#
#
#
# Elastic Compliance Matrix: (Units=1/GPa)
#
#
# Indices 1 2 3 4 5 6 
#
# 1 0.011437 -0.006818 -0.001574 0.000000 0.000000 0.000000
# 2 -0.006818 0.026603 -0.000650 0.000000 0.000000 0.000000
# 3 -0.001574 -0.000650 0.009036 0.000000 0.000000 0.000000
# 4 0.000000 0.000000 0.000000 0.028498 0.000000 0.000000
# 5 0.000000 0.000000 0.000000 0.000000 0.030835 0.000000
# 6 0.000000 0.000000 0.000000 0.000000 0.000000 0.210045
#
#
# Mechanical properties :
#
#
# Convention : Reuss Voigt Hill
#
# Bulk Modulus (GPa) = 34.49092 42.21420 38.35256
# Shear Modulus (GPa) = 14.52636 28.46110 21.49373
#
# Velocity S-wave (km/s) = 2.52519 3.53461 3.07165
# Velocity P-wave (km/s) = 4.86235 5.93199 5.42360
#
# Compressibility (1/GPa) = 0.02899314
#
# Stress axis : x y z
#
# Youngs Moduli (GPa) = 87.43584 37.58929 110.67142
#
# Poissons Ratio (x) = 0.25629 0.17415
# Poissons Ratio (y) = 0.59615 0.07191
# Poissons Ratio (z) = 0.13759 0.02442
#
# Static dielectric constant tensor:
#      x y z
#    x 3.946450 0.000000 0.000000 
#    y 0.000000 3.708170 0.000000 
#    z 0.000000 0.000000 4.059040 
# 
# 
# High freq. dielectric constant tensor:
#      x y z
#    x 1.894860 0.000000 0.000000 
#    y 0.000000 1.872170 0.000000 
#    z 0.000000 0.000000 1.908740 
# 
# From -- ./inp_files/726.got.cif
#   From: 2010.03.12/outbox.cif.g09.slc.cpg/sg31_1_cif.got.tgz:726.got - 2010.04.14 01:42:59.
