data_PCOD8170379
_publ_section_title
;
Structure prediction by ZEFSAII (Michael W. Deem and Ramdas Pophale) SiO2 
 PCOD8170379
Probable space group: P M N 21
;
_chemical_formula_sum "Si O2"
_cell_formula_units_Z 24
_cell_length_a 8.849941
_cell_length_b 11.880289
_cell_length_c 11.942129
_cell_angle_alpha 90.000000
_cell_angle_beta 90.000000
_cell_angle_gamma 90.000000
_cell_volume 1255.593732
_symmetry_space_group_name_H-M "P M N 21"
_symmetry_group_IT_number 31
_symmetry_cell_setting 'orthorhombic'
loop_
_space_group_symop_operation_xyz
x,y,z
1/2-x,-y,1/2+z
-x,y,z
1/2+x,-y,1/2+z
loop_
_atom_site_type_symbol
_atom_site_label
_atom_site_fract_x
_atom_site_fract_y
_atom_site_fract_z
Si Si1 0.178040 0.325693 0.706790
Si Si2 0.678271 0.157026 0.533615
Si Si3 0.679658 0.221375 0.290213
Si Si4 0.820733 0.572292 0.651619
Si Si5 0.827192 0.708513 0.438910
Si Si6 0.827042 0.926429 0.585920
O O1 0.251644 0.232189 0.629866
O O2 0.244727 0.448034 0.673050
O O3 0.216581 0.299768 0.834540
O O4 0.000000 0.321551 0.690128
O O5 0.500000 0.170924 0.536774
O O6 0.744491 0.196550 0.413457
O O7 0.719103 0.027951 0.553117
O O8 0.500000 0.225549 0.290979
O O9 0.743394 0.341403 0.245789
O O10 0.729323 0.122482 0.205131
O O11 0.773232 0.614769 0.528460
O O12 0.000000 0.572458 0.660534
O O13 0.811647 0.831754 0.491397
O O14 0.000000 0.686760 0.401687
O O15 0.000000 0.968579 0.594136
#
# Coordination Sequence:
#
# PCOD8170379 Si02
#       6
#     4   4   4   4   4   4
#     4  11  23  36  56  85 116 149 186 228 276 332
#     4  11  23  36  56  85 115 146 186 231 276 330
#     4   8  17  36  59  80 106 146 185 225 279 334
#     4   8  17  36  59  81 109 147 186 226 280 334
#     4   9  19  38  61  83 111 147 186 231 283 332
#     4   9  19  38  61  82 109 145 185 231 284 334
#
# _framework density 19.114463000000001
#
# number of rings (size 3 to 8) (size 9 to 14) (size 15 to 20)
#    0.000    2.667    0.000    3.000    4.667    0.667 
#    0.000    1.667    0.000    4.000    0.000    0.000 
#    0.000    0.000    0.000    0.000    0.000    0.000 
#
# Total GULP energy -297584.393316 kJ/mol
# GULP energy per Si atom -12399.349721 kJ/mol
# Density = 1.907096 g / cm^3
# Si number density = 19.114463 Si / 1000 Ang^3
#
#
#
# Elastic Constant Matrix: (Units=GPa)
#
#
# Indices 1 2 3 4 5 6 
#
# 1 43.7021 28.3715 27.8916 0.0000 0.0000 0.0000
# 2 28.3715 111.2223 55.6165 0.0000 0.0000 0.0000
# 3 27.8916 55.6165 126.3940 0.0000 0.0000 0.0000
# 4 0.0000 0.0000 0.0000 22.4162 0.0000 0.0000
# 5 0.0000 0.0000 0.0000 0.0000 23.1738 0.0000
# 6 0.0000 0.0000 0.0000 0.0000 0.0000 22.0120
#
#
#
# Elastic Compliance Matrix: (Units=1/GPa)
#
#
# Indices 1 2 3 4 5 6 
#
# 1 0.028935 -0.005370 -0.004022 0.000000 0.000000 0.000000
# 2 -0.005370 0.012524 -0.004326 0.000000 0.000000 0.000000
# 3 -0.004022 -0.004326 0.010703 0.000000 0.000000 0.000000
# 4 0.000000 0.000000 0.000000 0.044611 0.000000 0.000000
# 5 0.000000 0.000000 0.000000 0.000000 0.043152 0.000000
# 6 0.000000 0.000000 0.000000 0.000000 0.000000 0.045430
#
#
# Mechanical properties :
#
#
# Convention : Reuss Voigt Hill
#
# Bulk Modulus (GPa) = 40.44294 56.11973 48.28134
# Shear Modulus (GPa) = 22.62109 24.81633 23.71871
#
# Velocity S-wave (km/s) = 3.44387 3.60710 3.52643
# Velocity P-wave (km/s) = 6.08423 6.83899 6.47262
#
# Compressibility (1/GPa) = 0.02472619
#
# Stress axis : x y z
#
# Youngs Moduli (GPa) = 34.55980 79.84742 93.43262
#
# Poissons Ratio (x) = 0.42875 0.37583
# Poissons Ratio (y) = 0.18557 0.40418
# Poissons Ratio (z) = 0.13901 0.34541
#
# Static dielectric constant tensor:
#      x y z
#    x 3.131600 0.000000 0.000000 
#    y 0.000000 3.719880 0.000000 
#    z 0.000000 0.000000 3.679700 
# 
# 
# High freq. dielectric constant tensor:
#      x y z
#    x 1.709370 0.000000 0.000000 
#    y 0.000000 1.753240 0.000000 
#    z 0.000000 0.000000 1.753370 
# 
# From -- ./inp_files/3438.got.cif
#   From: 2010.03.12/outbox.cif.g09.slc.cpg/sg31_2_cif.got.tgz:3438.got - 2010.04.14 01:42:59.
