data_PCOD8170300
_publ_section_title
;
Structure prediction by ZEFSAII (Michael W. Deem and Ramdas Pophale) SiO2 
 PCOD8170300
Probable space group: P M N 21
;
_chemical_formula_sum "Si O2"
_cell_formula_units_Z 16
_cell_length_a 7.641529
_cell_length_b 10.913913
_cell_length_c 10.917167
_cell_angle_alpha 90.000000
_cell_angle_beta 90.000000
_cell_angle_gamma 90.000000
_cell_volume 910.480622
_symmetry_space_group_name_H-M "P M N 21"
_symmetry_group_IT_number 31
_symmetry_cell_setting 'orthorhombic'
loop_
_space_group_symop_operation_xyz
x,y,z
1/2-x,-y,1/2+z
-x,y,z
1/2+x,-y,1/2+z
loop_
_atom_site_type_symbol
_atom_site_label
_atom_site_fract_x
_atom_site_fract_y
_atom_site_fract_z
Si Si1 0.308221 0.171483 0.885790
Si Si2 0.000000 0.446138 0.551464
Si Si3 0.500000 0.799519 0.197922
Si Si4 0.691803 0.633968 0.580336
Si Si5 0.000000 0.299809 0.305891
Si Si6 0.500000 0.945947 0.952417
O O1 0.500000 0.218737 0.839965
O O2 0.173610 0.179808 0.775753
O O3 0.326937 0.030058 0.930949
O O4 0.250220 0.250727 0.001173
O O5 0.173688 0.523757 0.572771
O O6 0.000000 0.398310 0.413618
O O7 0.000000 0.338050 0.649231
O O8 0.500000 0.897164 0.089714
O O9 0.500000 0.588282 0.533188
O O10 0.673091 0.678811 0.721841
O O11 0.000000 0.162596 0.354905
#
# Coordination Sequence:
#
# PCOD8170300 Si02
#       6
#     4   2   2   4   2   2
#     4  10  22  38  65  86 119 157 201 238 302 352
#     4  11  23  40  60  89 120 154 204 241 291 356
#     4  11  23  40  62  91 118 160 196 249 297 346
#     4  10  22  38  63  84 119 162 190 241 303 344
#     4   9  23  40  58  89 122 148 200 249 285 356
#     4   9  23  40  60  91 120 152 198 251 289 358
#
# _framework density 17.573135000000001
#
# number of rings (size 3 to 8) (size 9 to 14) (size 15 to 20)
#    1.500    0.500    2.500    0.000    7.000    1.000 
#    2.250    0.000    0.000    0.000    0.000    0.000 
#    0.000    0.000    0.000    0.000    0.000    0.000 
#
# Total GULP energy -198281.995767 kJ/mol
# GULP energy per Si atom -12392.624735 kJ/mol
# Density = 1.753314 g / cm^3
# Si number density = 17.573135 Si / 1000 Ang^3
#
#
#
# Elastic Constant Matrix: (Units=GPa)
#
#
# Indices 1 2 3 4 5 6 
#
# 1 156.1354 76.2546 76.8322 0.0000 0.0000 0.0000
# 2 76.2546 151.6275 93.0667 0.0000 0.0000 0.0000
# 3 76.8322 93.0667 153.4050 0.0000 0.0000 0.0000
# 4 0.0000 0.0000 0.0000 24.1019 0.0000 0.0000
# 5 0.0000 0.0000 0.0000 0.0000 23.3632 0.0000
# 6 0.0000 0.0000 0.0000 0.0000 0.0000 20.9945
#
#
#
# Elastic Compliance Matrix: (Units=1/GPa)
#
#
# Indices 1 2 3 4 5 6 
#
# 1 0.009223 -0.002873 -0.002877 0.000000 0.000000 0.000000
# 2 -0.002873 0.011403 -0.005479 0.000000 0.000000 0.000000
# 3 -0.002877 -0.005479 0.011283 0.000000 0.000000 0.000000
# 4 0.000000 0.000000 0.000000 0.041490 0.000000 0.000000
# 5 0.000000 0.000000 0.000000 0.000000 0.042802 0.000000
# 6 0.000000 0.000000 0.000000 0.000000 0.000000 0.047631
#
#
# Mechanical properties :
#
#
# Convention : Reuss Voigt Hill
#
# Bulk Modulus (GPa) = 105.78958 105.94165 105.86561
# Shear Modulus (GPa) = 26.39341 28.02621 27.20981
#
# Velocity S-wave (km/s) = 3.87966 3.99787 3.93921
# Velocity P-wave (km/s) = 8.96657 9.04033 9.00353
#
# Compressibility (1/GPa) = 0.00945273
#
# Stress axis : x y z
#
# Youngs Moduli (GPa) = 108.42119 87.69800 88.62662
#
# Poissons Ratio (x) = 0.25195 0.25494
# Poissons Ratio (y) = 0.31148 0.48558
# Poissons Ratio (z) = 0.31188 0.48049
#
# Static dielectric constant tensor:
#      x y z
#    x 3.262250 0.000000 0.000000 
#    y 0.000000 3.243030 0.000000 
#    z 0.000000 0.000000 3.253390 
# 
# 
# High freq. dielectric constant tensor:
#      x y z
#    x 1.678370 0.000000 0.000000 
#    y 0.000000 1.684450 0.000000 
#    z 0.000000 0.000000 1.684670 
# 
# From -- ./inp_files/1569.got.cif
#   From: 2010.03.12/outbox.cif.g09.slc.cpg/sg31_1_cif.got.tgz:1569.got - 2010.04.14 01:42:59.
