data_PCOD8170529
_publ_section_title
;
Structure prediction by ZEFSAII (Michael W. Deem and Ramdas Pophale) SiO2 
 PCOD8170529
Probable space group: P B A 2
;
_chemical_formula_sum "Si O2"
_cell_formula_units_Z 30
_cell_length_a 20.097357
_cell_length_b 13.326207
_cell_length_c 5.068675
_cell_angle_alpha 90.000000
_cell_angle_beta 90.000000
_cell_angle_gamma 90.000000
_cell_volume 1357.500342
_symmetry_space_group_name_H-M "P B A 2"
_symmetry_group_IT_number 32
_symmetry_cell_setting 'orthorhombic'
loop_
_space_group_symop_operation_xyz
x,y,z
-x,-y,z
1/2-x,1/2+y,z
1/2+x,1/2-y,z
loop_
_atom_site_type_symbol
_atom_site_label
_atom_site_fract_x
_atom_site_fract_y
_atom_site_fract_z
Si Si1 0.137268 0.739015 0.640490
Si Si2 0.000000 0.000000 0.729475
Si Si3 0.687510 0.080006 0.225537
Si Si4 0.677184 0.649739 0.143732
Si Si5 0.913090 0.744260 0.091843
Si Si6 0.359219 0.553145 0.980389
Si Si7 0.779314 0.457201 0.734479
Si Si8 0.004742 0.220830 0.583815
O O1 0.138956 0.780106 0.343893
O O2 0.186320 0.646761 0.665547
O O3 0.059250 0.713787 0.675767
O O4 0.158097 0.825002 0.844244
O O5 0.933348 0.976692 0.892074
O O6 0.013056 0.898109 0.566514
O O7 0.744002 0.163857 0.177075
O O8 0.619302 0.138417 0.171043
O O9 0.696180 0.039151 0.522399
O O10 0.693181 0.988413 0.020961
O O11 0.661328 0.531726 0.193273
O O12 0.975365 0.752796 0.286876
O O13 0.862556 0.838797 0.126616
O O14 0.936898 0.749147 0.787630
O O15 0.301370 0.555002 0.751871
#
# Coordination Sequence:
#
# PCOD8170529 Si02
#       8
#     4   2   4   4   4   4   4   4
#     4  12  24  43  65  98 134 176 221 280 325 404
#     4  10  22  38  66  96 140 172 204 274 340 424
#     4  11  24  45  67  95 128 181 226 287 320 395
#     4  11  23  39  67  95 133 167 217 266 342 399
#     4  11  25  43  66  96 138 173 226 272 342 403
#     4  10  23  42  66 104 134 176 212 274 348 420
#     4  11  25  44  68  95 133 174 236 275 331 392
#     4  11  25  40  65  98 135 177 221 268 342 410
#
# _framework density 22.099443999999998
#
# number of rings (size 3 to 8) (size 9 to 14) (size 15 to 20)
#    0.000    1.067    1.333    4.800    3.733    6.933 
#    0.000    4.000    0.000    0.000    0.000    0.000 
#    0.000    0.000    0.000    0.000    0.000    0.000 
#
# Total GULP energy -371869.517835 kJ/mol
# GULP energy per Si atom -12395.650595 kJ/mol
# Density = 2.204914 g / cm^3
# Si number density = 22.099444 Si / 1000 Ang^3
#
#
#
# Elastic Constant Matrix: (Units=GPa)
#
#
# Indices 1 2 3 4 5 6 
#
# 1 120.1237 56.3806 23.8736 0.0000 0.0000 0.0000
# 2 56.3806 85.2626 25.8881 0.0000 0.0000 0.0000
# 3 23.8736 25.8881 83.5661 0.0000 0.0000 0.0000
# 4 0.0000 0.0000 0.0000 21.2512 0.0000 0.0000
# 5 0.0000 0.0000 0.0000 0.0000 31.0068 0.0000
# 6 0.0000 0.0000 0.0000 0.0000 0.0000 38.7442
#
#
#
# Elastic Compliance Matrix: (Units=1/GPa)
#
#
# Indices 1 2 3 4 5 6 
#
# 1 0.012160 -0.007711 -0.001085 0.000000 0.000000 0.000000
# 2 -0.007711 0.017836 -0.003323 0.000000 0.000000 0.000000
# 3 -0.001085 -0.003323 0.013306 0.000000 0.000000 0.000000
# 4 0.000000 0.000000 0.000000 0.047056 0.000000 0.000000
# 5 0.000000 0.000000 0.000000 0.000000 0.032251 0.000000
# 6 0.000000 0.000000 0.000000 0.000000 0.000000 0.025810
#
#
# Mechanical properties :
#
#
# Convention : Reuss Voigt Hill
#
# Bulk Modulus (GPa) = 52.45395 55.69301 54.07348
# Shear Modulus (GPa) = 27.93108 30.38777 29.15942
#
# Velocity S-wave (km/s) = 3.55897 3.71219 3.63638
# Velocity P-wave (km/s) = 6.37772 6.60527 6.49249
#
# Compressibility (1/GPa) = 0.01906434
#
# Stress axis : x y z
#
# Youngs Moduli (GPa) = 82.23880 56.06492 75.15498
#
# Poissons Ratio (x) = 0.43233 0.08154
# Poissons Ratio (y) = 0.63417 0.24971
# Poissons Ratio (z) = 0.08923 0.18628
#
# Static dielectric constant tensor:
#      x y z
#    x 4.191210 0.000000 0.000000 
#    y 0.000000 3.975860 0.000000 
#    z 0.000000 0.000000 3.859380 
# 
# 
# High freq. dielectric constant tensor:
#      x y z
#    x 1.878720 0.000000 0.000000 
#    y 0.000000 1.857980 0.000000 
#    z 0.000000 0.000000 1.866440 
# 
# From -- ./inp_files/1053.got.cif
#   From: 2010.03.12/outbox.cif.g09.slc.cpg/sg32_1_cif.got.tgz:1053.got - 2010.04.14 01:46:39.
