data_PCOD8170549
_publ_section_title
;
Structure prediction by ZEFSAII (Michael W. Deem and Ramdas Pophale) SiO2 
 PCOD8170549
Probable space group: P B A 2
;
_chemical_formula_sum "Si O2"
_cell_formula_units_Z 16
_cell_length_a 11.761740
_cell_length_b 5.218364
_cell_length_c 10.979578
_cell_angle_alpha 90.000000
_cell_angle_beta 90.000000
_cell_angle_gamma 90.000000
_cell_volume 673.894005
_symmetry_space_group_name_H-M "P B A 2"
_symmetry_group_IT_number 32
_symmetry_cell_setting 'orthorhombic'
loop_
_space_group_symop_operation_xyz
x,y,z
-x,-y,z
1/2-x,1/2+y,z
1/2+x,1/2-y,z
loop_
_atom_site_type_symbol
_atom_site_label
_atom_site_fract_x
_atom_site_fract_y
_atom_site_fract_z
Si Si1 0.813987 0.255207 0.392070
Si Si2 0.000000 0.000000 0.852578
Si Si3 0.000000 0.000000 0.249587
Si Si4 0.672214 0.359705 0.049997
Si Si5 0.434631 0.258602 0.620123
O O1 0.732813 0.026344 0.345702
O O2 0.938055 0.213607 0.332842
O O3 0.818850 0.256293 0.541131
O O4 0.924313 0.191685 0.766079
O O5 0.909997 0.841758 0.932280
O O6 0.908064 0.849320 0.167740
O O7 0.757780 0.123594 0.048934
O O8 0.500000 0.500000 0.560815
O O9 0.500000 0.000000 0.593341
#
# Coordination Sequence:
#
# PCOD8170549 Si02
#       5
#     4   2   2   4   4
#     4  12  26  42  69 102 132 179 226 270 337 408
#     4   9  25  42  70  94 141 173 216 280 334 391
#     4  11  25  48  68  94 143 173 222 290 336 389
#     4  11  26  44  68 101 128 176 231 274 335 401
#     4  10  22  43  65  97 134 179 211 273 338 389
#
# _framework density 23.742607
#
# number of rings (size 3 to 8) (size 9 to 14) (size 15 to 20)
#    0.750    0.500    1.250    3.000    3.500    7.000 
#    0.000    0.000    0.000    0.000    0.000    0.000 
#    0.000    0.000    0.000    0.000    0.000    0.000 
#
# Total GULP energy -198270.580077 kJ/mol
# GULP energy per Si atom -12391.911255 kJ/mol
# Density = 2.368857 g / cm^3
# Si number density = 23.742607 Si / 1000 Ang^3
#
#
#
# Elastic Constant Matrix: (Units=GPa)
#
#
# Indices 1 2 3 4 5 6 
#
# 1 97.2420 32.6508 52.8065 0.0000 0.0000 0.0000
# 2 32.6508 142.8237 22.0337 0.0000 0.0000 0.0000
# 3 52.8065 22.0337 132.5946 0.0000 0.0000 0.0000
# 4 0.0000 0.0000 0.0000 25.0581 0.0000 0.0000
# 5 0.0000 0.0000 0.0000 0.0000 48.1856 0.0000
# 6 0.0000 0.0000 0.0000 0.0000 0.0000 33.5342
#
#
#
# Elastic Compliance Matrix: (Units=1/GPa)
#
#
# Indices 1 2 3 4 5 6 
#
# 1 0.013867 -0.002379 -0.005127 0.000000 0.000000 0.000000
# 2 -0.002379 0.007594 -0.000314 0.000000 0.000000 0.000000
# 3 -0.005127 -0.000314 0.009636 0.000000 0.000000 0.000000
# 4 0.000000 0.000000 0.000000 0.039907 0.000000 0.000000
# 5 0.000000 0.000000 0.000000 0.000000 0.020753 0.000000
# 6 0.000000 0.000000 0.000000 0.000000 0.000000 0.029820
#
#
# Mechanical properties :
#
#
# Convention : Reuss Voigt Hill
#
# Bulk Modulus (GPa) = 64.70256 65.29358 64.99807
# Shear Modulus (GPa) = 35.11965 39.03355 37.07660
#
# Velocity S-wave (km/s) = 3.85019 4.05906 3.95600
# Velocity P-wave (km/s) = 6.86120 7.03763 6.94998
#
# Compressibility (1/GPa) = 0.01545534
#
# Stress axis : x y z
#
# Youngs Moduli (GPa) = 72.11525 131.68247 103.77810
#
# Poissons Ratio (x) = 0.31328 0.53208
# Poissons Ratio (y) = 0.17157 0.03263
# Poissons Ratio (z) = 0.36974 0.04141
#
# Static dielectric constant tensor:
#      x y z
#    x 4.177820 0.000000 0.000000 
#    y 0.000000 4.093700 0.000000 
#    z 0.000000 0.000000 4.592850 
# 
# 
# High freq. dielectric constant tensor:
#      x y z
#    x 1.927760 0.000000 0.000000 
#    y 0.000000 1.936980 0.000000 
#    z 0.000000 0.000000 1.959000 
# 
# From -- ./inp_files/3813.got.cif
#   From: 2010.03.12/outbox.cif.g09.slc.cpg/sg32_2_cif.got.tgz:3813.got - 2010.04.14 01:46:39.
