data_PCOD8170100
_publ_section_title
;
Structure prediction by ZEFSAII (Michael W. Deem and Ramdas Pophale) SiO2 
 PCOD8170100
Probable space group: P M N 21
;
_chemical_formula_sum "Si O2"
_cell_formula_units_Z 32
_cell_length_a 8.817545
_cell_length_b 12.666528
_cell_length_c 14.309532
_cell_angle_alpha 90.000000
_cell_angle_beta 90.000000
_cell_angle_gamma 90.000000
_cell_volume 1598.198440
_symmetry_space_group_name_H-M "P M N 21"
_symmetry_group_IT_number 31
_symmetry_cell_setting 'orthorhombic'
loop_
_space_group_symop_operation_xyz
x,y,z
1/2-x,-y,1/2+z
-x,y,z
1/2+x,-y,1/2+z
loop_
_atom_site_type_symbol
_atom_site_label
_atom_site_fract_x
_atom_site_fract_y
_atom_site_fract_z
Si Si1 0.177451 0.969718 0.818000
Si Si2 0.819098 0.474930 0.126836
Si Si3 0.822936 0.212877 0.831055
Si Si4 0.323979 0.696398 0.131717
Si Si5 0.178808 0.710659 0.513118
Si Si6 0.678844 0.798771 0.942656
Si Si7 0.835287 0.351389 0.293738
Si Si8 0.667198 0.847369 0.660174
O O1 0.240911 0.903978 0.906010
O O2 0.248988 0.938773 0.718186
O O3 0.000000 0.949638 0.809790
O O4 0.218188 0.090219 0.838185
O O5 0.773675 0.594096 0.106865
O O6 0.748544 0.399272 0.048660
O O7 0.754200 0.442282 0.231287
O O8 0.000000 0.460752 0.124540
O O9 0.773965 0.254106 0.729369
O O10 0.000000 0.232569 0.849795
O O11 0.725067 0.277924 0.905263
O O12 0.500000 0.664457 0.130885
O O13 0.289871 0.784140 0.052261
O O14 0.239203 0.813699 0.568392
O O15 0.000000 0.704901 0.523989
O O16 0.500000 0.808253 0.919948
O O17 0.746052 0.694535 0.886920
O O18 0.851113 0.253272 0.224743
O O19 0.000000 0.394929 0.323861
O O20 0.500000 0.887612 0.629186
#
# Coordination Sequence:
#
# PCOD8170100 Si02
#       8
#     4   4   4   4   4   4   4   4
#     4  10  20  35  57  85 116 152 194 238 285 339
#     4  10  20  36  58  84 116 149 181 228 290 343
#     4  10  23  41  56  79 120 159 190 235 291 339
#     4  10  22  39  57  80 114 153 192 233 282 344
#     4  11  22  37  60  87 113 148 198 243 282 343
#     4   9  18  35  58  82 110 148 193 239 287 338
#     4   7  13  28  51  77 104 136 174 217 268 325
#     4   9  17  33  57  84 115 147 182 231 287 337
#
# _framework density 20.022545000000001
#
# number of rings (size 3 to 8) (size 9 to 14) (size 15 to 20)
#    0.000    2.500    0.000    3.750    0.000    4.000 
#    0.000    3.125    0.000    0.000    0.000    0.000 
#    0.000    0.000    0.000    0.000    0.000    0.000 
#
# Total GULP energy -396621.716768 kJ/mol
# GULP energy per Si atom -12394.428649 kJ/mol
# Density = 1.997697 g / cm^3
# Si number density = 20.022545 Si / 1000 Ang^3
#
#
#
# Elastic Constant Matrix: (Units=GPa)
#
#
# Indices 1 2 3 4 5 6 
#
# 1 99.2178 49.4227 49.4516 0.0000 0.0000 0.0000
# 2 49.4227 101.0668 52.1412 0.0000 0.0000 0.0000
# 3 49.4516 52.1412 139.4541 0.0000 0.0000 0.0000
# 4 0.0000 0.0000 0.0000 26.5417 0.0000 0.0000
# 5 0.0000 0.0000 0.0000 0.0000 26.5885 0.0000
# 6 0.0000 0.0000 0.0000 0.0000 0.0000 27.7017
#
#
#
# Elastic Compliance Matrix: (Units=1/GPa)
#
#
# Indices 1 2 3 4 5 6 
#
# 1 0.014296 -0.005421 -0.003042 0.000000 0.000000 0.000000
# 2 -0.005421 0.014315 -0.003430 0.000000 0.000000 0.000000
# 3 -0.003042 -0.003430 0.009532 0.000000 0.000000 0.000000
# 4 0.000000 0.000000 0.000000 0.037676 0.000000 0.000000
# 5 0.000000 0.000000 0.000000 0.000000 0.037610 0.000000
# 6 0.000000 0.000000 0.000000 0.000000 0.000000 0.036099
#
#
# Mechanical properties :
#
#
# Convention : Reuss Voigt Hill
#
# Bulk Modulus (GPa) = 69.65827 71.30774 70.48300
# Shear Modulus (GPa) = 28.07405 28.74793 28.41099
#
# Velocity S-wave (km/s) = 3.74855 3.79328 3.77098
# Velocity P-wave (km/s) = 7.32127 7.40785 7.36469
#
# Compressibility (1/GPa) = 0.01435580
#
# Stress axis : x y z
#
# Youngs Moduli (GPa) = 69.95161 69.85705 104.90843
#
# Poissons Ratio (x) = 0.37870 0.31918
# Poissons Ratio (y) = 0.37921 0.35983
# Poissons Ratio (z) = 0.21282 0.23960
#
# Static dielectric constant tensor:
#      x y z
#    x 3.518190 0.000000 0.000000 
#    y 0.000000 3.496890 0.000000 
#    z 0.000000 0.000000 3.884250 
# 
# 
# High freq. dielectric constant tensor:
#      x y z
#    x 1.766220 0.000000 0.000000 
#    y 0.000000 1.767360 0.000000 
#    z 0.000000 0.000000 1.787400 
# 
# From -- ./inp_files/5012.got.cif
#   From: 2010.03.12/outbox.cif.g09.slc.cpg/sg31_3_cif.got.tgz:5012.got - 2010.04.14 01:42:59.
