data_PCOD8170142
_publ_section_title
;
Structure prediction by ZEFSAII (Michael W. Deem and Ramdas Pophale) SiO2 
 PCOD8170142
Probable space group: P M N 21
;
_chemical_formula_sum "Si O2"
_cell_formula_units_Z 32
_cell_length_a 8.943713
_cell_length_b 11.309155
_cell_length_c 16.428103
_cell_angle_alpha 90.000000
_cell_angle_beta 90.000000
_cell_angle_gamma 90.000000
_cell_volume 1661.634222
_symmetry_space_group_name_H-M "P M N 21"
_symmetry_group_IT_number 31
_symmetry_cell_setting 'orthorhombic'
loop_
_space_group_symop_operation_xyz
x,y,z
1/2-x,-y,1/2+z
-x,y,z
1/2+x,-y,1/2+z
loop_
_atom_site_type_symbol
_atom_site_label
_atom_site_fract_x
_atom_site_fract_y
_atom_site_fract_z
Si Si1 0.163618 0.566374 0.319730
Si Si2 0.678119 0.313381 0.544235
Si Si3 0.331573 0.264328 0.965061
Si Si4 0.672045 0.209429 0.711500
Si Si5 0.677606 0.923153 0.352516
Si Si6 0.671178 0.370380 0.252163
Si Si7 0.324244 0.576054 0.587601
Si Si8 0.824407 0.813799 0.883057
O O1 0.166178 0.622910 0.407691
O O2 0.193679 0.662933 0.250841
O O3 0.298220 0.472069 0.319241
O O4 0.000000 0.508251 0.304582
O O5 0.500000 0.319853 0.543933
O O6 0.727994 0.225802 0.618340
O O7 0.738187 0.448068 0.557198
O O8 0.744773 0.256596 0.460905
O O9 0.500000 0.220600 0.984465
O O10 0.240865 0.158814 0.923746
O O11 0.251743 0.310483 0.045742
O O12 0.500000 0.168263 0.716053
O O13 0.766811 0.113181 0.762183
O O14 0.500000 0.916083 0.352580
O O15 0.737682 0.053689 0.374724
O O16 0.500000 0.372740 0.222054
O O17 0.786016 0.403038 0.181523
O O18 0.711946 0.248218 0.296873
O O19 0.500000 0.583223 0.573687
O O20 0.000000 0.815852 0.898034
#
# Coordination Sequence:
#
# PCOD8170142 Si02
#       8
#     4   4   4   4   4   4   4   4
#     4   9  17  32  53  80 111 142 177 221 275 336
#     4   9  17  34  59  83 111 146 186 233 284 337
#     4  10  21  37  57  82 112 145 182 229 285 335
#     4   9  17  33  57  82 110 145 185 233 284 332
#     4  10  20  37  58  80 110 146 193 237 272 329
#     4  11  21  34  54  81 117 153 183 226 284 339
#     4  11  21  36  58  86 115 144 186 232 283 345
#     4   9  20  37  56  80 112 151 192 233 279 331
#
# _framework density 19.258147999999998
#
# number of rings (size 3 to 8) (size 9 to 14) (size 15 to 20)
#    0.000    2.250    1.250    3.000    0.000    3.500 
#    2.250    2.500    0.000    5.250    0.000    0.000 
#    0.000    0.000    0.000    0.000    0.000    0.000 
#
# Total GULP energy -396628.544147 kJ/mol
# GULP energy per Si atom -12394.642005 kJ/mol
# Density = 1.921432 g / cm^3
# Si number density = 19.258148 Si / 1000 Ang^3
#
#
#
# Elastic Constant Matrix: (Units=GPa)
#
#
# Indices 1 2 3 4 5 6 
#
# 1 62.8506 36.4384 26.0462 0.0000 0.0000 0.0000
# 2 36.4384 115.3578 52.5571 0.0000 0.0000 0.0000
# 3 26.0462 52.5571 75.7155 0.0000 0.0000 0.0000
# 4 0.0000 0.0000 0.0000 23.8866 0.0000 0.0000
# 5 0.0000 0.0000 0.0000 0.0000 28.2578 0.0000
# 6 0.0000 0.0000 0.0000 0.0000 0.0000 22.6512
#
#
#
# Elastic Compliance Matrix: (Units=1/GPa)
#
#
# Indices 1 2 3 4 5 6 
#
# 1 0.020154 -0.004691 -0.003677 0.000000 0.000000 0.000000
# 2 -0.004691 0.013770 -0.007945 0.000000 0.000000 0.000000
# 3 -0.003677 -0.007945 0.019987 0.000000 0.000000 0.000000
# 4 0.000000 0.000000 0.000000 0.041865 0.000000 0.000000
# 5 0.000000 0.000000 0.000000 0.000000 0.035388 0.000000
# 6 0.000000 0.000000 0.000000 0.000000 0.000000 0.044148
#
#
# Mechanical properties :
#
#
# Convention : Reuss Voigt Hill
#
# Bulk Modulus (GPa) = 46.97894 53.77859 50.37877
# Shear Modulus (GPa) = 23.25235 24.21792 23.73514
#
# Velocity S-wave (km/s) = 3.47854 3.55003 3.51447
# Velocity P-wave (km/s) = 6.37032 6.69249 6.53339
#
# Compressibility (1/GPa) = 0.02128613
#
# Stress axis : x y z
#
# Youngs Moduli (GPa) = 49.61759 72.62166 50.03296
#
# Poissons Ratio (x) = 0.34067 0.18396
# Poissons Ratio (y) = 0.23275 0.39749
# Poissons Ratio (z) = 0.18244 0.57695
#
# Static dielectric constant tensor:
#      x y z
#    x 3.408000 0.000000 0.000000 
#    y 0.000000 3.537140 0.000000 
#    z 0.000000 0.000000 3.662140 
# 
# 
# High freq. dielectric constant tensor:
#      x y z
#    x 1.727690 0.000000 0.000000 
#    y 0.000000 1.737460 0.000000 
#    z 0.000000 0.000000 1.755550 
# 
# From -- ./inp_files/5052.got.cif
#   From: 2010.03.12/outbox.cif.g09.slc.cpg/sg31_3_cif.got.tgz:5052.got - 2010.04.14 01:42:59.
