data_PCOD8170593
_publ_section_title
;
Structure prediction by ZEFSAII (Michael W. Deem and Ramdas Pophale) SiO2 
 PCOD8170593
Probable space group: P B A 2
;
_chemical_formula_sum "Si O2"
_cell_formula_units_Z 20
_cell_length_a 9.454706
_cell_length_b 14.212837
_cell_length_c 5.918465
_cell_angle_alpha 90.000000
_cell_angle_beta 90.000000
_cell_angle_gamma 90.000000
_cell_volume 795.312645
_symmetry_space_group_name_H-M "P B A 2"
_symmetry_group_IT_number 32
_symmetry_cell_setting 'orthorhombic'
loop_
_space_group_symop_operation_xyz
x,y,z
-x,-y,z
1/2-x,1/2+y,z
1/2+x,1/2-y,z
loop_
_atom_site_type_symbol
_atom_site_label
_atom_site_fract_x
_atom_site_fract_y
_atom_site_fract_z
Si Si1 0.500000 0.500000 0.758540
Si Si2 0.727905 0.575549 0.420329
Si Si3 0.096901 0.689506 0.770837
Si Si4 0.500000 0.000000 0.594024
Si Si5 0.983500 0.153919 0.095080
Si Si6 0.142121 0.225715 0.506219
O O1 0.631791 0.530058 0.610306
O O2 0.449320 0.591887 0.896467
O O3 0.869439 0.512168 0.418592
O O4 0.771469 0.680431 0.475912
O O5 0.642571 0.585253 0.185745
O O6 0.079798 0.744080 0.012509
O O7 0.258424 0.672085 0.689092
O O8 0.018780 0.588341 0.765001
O O9 0.015629 0.757909 0.596206
O O10 0.111681 0.168206 0.275131
#
# Coordination Sequence:
#
# PCOD8170593 Si02
#       6
#     2   4   4   2   4   4
#     4  12  26  46  78 120 156 196 270 324 390 492
#     4  11  26  51  72 118 151 201 267 325 387 480
#     4  11  26  48  76 112 156 208 259 331 386 478
#     4  10  28  48  80 110 166 190 262 342 386 452
#     4  12  26  45  86 107 157 214 260 315 424 470
#     4  11  24  48  75 107 156 202 264 322 382 482
#
# _framework density 25.147345000000001
#
# number of rings (size 3 to 8) (size 9 to 14) (size 15 to 20)
#    0.000    0.800    4.000    0.600   11.200    0.000 
#    0.000    5.000    0.000    0.000    0.000    0.000 
#    0.000    0.000    0.000    0.000    0.000    0.000 
#
# Total GULP energy -247807.787425 kJ/mol
# GULP energy per Si atom -12390.389371 kJ/mol
# Density = 2.509011 g / cm^3
# Si number density = 25.147345 Si / 1000 Ang^3
#
#
#
# Elastic Constant Matrix: (Units=GPa)
#
#
# Indices 1 2 3 4 5 6 
#
# 1 142.5678 46.3920 52.0153 0.0000 0.0000 0.0000
# 2 46.3920 126.6680 48.5233 0.0000 0.0000 0.0000
# 3 52.0153 48.5233 104.4781 0.0000 0.0000 0.0000
# 4 0.0000 0.0000 0.0000 53.0339 0.0000 0.0000
# 5 0.0000 0.0000 0.0000 0.0000 31.8169 0.0000
# 6 0.0000 0.0000 0.0000 0.0000 0.0000 39.9568
#
#
#
# Elastic Compliance Matrix: (Units=1/GPa)
#
#
# Indices 1 2 3 4 5 6 
#
# 1 0.008935 -0.001908 -0.003562 0.000000 0.000000 0.000000
# 2 -0.001908 0.010011 -0.003699 0.000000 0.000000 0.000000
# 3 -0.003562 -0.003699 0.013063 0.000000 0.000000 0.000000
# 4 0.000000 0.000000 0.000000 0.018856 0.000000 0.000000
# 5 0.000000 0.000000 0.000000 0.000000 0.031430 0.000000
# 6 0.000000 0.000000 0.000000 0.000000 0.000000 0.025027
#
#
# Mechanical properties :
#
#
# Convention : Reuss Voigt Hill
#
# Bulk Modulus (GPa) = 73.15585 74.17503 73.66544
# Shear Modulus (GPa) = 38.39770 40.08040 39.23905
#
# Velocity S-wave (km/s) = 3.91181 3.99660 3.95443
# Velocity P-wave (km/s) = 7.03967 7.13143 7.08570
#
# Compressibility (1/GPa) = 0.01366945
#
# Stress axis : x y z
#
# Youngs Moduli (GPa) = 111.92409 99.89486 76.55207
#
# Poissons Ratio (x) = 0.19057 0.27269
# Poissons Ratio (y) = 0.21352 0.28320
# Poissons Ratio (z) = 0.39869 0.36956
#
# Static dielectric constant tensor:
#      x y z
#    x 4.738440 0.000000 0.000000 
#    y 0.000000 4.749870 0.000000 
#    z 0.000000 0.000000 4.496220 
# 
# 
# High freq. dielectric constant tensor:
#      x y z
#    x 2.017070 0.000000 0.000000 
#    y 0.000000 2.021910 0.000000 
#    z 0.000000 0.000000 1.974970 
# 
# From -- ./inp_files/441.got.cif
#   From: 2010.03.12/outbox.cif.g09.slc.cpg/sg32_1_cif.got.tgz:441.got - 2010.04.14 01:46:39.
