data_PCOD8170534
_publ_section_title
;
Structure prediction by ZEFSAII (Michael W. Deem and Ramdas Pophale) SiO2 
 PCOD8170534
Probable space group: P B A 2
;
_chemical_formula_sum "Si O2"
_cell_formula_units_Z 32
_cell_length_a 9.420284
_cell_length_b 13.853846
_cell_length_c 12.365426
_cell_angle_alpha 90.000000
_cell_angle_beta 90.000000
_cell_angle_gamma 90.000000
_cell_volume 1613.776677
_symmetry_space_group_name_H-M "P B A 2"
_symmetry_group_IT_number 32
_symmetry_cell_setting 'orthorhombic'
loop_
_space_group_symop_operation_xyz
x,y,z
-x,-y,z
1/2-x,1/2+y,z
1/2+x,1/2-y,z
loop_
_atom_site_type_symbol
_atom_site_label
_atom_site_fract_x
_atom_site_fract_y
_atom_site_fract_z
Si Si1 0.716228 0.730451 0.126960
Si Si2 0.531232 0.254939 0.977845
Si Si3 0.155038 0.626159 0.311655
Si Si4 0.755699 0.730115 0.482630
Si Si5 0.076723 0.601621 0.813262
Si Si6 0.676058 0.096950 0.299441
Si Si7 0.588937 0.402839 0.798891
Si Si8 0.507489 0.746870 0.631201
O O1 0.727629 0.819250 0.210747
O O2 0.760470 0.631560 0.185398
O O3 0.555814 0.721639 0.086062
O O4 0.807945 0.743079 0.017970
O O5 0.473338 0.158127 0.920515
O O6 0.520346 0.345033 0.897919
O O7 0.214760 0.669378 0.423891
O O8 0.201302 0.515968 0.306024
O O9 0.985573 0.632929 0.306533
O O10 0.735313 0.643781 0.397343
O O11 0.659217 0.711503 0.587684
O O12 0.916376 0.727470 0.525297
O O13 0.244372 0.580195 0.816686
O O14 0.029500 0.660876 0.707684
O O15 0.000000 0.500000 0.809591
O O16 0.500000 0.500000 0.786828
O O17 0.569861 0.340776 0.690867
#
# Coordination Sequence:
#
# PCOD8170534 Si02
#       8
#     4   4   4   4   4   4   4   4
#     4  11  22  41  64  91 124 168 204 257 311 368
#     4  11  24  43  64  88 130 167 209 253 313 376
#     4  10  22  39  62  95 124 157 212 257 306 372
#     4  11  22  41  64  91 124 168 204 257 311 368
#     4  11  26  42  65  95 125 165 211 259 314 374
#     4  10  22  39  64  91 124 163 207 258 306 370
#     4  11  26  42  63  97 129 159 211 265 308 370
#     4  11  24  43  64  88 130 167 209 253 313 376
#
# _framework density 19.829260000000001
#
# number of rings (size 3 to 8) (size 9 to 14) (size 15 to 20)
#    0.000    1.250    5.000    0.000    3.500    4.000 
#    0.000    1.250    0.000    0.000    0.000    0.000 
#    0.000    0.000    0.000    0.000    0.000    0.000 
#
# Total GULP energy -396923.640020 kJ/mol
# GULP energy per Si atom -12403.863751 kJ/mol
# Density = 1.978413 g / cm^3
# Si number density = 19.829260 Si / 1000 Ang^3
#
#
#
# Elastic Constant Matrix: (Units=GPa)
#
#
# Indices 1 2 3 4 5 6 
#
# 1 82.6923 52.7950 24.9878 0.0000 0.0000 0.0000
# 2 52.7950 126.4568 43.0853 0.0000 0.0000 0.0000
# 3 24.9878 43.0853 94.7375 0.0000 0.0000 0.0000
# 4 0.0000 0.0000 0.0000 13.5420 0.0000 0.0000
# 5 0.0000 0.0000 0.0000 0.0000 47.1915 0.0000
# 6 0.0000 0.0000 0.0000 0.0000 0.0000 32.2505
#
#
#
# Elastic Compliance Matrix: (Units=1/GPa)
#
#
# Indices 1 2 3 4 5 6 
#
# 1 0.016656 -0.006458 -0.001456 0.000000 0.000000 0.000000
# 2 -0.006458 0.011861 -0.003691 0.000000 0.000000 0.000000
# 3 -0.001456 -0.003691 0.012618 0.000000 0.000000 0.000000
# 4 0.000000 0.000000 0.000000 0.073845 0.000000 0.000000
# 5 0.000000 0.000000 0.000000 0.000000 0.021190 0.000000
# 6 0.000000 0.000000 0.000000 0.000000 0.000000 0.031007
#
#
# Mechanical properties :
#
#
# Convention : Reuss Voigt Hill
#
# Bulk Modulus (GPa) = 55.78637 60.62475 58.20556
# Shear Modulus (GPa) = 25.46302 30.79803 28.13053
#
# Velocity S-wave (km/s) = 3.58734 3.94529 3.77057
# Velocity P-wave (km/s) = 6.73447 7.16893 6.95509
#
# Compressibility (1/GPa) = 0.01792553
#
# Stress axis : x y z
#
# Youngs Moduli (GPa) = 60.03865 84.30655 79.24995
#
# Poissons Ratio (x) = 0.54442 0.11541
# Poissons Ratio (y) = 0.38770 0.29253
# Poissons Ratio (z) = 0.08744 0.31119
#
# Static dielectric constant tensor:
#      x y z
#    x 3.622330 0.000000 0.000000 
#    y 0.000000 3.456840 0.000000 
#    z 0.000000 0.000000 3.662350 
# 
# 
# High freq. dielectric constant tensor:
#      x y z
#    x 1.783060 0.000000 0.000000 
#    y 0.000000 1.764570 0.000000 
#    z 0.000000 0.000000 1.787080 
# 
# From -- ./inp_files/3754.got.cif
#   From: 2010.03.12/outbox.cif.g09.slc.cpg/sg32_2_cif.got.tgz:3754.got - 2010.04.14 01:46:39.
