data_PCOD8170378
_publ_section_title
;
Structure prediction by ZEFSAII (Michael W. Deem and Ramdas Pophale) SiO2 
 PCOD8170378
Probable space group: P M N 21
;
_chemical_formula_sum "Si O2"
_cell_formula_units_Z 24
_cell_length_a 8.322890
_cell_length_b 13.650537
_cell_length_c 10.004893
_cell_angle_alpha 90.000000
_cell_angle_beta 90.000000
_cell_angle_gamma 90.000000
_cell_volume 1136.675082
_symmetry_space_group_name_H-M "P M N 21"
_symmetry_group_IT_number 31
_symmetry_cell_setting 'orthorhombic'
loop_
_space_group_symop_operation_xyz
x,y,z
1/2-x,-y,1/2+z
-x,y,z
1/2+x,-y,1/2+z
loop_
_atom_site_type_symbol
_atom_site_label
_atom_site_fract_x
_atom_site_fract_y
_atom_site_fract_z
Si Si1 0.684602 0.432915 0.322950
Si Si2 0.185847 0.211668 0.716623
Si Si3 0.815473 0.587586 0.124778
Si Si4 0.809766 0.080230 0.474178
Si Si5 0.313508 0.140116 0.985990
Si Si6 0.186736 0.226008 0.249548
O O1 0.500000 0.461333 0.298476
O O2 0.794328 0.500655 0.230356
O O3 0.733628 0.450341 0.477394
O O4 0.709921 0.320652 0.283984
O O5 0.203977 0.321354 0.662575
O O6 0.251894 0.135491 0.606455
O O7 0.291727 0.197795 0.848216
O O8 0.000000 0.192245 0.749742
O O9 0.000000 0.622089 0.124663
O O10 0.748691 0.137830 0.343157
O O11 0.000000 0.078188 0.472369
O O12 0.742491 0.969826 0.471776
O O13 0.500000 0.139323 0.026521
O O14 0.211857 0.196604 0.096742
O O15 0.000000 0.248827 0.276235
#
# Coordination Sequence:
#
# PCOD8170378 Si02
#       6
#     4   4   4   4   4   4
#     4  11  25  44  67  95 125 162 207 255 311 372
#     4  11  22  41  65  92 126 166 209 258 313 369
#     4  11  25  44  67  95 125 162 207 255 311 372
#     4   9  20  39  64  91 124 165 211 258 310 365
#     4  11  23  39  60  93 130 167 211 258 306 367
#     4  11  22  41  65  92 126 166 209 258 313 369
#
# _framework density 21.114214
#
# number of rings (size 3 to 8) (size 9 to 14) (size 15 to 20)
#    0.000    1.333    1.667    3.500    2.333    2.000 
#    0.000    5.000    0.000    0.000    0.000    0.000 
#    0.000    0.000    0.000    0.000    0.000    0.000 
#
# Total GULP energy -297771.096097 kJ/mol
# GULP energy per Si atom -12407.129004 kJ/mol
# Density = 2.106616 g / cm^3
# Si number density = 21.114214 Si / 1000 Ang^3
#
#
#
# Elastic Constant Matrix: (Units=GPa)
#
#
# Indices 1 2 3 4 5 6 
#
# 1 39.5459 16.3143 18.6283 0.0000 0.0000 0.0000
# 2 16.3143 91.8479 46.3686 0.0000 0.0000 0.0000
# 3 18.6283 46.3686 153.4629 0.0000 0.0000 0.0000
# 4 0.0000 0.0000 0.0000 43.9137 0.0000 0.0000
# 5 0.0000 0.0000 0.0000 0.0000 22.4689 0.0000
# 6 0.0000 0.0000 0.0000 0.0000 0.0000 28.3467
#
#
#
# Elastic Compliance Matrix: (Units=1/GPa)
#
#
# Indices 1 2 3 4 5 6 
#
# 1 0.027919 -0.003833 -0.002231 0.000000 0.000000 0.000000
# 2 -0.003833 0.013373 -0.003576 0.000000 0.000000 0.000000
# 3 -0.002231 -0.003576 0.007867 0.000000 0.000000 0.000000
# 4 0.000000 0.000000 0.000000 0.022772 0.000000 0.000000
# 5 0.000000 0.000000 0.000000 0.000000 0.044506 0.000000
# 6 0.000000 0.000000 0.000000 0.000000 0.000000 0.035277
#
#
# Mechanical properties :
#
#
# Convention : Reuss Voigt Hill
#
# Bulk Modulus (GPa) = 33.46561 49.71991 41.59276
# Shear Modulus (GPa) = 27.63128 32.51556 30.07342
#
# Velocity S-wave (km/s) = 3.62146 3.92852 3.77811
# Velocity P-wave (km/s) = 5.77675 6.64657 6.22687
#
# Compressibility (1/GPa) = 0.02988142
#
# Stress axis : x y z
#
# Youngs Moduli (GPa) = 35.81772 74.77517 127.10726
#
# Poissons Ratio (x) = 0.28660 0.28357
# Poissons Ratio (y) = 0.13728 0.45447
# Poissons Ratio (z) = 0.07991 0.26736
#
# Static dielectric constant tensor:
#      x y z
#    x 3.537450 0.000000 0.000000 
#    y 0.000000 3.839550 0.000000 
#    z 0.000000 0.000000 3.939540 
# 
# 
# High freq. dielectric constant tensor:
#      x y z
#    x 1.815850 0.000000 0.000000 
#    y 0.000000 1.831910 0.000000 
#    z 0.000000 0.000000 1.841830 
# 
# From -- ./inp_files/3471.got.cif
#   From: 2010.03.12/outbox.cif.g09.slc.cpg/sg31_2_cif.got.tgz:3471.got - 2010.04.14 01:42:59.
