data_PCOD8170619
_publ_section_title
;
Structure prediction by ZEFSAII (Michael W. Deem and Ramdas Pophale) SiO2 
 PCOD8170619
Probable space group: P B A 2
;
_chemical_formula_sum "Si O2"
_cell_formula_units_Z 28
_cell_length_a 21.890975
_cell_length_b 7.532758
_cell_length_c 8.571333
_cell_angle_alpha 90.000000
_cell_angle_beta 90.000000
_cell_angle_gamma 90.000000
_cell_volume 1413.407815
_symmetry_space_group_name_H-M "P B A 2"
_symmetry_group_IT_number 32
_symmetry_cell_setting 'orthorhombic'
loop_
_space_group_symop_operation_xyz
x,y,z
-x,-y,z
1/2-x,1/2+y,z
1/2+x,1/2-y,z
loop_
_atom_site_type_symbol
_atom_site_label
_atom_site_fract_x
_atom_site_fract_y
_atom_site_fract_z
Si Si1 0.770461 0.041025 0.296520
Si Si2 0.667836 0.218721 0.448940
Si Si3 0.436481 0.583574 0.023711
Si Si4 0.279431 0.040018 0.958348
Si Si5 0.665632 0.293192 0.805474
Si Si6 0.862457 0.246398 0.135505
Si Si7 0.063823 0.420126 0.247439
O O1 0.721493 0.070624 0.435679
O O2 0.816821 0.209766 0.282429
O O3 0.811341 0.868778 0.326690
O O4 0.735492 0.029864 0.131499
O O5 0.661211 0.296909 0.619950
O O6 0.602513 0.141358 0.397315
O O7 0.500000 0.500000 0.965703
O O8 0.401757 0.430524 0.118062
O O9 0.447369 0.754389 0.132814
O O10 0.398884 0.639544 0.871134
O O11 0.219260 0.076488 0.859283
O O12 0.321586 0.902837 0.866721
O O13 0.320516 0.218317 0.980780
O O14 0.901785 0.422472 0.158321
O O15 0.000000 0.500000 0.308713
#
# Coordination Sequence:
#
# PCOD8170619 Si02
#       7
#     4   4   4   4   4   4   4
#     4  12  20  38  68  96 132 169 219 271 322 398
#     4  12  24  40  63 102 144 173 211 275 352 403
#     4  12  24  43  68  95 125 175 233 277 315 387
#     4  12  20  38  68  96 132 169 219 271 322 398
#     4  12  24  40  63 102 144 173 211 275 352 403
#     4  12  22  38  68 102 124 160 226 282 314 378
#     4  12  24  43  68  95 125 175 233 277 315 387
#
# _framework density 19.810276000000002
#
# number of rings (size 3 to 8) (size 9 to 14) (size 15 to 20)
#    0.000    0.000   10.000    0.857    0.000    0.000 
#    0.000    4.286    0.000    0.000    0.000    0.000 
#    0.000    0.000    0.000    0.000    0.000    0.000 
#
# Total GULP energy -347171.147441 kJ/mol
# GULP energy per Si atom -12398.969551 kJ/mol
# Density = 1.976519 g / cm^3
# Si number density = 19.810276 Si / 1000 Ang^3
#
#
#
# Elastic Constant Matrix: (Units=GPa)
#
#
# Indices 1 2 3 4 5 6 
#
# 1 157.1726 48.8784 48.5790 0.0000 0.0000 0.0000
# 2 48.8784 100.5253 18.2846 0.0000 0.0000 0.0000
# 3 48.5790 18.2846 81.7736 0.0000 0.0000 0.0000
# 4 0.0000 0.0000 0.0000 25.4385 0.0000 0.0000
# 5 0.0000 0.0000 0.0000 0.0000 18.2646 0.0000
# 6 0.0000 0.0000 0.0000 0.0000 0.0000 45.7454
#
#
#
# Elastic Compliance Matrix: (Units=1/GPa)
#
#
# Indices 1 2 3 4 5 6 
#
# 1 0.008824 -0.003478 -0.004464 0.000000 0.000000 0.000000
# 2 -0.003478 0.011741 -0.000559 0.000000 0.000000 0.000000
# 3 -0.004464 -0.000559 0.015006 0.000000 0.000000 0.000000
# 4 0.000000 0.000000 0.000000 0.039311 0.000000 0.000000
# 5 0.000000 0.000000 0.000000 0.000000 0.054751 0.000000
# 6 0.000000 0.000000 0.000000 0.000000 0.000000 0.021860
#
#
# Mechanical properties :
#
#
# Convention : Reuss Voigt Hill
#
# Bulk Modulus (GPa) = 53.85730 63.43949 58.64839
# Shear Modulus (GPa) = 28.62307 32.80499 30.71403
#
# Velocity S-wave (km/s) = 3.80525 4.07376 3.94180
# Velocity P-wave (km/s) = 6.82292 7.36345 7.09833
#
# Compressibility (1/GPa) = 0.01856758
#
# Stress axis : x y z
#
# Youngs Moduli (GPa) = 113.32714 85.17363 66.64049
#
# Poissons Ratio (x) = 0.29628 0.29750
# Poissons Ratio (y) = 0.39421 0.03724
# Poissons Ratio (z) = 0.50592 0.04759
#
# Static dielectric constant tensor:
#      x y z
#    x 3.958260 0.000000 0.000000 
#    y 0.000000 3.935930 0.000000 
#    z 0.000000 0.000000 3.204600 
# 
# 
# High freq. dielectric constant tensor:
#      x y z
#    x 1.782860 0.000000 0.000000 
#    y 0.000000 1.798230 0.000000 
#    z 0.000000 0.000000 1.732390 
# 
# From -- ./inp_files/3297.got.cif
#   From: 2010.03.12/outbox.cif.g09.slc.cpg/sg32_2_cif.got.tgz:3297.got - 2010.04.14 01:46:39.
