data_PCOD8170084
_publ_section_title
;
Structure prediction by ZEFSAII (Michael W. Deem and Ramdas Pophale) SiO2 
 PCOD8170084
Probable space group: P M N 21
;
_chemical_formula_sum "Si O2"
_cell_formula_units_Z 32
_cell_length_a 9.304887
_cell_length_b 19.306061
_cell_length_c 9.569972
_cell_angle_alpha 90.000000
_cell_angle_beta 90.000000
_cell_angle_gamma 90.000000
_cell_volume 1719.156622
_symmetry_space_group_name_H-M "P M N 21"
_symmetry_group_IT_number 31
_symmetry_cell_setting 'orthorhombic'
loop_
_space_group_symop_operation_xyz
x,y,z
1/2-x,-y,1/2+z
-x,y,z
1/2+x,-y,1/2+z
loop_
_atom_site_type_symbol
_atom_site_label
_atom_site_fract_x
_atom_site_fract_y
_atom_site_fract_z
Si Si1 0.165634 0.468001 0.181040
Si Si2 0.166773 0.815551 0.285718
Si Si3 0.663565 0.680503 0.782553
Si Si4 0.168773 0.929917 0.898386
Si Si5 0.168062 0.574473 0.420442
Si Si6 0.166569 0.969614 0.206109
Si Si7 0.332285 0.220953 0.473744
Si Si8 0.167814 0.286971 0.968947
O O1 0.206191 0.400030 0.270660
O O2 0.191722 0.535408 0.274267
O O3 0.000000 0.461714 0.131578
O O4 0.265671 0.472050 0.044666
O O5 0.204068 0.896768 0.279281
O O6 0.267471 0.782651 0.403546
O O7 0.000000 0.804356 0.324228
O O8 0.202353 0.779491 0.138106
O O9 0.500000 0.689205 0.829223
O O10 0.757707 0.713618 0.903943
O O11 0.692049 0.717948 0.634742
O O12 0.222383 0.850476 0.903604
O O13 0.000000 0.932441 0.872917
O O14 0.244940 0.968064 0.771691
O O15 0.208695 0.966962 0.043639
O O16 0.248614 0.647295 0.406116
O O17 0.000000 0.586633 0.450611
O O18 0.000000 0.986263 0.225081
O O19 0.500000 0.228620 0.448750
O O20 0.000000 0.294130 0.931970
#
# Coordination Sequence:
#
# PCOD8170084 Si02
#       8
#     4   4   4   4   4   4   4   4
#     4   9  20  37  53  75 107 136 168 212 256 301
#     4   9  19  36  54  74 102 134 170 210 253 303
#     4   9  19  35  52  73 103 134 165 206 253 301
#     4   9  19  35  52  73 103 134 167 209 254 301
#     4  10  20  35  56  79 104 137 174 211 254 304
#     4   9  19  35  53  74 102 134 168 209 253 300
#     4   9  19  35  53  74 101 133 169 210 253 300
#     4  10  21  36  53  76 106 136 169 211 256 302
#
# _framework density 18.613776999999999
#
# number of rings (size 3 to 8) (size 9 to 14) (size 15 to 20)
#    0.000    2.750    0.000    3.000    0.000    7.500 
#    0.000   10.000    0.000    0.000    0.000    0.000 
#    0.000    0.000    0.000    0.000    0.000    0.000 
#
# Total GULP energy -396831.865927 kJ/mol
# GULP energy per Si atom -12400.995810 kJ/mol
# Density = 1.857141 g / cm^3
# Si number density = 18.613777 Si / 1000 Ang^3
#
#
#
# Elastic Constant Matrix: (Units=GPa)
#
#
# Indices 1 2 3 4 5 6 
#
# 1 54.5431 9.4973 12.1848 0.0000 0.0000 0.0000
# 2 9.4973 24.8814 -1.8175 0.0000 0.0000 0.0000
# 3 12.1848 -1.8175 21.7374 0.0000 0.0000 0.0000
# 4 0.0000 0.0000 0.0000 34.9281 0.0000 0.0000
# 5 0.0000 0.0000 0.0000 0.0000 25.8731 0.0000
# 6 0.0000 0.0000 0.0000 0.0000 0.0000 21.8281
#
#
#
# Elastic Compliance Matrix: (Units=1/GPa)
#
#
# Indices 1 2 3 4 5 6 
#
# 1 0.023126 -0.009834 -0.013786 0.000000 0.000000 0.000000
# 2 -0.009834 0.044620 0.009243 0.000000 0.000000 0.000000
# 3 -0.013786 0.009243 0.054504 0.000000 0.000000 0.000000
# 4 0.000000 0.000000 0.000000 0.028630 0.000000 0.000000
# 5 0.000000 0.000000 0.000000 0.000000 0.038650 0.000000
# 6 0.000000 0.000000 0.000000 0.000000 0.000000 0.045813
#
#
# Mechanical properties :
#
#
# Convention : Reuss Voigt Hill
#
# Bulk Modulus (GPa) = 10.69558 15.65458 13.17508
# Shear Modulus (GPa) = 16.93414 21.94568 19.43991
#
# Velocity S-wave (km/s) = 3.01950 3.43738 3.23520
# Velocity P-wave (km/s) = 4.23262 4.91758 4.58790
#
# Compressibility (1/GPa) = 0.09349658
#
# Stress axis : x y z
#
# Youngs Moduli (GPa) = 43.24103 22.41168 18.34725
#
# Poissons Ratio (x) = 0.22040 0.25293
# Poissons Ratio (y) = 0.42524 -0.16959
# Poissons Ratio (z) = 0.59610 -0.20716
#
# Static dielectric constant tensor:
#      x y z
#    x 3.333930 0.000000 0.000000 
#    y 0.000000 3.359850 0.000000 
#    z 0.000000 0.000000 3.303400 
# 
# 
# High freq. dielectric constant tensor:
#      x y z
#    x 1.720840 0.000000 0.000000 
#    y 0.000000 1.722300 0.000000 
#    z 0.000000 0.000000 1.716870 
# 
# From -- ./inp_files/1873.got.cif
#   From: 2010.03.12/outbox.cif.g09.slc.cpg/sg31_1_cif.got.tgz:1873.got - 2010.04.14 01:42:59.
