data_PCOD8170141
_publ_section_title
;
Structure prediction by ZEFSAII (Michael W. Deem and Ramdas Pophale) SiO2 
 PCOD8170141
Probable space group: P M N 21
;
_chemical_formula_sum "Si O2"
_cell_formula_units_Z 32
_cell_length_a 9.569459
_cell_length_b 14.329868
_cell_length_c 12.578936
_cell_angle_alpha 90.000000
_cell_angle_beta 90.000000
_cell_angle_gamma 90.000000
_cell_volume 1724.937975
_symmetry_space_group_name_H-M "P M N 21"
_symmetry_group_IT_number 31
_symmetry_cell_setting 'orthorhombic'
loop_
_space_group_symop_operation_xyz
x,y,z
1/2-x,-y,1/2+z
-x,y,z
1/2+x,-y,1/2+z
loop_
_atom_site_type_symbol
_atom_site_label
_atom_site_fract_x
_atom_site_fract_y
_atom_site_fract_z
Si Si1 0.839706 0.865402 0.740740
Si Si2 0.666572 0.832008 0.948594
Si Si3 0.338247 0.933618 0.160652
Si Si4 0.153953 0.372164 0.767618
Si Si5 0.161851 0.754459 0.540138
Si Si6 0.154762 0.171664 0.863716
Si Si7 0.663952 0.442086 0.942942
Si Si8 0.165440 0.363633 0.533187
O O1 0.739616 0.868756 0.842200
O O2 0.806399 0.777236 0.664008
O O3 0.000000 0.862999 0.780572
O O4 0.812930 0.956143 0.667311
O O5 0.500000 0.841346 0.934535
O O6 0.721995 0.892640 0.049692
O O7 0.716201 0.724650 0.964016
O O8 0.500000 0.904755 0.162408
O O9 0.273401 0.886620 0.267406
O O10 0.137772 0.277156 0.829411
O O11 0.260352 0.438211 0.829684
O O12 0.220182 0.351695 0.652847
O O13 0.000000 0.420093 0.758716
O O14 0.246532 0.827994 0.467091
O O15 0.201846 0.646180 0.518492
O O16 0.000000 0.772263 0.513926
O O17 0.000000 0.131424 0.893072
O O18 0.500000 0.446747 0.921697
O O19 0.722937 0.537436 0.992784
O O20 0.000000 0.363110 0.533051
#
# Coordination Sequence:
#
# PCOD8170141 Si02
#       8
#     4   4   4   4   4   4   4   4
#     4  10  22  37  52  76 112 145 168 207 267 319
#     4  10  20  37  58  79 102 135 179 218 256 308
#     4   9  18  34  55  76 102 135 169 211 262 308
#     4   9  16  30  51  74  97 128 172 217 257 301
#     4   9  19  34  50  72 107 142 169 204 261 316
#     4   9  16  30  54  76  95 126 173 222 254 292
#     4   9  18  32  50  74 103 138 174 210 256 310
#     4   9  17  32  54  75 100 135 174 213 257 306
#
# _framework density 18.551392
#
# number of rings (size 3 to 8) (size 9 to 14) (size 15 to 20)
#    0.000    2.750    1.250    0.000    1.750    1.500 
#    0.000    4.375    0.000    0.000    0.000    0.000 
#    0.000    0.000    0.000    0.000    0.000    0.000 
#
# Total GULP energy -396604.656381 kJ/mol
# GULP energy per Si atom -12393.895512 kJ/mol
# Density = 1.850917 g / cm^3
# Si number density = 18.551392 Si / 1000 Ang^3
#
#
#
# Elastic Constant Matrix: (Units=GPa)
#
#
# Indices 1 2 3 4 5 6 
#
# 1 43.4371 25.4695 39.3275 0.0000 0.0000 0.0000
# 2 25.4695 84.3008 42.4080 0.0000 0.0000 0.0000
# 3 39.3275 42.4080 112.5906 0.0000 0.0000 0.0000
# 4 0.0000 0.0000 0.0000 24.8696 0.0000 0.0000
# 5 0.0000 0.0000 0.0000 0.0000 29.6615 0.0000
# 6 0.0000 0.0000 0.0000 0.0000 0.0000 16.8440
#
#
#
# Elastic Compliance Matrix: (Units=1/GPa)
#
#
# Indices 1 2 3 4 5 6 
#
# 1 0.035666 -0.005563 -0.010363 0.000000 0.000000 0.000000
# 2 -0.005563 0.015503 -0.003896 0.000000 0.000000 0.000000
# 3 -0.010363 -0.003896 0.013969 0.000000 0.000000 0.000000
# 4 0.000000 0.000000 0.000000 0.040210 0.000000 0.000000
# 5 0.000000 0.000000 0.000000 0.000000 0.033714 0.000000
# 6 0.000000 0.000000 0.000000 0.000000 0.000000 0.059368
#
#
# Mechanical properties :
#
#
# Convention : Reuss Voigt Hill
#
# Bulk Modulus (GPa) = 39.22422 50.52649 44.87536
# Shear Modulus (GPa) = 20.27815 23.14991 21.71403
#
# Velocity S-wave (km/s) = 3.30976 3.53637 3.42494
# Velocity P-wave (km/s) = 5.98293 6.63096 6.31526
#
# Compressibility (1/GPa) = 0.02549445
#
# Stress axis : x y z
#
# Youngs Moduli (GPa) = 28.03817 64.50392 71.58725
#
# Poissons Ratio (x) = 0.35880 0.74184
# Poissons Ratio (y) = 0.15596 0.27893
# Poissons Ratio (z) = 0.29055 0.25133
#
# Static dielectric constant tensor:
#      x y z
#    x 3.329600 0.000000 0.000000 
#    y 0.000000 3.490730 0.000000 
#    z 0.000000 0.000000 3.464940 
# 
# 
# High freq. dielectric constant tensor:
#      x y z
#    x 1.684890 0.000000 0.000000 
#    y 0.000000 1.718920 0.000000 
#    z 0.000000 0.000000 1.720870 
# 
# From -- ./inp_files/3629.got.cif
#   From: 2010.03.12/outbox.cif.g09.slc.cpg/sg31_2_cif.got.tgz:3629.got - 2010.04.14 01:42:59.
