data_PCOD8170601
_publ_section_title
;
Structure prediction by ZEFSAII (Michael W. Deem and Ramdas Pophale) SiO2 
 PCOD8170601
Probable space group: P B A 2
;
_chemical_formula_sum "Si O2"
_cell_formula_units_Z 32
_cell_length_a 17.925790
_cell_length_b 7.511112
_cell_length_c 12.260015
_cell_angle_alpha 90.000000
_cell_angle_beta 90.000000
_cell_angle_gamma 90.000000
_cell_volume 1650.720496
_symmetry_space_group_name_H-M "P B A 2"
_symmetry_group_IT_number 32
_symmetry_cell_setting 'orthorhombic'
loop_
_space_group_symop_operation_xyz
x,y,z
-x,-y,z
1/2-x,1/2+y,z
1/2+x,1/2-y,z
loop_
_atom_site_type_symbol
_atom_site_label
_atom_site_fract_x
_atom_site_fract_y
_atom_site_fract_z
Si Si1 0.163839 0.208428 0.477240
Si Si2 0.582575 0.289312 0.691988
Si Si3 0.836161 0.208429 0.477240
Si Si4 0.417425 0.289312 0.691988
Si Si5 0.588872 1.000000 0.087414
Si Si6 0.088953 0.802588 0.930537
Si Si7 0.911473 0.500000 0.334614
Si Si8 0.588953 0.302588 0.930537
O O1 0.138510 0.274077 0.597303
O O2 0.250000 0.250000 0.463396
O O3 0.118203 0.319690 0.388796
O O4 0.146830 1.000000 0.458398
O O5 0.500000 0.208959 0.668824
O O6 0.576383 0.500000 0.694130
O O7 0.613124 0.228111 0.810733
O O8 0.861490 0.274077 0.597303
O O9 0.881797 0.319691 0.388796
O O10 0.386876 0.228111 0.810733
O O11 0.618247 1.000000 0.210517
O O12 0.500000 0.000000 0.084397
O O13 0.620098 0.173740 0.024607
O O14 0.620098 0.826260 0.024607
O O15 1.000000 0.809931 0.931790
O O16 0.121708 0.000000 0.952281
O O17 0.000000 0.500000 0.340368
#
# Coordination Sequence:
#
# PCOD8170601 Si02
#       8
#     4   4   4   4   4   4   4   4
#     4  11  22  39  59  83 116 160 192 236 298 350
#     4   8  15  29  53  84 113 142 183 231 282 347
#     4  11  22  39  59  83 116 160 192 236 298 350
#     4   8  15  29  53  84 113 142 183 231 282 347
#     4   9  18  31  49  79 113 143 185 236 280 330
#     4   8  14  27  48  76 111 144 174 224 290 339
#     4  11  24  39  59  89 116 149 207 252 277 336
#     4   8  14  27  48  76 111 144 174 224 290 339
#
# _framework density 19.385475
#
# number of rings (size 3 to 8) (size 9 to 14) (size 15 to 20)
#    0.000    2.750    1.250    2.250    0.000    3.500 
#    0.000    5.000    0.000    1.500    0.000    0.000 
#    0.000    0.000    0.000    0.000    0.000    0.000 
#
# Total GULP energy -396640.700344 kJ/mol
# GULP energy per Si atom -12395.021886 kJ/mol
# Density = 1.934135 g / cm^3
# Si number density = 19.385475 Si / 1000 Ang^3
#
#
#
# Elastic Constant Matrix: (Units=GPa)
#
#
# Indices 1 2 3 4 5 6 
#
# 1 61.3290 24.8167 44.2022 0.0000 0.0000 0.0000
# 2 24.8167 117.7401 80.4029 0.0000 0.0000 0.0000
# 3 44.2022 80.4029 188.9112 0.0000 0.0000 0.0000
# 4 0.0000 0.0000 0.0000 34.6707 0.0000 0.0000
# 5 0.0000 0.0000 0.0000 0.0000 1.5355 0.0000
# 6 0.0000 0.0000 0.0000 0.0000 0.0000 12.5642
#
#
#
# Elastic Compliance Matrix: (Units=1/GPa)
#
#
# Indices 1 2 3 4 5 6 
#
# 1 0.019781 -0.001422 -0.004023 0.000000 0.000000 0.000000
# 2 -0.001422 0.012075 -0.004807 0.000000 0.000000 0.000000
# 3 -0.004023 -0.004807 0.008281 0.000000 0.000000 0.000000
# 4 0.000000 0.000000 0.000000 0.028843 0.000000 0.000000
# 5 0.000000 0.000000 0.000000 0.000000 0.651264 0.000000
# 6 0.000000 0.000000 0.000000 0.000000 0.000000 0.079591
#
#
# Mechanical properties :
#
#
# Convention : Reuss Voigt Hill
#
# Bulk Modulus (GPa) = 50.93462 74.09155 62.51309
# Shear Modulus (GPa) = 6.04681 24.32464 15.18572
#
# Velocity S-wave (km/s) = 1.76806 3.54614 2.80189
# Velocity P-wave (km/s) = 5.52265 7.42091 6.54101
#
# Compressibility (1/GPa) = 0.01963301
#
# Stress axis : x y z
#
# Youngs Moduli (GPa) = 50.55484 82.81270 120.76330
#
# Poissons Ratio (x) = 0.11775 0.48585
# Poissons Ratio (y) = 0.07188 0.58048
# Poissons Ratio (z) = 0.20339 0.39806
#
# Static dielectric constant tensor:
#      x y z
#    x 3.168460 0.000000 0.000000 
#    y 0.000000 3.606500 0.000000 
#    z 0.000000 0.000000 3.879770 
# 
# 
# High freq. dielectric constant tensor:
#      x y z
#    x 1.706460 0.000000 0.000000 
#    y 0.000000 1.757890 0.000000 
#    z 0.000000 0.000000 1.759510 
# 
# From -- ./inp_files/4008.got.cif
#   From: 2010.03.12/outbox.cif.g09.slc.cpg/sg32_3_cif.got.tgz:4008.got - 2010.04.14 01:46:39.
