data_PCOD8170777
_publ_section_title
;
Structure prediction by ZEFSAII (Michael W. Deem and Ramdas Pophale) SiO2 
 PCOD8170777
Probable space group: P N A 21
;
_chemical_formula_sum "Si O2"
_cell_formula_units_Z 28
_cell_length_a 8.483833
_cell_length_b 17.156131
_cell_length_c 9.461494
_cell_angle_alpha 90.000000
_cell_angle_beta 90.000000
_cell_angle_gamma 90.000000
_cell_volume 1377.118089
_symmetry_space_group_name_H-M "P N A 21"
_symmetry_group_IT_number 33
_symmetry_cell_setting 'orthorhombic'
loop_
_space_group_symop_operation_xyz
x,y,z
-x,-y,1/2+z
1/2-x,1/2+y,1/2+z
1/2+x,1/2-y,z
loop_
_atom_site_type_symbol
_atom_site_label
_atom_site_fract_x
_atom_site_fract_y
_atom_site_fract_z
Si Si1 0.818833 0.950282 0.400720
Si Si2 0.797967 0.846021 0.652280
Si Si3 0.010417 0.727622 0.782570
Si Si4 0.245221 0.778490 0.989353
Si Si5 0.843256 0.980586 0.849971
Si Si6 0.813245 0.395326 0.603840
Si Si7 0.820936 0.572440 0.111347
O O1 0.802964 0.870861 0.490453
O O2 0.766450 0.926551 0.245762
O O3 0.711563 0.016034 0.476937
O O4 0.999203 0.977228 0.400391
O O5 0.896031 0.766121 0.666566
O O6 0.615573 0.838642 0.705512
O O7 0.888238 0.907387 0.751871
O O8 0.914904 0.698508 0.920228
O O9 0.130893 0.788001 0.855185
O O10 0.238689 0.693499 0.064072
O O11 0.215626 0.848308 0.099156
O O12 0.730917 0.036495 0.759431
O O13 0.745124 0.953914 0.984549
O O14 0.998165 0.403993 0.622726
#
# Coordination Sequence:
#
# PCOD8170777 Si02
#       7
#     4   4   4   4   4   4   4
#     4  11  26  42  66  95 139 168 226 276 339 396
#     4  10  21  42  63  97 124 173 217 275 324 403
#     4  10  19  38  68  90 128 166 222 265 332 395
#     4  11  21  38  69  98 123 171 224 274 327 397
#     4  11  22  42  69  93 133 177 224 263 341 403
#     4  12  23  43  66  97 135 173 224 278 331 398
#     4  11  24  41  67  98 130 176 221 275 332 396
#
# _framework density 20.332315999999999
#
# number of rings (size 3 to 8) (size 9 to 14) (size 15 to 20)
#    0.000    1.143    4.286    3.429    2.000    1.143 
#    5.143    4.286    0.000    0.000    0.000    0.000 
#    0.000    0.000    0.000    0.000    0.000    0.000 
#
# Total GULP energy -346988.936927 kJ/mol
# GULP energy per Si atom -12392.462033 kJ/mol
# Density = 2.028604 g / cm^3
# Si number density = 20.332316 Si / 1000 Ang^3
#
#
#
# Elastic Constant Matrix: (Units=GPa)
#
#
# Indices 1 2 3 4 5 6 
#
# 1 67.2107 25.8493 16.7238 0.0000 0.0000 0.0000
# 2 25.8493 107.4347 55.4317 0.0000 0.0000 0.0000
# 3 16.7238 55.4317 120.6697 0.0000 0.0000 0.0000
# 4 0.0000 0.0000 0.0000 41.9798 0.0000 0.0000
# 5 0.0000 0.0000 0.0000 0.0000 27.3933 0.0000
# 6 0.0000 0.0000 0.0000 0.0000 0.0000 26.8583
#
#
#
# Elastic Compliance Matrix: (Units=1/GPa)
#
#
# Indices 1 2 3 4 5 6 
#
# 1 0.016429 -0.003641 -0.000604 0.000000 0.000000 0.000000
# 2 -0.003641 0.013006 -0.005470 0.000000 0.000000 0.000000
# 3 -0.000604 -0.005470 0.010884 0.000000 0.000000 0.000000
# 4 0.000000 0.000000 0.000000 0.023821 0.000000 0.000000
# 5 0.000000 0.000000 0.000000 0.000000 0.036505 0.000000
# 6 0.000000 0.000000 0.000000 0.000000 0.000000 0.037232
#
#
# Mechanical properties :
#
#
# Convention : Reuss Voigt Hill
#
# Bulk Modulus (GPa) = 47.87392 54.59162 51.23277
# Shear Modulus (GPa) = 30.43734 32.40030 31.41882
#
# Velocity S-wave (km/s) = 3.87330 3.99624 3.93525
# Velocity P-wave (km/s) = 6.60304 6.94271 6.77500
#
# Compressibility (1/GPa) = 0.02088820
#
# Stress axis : x y z
#
# Youngs Moduli (GPa) = 60.86667 76.88533 91.88129
#
# Poissons Ratio (x) = 0.27995 0.05553
# Poissons Ratio (y) = 0.22163 0.50260
# Poissons Ratio (z) = 0.03678 0.42057
#
# Static dielectric constant tensor:
#      x y z
#    x 4.015570 0.000000 0.000000 
#    y 0.000000 3.777150 0.000000 
#    z 0.000000 0.000000 3.722810 
# 
# 
# High freq. dielectric constant tensor:
#      x y z
#    x 1.807570 0.000000 0.000000 
#    y 0.000000 1.790980 0.000000 
#    z 0.000000 0.000000 1.791720 
# 
# From -- ./inp_files/3355.got.cif
#   From: 2010.03.12/outbox.cif.g09.slc.cpg/sg33_2_cif.got.tgz:3355.got - 2010.04.14 01:49:19.
