data_PCOD8170348
_publ_section_title
;
Structure prediction by ZEFSAII (Michael W. Deem and Ramdas Pophale) SiO2 
 PCOD8170348
Probable space group: P M N 21
;
_chemical_formula_sum "Si O2"
_cell_formula_units_Z 24
_cell_length_a 8.892265
_cell_length_b 14.911919
_cell_length_c 8.730039
_cell_angle_alpha 90.000000
_cell_angle_beta 90.000000
_cell_angle_gamma 90.000000
_cell_volume 1157.609592
_symmetry_space_group_name_H-M "P M N 21"
_symmetry_group_IT_number 31
_symmetry_cell_setting 'orthorhombic'
loop_
_space_group_symop_operation_xyz
x,y,z
1/2-x,-y,1/2+z
-x,y,z
1/2+x,-y,1/2+z
loop_
_atom_site_type_symbol
_atom_site_label
_atom_site_fract_x
_atom_site_fract_y
_atom_site_fract_z
Si Si1 0.673932 0.276440 0.771530
Si Si2 0.825841 0.222400 0.459365
Si Si3 0.177425 0.937269 0.788527
Si Si4 0.673833 0.097950 0.945960
Si Si5 0.826295 0.403289 0.294590
Si Si6 0.676115 0.564493 0.445249
O O1 0.500000 0.285839 0.726173
O O2 0.767845 0.253083 0.622796
O O3 0.699352 0.200824 0.899986
O O4 0.731074 0.370284 0.835975
O O5 0.741754 0.132875 0.409586
O O6 0.795906 0.300011 0.335384
O O7 0.000000 0.198849 0.473674
O O8 0.234839 0.914095 0.618200
O O9 0.000000 0.933036 0.798058
O O10 0.232497 0.036410 0.830201
O O11 0.500000 0.069912 0.933524
O O12 0.722193 0.463368 0.403947
O O13 0.000000 0.429250 0.322297
O O14 0.778212 0.417514 0.119799
O O15 0.500000 0.579568 0.418037
#
# Coordination Sequence:
#
# PCOD8170348 Si02
#       6
#     4   4   4   4   4   4
#     4  11  23  40  62  88 120 156 197 244 294 349
#     4  11  23  40  62  88 120 156 197 244 294 349
#     4  11  23  39  61  88 118 154 196 242 294 350
#     4  10  23  41  60  86 119 156 197 242 293 349
#     4  10  23  41  60  86 119 156 197 242 293 349
#     4  11  23  39  61  88 118 154 196 242 294 350
#
# _framework density 20.732377
#
# number of rings (size 3 to 8) (size 9 to 14) (size 15 to 20)
#    0.000    1.333    0.000    5.000    0.000   10.667 
#    0.000    0.000    0.000    0.000    0.000    0.000 
#    0.000    0.000    0.000    0.000    0.000    0.000 
#
# Total GULP energy -297809.155337 kJ/mol
# GULP energy per Si atom -12408.714806 kJ/mol
# Density = 2.068519 g / cm^3
# Si number density = 20.732377 Si / 1000 Ang^3
#
#
#
# Elastic Constant Matrix: (Units=GPa)
#
#
# Indices 1 2 3 4 5 6 
#
# 1 53.0639 24.5440 15.3181 0.0000 0.0000 0.0000
# 2 24.5440 58.4898 -5.3923 0.0000 0.0000 0.0000
# 3 15.3181 -5.3923 76.9190 0.0000 0.0000 0.0000
# 4 0.0000 0.0000 0.0000 39.5229 0.0000 0.0000
# 5 0.0000 0.0000 0.0000 0.0000 34.3182 0.0000
# 6 0.0000 0.0000 0.0000 0.0000 0.0000 40.1214
#
#
#
# Elastic Compliance Matrix: (Units=1/GPa)
#
#
# Indices 1 2 3 4 5 6 
#
# 1 0.025826 -0.011385 -0.005941 0.000000 0.000000 0.000000
# 2 -0.011385 0.022227 0.003826 0.000000 0.000000 0.000000
# 3 -0.005941 0.003826 0.014452 0.000000 0.000000 0.000000
# 4 0.000000 0.000000 0.000000 0.025302 0.000000 0.000000
# 5 0.000000 0.000000 0.000000 0.000000 0.029139 0.000000
# 6 0.000000 0.000000 0.000000 0.000000 0.000000 0.024924
#
#
# Mechanical properties :
#
#
# Convention : Reuss Voigt Hill
#
# Bulk Modulus (GPa) = 28.16617 28.60137 28.38377
# Shear Modulus (GPa) = 27.66899 33.05936 30.36418
#
# Velocity S-wave (km/s) = 3.65715 3.99755 3.83113
# Velocity P-wave (km/s) = 5.60786 5.92728 5.76978
#
# Compressibility (1/GPa) = 0.03550358
#
# Stress axis : x y z
#
# Youngs Moduli (GPa) = 38.72004 44.98977 69.19415
#
# Poissons Ratio (x) = 0.51222 0.41111
# Poissons Ratio (y) = 0.44084 -0.26471
# Poissons Ratio (z) = 0.23005 -0.17211
#
# Static dielectric constant tensor:
#      x y z
#    x 3.757480 0.000000 0.000000 
#    y 0.000000 3.814400 0.000000 
#    z 0.000000 0.000000 3.888750 
# 
# 
# High freq. dielectric constant tensor:
#      x y z
#    x 1.814880 0.000000 0.000000 
#    y 0.000000 1.823310 0.000000 
#    z 0.000000 0.000000 1.823600 
# 
# From -- ./inp_files/1706.got.cif
#   From: 2010.03.12/outbox.cif.g09.slc.cpg/sg31_1_cif.got.tgz:1706.got - 2010.04.14 01:42:59.
