data_PCOD8170155
_publ_section_title
;
Structure prediction by ZEFSAII (Michael W. Deem and Ramdas Pophale) SiO2 
 PCOD8170155
Probable space group: P M N 21
;
_chemical_formula_sum "Si O2"
_cell_formula_units_Z 32
_cell_length_a 8.997717
_cell_length_b 14.149071
_cell_length_c 12.465699
_cell_angle_alpha 90.000000
_cell_angle_beta 90.000000
_cell_angle_gamma 90.000000
_cell_volume 1586.999871
_symmetry_space_group_name_H-M "P M N 21"
_symmetry_group_IT_number 31
_symmetry_cell_setting 'orthorhombic'
loop_
_space_group_symop_operation_xyz
x,y,z
1/2-x,-y,1/2+z
-x,y,z
1/2+x,-y,1/2+z
loop_
_atom_site_type_symbol
_atom_site_label
_atom_site_fract_x
_atom_site_fract_y
_atom_site_fract_z
Si Si1 0.834958 0.817369 0.616460
Si Si2 0.327370 0.162095 0.671400
Si Si3 0.829119 0.334341 0.997210
Si Si4 0.673792 0.651609 0.252843
Si Si5 0.330545 0.959591 0.748633
Si Si6 0.168436 0.683469 0.821159
Si Si7 0.676189 0.837088 0.949570
Si Si8 0.675625 0.532225 0.690091
O O1 0.756458 0.763620 0.518535
O O2 0.757429 0.915285 0.648190
O O3 0.832466 0.749767 0.718417
O O4 0.000000 0.842222 0.578167
O O5 0.500000 0.189293 0.657717
O O6 0.236876 0.246759 0.723330
O O7 0.258152 0.133318 0.557697
O O8 0.307952 0.072144 0.749905
O O9 0.780527 0.417367 0.078399
O O10 0.000000 0.309569 0.014746
O O11 0.795175 0.369176 0.877704
O O12 0.500000 0.648612 0.225155
O O13 0.758829 0.572977 0.183491
O O14 0.500000 0.930568 0.729232
O O15 0.278500 0.916830 0.862526
O O16 0.262074 0.734269 0.914545
O O17 0.248806 0.585739 0.790535
O O18 0.000000 0.662435 0.860464
O O19 0.500000 0.830017 0.966967
O O20 0.500000 0.529208 0.708239
#
# Coordination Sequence:
#
# PCOD8170155 Si02
#       8
#     4   4   4   4   4   4   4   4
#     4   9  17  30  55  87 114 141 182 232 278 328
#     4  11  24  41  58  82 116 152 189 235 288 342
#     4   9  20  38  59  82 113 151 188 229 284 339
#     4  11  24  41  58  81 114 152 193 238 285 341
#     4   9  20  38  59  82 113 151 192 235 283 340
#     4   9  17  32  55  85 116 146 184 233 282 334
#     4  10  20  37  60  86 115 151 192 236 285 340
#     4  10  20  37  60  85 113 150 194 240 287 340
#
# _framework density 20.163833
#
# number of rings (size 3 to 8) (size 9 to 14) (size 15 to 20)
#    0.000    2.250    0.000    2.250    0.000    8.000 
#    0.000    6.250    0.000    0.000    0.000    0.000 
#    0.000    0.000    0.000    0.000    0.000    0.000 
#
# Total GULP energy -396868.710346 kJ/mol
# GULP energy per Si atom -12402.147198 kJ/mol
# Density = 2.011794 g / cm^3
# Si number density = 20.163833 Si / 1000 Ang^3
#
#
#
# Elastic Constant Matrix: (Units=GPa)
#
#
# Indices 1 2 3 4 5 6 
#
# 1 101.9880 45.2115 42.3188 0.0000 0.0000 0.0000
# 2 45.2115 114.3787 38.6058 0.0000 0.0000 0.0000
# 3 42.3188 38.6058 79.2732 0.0000 0.0000 0.0000
# 4 0.0000 0.0000 0.0000 26.3986 0.0000 0.0000
# 5 0.0000 0.0000 0.0000 0.0000 29.8379 0.0000
# 6 0.0000 0.0000 0.0000 0.0000 0.0000 35.6307
#
#
#
# Elastic Compliance Matrix: (Units=1/GPa)
#
#
# Indices 1 2 3 4 5 6 
#
# 1 0.013687 -0.003523 -0.005591 0.000000 0.000000 0.000000
# 2 -0.003523 0.011370 -0.003656 0.000000 0.000000 0.000000
# 3 -0.005591 -0.003656 0.017380 0.000000 0.000000 0.000000
# 4 0.000000 0.000000 0.000000 0.037881 0.000000 0.000000
# 5 0.000000 0.000000 0.000000 0.000000 0.033514 0.000000
# 6 0.000000 0.000000 0.000000 0.000000 0.000000 0.028066
#
#
# Mechanical properties :
#
#
# Convention : Reuss Voigt Hill
#
# Bulk Modulus (GPa) = 59.18574 60.87914 60.03244
# Shear Modulus (GPa) = 28.89028 29.67370 29.28199
#
# Velocity S-wave (km/s) = 3.78931 3.84034 3.81491
# Velocity P-wave (km/s) = 6.96859 7.06556 7.01724
#
# Compressibility (1/GPa) = 0.01689596
#
# Stress axis : x y z
#
# Youngs Moduli (GPa) = 73.06391 87.95433 57.53849
#
# Poissons Ratio (x) = 0.30987 0.32168
# Poissons Ratio (y) = 0.25741 0.21037
# Poissons Ratio (z) = 0.40848 0.32158
#
# Static dielectric constant tensor:
#      x y z
#    x 3.795240 0.000000 0.000000 
#    y 0.000000 3.594710 0.000000 
#    z 0.000000 0.000000 3.592270 
# 
# 
# High freq. dielectric constant tensor:
#      x y z
#    x 1.796980 0.000000 0.000000 
#    y 0.000000 1.785010 0.000000 
#    z 0.000000 0.000000 1.773150 
# 
# From -- ./inp_files/3737.got.cif
#   From: 2010.03.12/outbox.cif.g09.slc.cpg/sg31_2_cif.got.tgz:3737.got - 2010.04.14 01:42:59.
