data_PCOD8170399
_publ_section_title
;
Structure prediction by ZEFSAII (Michael W. Deem and Ramdas Pophale) SiO2 
 PCOD8170399
Probable space group: P B A 2
;
_chemical_formula_sum "Si O2"
_cell_formula_units_Z 32
_cell_length_a 5.194156
_cell_length_b 13.772309
_cell_length_c 19.064325
_cell_angle_alpha 90.000000
_cell_angle_beta 90.000000
_cell_angle_gamma 90.000000
_cell_volume 1363.776430
_symmetry_space_group_name_H-M "P B A 2"
_symmetry_group_IT_number 32
_symmetry_cell_setting 'orthorhombic'
loop_
_space_group_symop_operation_xyz
x,y,z
-x,-y,z
1/2-x,1/2+y,z
1/2+x,1/2-y,z
loop_
_atom_site_type_symbol
_atom_site_label
_atom_site_fract_x
_atom_site_fract_y
_atom_site_fract_z
Si Si1 0.870593 0.189197 0.664940
Si Si2 0.040446 0.890287 0.959751
Si Si3 0.041493 0.614219 0.029221
Si Si4 0.662455 0.634236 0.514718
Si Si5 0.333815 0.147308 0.455035
Si Si6 0.377661 0.188226 0.182111
Si Si7 0.188201 0.811941 0.817499
Si Si8 0.258931 0.063349 0.313889
O O1 0.667074 0.277549 0.660223
O O2 0.805305 0.121314 0.598632
O O3 0.836301 0.136801 0.740757
O O4 0.124165 0.888372 0.878439
O O5 0.761616 0.842380 0.976352
O O6 0.000000 0.000000 0.984176
O O7 0.264833 0.839406 0.007337
O O8 0.000000 0.500000 0.020116
O O9 0.137785 0.639501 0.106441
O O10 0.621724 0.746488 0.488584
O O11 0.391899 0.585147 0.493367
O O12 0.901965 0.589068 0.472372
O O13 0.257921 0.149655 0.372265
O O14 0.666237 0.227677 0.192617
O O15 0.311217 0.105306 0.237334
O O16 0.480819 0.774976 0.824894
O O17 0.500000 0.000000 0.336872
O O18 0.000000 0.000000 0.313473
#
# Coordination Sequence:
#
# PCOD8170399 Si02
#       8
#     4   4   4   4   4   4   4   4
#     4  10  16  30  48  84 119 149 192 241 316 354
#     4  10  21  38  60  86 118 164 206 244 300 376
#     4  10  22  41  64  86 120 163 204 246 312 376
#     4  10  17  32  57  92 111 148 194 271 289 361
#     4  10  20  32  60  84 114 152 199 250 302 347
#     4  12  27  43  67  98 124 160 208 266 308 369
#     4  10  21  32  54  85 121 154 197 255 300 358
#     4  12  27  46  64  89 132 173 202 249 317 389
#
# _framework density 23.464258000000001
#
# number of rings (size 3 to 8) (size 9 to 14) (size 15 to 20)
#    0.000    1.500    2.500    3.375    3.500    4.500 
#    0.000    0.000    0.000    2.250    0.000    0.000 
#    0.000    0.000    0.000    0.000    0.000    0.000 
#
# Total GULP energy -396507.782989 kJ/mol
# GULP energy per Si atom -12390.868218 kJ/mol
# Density = 2.341085 g / cm^3
# Si number density = 23.464258 Si / 1000 Ang^3
#
#
#
# Elastic Constant Matrix: (Units=GPa)
#
#
# Indices 1 2 3 4 5 6 
#
# 1 189.1282 14.1592 47.2426 0.0000 0.0000 0.0000
# 2 14.1592 19.1911 11.9019 0.0000 0.0000 0.0000
# 3 47.2426 11.9019 183.6619 0.0000 0.0000 0.0000
# 4 0.0000 0.0000 0.0000 21.8695 0.0000 0.0000
# 5 0.0000 0.0000 0.0000 0.0000 42.2909 0.0000
# 6 0.0000 0.0000 0.0000 0.0000 0.0000 7.7308
#
#
#
# Elastic Compliance Matrix: (Units=1/GPa)
#
#
# Indices 1 2 3 4 5 6 
#
# 1 0.005872 -0.003538 -0.001281 0.000000 0.000000 0.000000
# 2 -0.003538 0.056421 -0.002746 0.000000 0.000000 0.000000
# 3 -0.001281 -0.002746 0.005952 0.000000 0.000000 0.000000
# 4 0.000000 0.000000 0.000000 0.045726 0.000000 0.000000
# 5 0.000000 0.000000 0.000000 0.000000 0.023646 0.000000
# 6 0.000000 0.000000 0.000000 0.000000 0.000000 0.129352
#
#
# Mechanical properties :
#
#
# Convention : Reuss Voigt Hill
#
# Bulk Modulus (GPa) = 18.82718 59.84320 39.33519
# Shear Modulus (GPa) = 16.67751 35.62342 26.15047
#
# Velocity S-wave (km/s) = 2.66890 3.90063 3.34201
# Velocity P-wave (km/s) = 4.18791 6.77096 5.62959
#
# Compressibility (1/GPa) = 0.05311471
#
# Stress axis : x y z
#
# Youngs Moduli (GPa) = 170.28986 17.72390 168.00173
#
# Poissons Ratio (x) = 0.06271 0.21525
# Poissons Ratio (y) = 0.60249 0.46137
# Poissons Ratio (z) = 0.21818 0.04867
#
# Static dielectric constant tensor:
#      x y z
#    x 5.216380 0.000000 0.000000 
#    y 0.000000 3.645580 0.000000 
#    z 0.000000 0.000000 4.429600 
# 
# 
# High freq. dielectric constant tensor:
#      x y z
#    x 1.967420 0.000000 0.000000 
#    y 0.000000 1.880200 0.000000 
#    z 0.000000 0.000000 1.941680 
# 
# From -- ./inp_files/4229.got.cif
#   From: 2010.03.12/outbox.cif.g09.slc.cpg/sg32_3_cif.got.tgz:4229.got - 2010.04.14 01:46:39.
