data_PCOD8170317
_publ_section_title
;
Structure prediction by ZEFSAII (Michael W. Deem and Ramdas Pophale) SiO2 
 PCOD8170317
Probable space group: P M N 21
;
_chemical_formula_sum "Si O2"
_cell_formula_units_Z 32
_cell_length_a 8.344190
_cell_length_b 15.347944
_cell_length_c 11.924404
_cell_angle_alpha 90.000000
_cell_angle_beta 90.000000
_cell_angle_gamma 90.000000
_cell_volume 1527.112641
_symmetry_space_group_name_H-M "P M N 21"
_symmetry_group_IT_number 31
_symmetry_cell_setting 'orthorhombic'
loop_
_space_group_symop_operation_xyz
x,y,z
1/2-x,-y,1/2+z
-x,y,z
1/2+x,-y,1/2+z
loop_
_atom_site_type_symbol
_atom_site_label
_atom_site_fract_x
_atom_site_fract_y
_atom_site_fract_z
Si Si1 0.815540 0.893116 0.908510
Si Si2 0.685374 0.337123 0.164714
Si Si3 0.810334 0.083009 0.946481
Si Si4 0.685020 0.600251 0.892998
Si Si5 0.182975 0.156293 0.178423
Si Si6 0.810618 0.248467 0.808769
Si Si7 0.688599 0.263251 0.559086
Si Si8 0.688286 0.582456 0.454014
O O1 0.798504 0.858809 0.782826
O O2 0.000000 0.904589 0.939389
O O3 0.734363 0.989057 0.914767
O O4 0.741611 0.823123 0.995836
O O5 0.500000 0.317055 0.141905
O O6 0.706238 0.363174 0.293408
O O7 0.794344 0.254125 0.135116
O O8 0.749837 0.411572 0.081767
O O9 0.741839 0.160795 0.868397
O O10 0.000000 0.085678 0.931089
O O11 0.764944 0.094514 0.076616
O O12 0.500000 0.615728 0.863803
O O13 0.718627 0.498224 0.901254
O O14 0.728665 0.650938 0.007413
O O15 0.000000 0.140230 0.214931
O O16 0.725486 0.257577 0.689755
O O17 0.764575 0.331250 0.884786
O O18 0.000000 0.243601 0.790243
O O19 0.500000 0.271110 0.538913
O O20 0.500000 0.564049 0.451483
#
# Coordination Sequence:
#
# PCOD8170317 Si02
#       8
#     4   4   4   4   4   4   4   4
#     4  10  22  40  62  90 127 167 207 259 316 372
#     4  12  24  42  67  95 128 164 209 264 320 376
#     4   9  20  40  63  90 125 165 208 257 314 372
#     4  12  26  44  67  94 126 167 214 261 315 376
#     4  11  21  39  66  92 122 164 213 263 314 374
#     4  10  22  42  65  89 125 168 210 257 314 376
#     4  11  24  41  62  91 130 168 209 260 316 373
#     4  11  24  44  68  95 127 165 212 261 315 377
#
# _framework density 20.954578000000001
#
# number of rings (size 3 to 8) (size 9 to 14) (size 15 to 20)
#    0.000    1.250    2.500    3.375    3.500    1.500 
#    0.000    1.250    0.000    0.000    0.000    0.000 
#    0.000    0.000    0.000    0.000    0.000    0.000 
#
# Total GULP energy -396896.609860 kJ/mol
# GULP energy per Si atom -12403.019058 kJ/mol
# Density = 2.090688 g / cm^3
# Si number density = 20.954578 Si / 1000 Ang^3
#
#
#
# Elastic Constant Matrix: (Units=GPa)
#
#
# Indices 1 2 3 4 5 6 
#
# 1 45.7564 23.6315 24.0564 0.0000 0.0000 0.0000
# 2 23.6315 128.5002 34.8318 0.0000 0.0000 0.0000
# 3 24.0564 34.8318 106.4866 0.0000 0.0000 0.0000
# 4 0.0000 0.0000 0.0000 32.7209 0.0000 0.0000
# 5 0.0000 0.0000 0.0000 0.0000 30.6667 0.0000
# 6 0.0000 0.0000 0.0000 0.0000 0.0000 19.1310
#
#
#
# Elastic Compliance Matrix: (Units=1/GPa)
#
#
# Indices 1 2 3 4 5 6 
#
# 1 0.026178 -0.003524 -0.004761 0.000000 0.000000 0.000000
# 2 -0.003524 0.009013 -0.002152 0.000000 0.000000 0.000000
# 3 -0.004761 -0.002152 0.011170 0.000000 0.000000 0.000000
# 4 0.000000 0.000000 0.000000 0.030561 0.000000 0.000000
# 5 0.000000 0.000000 0.000000 0.000000 0.032609 0.000000
# 6 0.000000 0.000000 0.000000 0.000000 0.000000 0.052271
#
#
# Mechanical properties :
#
#
# Convention : Reuss Voigt Hill
#
# Bulk Modulus (GPa) = 39.23483 49.53141 44.38312
# Shear Modulus (GPa) = 26.15426 29.71862 27.93644
#
# Velocity S-wave (km/s) = 3.53674 3.77004 3.65525
# Velocity P-wave (km/s) = 5.95335 6.52991 6.24829
#
# Compressibility (1/GPa) = 0.02548756
#
# Stress axis : x y z
#
# Youngs Moduli (GPa) = 38.20017 110.94475 89.52154
#
# Poissons Ratio (x) = 0.39092 0.42624
# Poissons Ratio (y) = 0.13460 0.19268
# Poissons Ratio (z) = 0.18188 0.23879
#
# Static dielectric constant tensor:
#      x y z
#    x 3.509040 0.000000 0.000000 
#    y 0.000000 4.154430 0.000000 
#    z 0.000000 0.000000 3.733890 
# 
# 
# High freq. dielectric constant tensor:
#      x y z
#    x 1.805000 0.000000 0.000000 
#    y 0.000000 1.831990 0.000000 
#    z 0.000000 0.000000 1.828370 
# 
# From -- ./inp_files/3685.got.cif
#   From: 2010.03.12/outbox.cif.g09.slc.cpg/sg31_2_cif.got.tgz:3685.got - 2010.04.14 01:42:59.
