data_PCOD8170826
_publ_section_title
;
Structure prediction by ZEFSAII (Michael W. Deem and Ramdas Pophale) SiO2 
 PCOD8170826
Probable space group: P N A 21
;
_chemical_formula_sum "Si O2"
_cell_formula_units_Z 24
_cell_length_a 9.797079
_cell_length_b 8.444402
_cell_length_c 13.659276
_cell_angle_alpha 90.000000
_cell_angle_beta 90.000000
_cell_angle_gamma 90.000000
_cell_volume 1130.038371
_symmetry_space_group_name_H-M "P N A 21"
_symmetry_group_IT_number 33
_symmetry_cell_setting 'orthorhombic'
loop_
_space_group_symop_operation_xyz
x,y,z
-x,-y,1/2+z
1/2-x,1/2+y,1/2+z
1/2+x,1/2-y,z
loop_
_atom_site_type_symbol
_atom_site_label
_atom_site_fract_x
_atom_site_fract_y
_atom_site_fract_z
Si Si1 0.346764 0.804508 0.125000
Si Si2 0.470817 0.721759 0.805209
Si Si3 0.579187 0.573543 0.192240
Si Si4 0.726489 0.655185 0.921755
Si Si5 0.834760 0.849621 0.522547
Si Si6 0.551467 0.852825 0.596120
O O1 0.445286 0.679344 0.175743
O O2 0.222766 0.832009 0.202375
O O3 0.436517 0.958310 0.098248
O O4 0.275380 0.756869 0.021635
O O5 0.438715 0.534785 0.788724
O O6 0.586829 0.738458 0.887687
O O7 0.338887 0.818828 0.838512
O O8 0.516835 0.797529 0.704185
O O9 0.588951 0.465726 0.097089
O O10 0.701239 0.463632 0.930638
O O11 0.696320 0.776379 0.566500
O O12 0.940265 0.702355 0.512997
#
# Coordination Sequence:
#
# PCOD8170826 Si02
#       6
#     4   4   4   4   4   4
#     4  10  20  38  58  83 114 155 197 237 293 366
#     4  11  20  37  59  85 114 150 194 249 300 346
#     4   9  20  35  57  85 113 150 197 238 291 362
#     4  10  20  35  58  85 115 150 195 248 300 345
#     4   9  19  37  57  84 112 153 195 230 287 362
#     4   9  19  36  59  82 112 150 194 236 289 359
#
# _framework density 21.238216999999999
#
# number of rings (size 3 to 8) (size 9 to 14) (size 15 to 20)
#    0.000    2.667    0.000    5.000    0.000    4.000 
#    0.000   10.000    0.000    2.000    0.000    0.000 
#    0.000    0.000    0.000    0.000    0.000    0.000 
#
# Total GULP energy -297351.711321 kJ/mol
# GULP energy per Si atom -12389.654638 kJ/mol
# Density = 2.118988 g / cm^3
# Si number density = 21.238217 Si / 1000 Ang^3
#
#
#
# Elastic Constant Matrix: (Units=GPa)
#
#
# Indices 1 2 3 4 5 6 
#
# 1 150.9160 65.5896 50.5735 0.0000 0.0000 0.0000
# 2 65.5896 70.4444 43.0662 0.0000 0.0000 0.0000
# 3 50.5735 43.0662 59.0332 0.0000 0.0000 0.0000
# 4 0.0000 0.0000 0.0000 24.9595 0.0000 0.0000
# 5 0.0000 0.0000 0.0000 0.0000 18.1735 0.0000
# 6 0.0000 0.0000 0.0000 0.0000 0.0000 40.8590
#
#
#
# Elastic Compliance Matrix: (Units=1/GPa)
#
#
# Indices 1 2 3 4 5 6 
#
# 1 0.011562 -0.008501 -0.003703 0.000000 0.000000 0.000000
# 2 -0.008501 0.031874 -0.015970 0.000000 0.000000 0.000000
# 3 -0.003703 -0.015970 0.031763 0.000000 0.000000 0.000000
# 4 0.000000 0.000000 0.000000 0.040065 0.000000 0.000000
# 5 0.000000 0.000000 0.000000 0.000000 0.055025 0.000000
# 6 0.000000 0.000000 0.000000 0.000000 0.000000 0.024474
#
#
# Mechanical properties :
#
#
# Convention : Reuss Voigt Hill
#
# Bulk Modulus (GPa) = 53.05080 66.53912 59.79496
# Shear Modulus (GPa) = 19.42536 24.87602 22.15069
#
# Velocity S-wave (km/s) = 3.02759 3.42612 3.23300
# Velocity P-wave (km/s) = 6.10368 6.85922 6.49245
#
# Compressibility (1/GPa) = 0.01884986
#
# Stress axis : x y z
#
# Youngs Moduli (GPa) = 86.49144 31.37343 31.48339
#
# Poissons Ratio (x) = 0.26671 0.11659
# Poissons Ratio (y) = 0.73527 0.50279
# Poissons Ratio (z) = 0.32030 0.50104
#
# Static dielectric constant tensor:
#      x y z
#    x 4.394890 0.000000 0.000000 
#    y 0.000000 4.014950 0.000000 
#    z 0.000000 0.000000 3.663480 
# 
# 
# High freq. dielectric constant tensor:
#      x y z
#    x 1.856540 0.000000 0.000000 
#    y 0.000000 1.812710 0.000000 
#    z 0.000000 0.000000 1.804860 
# 
# From -- ./inp_files/7558.got.cif
#   From: 2010.03.12/outbox.cif.g09.slc.cpg/sg33_4_cif.got.tgz:7558.got - 2010.04.14 01:49:19.
