data_PCOD8170451
_publ_section_title
;
Structure prediction by ZEFSAII (Michael W. Deem and Ramdas Pophale) SiO2 
 PCOD8170451
Probable space group: P B A 2
;
_chemical_formula_sum "Si O2"
_cell_formula_units_Z 26
_cell_length_a 5.095055
_cell_length_b 27.237312
_cell_length_c 8.170585
_cell_angle_alpha 90.000000
_cell_angle_beta 90.000000
_cell_angle_gamma 90.000000
_cell_volume 1133.877858
_symmetry_space_group_name_H-M "P B A 2"
_symmetry_group_IT_number 32
_symmetry_cell_setting 'orthorhombic'
loop_
_space_group_symop_operation_xyz
x,y,z
-x,-y,z
1/2-x,1/2+y,z
1/2+x,1/2-y,z
loop_
_atom_site_type_symbol
_atom_site_label
_atom_site_fract_x
_atom_site_fract_y
_atom_site_fract_z
Si Si1 0.534384 0.271538 0.369170
Si Si2 0.057241 0.775508 0.997161
Si Si3 0.500000 0.000000 0.530546
Si Si4 0.371889 0.086676 0.767922
Si Si5 0.381359 0.392677 0.969092
Si Si6 0.207779 0.922682 0.330088
Si Si7 0.786034 0.371981 0.449852
O O1 0.748575 0.234555 0.454881
O O2 0.464502 0.257030 0.183714
O O3 0.660441 0.324514 0.370589
O O4 0.294621 0.745507 0.910660
O O5 0.090232 0.834157 0.988204
O O6 0.638180 0.960838 0.650249
O O7 0.293582 0.974523 0.407142
O O8 0.661623 0.094442 0.836726
O O9 0.299644 0.132140 0.647347
O O10 0.157566 0.084107 0.911077
O O11 0.304412 0.421253 0.133726
O O12 0.421998 0.881256 0.380613
O O13 0.915937 0.914673 0.398836
#
# Coordination Sequence:
#
# PCOD8170451 Si02
#       7
#     4   4   2   4   4   4   4
#     4  10  20  34  62  97 129 173 230 280 313 381
#     4  10  21  37  64  98 137 176 224 277 324 389
#     4  10  26  52  68 102 124 190 218 290 346 408
#     4  11  26  44  71  93 146 172 218 274 362 402
#     4  12  24  44  68 108 132 185 217 285 333 407
#     4  11  24  42  75  93 133 165 242 274 327 404
#     4  11  22  43  64  99 131 184 214 278 332 407
#
# _framework density 22.930157999999999
#
# number of rings (size 3 to 8) (size 9 to 14) (size 15 to 20)
#    0.000    1.231    1.538    4.615    4.308    6.154 
#    0.000    7.692    0.000    0.000    0.000    0.000 
#    0.000    0.000    0.000    0.000    0.000    0.000 
#
# Total GULP energy -322190.747904 kJ/mol
# GULP energy per Si atom -12391.951842 kJ/mol
# Density = 2.287797 g / cm^3
# Si number density = 22.930158 Si / 1000 Ang^3
#
#
#
# Elastic Constant Matrix: (Units=GPa)
#
#
# Indices 1 2 3 4 5 6 
#
# 1 131.5500 35.6752 36.3234 0.0000 0.0000 0.0000
# 2 35.6752 105.7833 26.6668 0.0000 0.0000 0.0000
# 3 36.3234 26.6668 91.7103 0.0000 0.0000 0.0000
# 4 0.0000 0.0000 0.0000 26.8837 0.0000 0.0000
# 5 0.0000 0.0000 0.0000 0.0000 39.0209 0.0000
# 6 0.0000 0.0000 0.0000 0.0000 0.0000 30.4292
#
#
#
# Elastic Compliance Matrix: (Units=1/GPa)
#
#
# Indices 1 2 3 4 5 6 
#
# 1 0.009031 -0.002314 -0.002904 0.000000 0.000000 0.000000
# 2 -0.002314 0.010794 -0.002222 0.000000 0.000000 0.000000
# 3 -0.002904 -0.002222 0.012700 0.000000 0.000000 0.000000
# 4 0.000000 0.000000 0.000000 0.037197 0.000000 0.000000
# 5 0.000000 0.000000 0.000000 0.000000 0.025627 0.000000
# 6 0.000000 0.000000 0.000000 0.000000 0.000000 0.032863
#
#
# Mechanical properties :
#
#
# Convention : Reuss Voigt Hill
#
# Bulk Modulus (GPa) = 56.67270 58.48604 57.57937
# Shear Modulus (GPa) = 33.56285 34.62532 34.09408
#
# Velocity S-wave (km/s) = 3.82998 3.89013 3.86017
# Velocity P-wave (km/s) = 6.65788 6.76306 6.71068
#
# Compressibility (1/GPa) = 0.01764518
#
# Stress axis : x y z
#
# Youngs Moduli (GPa) = 110.72997 92.64643 78.73834
#
# Poissons Ratio (x) = 0.21434 0.22867
# Poissons Ratio (y) = 0.25618 0.17497
# Poissons Ratio (z) = 0.32158 0.20588
#
# Static dielectric constant tensor:
#      x y z
#    x 4.711560 0.000000 0.000000 
#    y 0.000000 4.011460 0.000000 
#    z 0.000000 0.000000 4.021910 
# 
# 
# High freq. dielectric constant tensor:
#      x y z
#    x 1.937420 0.000000 0.000000 
#    y 0.000000 1.895410 0.000000 
#    z 0.000000 0.000000 1.888380 
# 
# From -- ./inp_files/2018.got.cif
#   From: 2010.03.12/outbox.cif.g09.slc.cpg/sg32_2_cif.got.tgz:2018.got - 2010.04.14 01:46:39.
