data_PCOD8170620
_publ_section_title
;
Structure prediction by ZEFSAII (Michael W. Deem and Ramdas Pophale) SiO2 
 PCOD8170620
Probable space group: P B A 2
;
_chemical_formula_sum "Si O2"
_cell_formula_units_Z 20
_cell_length_a 10.113070
_cell_length_b 14.871550
_cell_length_c 5.269727
_cell_angle_alpha 90.000000
_cell_angle_beta 90.000000
_cell_angle_gamma 90.000000
_cell_volume 792.551269
_symmetry_space_group_name_H-M "P B A 2"
_symmetry_group_IT_number 32
_symmetry_cell_setting 'orthorhombic'
loop_
_space_group_symop_operation_xyz
x,y,z
-x,-y,z
1/2-x,1/2+y,z
1/2+x,1/2-y,z
loop_
_atom_site_type_symbol
_atom_site_label
_atom_site_fract_x
_atom_site_fract_y
_atom_site_fract_z
Si Si1 0.358473 0.612980 0.815520
Si Si2 0.762716 0.048799 0.104372
Si Si3 0.434964 0.287768 0.072649
Si Si4 0.392716 0.179602 0.590025
Si Si5 0.500000 0.000000 0.378786
Si Si6 0.000000 0.000000 0.460208
O O1 0.262114 0.680849 0.667581
O O2 0.480907 0.588542 0.633489
O O3 0.275238 0.522609 0.876407
O O4 0.428559 0.652872 0.072558
O O5 0.804226 0.150300 0.025809
O O6 0.613755 0.044569 0.205674
O O7 0.866463 0.017374 0.313322
O O8 0.416680 0.233481 0.330960
O O9 0.463919 0.222895 0.832993
O O10 0.443669 0.078247 0.557135
#
# Coordination Sequence:
#
# PCOD8170620 Si02
#       6
#     4   4   4   4   2   2
#     4  12  26  50  82 117 161 217 281 336 418 506
#     4  12  26  50  84 116 165 215 275 339 422 499
#     4  12  28  50  82 122 157 218 276 351 405 495
#     4  12  31  49  79 118 170 211 277 344 416 497
#     4  12  30  54  78 118 176 222 266 346 438 496
#     4  12  20  50  82 110 150 216 266 332 390 518
#
# _framework density 25.234960000000001
#
# number of rings (size 3 to 8) (size 9 to 14) (size 15 to 20)
#    0.000    0.000    6.000    2.400    5.600    3.200 
#    0.000    0.000    0.000    0.000    0.000    0.000 
#    0.000    0.000    0.000    0.000    0.000    0.000 
#
# Total GULP energy -247932.656810 kJ/mol
# GULP energy per Si atom -12396.632841 kJ/mol
# Density = 2.517752 g / cm^3
# Si number density = 25.234960 Si / 1000 Ang^3
#
#
#
# Elastic Constant Matrix: (Units=GPa)
#
#
# Indices 1 2 3 4 5 6 
#
# 1 138.9119 35.0535 37.8741 0.0000 0.0000 0.0000
# 2 35.0535 125.2572 53.7131 0.0000 0.0000 0.0000
# 3 37.8741 53.7131 142.4204 0.0000 0.0000 0.0000
# 4 0.0000 0.0000 0.0000 35.8627 0.0000 0.0000
# 5 0.0000 0.0000 0.0000 0.0000 46.4341 0.0000
# 6 0.0000 0.0000 0.0000 0.0000 0.0000 34.2146
#
#
#
# Elastic Compliance Matrix: (Units=1/GPa)
#
#
# Indices 1 2 3 4 5 6 
#
# 1 0.008017 -0.001586 -0.001534 0.000000 0.000000 0.000000
# 2 -0.001586 0.009838 -0.003288 0.000000 0.000000 0.000000
# 3 -0.001534 -0.003288 0.008670 0.000000 0.000000 0.000000
# 4 0.000000 0.000000 0.000000 0.027884 0.000000 0.000000
# 5 0.000000 0.000000 0.000000 0.000000 0.021536 0.000000
# 6 0.000000 0.000000 0.000000 0.000000 0.000000 0.029227
#
#
# Mechanical properties :
#
#
# Convention : Reuss Voigt Hill
#
# Bulk Modulus (GPa) = 72.95069 73.31900 73.13485
# Shear Modulus (GPa) = 40.79722 41.96555 41.38138
#
# Velocity S-wave (km/s) = 4.02518 4.08240 4.05389
# Velocity P-wave (km/s) = 7.11154 7.16512 7.13838
#
# Compressibility (1/GPa) = 0.01370789
#
# Stress axis : x y z
#
# Youngs Moduli (GPa) = 124.73168 101.65147 115.34541
#
# Poissons Ratio (x) = 0.16120 0.17693
# Poissons Ratio (y) = 0.19781 0.37931
# Poissons Ratio (z) = 0.19133 0.33428
#
# Static dielectric constant tensor:
#      x y z
#    x 4.549170 0.000000 0.000000 
#    y 0.000000 5.162230 0.000000 
#    z 0.000000 0.000000 4.522930 
# 
# 
# High freq. dielectric constant tensor:
#      x y z
#    x 2.006030 0.000000 0.000000 
#    y 0.000000 2.018000 0.000000 
#    z 0.000000 0.000000 2.011240 
# 
# From -- ./inp_files/452.got.cif
#   From: 2010.03.12/outbox.cif.g09.slc.cpg/sg32_1_cif.got.tgz:452.got - 2010.04.14 01:46:39.
