data_PCOD8170907
_publ_section_title
;
Structure prediction by ZEFSAII (Michael W. Deem and Ramdas Pophale) SiO2 
 PCOD8170907
Probable space group: P N A 21
;
_chemical_formula_sum "Si O2"
_cell_formula_units_Z 32
_cell_length_a 11.300820
_cell_length_b 21.157351
_cell_length_c 6.579227
_cell_angle_alpha 90.000000
_cell_angle_beta 90.000000
_cell_angle_gamma 90.000000
_cell_volume 1573.063012
_symmetry_space_group_name_H-M "P N A 21"
_symmetry_group_IT_number 33
_symmetry_cell_setting 'orthorhombic'
loop_
_space_group_symop_operation_xyz
x,y,z
-x,-y,1/2+z
1/2-x,1/2+y,1/2+z
1/2+x,1/2-y,z
loop_
_atom_site_type_symbol
_atom_site_label
_atom_site_fract_x
_atom_site_fract_y
_atom_site_fract_z
Si Si1 0.763562 0.569966 0.551260
Si Si2 0.176717 0.840230 0.209315
Si Si3 0.847979 0.964201 0.795391
Si Si4 0.976745 0.643869 0.569893
Si Si5 0.610041 0.551047 0.943115
Si Si6 0.299943 0.157557 0.343019
Si Si7 0.550874 0.786682 0.176223
Si Si8 0.344068 0.779871 0.894853
O O1 0.719611 0.629917 0.419949
O O2 0.733787 0.504152 0.446118
O O3 0.907826 0.576126 0.563188
O O4 0.702220 0.571589 0.770520
O O5 0.117543 0.773641 0.269745
O O6 0.089722 0.890791 0.099859
O O7 0.280771 0.828135 0.048122
O O8 0.804221 0.892986 0.823208
O O9 0.985528 0.969153 0.850018
O O10 0.835477 0.990951 0.565966
O O11 0.884908 0.686101 0.693101
O O12 0.105229 0.639432 0.670464
O O13 0.986088 0.673875 0.348408
O O14 0.362916 0.162710 0.563198
O O15 0.240437 0.225338 0.309586
O O16 0.459510 0.755550 0.015856
#
# Coordination Sequence:
#
# PCOD8170907 Si02
#       8
#     4   4   4   4   4   4   4   4
#     4  11  23  41  66  89 127 169 215 266 320 383
#     4  10  21  36  64  93 122 167 207 258 324 374
#     4  11  24  44  62  95 124 166 220 266 323 374
#     4  11  23  41  62  96 130 172 212 254 330 391
#     4  11  22  42  68  91 124 164 220 272 317 382
#     4  10  25  41  62  98 132 167 213 269 315 390
#     4  10  22  39  63  96 131 165 207 257 326 393
#     4  10  20  40  63  92 134 162 208 266 315 385
#
# _framework density 20.342478
#
# number of rings (size 3 to 8) (size 9 to 14) (size 15 to 20)
#    0.000    1.500    3.750    0.750    1.750    3.000 
#    4.500    0.000    0.000    0.000    0.000    0.000 
#    0.000    0.000    0.000    0.000    0.000    0.000 
#
# Total GULP energy -396696.437775 kJ/mol
# GULP energy per Si atom -12396.763680 kJ/mol
# Density = 2.029618 g / cm^3
# Si number density = 20.342478 Si / 1000 Ang^3
#
#
#
# Elastic Constant Matrix: (Units=GPa)
#
#
# Indices 1 2 3 4 5 6 
#
# 1 69.4114 18.5616 23.9643 0.0000 0.0000 0.0000
# 2 18.5616 68.5009 35.0761 0.0000 0.0000 0.0000
# 3 23.9643 35.0761 89.8412 0.0000 0.0000 0.0000
# 4 0.0000 0.0000 0.0000 32.0360 0.0000 0.0000
# 5 0.0000 0.0000 0.0000 0.0000 33.3674 0.0000
# 6 0.0000 0.0000 0.0000 0.0000 0.0000 41.3879
#
#
#
# Elastic Compliance Matrix: (Units=1/GPa)
#
#
# Indices 1 2 3 4 5 6 
#
# 1 0.016267 -0.002732 -0.003272 0.000000 0.000000 0.000000
# 2 -0.002732 0.018705 -0.006574 0.000000 0.000000 0.000000
# 3 -0.003272 -0.006574 0.014570 0.000000 0.000000 0.000000
# 4 0.000000 0.000000 0.000000 0.031215 0.000000 0.000000
# 5 0.000000 0.000000 0.000000 0.000000 0.029969 0.000000
# 6 0.000000 0.000000 0.000000 0.000000 0.000000 0.024162
#
#
# Mechanical properties :
#
#
# Convention : Reuss Voigt Hill
#
# Bulk Modulus (GPa) = 41.00863 42.55082 41.77973
# Shear Modulus (GPa) = 29.73105 31.36837 30.54971
#
# Velocity S-wave (km/s) = 3.82714 3.93111 3.87947
# Velocity P-wave (km/s) = 6.30335 6.44728 6.37572
#
# Compressibility (1/GPa) = 0.02438511
#
# Stress axis : x y z
#
# Youngs Moduli (GPa) = 61.47303 53.46167 68.63274
#
# Poissons Ratio (x) = 0.14607 0.22459
# Poissons Ratio (y) = 0.16796 0.45120
# Poissons Ratio (z) = 0.20116 0.35146
#
# Static dielectric constant tensor:
#      x y z
#    x 3.760500 0.000000 0.000000 
#    y 0.000000 3.530990 0.000000 
#    z 0.000000 0.000000 3.731760 
# 
# 
# High freq. dielectric constant tensor:
#      x y z
#    x 1.798400 0.000000 0.000000 
#    y 0.000000 1.783440 0.000000 
#    z 0.000000 0.000000 1.804300 
# 
# From -- ./inp_files/1049.got.cif
#   From: 2010.03.12/outbox.cif.g09.slc.cpg/sg33_1_cif.got.tgz:1049.got - 2010.04.14 01:49:19.
