data_PCOD8170998
_publ_section_title
;
Structure prediction by ZEFSAII (Michael W. Deem and Ramdas Pophale) SiO2 
 PCOD8170998
Probable space group: P N A 21
;
_chemical_formula_sum "Si O2"
_cell_formula_units_Z 28
_cell_length_a 14.642412
_cell_length_b 8.739400
_cell_length_c 11.081869
_cell_angle_alpha 90.000000
_cell_angle_beta 90.000000
_cell_angle_gamma 90.000000
_cell_volume 1418.101290
_symmetry_space_group_name_H-M "P N A 21"
_symmetry_group_IT_number 33
_symmetry_cell_setting 'orthorhombic'
loop_
_space_group_symop_operation_xyz
x,y,z
-x,-y,1/2+z
1/2-x,1/2+y,1/2+z
1/2+x,1/2-y,z
loop_
_atom_site_type_symbol
_atom_site_label
_atom_site_fract_x
_atom_site_fract_y
_atom_site_fract_z
Si Si1 0.347515 0.402615 0.248050
Si Si2 0.325642 0.090679 0.824897
Si Si3 0.329752 0.109991 0.105009
Si Si4 0.231707 0.813335 0.129940
Si Si5 0.924481 0.802862 0.148251
Si Si6 0.923569 0.277527 0.457821
Si Si7 0.525296 0.024662 0.780662
O O1 0.261135 0.480587 0.312345
O O2 0.306073 0.276334 0.157640
O O3 0.413298 0.519901 0.178849
O O4 0.417764 0.331960 0.343093
O O5 0.303005 0.251836 0.759260
O O6 0.415437 0.009780 0.767490
O O7 0.346578 0.126450 0.963282
O O8 0.242179 0.998428 0.132568
O O9 0.424297 0.052278 0.165841
O O10 0.330842 0.755530 0.091947
O O11 0.171103 0.735847 0.027315
O O12 0.949827 0.705886 0.270136
O O13 0.998236 0.781998 0.044667
O O14 0.940651 0.450240 0.407210
#
# Coordination Sequence:
#
# PCOD8170998 Si02
#       7
#     4   4   4   4   4   4   4
#     4  10  24  43  64  98 129 175 228 276 340 395
#     4  11  21  41  65  94 132 173 223 278 328 407
#     4  10  22  44  61  95 133 167 227 275 333 409
#     4  10  21  41  64  90 129 177 218 273 338 394
#     4  10  22  43  60  99 133 165 230 269 327 409
#     4  11  21  42  65  94 136 175 218 282 329 394
#     4  10  21  38  67  92 128 176 214 271 337 390
#
# _framework density 19.744713000000001
#
# number of rings (size 3 to 8) (size 9 to 14) (size 15 to 20)
#    0.000    1.714    2.857    1.714    0.000    1.143 
#   25.714    0.000    0.000    0.000    0.000    0.000 
#    0.000    0.000    0.000    0.000    0.000    0.000 
#
# Total GULP energy -347029.352087 kJ/mol
# GULP energy per Si atom -12393.905432 kJ/mol
# Density = 1.969977 g / cm^3
# Si number density = 19.744713 Si / 1000 Ang^3
#
#
#
# Elastic Constant Matrix: (Units=GPa)
#
#
# Indices 1 2 3 4 5 6 
#
# 1 116.5692 38.8566 50.5918 0.0000 0.0000 0.0000
# 2 38.8566 135.3190 59.8686 0.0000 0.0000 0.0000
# 3 50.5918 59.8686 112.6270 0.0000 0.0000 0.0000
# 4 0.0000 0.0000 0.0000 29.3720 0.0000 0.0000
# 5 0.0000 0.0000 0.0000 0.0000 34.6177 0.0000
# 6 0.0000 0.0000 0.0000 0.0000 0.0000 22.1216
#
#
#
# Elastic Compliance Matrix: (Units=1/GPa)
#
#
# Indices 1 2 3 4 5 6 
#
# 1 0.010815 -0.001250 -0.004194 0.000000 0.000000 0.000000
# 2 -0.001250 0.009807 -0.004651 0.000000 0.000000 0.000000
# 3 -0.004194 -0.004651 0.013235 0.000000 0.000000 0.000000
# 4 0.000000 0.000000 0.000000 0.034046 0.000000 0.000000
# 5 0.000000 0.000000 0.000000 0.000000 0.028887 0.000000
# 6 0.000000 0.000000 0.000000 0.000000 0.000000 0.045205
#
#
# Mechanical properties :
#
#
# Convention : Reuss Voigt Hill
#
# Bulk Modulus (GPa) = 73.16973 73.68322 73.42647
# Shear Modulus (GPa) = 29.98661 31.56883 30.77772
#
# Velocity S-wave (km/s) = 3.90130 4.00290 3.95243
# Velocity P-wave (km/s) = 7.57838 7.66572 7.62217
#
# Compressibility (1/GPa) = 0.01366685
#
# Stress axis : x y z
#
# Youngs Moduli (GPa) = 92.46051 101.96977 75.55638
#
# Poissons Ratio (x) = 0.12749 0.31686
# Poissons Ratio (y) = 0.11560 0.35144
# Poissons Ratio (z) = 0.38775 0.47430
#
# Static dielectric constant tensor:
#      x y z
#    x 3.757280 0.000000 0.000000 
#    y 0.000000 3.917710 0.000000 
#    z 0.000000 0.000000 3.612320 
# 
# 
# High freq. dielectric constant tensor:
#      x y z
#    x 1.773940 0.000000 0.000000 
#    y 0.000000 1.766390 0.000000 
#    z 0.000000 0.000000 1.767960 
# 
# From -- ./inp_files/6728.got.cif
#   From: 2010.03.12/outbox.cif.g09.slc.cpg/sg33_4_cif.got.tgz:6728.got - 2010.04.14 01:49:19.
