data_PCOD8170965
_publ_section_title
;
Structure prediction by ZEFSAII (Michael W. Deem and Ramdas Pophale) SiO2 
 PCOD8170965
Probable space group: P N A 21
;
_chemical_formula_sum "Si O2"
_cell_formula_units_Z 32
_cell_length_a 19.441485
_cell_length_b 8.682271
_cell_length_c 9.746758
_cell_angle_alpha 90.000000
_cell_angle_beta 90.000000
_cell_angle_gamma 90.000000
_cell_volume 1645.216116
_symmetry_space_group_name_H-M "P N A 21"
_symmetry_group_IT_number 33
_symmetry_cell_setting 'orthorhombic'
loop_
_space_group_symop_operation_xyz
x,y,z
-x,-y,1/2+z
1/2-x,1/2+y,1/2+z
1/2+x,1/2-y,z
loop_
_atom_site_type_symbol
_atom_site_label
_atom_site_fract_x
_atom_site_fract_y
_atom_site_fract_z
Si Si1 0.967196 0.178419 0.745670
Si Si2 0.936077 0.320876 0.460921
Si Si3 0.936075 0.679125 0.460922
Si Si4 0.294442 0.678093 0.496201
Si Si5 0.188326 0.176370 0.305758
Si Si6 0.188323 0.823623 0.305759
Si Si7 0.294445 0.321903 0.496200
Si Si8 0.032806 0.178419 0.245668
O O1 0.967397 0.224035 0.586327
O O2 0.892711 0.210384 0.811471
O O3 0.022699 0.281218 0.823535
O O4 0.987509 1.000000 0.756842
O O5 0.942563 0.500001 0.494567
O O6 0.856548 0.278657 0.434935
O O7 0.977306 0.281221 0.323537
O O8 0.856545 0.721341 0.434944
O O9 0.967398 0.775966 0.586325
O O10 0.282454 0.717564 0.655604
O O11 0.224574 0.714606 0.416089
O O12 0.314723 0.499999 0.480090
O O13 0.224575 0.285384 0.416094
O O14 0.107292 0.210382 0.311462
O O15 0.203978 0.999996 0.343487
O O16 0.217539 0.782427 0.155602
#
# Coordination Sequence:
#
# PCOD8170965 Si02
#       8
#     4   4   4   4   4   4   4   4
#     4  10  21  39  59  81 113 149 185 227 279 333
#     4  11  22  37  58  84 113 145 186 232 276 326
#     4  11  22  37  58  84 113 145 186 232 276 326
#     4  10  21  37  57  81 111 146 183 225 276 331
#     4   9  20  37  56  80 109 142 182 226 271 326
#     4   9  20  37  56  80 109 142 182 226 271 326
#     4  10  21  37  57  81 111 146 183 225 276 331
#     4  10  21  39  59  81 113 149 185 227 279 333
#
# _framework density 19.450333000000001
#
# number of rings (size 3 to 8) (size 9 to 14) (size 15 to 20)
#    0.000    2.000    0.000    5.250    0.000    8.000 
#    0.000    5.000    0.000    0.000    0.000    0.000 
#    0.000    0.000    0.000    0.000    0.000    0.000 
#
# Total GULP energy -396985.241197 kJ/mol
# GULP energy per Si atom -12405.788787 kJ/mol
# Density = 1.940606 g / cm^3
# Si number density = 19.450333 Si / 1000 Ang^3
#
#
#
# Elastic Constant Matrix: (Units=GPa)
#
#
# Indices 1 2 3 4 5 6 
#
# 1 27.7381 16.6911 4.3252 0.0000 0.0000 0.0000
# 2 16.6911 81.7403 11.8457 0.0000 0.0000 0.0000
# 3 4.3252 11.8457 27.2620 0.0000 0.0000 0.0000
# 4 0.0000 0.0000 0.0000 34.8904 0.0000 0.0000
# 5 0.0000 0.0000 0.0000 0.0000 38.7689 0.0000
# 6 0.0000 0.0000 0.0000 0.0000 0.0000 35.1472
#
#
#
# Elastic Compliance Matrix: (Units=1/GPa)
#
#
# Indices 1 2 3 4 5 6 
#
# 1 0.041344 -0.007995 -0.003085 0.000000 0.000000 0.000000
# 2 -0.007995 0.014602 -0.005076 0.000000 0.000000 0.000000
# 3 -0.003085 -0.005076 0.039376 0.000000 0.000000 0.000000
# 4 0.000000 0.000000 0.000000 0.028661 0.000000 0.000000
# 5 0.000000 0.000000 0.000000 0.000000 0.025794 0.000000
# 6 0.000000 0.000000 0.000000 0.000000 0.000000 0.028452
#
#
# Mechanical properties :
#
#
# Convention : Reuss Voigt Hill
#
# Bulk Modulus (GPa) = 15.87086 22.49603 19.18344
# Shear Modulus (GPa) = 21.59407 28.68654 25.14030
#
# Velocity S-wave (km/s) = 3.33561 3.84456 3.59909
# Velocity P-wave (km/s) = 4.79713 5.59451 5.21109
#
# Compressibility (1/GPa) = 0.06300857
#
# Stress axis : x y z
#
# Youngs Moduli (GPa) = 24.18756 68.48327 25.39597
#
# Poissons Ratio (x) = 0.54753 0.07835
# Poissons Ratio (y) = 0.19338 0.12892
# Poissons Ratio (z) = 0.07462 0.34765
#
# Static dielectric constant tensor:
#      x y z
#    x 3.444850 0.000000 0.000000 
#    y 0.000000 3.496930 0.000000 
#    z 0.000000 0.000000 3.435350 
# 
# 
# High freq. dielectric constant tensor:
#      x y z
#    x 1.753890 0.000000 0.000000 
#    y 0.000000 1.764910 0.000000 
#    z 0.000000 0.000000 1.754250 
# 
# From -- ./inp_files/4994.got.cif
#   From: 2010.03.12/outbox.cif.g09.slc.cpg/sg33_3_cif.got.tgz:4994.got - 2010.04.14 01:49:19.
