data_PCOD8170442
_publ_section_title
;
Structure prediction by ZEFSAII (Michael W. Deem and Ramdas Pophale) SiO2 
 PCOD8170442
Probable space group: P B A 2
;
_chemical_formula_sum "Si O2"
_cell_formula_units_Z 28
_cell_length_a 5.197012
_cell_length_b 29.674225
_cell_length_c 8.491321
_cell_angle_alpha 90.000000
_cell_angle_beta 90.000000
_cell_angle_gamma 90.000000
_cell_volume 1309.508627
_symmetry_space_group_name_H-M "P B A 2"
_symmetry_group_IT_number 32
_symmetry_cell_setting 'orthorhombic'
loop_
_space_group_symop_operation_xyz
x,y,z
-x,-y,z
1/2-x,1/2+y,z
1/2+x,1/2-y,z
loop_
_atom_site_type_symbol
_atom_site_label
_atom_site_fract_x
_atom_site_fract_y
_atom_site_fract_z
Si Si1 0.503788 0.733312 0.098710
Si Si2 0.046263 0.869516 0.119679
Si Si3 0.958226 0.410030 0.983046
Si Si4 0.482006 0.401207 0.471219
Si Si5 0.500000 0.500000 0.363891
Si Si6 0.981079 0.375128 0.653119
Si Si7 0.000000 0.500000 0.153850
Si Si8 0.960691 0.272257 0.749140
O O1 0.767354 0.743733 0.193507
O O2 0.454576 0.680691 0.080972
O O3 0.551461 0.759861 0.934058
O O4 0.323300 0.874862 0.037618
O O5 0.825129 0.901338 0.051125
O O6 0.078288 0.879850 0.302684
O O7 0.055432 0.458145 0.041551
O O8 0.938663 0.410249 0.794725
O O9 0.462743 0.455582 0.470677
O O10 0.266928 0.381696 0.587208
O O11 0.765616 0.385184 0.522310
O O12 0.248697 0.508487 0.259873
O O13 0.951727 0.325423 0.723946
O O14 0.211708 0.250531 0.667798
#
# Coordination Sequence:
#
# PCOD8170442 Si02
#       8
#     4   4   4   4   2   4   2   4
#     4  10  20  36  63  93 124 168 225 278 327 384
#     4  12  23  44  70 100 131 181 237 278 335 412
#     4  12  23  41  70 100 134 172 233 291 329 409
#     4  12  26  45  69 100 143 184 224 281 346 425
#     4  12  24  48  70  98 138 188 224 270 360 410
#     4  12  26  43  67 106 140 181 227 283 354 401
#     4  12  22  42  70 106 126 174 238 288 336 388
#     4  10  19  38  63  91 128 177 219 268 337 398
#
# _framework density 21.382068
#
# number of rings (size 3 to 8) (size 9 to 14) (size 15 to 20)
#    0.000    0.571    2.857    7.714    0.000    1.143 
#    0.000    4.286    0.000    0.000    0.000    0.000 
#    0.000    0.000    0.000    0.000    0.000    0.000 
#
# Total GULP energy -347227.384275 kJ/mol
# GULP energy per Si atom -12400.978010 kJ/mol
# Density = 2.133340 g / cm^3
# Si number density = 21.382068 Si / 1000 Ang^3
#
#
#
# Elastic Constant Matrix: (Units=GPa)
#
#
# Indices 1 2 3 4 5 6 
#
# 1 145.3750 10.2384 13.5388 0.0000 0.0000 0.0000
# 2 10.2384 108.2331 19.8409 0.0000 0.0000 0.0000
# 3 13.5388 19.8409 70.3373 0.0000 0.0000 0.0000
# 4 0.0000 0.0000 0.0000 28.1307 0.0000 0.0000
# 5 0.0000 0.0000 0.0000 0.0000 27.9448 0.0000
# 6 0.0000 0.0000 0.0000 0.0000 0.0000 37.7718
#
#
#
# Elastic Compliance Matrix: (Units=1/GPa)
#
#
# Indices 1 2 3 4 5 6 
#
# 1 0.007024 -0.000439 -0.001228 0.000000 0.000000 0.000000
# 2 -0.000439 0.009771 -0.002672 0.000000 0.000000 0.000000
# 3 -0.001228 -0.002672 0.015207 0.000000 0.000000 0.000000
# 4 0.000000 0.000000 0.000000 0.035548 0.000000 0.000000
# 5 0.000000 0.000000 0.000000 0.000000 0.035785 0.000000
# 6 0.000000 0.000000 0.000000 0.000000 0.000000 0.026475
#
#
# Mechanical properties :
#
#
# Convention : Reuss Voigt Hill
#
# Bulk Modulus (GPa) = 42.87439 45.68684 44.28062
# Shear Modulus (GPa) = 34.18513 37.45795 35.82154
#
# Velocity S-wave (km/s) = 4.00281 4.19004 4.09749
# Velocity P-wave (km/s) = 6.43882 6.69491 6.56811
#
# Compressibility (1/GPa) = 0.02332395
#
# Stress axis : x y z
#
# Youngs Moduli (GPa) = 142.36753 102.34774 65.75832
#
# Poissons Ratio (x) = 0.04496 0.08076
# Poissons Ratio (y) = 0.06254 0.17568
# Poissons Ratio (z) = 0.17484 0.27343
#
# Static dielectric constant tensor:
#      x y z
#    x 4.930340 0.000000 0.000000 
#    y 0.000000 3.919190 0.000000 
#    z 0.000000 0.000000 3.625580 
# 
# 
# High freq. dielectric constant tensor:
#      x y z
#    x 1.874320 0.000000 0.000000 
#    y 0.000000 1.848900 0.000000 
#    z 0.000000 0.000000 1.808980 
# 
# From -- ./inp_files/2036.got.cif
#   From: 2010.03.12/outbox.cif.g09.slc.cpg/sg32_2_cif.got.tgz:2036.got - 2010.04.14 01:46:39.
