data_PCOD8170045
_publ_section_title
;
Structure prediction by ZEFSAII (Michael W. Deem and Ramdas Pophale) SiO2 
 PCOD8170045
Probable space group: P M N 21
;
_chemical_formula_sum "Si O2"
_cell_formula_units_Z 32
_cell_length_a 8.753441
_cell_length_b 11.381188
_cell_length_c 16.277654
_cell_angle_alpha 90.000000
_cell_angle_beta 90.000000
_cell_angle_gamma 90.000000
_cell_volume 1621.654080
_symmetry_space_group_name_H-M "P M N 21"
_symmetry_group_IT_number 31
_symmetry_cell_setting 'orthorhombic'
loop_
_space_group_symop_operation_xyz
x,y,z
1/2-x,-y,1/2+z
-x,y,z
1/2+x,-y,1/2+z
loop_
_atom_site_type_symbol
_atom_site_label
_atom_site_fract_x
_atom_site_fract_y
_atom_site_fract_z
Si Si1 0.170476 0.795721 0.905550
Si Si2 0.317646 0.572932 0.226832
Si Si3 0.323597 0.829932 0.194459
Si Si4 0.329622 0.075089 0.238109
Si Si5 0.823195 0.176330 0.086235
Si Si6 0.822726 0.046197 0.529790
Si Si7 0.319480 0.471857 0.401064
Si Si8 0.680030 0.426828 0.067088
O O1 0.168376 0.839815 0.813643
O O2 0.292040 0.875684 0.950955
O O3 0.229348 0.663401 0.905504
O O4 0.000000 0.805623 0.943980
O O5 0.500000 0.568514 0.228495
O O6 0.247703 0.705730 0.219791
O O7 0.255880 0.522524 0.314070
O O8 0.258465 0.499231 0.147123
O O9 0.500000 0.798570 0.186322
O O10 0.292826 0.937006 0.259379
O O11 0.262635 0.877944 0.107255
O O12 0.500000 0.075868 0.196613
O O13 0.203699 0.124564 0.176597
O O14 0.723014 0.291849 0.076764
O O15 0.000000 0.206171 0.071872
O O16 0.768825 0.076575 0.021863
O O17 0.000000 0.016562 0.536201
O O18 0.500000 0.489105 0.404481
O O19 0.249259 0.532118 0.480873
O O20 0.500000 0.441534 0.061685
#
# Coordination Sequence:
#
# PCOD8170045 Si02
#       8
#     4   4   4   4   4   4   4   4
#     4  10  20  34  53  80 115 151 187 230 282 335
#     4   9  18  34  57  82 112 153 194 230 275 334
#     4   8  15  30  53  79 104 136 182 228 271 323
#     4   9  18  34  56  82 112 147 185 227 277 337
#     4  11  22  37  57  81 109 143 186 235 289 343
#     4  10  20  35  56  81 109 142 184 235 286 339
#     4  10  21  36  55  83 116 150 193 241 283 333
#     4  11  22  38  59  82 113 154 195 236 287 346
#
# _framework density 19.732938999999998
#
# number of rings (size 3 to 8) (size 9 to 14) (size 15 to 20)
#    0.000    2.250    0.000    4.125    0.000    5.000 
#    0.000    5.000    0.000    4.500    0.000    0.000 
#    0.000    0.000    0.000    0.000    0.000    0.000 
#
# Total GULP energy -396580.720532 kJ/mol
# GULP energy per Si atom -12393.147517 kJ/mol
# Density = 1.968803 g / cm^3
# Si number density = 19.732939 Si / 1000 Ang^3
#
#
#
# Elastic Constant Matrix: (Units=GPa)
#
#
# Indices 1 2 3 4 5 6 
#
# 1 26.5846 7.6271 13.3726 0.0000 0.0000 0.0000
# 2 7.6271 148.6442 46.7116 0.0000 0.0000 0.0000
# 3 13.3726 46.7116 95.9635 0.0000 0.0000 0.0000
# 4 0.0000 0.0000 0.0000 30.5069 0.0000 0.0000
# 5 0.0000 0.0000 0.0000 0.0000 24.8405 0.0000
# 6 0.0000 0.0000 0.0000 0.0000 0.0000 25.6327
#
#
#
# Elastic Compliance Matrix: (Units=1/GPa)
#
#
# Indices 1 2 3 4 5 6 
#
# 1 0.040467 -0.000359 -0.005464 0.000000 0.000000 0.000000
# 2 -0.000359 0.007946 -0.003818 0.000000 0.000000 0.000000
# 3 -0.005464 -0.003818 0.013040 0.000000 0.000000 0.000000
# 4 0.000000 0.000000 0.000000 0.032779 0.000000 0.000000
# 5 0.000000 0.000000 0.000000 0.000000 0.040257 0.000000
# 6 0.000000 0.000000 0.000000 0.000000 0.000000 0.039013
#
#
# Mechanical properties :
#
#
# Convention : Reuss Voigt Hill
#
# Bulk Modulus (GPa) = 23.71290 45.17944 34.44617
# Shear Modulus (GPa) = 24.17306 29.76140 26.96723
#
# Velocity S-wave (km/s) = 3.50381 3.88778 3.70078
# Velocity P-wave (km/s) = 5.33028 6.56493 5.97956
#
# Compressibility (1/GPa) = 0.04217113
#
# Stress axis : x y z
#
# Youngs Moduli (GPa) = 24.71119 125.85606 76.68512
#
# Poissons Ratio (x) = 0.04521 0.41903
# Poissons Ratio (y) = 0.00888 0.29275
# Poissons Ratio (z) = 0.13503 0.48046
#
# Static dielectric constant tensor:
#      x y z
#    x 3.390140 0.000000 0.000000 
#    y 0.000000 3.932870 0.000000 
#    z 0.000000 0.000000 3.589200 
# 
# 
# High freq. dielectric constant tensor:
#      x y z
#    x 1.737080 0.000000 0.000000 
#    y 0.000000 1.791400 0.000000 
#    z 0.000000 0.000000 1.761790 
# 
# From -- ./inp_files/4919.got.cif
#   From: 2010.03.12/outbox.cif.g09.slc.cpg/sg31_3_cif.got.tgz:4919.got - 2010.04.14 01:42:59.
