data_PCOD8170303
_publ_section_title
;
Structure prediction by ZEFSAII (Michael W. Deem and Ramdas Pophale) SiO2 
 PCOD8170303
Probable space group: P M N 21
;
_chemical_formula_sum "Si O2"
_cell_formula_units_Z 32
_cell_length_a 8.525029
_cell_length_b 11.513588
_cell_length_c 16.576105
_cell_angle_alpha 90.000000
_cell_angle_beta 90.000000
_cell_angle_gamma 90.000000
_cell_volume 1627.005566
_symmetry_space_group_name_H-M "P M N 21"
_symmetry_group_IT_number 31
_symmetry_cell_setting 'orthorhombic'
loop_
_space_group_symop_operation_xyz
x,y,z
1/2-x,-y,1/2+z
-x,y,z
1/2+x,-y,1/2+z
loop_
_atom_site_type_symbol
_atom_site_label
_atom_site_fract_x
_atom_site_fract_y
_atom_site_fract_z
Si Si1 0.179223 0.385827 0.105960
Si Si2 0.678570 0.264302 0.800205
Si Si3 0.317858 0.316559 0.382657
Si Si4 0.680997 0.808732 0.726927
Si Si5 0.813051 0.936659 0.193128
Si Si6 0.187243 0.565354 0.433106
Si Si7 0.822599 0.399830 0.665741
Si Si8 0.182684 0.769966 0.052369
O O1 0.200543 0.257248 0.141697
O O2 0.295043 0.463506 0.159791
O O3 0.000000 0.427674 0.114701
O O4 0.228886 0.398422 0.014420
O O5 0.500000 0.239733 0.820937
O O6 0.754213 0.143416 0.767198
O O7 0.753693 0.329899 0.876350
O O8 0.693380 0.352863 0.726587
O O9 0.500000 0.346311 0.376674
O O10 0.265305 0.256114 0.300226
O O11 0.232066 0.439313 0.397877
O O12 0.285975 0.223886 0.455951
O O13 0.500000 0.819388 0.751842
O O14 0.756170 0.935285 0.708477
O O15 0.762986 0.883428 0.104951
O O16 0.000000 0.939936 0.195781
O O17 0.000000 0.568450 0.442298
O O18 0.786054 0.340890 0.579433
O O19 0.000000 0.374310 0.693900
O O20 0.000000 0.745515 0.069381
#
# Coordination Sequence:
#
# PCOD8170303 Si02
#       8
#     4   4   4   4   4   4   4   4
#     4  11  22  36  53  78 114 151 183 226 283 337
#     4   9  19  36  58  81 109 146 184 227 283 338
#     4  11  22  36  58  87 118 149 185 237 293 342
#     4  10  22  39  59  81 111 154 198 235 278 339
#     4   8  16  37  62  79 103 147 197 230 269 338
#     4  11  22  36  57  86 115 145 185 232 283 343
#     4  11  20  31  54  84 111 142 182 227 277 331
#     4   9  18  35  59  82 109 148 188 230 284 338
#
# _framework density 19.668033000000001
#
# number of rings (size 3 to 8) (size 9 to 14) (size 15 to 20)
#    0.000    2.000    1.250    3.750    0.000    5.500 
#    2.250    2.500    0.000    0.000    0.000    0.000 
#    0.000    0.000    0.000    0.000    0.000    0.000 
#
# Total GULP energy -396439.212885 kJ/mol
# GULP energy per Si atom -12388.725403 kJ/mol
# Density = 1.962327 g / cm^3
# Si number density = 19.668033 Si / 1000 Ang^3
#
#
#
# Elastic Constant Matrix: (Units=GPa)
#
#
# Indices 1 2 3 4 5 6 
#
# 1 46.4227 22.1398 15.8366 0.0000 0.0000 0.0000
# 2 22.1398 137.1967 70.5603 0.0000 0.0000 0.0000
# 3 15.8366 70.5603 91.7006 0.0000 0.0000 0.0000
# 4 0.0000 0.0000 0.0000 26.5960 0.0000 0.0000
# 5 0.0000 0.0000 0.0000 0.0000 28.6818 0.0000
# 6 0.0000 0.0000 0.0000 0.0000 0.0000 13.1738
#
#
#
# Elastic Compliance Matrix: (Units=1/GPa)
#
#
# Indices 1 2 3 4 5 6 
#
# 1 0.023534 -0.002826 -0.001890 0.000000 0.000000 0.000000
# 2 -0.002826 0.012402 -0.009055 0.000000 0.000000 0.000000
# 3 -0.001890 -0.009055 0.018199 0.000000 0.000000 0.000000
# 4 0.000000 0.000000 0.000000 0.037600 0.000000 0.000000
# 5 0.000000 0.000000 0.000000 0.000000 0.034865 0.000000
# 6 0.000000 0.000000 0.000000 0.000000 0.000000 0.075908
#
#
# Mechanical properties :
#
#
# Convention : Reuss Voigt Hill
#
# Bulk Modulus (GPa) = 37.60345 54.71038 46.15692
# Shear Modulus (GPa) = 20.92824 24.80921 22.86872
#
# Velocity S-wave (km/s) = 3.26555 3.55547 3.41359
# Velocity P-wave (km/s) = 5.77746 6.68823 6.24946
#
# Compressibility (1/GPa) = 0.02659330
#
# Stress axis : x y z
#
# Youngs Moduli (GPa) = 42.49259 80.63503 54.94925
#
# Poissons Ratio (x) = 0.22785 0.10385
# Poissons Ratio (y) = 0.12007 0.49754
# Poissons Ratio (z) = 0.08031 0.73012
#
# Static dielectric constant tensor:
#      x y z
#    x 3.400140 0.000000 0.000000 
#    y 0.000000 3.827620 0.000000 
#    z 0.000000 0.000000 3.745980 
# 
# 
# High freq. dielectric constant tensor:
#      x y z
#    x 1.748700 0.000000 0.000000 
#    y 0.000000 1.757790 0.000000 
#    z 0.000000 0.000000 1.769840 
# 
# From -- ./inp_files/5888.got.cif
#   From: 2010.03.12/outbox.cif.g09.slc.cpg/sg31_3_cif.got.tgz:5888.got - 2010.04.14 01:42:59.
