data_PCOD8170889
_publ_section_title
;
Structure prediction by ZEFSAII (Michael W. Deem and Ramdas Pophale) SiO2 
 PCOD8170889
Probable space group: P N A 21
;
_chemical_formula_sum "Si O2"
_cell_formula_units_Z 32
_cell_length_a 16.943784
_cell_length_b 11.440983
_cell_length_c 7.431155
_cell_angle_alpha 90.000000
_cell_angle_beta 90.000000
_cell_angle_gamma 90.000000
_cell_volume 1440.555738
_symmetry_space_group_name_H-M "P N A 21"
_symmetry_group_IT_number 33
_symmetry_cell_setting 'orthorhombic'
loop_
_space_group_symop_operation_xyz
x,y,z
-x,-y,1/2+z
1/2-x,1/2+y,1/2+z
1/2+x,1/2-y,z
loop_
_atom_site_type_symbol
_atom_site_label
_atom_site_fract_x
_atom_site_fract_y
_atom_site_fract_z
Si Si1 0.561335 0.453216 0.591030
Si Si2 0.048828 0.308127 0.563817
Si Si3 0.360265 0.921067 0.358343
Si Si4 0.350838 0.798227 0.703057
Si Si5 0.804978 0.174373 0.761861
Si Si6 0.896095 0.954770 0.682906
Si Si7 0.127745 0.673644 0.961635
Si Si8 0.169979 0.849102 0.668219
O O1 0.549478 0.320151 0.660888
O O2 0.589716 0.440389 0.391186
O O3 0.479610 0.525651 0.584704
O O4 0.629716 0.522797 0.701041
O O5 0.073524 0.405985 0.707676
O O6 0.105272 0.314187 0.390989
O O7 0.961729 0.347766 0.515258
O O8 0.392714 0.876160 0.550462
O O9 0.287427 0.842269 0.291321
O O10 0.333683 0.055167 0.384199
O O11 0.353073 0.665327 0.625853
O O12 0.261524 0.846049 0.724104
O O13 0.839573 0.065073 0.648575
O O14 0.820807 0.286287 0.634855
O O15 0.844763 0.187966 0.959344
O O16 0.123321 0.763393 0.797842
#
# Coordination Sequence:
#
# PCOD8170889 Si02
#       8
#     4   4   4   4   4   4   4   4
#     4  10  21  38  66 100 126 170 230 286 344 403
#     4  11  25  44  66 100 139 186 230 291 346 423
#     4  11  27  43  67  99 139 189 228 283 351 435
#     4  10  23  42  66  99 140 176 229 287 350 417
#     4  10  23  44  68  98 133 178 235 292 350 408
#     4  10  20  38  65  98 130 165 226 289 339 406
#     4  12  25  44  70  99 141 186 231 284 359 426
#     4  10  22  41  68 101 134 178 227 292 351 414
#
# _framework density 22.213647000000002
#
# number of rings (size 3 to 8) (size 9 to 14) (size 15 to 20)
#    0.000    1.500    1.250    3.000    3.500    6.000 
#    0.000    3.750    0.000    0.000    0.000    0.000 
#    0.000    0.000    0.000    0.000    0.000    0.000 
#
# Total GULP energy -396772.185973 kJ/mol
# GULP energy per Si atom -12399.130812 kJ/mol
# Density = 2.216309 g / cm^3
# Si number density = 22.213647 Si / 1000 Ang^3
#
#
#
# Elastic Constant Matrix: (Units=GPa)
#
#
# Indices 1 2 3 4 5 6 
#
# 1 100.9100 21.2432 25.0068 0.0000 0.0000 0.0000
# 2 21.2432 87.4185 41.0929 0.0000 0.0000 0.0000
# 3 25.0068 41.0929 83.4552 0.0000 0.0000 0.0000
# 4 0.0000 0.0000 0.0000 46.9172 0.0000 0.0000
# 5 0.0000 0.0000 0.0000 0.0000 37.1744 0.0000
# 6 0.0000 0.0000 0.0000 0.0000 0.0000 37.7435
#
#
#
# Elastic Compliance Matrix: (Units=1/GPa)
#
#
# Indices 1 2 3 4 5 6 
#
# 1 0.010842 -0.001441 -0.002539 0.000000 0.000000 0.000000
# 2 -0.001441 0.015076 -0.006991 0.000000 0.000000 0.000000
# 3 -0.002539 -0.006991 0.016186 0.000000 0.000000 0.000000
# 4 0.000000 0.000000 0.000000 0.021314 0.000000 0.000000
# 5 0.000000 0.000000 0.000000 0.000000 0.026900 0.000000
# 6 0.000000 0.000000 0.000000 0.000000 0.000000 0.026495
#
#
# Mechanical properties :
#
#
# Convention : Reuss Voigt Hill
#
# Bulk Modulus (GPa) = 49.60185 49.60772 49.60479
# Shear Modulus (GPa) = 34.36964 36.66308 35.51636
#
# Velocity S-wave (km/s) = 3.93775 4.06701 4.00290
# Velocity P-wave (km/s) = 6.56144 6.66593 6.61389
#
# Compressibility (1/GPa) = 0.02016054
#
# Stress axis : x y z
#
# Youngs Moduli (GPa) = 92.22990 66.33097 61.78210
#
# Poissons Ratio (x) = 0.09559 0.15688
# Poissons Ratio (y) = 0.13292 0.43195
# Poissons Ratio (z) = 0.23420 0.46375
#
# Static dielectric constant tensor:
#      x y z
#    x 3.807060 0.000000 0.000000 
#    y 0.000000 4.309310 0.000000 
#    z 0.000000 0.000000 4.120050 
# 
# 
# High freq. dielectric constant tensor:
#      x y z
#    x 1.872080 0.000000 0.000000 
#    y 0.000000 1.870870 0.000000 
#    z 0.000000 0.000000 1.880150 
# 
# From -- ./inp_files/4837.got.cif
#   From: 2010.03.12/outbox.cif.g09.slc.cpg/sg33_3_cif.got.tgz:4837.got - 2010.04.14 01:49:19.
