data_PCOD8170810
_publ_section_title
;
Structure prediction by ZEFSAII (Michael W. Deem and Ramdas Pophale) SiO2 
 PCOD8170810
Probable space group: P N A 21
;
_chemical_formula_sum "Si O2"
_cell_formula_units_Z 28
_cell_length_a 5.040416
_cell_length_b 25.613301
_cell_length_c 10.040594
_cell_angle_alpha 90.000000
_cell_angle_beta 90.000000
_cell_angle_gamma 90.000000
_cell_volume 1296.257676
_symmetry_space_group_name_H-M "P N A 21"
_symmetry_group_IT_number 33
_symmetry_cell_setting 'orthorhombic'
loop_
_space_group_symop_operation_xyz
x,y,z
-x,-y,1/2+z
1/2-x,1/2+y,1/2+z
1/2+x,1/2-y,z
loop_
_atom_site_type_symbol
_atom_site_label
_atom_site_fract_x
_atom_site_fract_y
_atom_site_fract_z
Si Si1 0.783681 0.779959 0.079530
Si Si2 0.020820 0.557784 0.946221
Si Si3 0.983770 0.115296 0.520714
Si Si4 0.233993 0.216745 0.892345
Si Si5 0.860995 0.400528 0.951619
Si Si6 0.091538 0.521401 0.671598
Si Si7 0.612853 0.567323 0.291071
O O1 0.477816 0.768635 0.042792
O O2 0.909268 0.826773 0.994715
O O3 0.784047 0.792506 0.235455
O O4 0.928956 0.530953 0.808300
O O5 0.817732 0.604846 0.975820
O O6 0.048773 0.516118 0.065222
O O7 0.319721 0.578839 0.935614
O O8 0.990115 0.107447 0.679639
O O9 0.457191 0.258026 0.938899
O O10 0.287301 0.160598 0.960198
O O11 0.621117 0.435983 0.896984
O O12 0.121405 0.410525 0.862011
O O13 0.876715 0.421971 0.103111
O O14 0.352290 0.489549 0.721825
#
# Coordination Sequence:
#
# PCOD8170810 Si02
#       7
#     4   4   4   4   4   4   4
#     4  10  20  33  61  91 125 159 210 273 328 377
#     4  11  26  41  66  90 135 169 213 265 310 397
#     4  11  23  40  62  90 133 163 212 259 332 370
#     4  10  21  37  60  94 130 164 220 275 322 379
#     4  12  24  41  67  93 135 174 213 266 341 373
#     4  11  26  44  65  97 132 176 217 260 321 396
#     4  11  24  38  63  93 132 169 205 264 316 392
#
# _framework density 21.600645
#
# number of rings (size 3 to 8) (size 9 to 14) (size 15 to 20)
#    0.000    1.143    2.857    3.429    8.000    3.429 
#    0.000    0.000    0.000    5.143    0.000    0.000 
#    0.000    0.000    0.000    0.000    0.000    0.000 
#
# Total GULP energy -346952.949954 kJ/mol
# GULP energy per Si atom -12391.176784 kJ/mol
# Density = 2.155148 g / cm^3
# Si number density = 21.600645 Si / 1000 Ang^3
#
#
#
# Elastic Constant Matrix: (Units=GPa)
#
#
# Indices 1 2 3 4 5 6 
#
# 1 105.8779 22.8921 17.2424 0.0000 0.0000 0.0000
# 2 22.8921 106.9163 34.0454 0.0000 0.0000 0.0000
# 3 17.2424 34.0454 89.0975 0.0000 0.0000 0.0000
# 4 0.0000 0.0000 0.0000 22.5712 0.0000 0.0000
# 5 0.0000 0.0000 0.0000 0.0000 18.8378 0.0000
# 6 0.0000 0.0000 0.0000 0.0000 0.0000 24.8889
#
#
#
# Elastic Compliance Matrix: (Units=1/GPa)
#
#
# Indices 1 2 3 4 5 6 
#
# 1 0.010029 -0.001741 -0.001276 0.000000 0.000000 0.000000
# 2 -0.001741 0.010951 -0.003848 0.000000 0.000000 0.000000
# 3 -0.001276 -0.003848 0.012941 0.000000 0.000000 0.000000
# 4 0.000000 0.000000 0.000000 0.044304 0.000000 0.000000
# 5 0.000000 0.000000 0.000000 0.000000 0.053085 0.000000
# 6 0.000000 0.000000 0.000000 0.000000 0.000000 0.040179
#
#
# Mechanical properties :
#
#
# Convention : Reuss Voigt Hill
#
# Bulk Modulus (GPa) = 49.52396 50.02795 49.77595
# Shear Modulus (GPa) = 26.04876 28.44038 27.24457
#
# Velocity S-wave (km/s) = 3.47641 3.63250 3.55531
# Velocity P-wave (km/s) = 6.25226 6.38780 6.32040
#
# Compressibility (1/GPa) = 0.02019225
#
# Stress axis : x y z
#
# Youngs Moduli (GPa) = 99.71065 91.31494 77.27544
#
# Poissons Ratio (x) = 0.15899 0.09857
# Poissons Ratio (y) = 0.17361 0.29733
# Poissons Ratio (z) = 0.12718 0.35134
#
# Static dielectric constant tensor:
#      x y z
#    x 3.975380 0.000000 0.000000 
#    y 0.000000 3.873460 0.000000 
#    z 0.000000 0.000000 3.683720 
# 
# 
# High freq. dielectric constant tensor:
#      x y z
#    x 1.856780 0.000000 0.000000 
#    y 0.000000 1.850890 0.000000 
#    z 0.000000 0.000000 1.809810 
# 
# From -- ./inp_files/2740.got.cif
#   From: 2010.03.12/outbox.cif.g09.slc.cpg/sg33_2_cif.got.tgz:2740.got - 2010.04.14 01:49:19.
