data_PCOD8170781
_publ_section_title
;
Structure prediction by ZEFSAII (Michael W. Deem and Ramdas Pophale) SiO2 
 PCOD8170781
Probable space group: P N A 21
;
_chemical_formula_sum "Si O2"
_cell_formula_units_Z 32
_cell_length_a 13.742376
_cell_length_b 12.436463
_cell_length_c 9.238853
_cell_angle_alpha 90.000000
_cell_angle_beta 90.000000
_cell_angle_gamma 90.000000
_cell_volume 1578.980498
_symmetry_space_group_name_H-M "P N A 21"
_symmetry_group_IT_number 33
_symmetry_cell_setting 'orthorhombic'
loop_
_space_group_symop_operation_xyz
x,y,z
-x,-y,1/2+z
1/2-x,1/2+y,1/2+z
1/2+x,1/2-y,z
loop_
_atom_site_type_symbol
_atom_site_label
_atom_site_fract_x
_atom_site_fract_y
_atom_site_fract_z
Si Si1 0.555020 0.111158 0.488710
Si Si2 0.398042 0.215198 0.287254
Si Si3 0.587013 0.582459 0.111580
Si Si4 0.137748 0.622028 0.478649
Si Si5 0.817342 0.857471 0.283027
Si Si6 0.996267 0.719547 0.258727
Si Si7 0.749632 0.223611 0.528029
Si Si8 0.457775 0.452670 0.294198
O O1 0.476267 0.141732 0.368377
O O2 0.517261 0.114645 0.656139
O O3 0.641986 0.196890 0.475151
O O4 0.590568 0.993029 0.453016
O O5 0.360774 0.154440 0.145589
O O6 0.306523 0.232081 0.390692
O O7 0.440753 0.331356 0.241484
O O8 0.536046 0.695189 0.143380
O O9 0.701096 0.612410 0.090659
O O10 0.562873 0.494694 0.235229
O O11 0.538552 0.536739 0.966387
O O12 0.248297 0.623136 0.421129
O O13 0.070718 0.704569 0.389380
O O14 0.894650 0.763696 0.324583
O O15 0.751636 0.817227 0.148860
O O16 0.871642 0.968115 0.237955
#
# Coordination Sequence:
#
# PCOD8170781 Si02
#       8
#     4   4   4   4   4   4   4   4
#     4  11  22  43  65  87 122 175 208 258 321 382
#     4  11  24  41  63  96 130 162 214 276 314 381
#     4  10  19  39  63  88 127 162 205 255 318 387
#     4  12  23  39  65  93 125 164 217 264 306 387
#     4  10  22  40  65  90 126 167 210 258 317 391
#     4  10  21  41  62  87 127 170 198 252 328 370
#     4  10  21  43  64  89 129 170 205 257 332 383
#     4  10  22  38  65  96 122 166 211 264 326 375
#
# _framework density 20.266241000000001
#
# number of rings (size 3 to 8) (size 9 to 14) (size 15 to 20)
#    0.000    1.500    3.750    2.250    3.500    1.000 
#    2.250    5.000    0.000    0.000    0.000    0.000 
#    0.000    0.000    0.000    0.000    0.000    0.000 
#
# Total GULP energy -396763.500454 kJ/mol
# GULP energy per Si atom -12398.859389 kJ/mol
# Density = 2.022011 g / cm^3
# Si number density = 20.266241 Si / 1000 Ang^3
#
#
#
# Elastic Constant Matrix: (Units=GPa)
#
#
# Indices 1 2 3 4 5 6 
#
# 1 59.0811 -1.5819 24.4564 0.0000 0.0000 0.0000
# 2 -1.5819 72.4004 25.1629 0.0000 0.0000 0.0000
# 3 24.4564 25.1629 88.0601 0.0000 0.0000 0.0000
# 4 0.0000 0.0000 0.0000 36.3059 0.0000 0.0000
# 5 0.0000 0.0000 0.0000 0.0000 26.9994 0.0000
# 6 0.0000 0.0000 0.0000 0.0000 0.0000 26.5752
#
#
#
# Elastic Compliance Matrix: (Units=1/GPa)
#
#
# Indices 1 2 3 4 5 6 
#
# 1 0.019546 0.002569 -0.006162 0.000000 0.000000 0.000000
# 2 0.002569 0.015673 -0.005192 0.000000 0.000000 0.000000
# 3 -0.006162 -0.005192 0.014551 0.000000 0.000000 0.000000
# 4 0.000000 0.000000 0.000000 0.027544 0.000000 0.000000
# 5 0.000000 0.000000 0.000000 0.000000 0.037038 0.000000
# 6 0.000000 0.000000 0.000000 0.000000 0.000000 0.037629
#
#
# Mechanical properties :
#
#
# Convention : Reuss Voigt Hill
#
# Bulk Modulus (GPa) = 31.05749 35.06848 33.06299
# Shear Modulus (GPa) = 27.73416 29.40971 28.57193
#
# Velocity S-wave (km/s) = 3.70332 3.81355 3.75884
# Velocity P-wave (km/s) = 5.80036 6.06072 5.93197
#
# Compressibility (1/GPa) = 0.03219835
#
# Stress axis : x y z
#
# Youngs Moduli (GPa) = 51.16264 63.80549 68.72459
#
# Poissons Ratio (x) = -0.16390 0.42350
# Poissons Ratio (y) = -0.13143 0.35680
# Poissons Ratio (z) = 0.31528 0.33127
#
# Static dielectric constant tensor:
#      x y z
#    x 3.817960 0.000000 0.000000 
#    y 0.000000 3.721760 0.000000 
#    z 0.000000 0.000000 3.612140 
# 
# 
# High freq. dielectric constant tensor:
#      x y z
#    x 1.795310 0.000000 0.000000 
#    y 0.000000 1.789420 0.000000 
#    z 0.000000 0.000000 1.787400 
# 
# From -- ./inp_files/4421.got.cif
#   From: 2010.03.12/outbox.cif.g09.slc.cpg/sg33_3_cif.got.tgz:4421.got - 2010.04.14 01:49:19.
