data_PCOD8170604
_publ_section_title
;
Structure prediction by ZEFSAII (Michael W. Deem and Ramdas Pophale) SiO2 
 PCOD8170604
Probable space group: P B A 2
;
_chemical_formula_sum "Si O2"
_cell_formula_units_Z 32
_cell_length_a 8.686979
_cell_length_b 10.621898
_cell_length_c 15.399122
_cell_angle_alpha 90.000000
_cell_angle_beta 90.000000
_cell_angle_gamma 90.000000
_cell_volume 1420.910940
_symmetry_space_group_name_H-M "P B A 2"
_symmetry_group_IT_number 32
_symmetry_cell_setting 'orthorhombic'
loop_
_space_group_symop_operation_xyz
x,y,z
-x,-y,z
1/2-x,1/2+y,z
1/2+x,1/2-y,z
loop_
_atom_site_type_symbol
_atom_site_label
_atom_site_fract_x
_atom_site_fract_y
_atom_site_fract_z
Si Si1 0.161433 0.123166 0.982790
Si Si2 0.661412 0.376815 0.183656
Si Si3 0.862279 0.088758 0.726645
Si Si4 0.526065 0.261420 0.583222
Si Si5 0.191171 0.559609 0.583227
Si Si6 0.862278 0.088758 0.439804
Si Si7 0.328536 0.361945 0.915066
Si Si8 0.828507 0.138030 0.251381
O O1 0.271945 0.239622 0.965473
O O2 0.011638 0.139297 0.924251
O O3 0.242299 0.990378 0.956313
O O4 0.114805 0.118555 0.083222
O O5 0.771880 0.260333 0.200969
O O6 0.742309 0.509584 0.210145
O O7 0.511605 0.360707 0.242186
O O8 0.940013 0.195830 0.669712
O O9 0.783588 0.146135 0.812846
O O10 0.732724 0.017890 0.669699
O O11 0.000000 0.000000 0.758201
O O12 0.701411 0.310546 0.583223
O O13 0.490212 0.108728 0.583225
O O14 0.440018 0.304159 0.496726
O O15 0.232730 0.482101 0.496759
O O16 0.783574 0.146121 0.353602
O O17 0.000000 0.000000 0.408251
#
# Coordination Sequence:
#
# PCOD8170604 Si02
#       8
#     4   4   4   4   4   4   4   4
#     4  11  23  42  64  92 123 163 207 262 321 372
#     4  11  23  42  64  92 123 163 207 262 321 372
#     4   9  18  36  55  85 116 160 202 240 303 360
#     4   9  19  31  60  78 120 155 194 248 292 358
#     4   9  19  35  58  84 120 157 198 248 300 361
#     4   9  18  36  55  85 116 160 202 240 303 360
#     4  11  23  39  67  90 125 165 208 258 309 382
#     4  11  23  39  67  90 125 165 208 258 309 382
#
# _framework density 22.520762999999999
#
# number of rings (size 3 to 8) (size 9 to 14) (size 15 to 20)
#    0.000    2.000    2.500    4.500    3.500    1.000 
#    0.000    5.000    5.500    0.000    0.000    0.000 
#    0.000    0.000    0.000    0.000    0.000    0.000 
#
# Total GULP energy -396649.698122 kJ/mol
# GULP energy per Si atom -12395.303066 kJ/mol
# Density = 2.246950 g / cm^3
# Si number density = 22.520763 Si / 1000 Ang^3
#
#
#
# Elastic Constant Matrix: (Units=GPa)
#
#
# Indices 1 2 3 4 5 6 
#
# 1 26.9313 -12.4890 9.0051 0.0000 0.0000 0.0000
# 2 -12.4890 91.8313 13.3286 0.0000 0.0000 0.0000
# 3 9.0051 13.3286 152.3115 0.0000 0.0000 0.0000
# 4 0.0000 0.0000 0.0000 27.9388 0.0000 0.0000
# 5 0.0000 0.0000 0.0000 0.0000 23.5781 0.0000
# 6 0.0000 0.0000 0.0000 0.0000 0.0000 33.7765
#
#
#
# Elastic Compliance Matrix: (Units=1/GPa)
#
#
# Indices 1 2 3 4 5 6 
#
# 1 0.040892 0.005988 -0.002942 0.000000 0.000000 0.000000
# 2 0.005988 0.011907 -0.001396 0.000000 0.000000 0.000000
# 3 -0.002942 -0.001396 0.006862 0.000000 0.000000 0.000000
# 4 0.000000 0.000000 0.000000 0.035793 0.000000 0.000000
# 5 0.000000 0.000000 0.000000 0.000000 0.042412 0.000000
# 6 0.000000 0.000000 0.000000 0.000000 0.000000 0.029606
#
#
# Mechanical properties :
#
#
# Convention : Reuss Voigt Hill
#
# Bulk Modulus (GPa) = 15.88274 32.30706 24.09490
# Shear Modulus (GPa) = 27.00405 34.47397 30.73901
#
# Velocity S-wave (km/s) = 3.46652 3.91674 3.69849
# Velocity P-wave (km/s) = 4.80522 5.90179 5.38151
#
# Compressibility (1/GPa) = 0.06296143
#
# Stress axis : x y z
#
# Youngs Moduli (GPa) = 24.45460 83.98746 145.73921
#
# Poissons Ratio (x) = -0.50294 0.42872
# Poissons Ratio (y) = -0.14644 0.20345
# Poissons Ratio (z) = 0.07194 0.11724
#
# Static dielectric constant tensor:
#      x y z
#    x 3.908770 0.000000 0.000000 
#    y 0.000000 4.470740 0.000000 
#    z 0.000000 0.000000 4.004140 
# 
# 
# High freq. dielectric constant tensor:
#      x y z
#    x 1.861710 0.000000 0.000000 
#    y 0.000000 1.906560 0.000000 
#    z 0.000000 0.000000 1.897950 
# 
# From -- ./inp_files/4142.got.cif
#   From: 2010.03.12/outbox.cif.g09.slc.cpg/sg32_3_cif.got.tgz:4142.got - 2010.04.14 01:46:39.
