data_PCOD8170262
_publ_section_title
;
Structure prediction by ZEFSAII (Michael W. Deem and Ramdas Pophale) SiO2 
 PCOD8170262
Probable space group: P M N 21
;
_chemical_formula_sum "Si O2"
_cell_formula_units_Z 28
_cell_length_a 10.786499
_cell_length_b 5.301075
_cell_length_c 21.404165
_cell_angle_alpha 90.000000
_cell_angle_beta 90.000000
_cell_angle_gamma 90.000000
_cell_volume 1223.891015
_symmetry_space_group_name_H-M "P M N 21"
_symmetry_group_IT_number 31
_symmetry_cell_setting 'orthorhombic'
loop_
_space_group_symop_operation_xyz
x,y,z
1/2-x,-y,1/2+z
-x,y,z
1/2+x,-y,1/2+z
loop_
_atom_site_type_symbol
_atom_site_label
_atom_site_fract_x
_atom_site_fract_y
_atom_site_fract_z
Si Si1 0.706165 0.531803 0.676610
Si Si2 0.500000 0.258351 0.827405
Si Si3 0.140223 0.634292 0.937333
Si Si4 0.862380 0.191798 0.748718
Si Si5 0.241020 0.125509 0.877884
Si Si6 0.135502 0.807689 0.070787
Si Si7 0.138693 0.903859 0.618410
Si Si8 0.000000 0.230447 0.245834
O O1 0.764519 0.416508 0.739509
O O2 0.625543 0.339735 0.636099
O O3 0.619952 0.758626 0.700831
O O4 0.819463 0.617150 0.631263
O O5 0.382697 0.214063 0.871897
O O6 0.500000 0.536164 0.795411
O O7 0.500000 0.045104 0.774363
O O8 0.172707 0.360167 0.910407
O O9 0.000000 0.699504 0.916509
O O10 0.229130 0.865204 0.916154
O O11 0.151430 0.618125 0.012448
O O12 0.818632 0.050602 0.811050
O O13 0.858904 0.022703 0.687143
O O14 0.000000 0.301035 0.758925
O O15 0.257466 0.985156 0.071821
O O16 0.000000 0.948964 0.064142
O O17 0.000000 0.916094 0.588940
#
# Coordination Sequence:
#
# PCOD8170262 Si02
#       8
#     4   2   4   4   4   4   4   2
#     4  11  22  37  66 100 134 179 215 284 345 414
#     4  12  26  46  66 104 146 178 226 283 338 438
#     4  11  26  47  71  99 132 178 238 291 334 404
#     4  10  21  38  63  96 132 170 217 272 342 409
#     4  12  25  46  69 100 137 182 226 284 345 405
#     4  10  24  44  66  96 131 176 235 287 343 403
#     4  10  23  41  65  99 136 176 222 282 346 419
#     4  12  24  40  70 108 144 178 226 277 356 424
#
# _framework density 22.877853000000002
#
# number of rings (size 3 to 8) (size 9 to 14) (size 15 to 20)
#    0.000    1.143    2.143    3.429    7.000    0.571 
#    2.571    0.000    0.000    0.000    0.000    0.000 
#    0.000    0.000    0.000    0.000    0.000    0.000 
#
# Total GULP energy -347003.505947 kJ/mol
# GULP energy per Si atom -12392.982355 kJ/mol
# Density = 2.282578 g / cm^3
# Si number density = 22.877853 Si / 1000 Ang^3
#
#
#
# Elastic Constant Matrix: (Units=GPa)
#
#
# Indices 1 2 3 4 5 6 
#
# 1 147.8455 1.8427 24.0281 0.0000 0.0000 0.0000
# 2 1.8427 65.9625 4.6683 0.0000 0.0000 0.0000
# 3 24.0281 4.6683 63.7775 0.0000 0.0000 0.0000
# 4 0.0000 0.0000 0.0000 21.1154 0.0000 0.0000
# 5 0.0000 0.0000 0.0000 0.0000 31.7677 0.0000
# 6 0.0000 0.0000 0.0000 0.0000 0.0000 33.9365
#
#
#
# Elastic Compliance Matrix: (Units=1/GPa)
#
#
# Indices 1 2 3 4 5 6 
#
# 1 0.007205 -0.000009 -0.002714 0.000000 0.000000 0.000000
# 2 -0.000009 0.015239 -0.001112 0.000000 0.000000 0.000000
# 3 -0.002714 -0.001112 0.016783 0.000000 0.000000 0.000000
# 4 0.000000 0.000000 0.000000 0.047359 0.000000 0.000000
# 5 0.000000 0.000000 0.000000 0.000000 0.031478 0.000000
# 6 0.000000 0.000000 0.000000 0.000000 0.000000 0.029467
#
#
# Mechanical properties :
#
#
# Convention : Reuss Voigt Hill
#
# Bulk Modulus (GPa) = 31.68829 37.62930 34.65880
# Shear Modulus (GPa) = 30.17127 33.83369 32.00248
#
# Velocity S-wave (km/s) = 3.63547 3.84980 3.74417
# Velocity P-wave (km/s) = 5.61278 6.02037 5.82015
#
# Compressibility (1/GPa) = 0.03155740
#
# Stress axis : x y z
#
# Youngs Moduli (GPa) = 138.79280 65.62078 59.58298
#
# Poissons Ratio (x) = 0.00060 0.16170
# Poissons Ratio (y) = 0.00128 0.06626
# Poissons Ratio (z) = 0.37666 0.07297
#
# Static dielectric constant tensor:
#      x y z
#    x 4.540620 0.000000 0.000000 
#    y 0.000000 3.847970 0.000000 
#    z 0.000000 0.000000 3.983260 
# 
# 
# High freq. dielectric constant tensor:
#      x y z
#    x 1.924790 0.000000 0.000000 
#    y 0.000000 1.886450 0.000000 
#    z 0.000000 0.000000 1.892300 
# 
# From -- ./inp_files/6318.got.cif
#   From: 2010.03.12/outbox.cif.g09.slc.cpg/sg31_4_cif.got.tgz:6318.got - 2010.04.14 01:42:59.
