data_PCOD8170338
_publ_section_title
;
Structure prediction by ZEFSAII (Michael W. Deem and Ramdas Pophale) SiO2 
 PCOD8170338
Probable space group: P M N 21
;
_chemical_formula_sum "Si O2"
_cell_formula_units_Z 24
_cell_length_a 17.498641
_cell_length_b 9.114303
_cell_length_c 7.317703
_cell_angle_alpha 90.000000
_cell_angle_beta 90.000000
_cell_angle_gamma 90.000000
_cell_volume 1167.085203
_symmetry_space_group_name_H-M "P M N 21"
_symmetry_group_IT_number 31
_symmetry_cell_setting 'orthorhombic'
loop_
_space_group_symop_operation_xyz
x,y,z
1/2-x,-y,1/2+z
-x,y,z
1/2+x,-y,1/2+z
loop_
_atom_site_type_symbol
_atom_site_label
_atom_site_fract_x
_atom_site_fract_y
_atom_site_fract_z
Si Si1 0.587693 0.891327 0.818560
Si Si2 0.141375 0.327459 0.609259
Si Si3 0.913572 0.634075 0.710054
Si Si4 0.658551 0.194698 0.909917
Si Si5 0.676600 0.722322 0.515740
Si Si6 0.313239 0.384846 0.564148
O O1 0.500000 0.936978 0.786196
O O2 0.618238 0.807842 0.642149
O O3 0.591951 0.786828 0.994544
O O4 0.640558 0.032745 0.841796
O O5 0.105827 0.488732 0.594767
O O6 0.227540 0.327400 0.532248
O O7 0.137084 0.280428 0.819306
O O8 0.901931 0.766402 0.568065
O O9 0.000000 0.631920 0.780991
O O10 0.860682 0.657411 0.885833
O O11 0.742256 0.196921 0.000883
O O12 0.651230 0.308710 0.742434
O O13 0.688712 0.559281 0.596847
#
# Coordination Sequence:
#
# PCOD8170338 Si02
#       6
#     4   4   4   4   4   4
#     4  12  27  42  62  97 142 177 210 264 335 395
#     4  10  22  42  67  94 126 173 222 268 318 391
#     4  11  22  38  66  97 128 165 217 277 326 373
#     4  11  24  41  67  95 131 173 215 264 325 398
#     4  10  23  42  71  94 123 171 225 273 317 386
#     4  10  22  43  69  95 122 167 227 278 319 379
#
# _framework density 20.564052
#
# number of rings (size 3 to 8) (size 9 to 14) (size 15 to 20)
#    0.000    1.333    1.667    3.000    7.000    6.000 
#    0.000    0.000    0.000    0.000    0.000    0.000 
#    0.000    0.000    0.000    0.000    0.000    0.000 
#
# Total GULP energy -297736.799645 kJ/mol
# GULP energy per Si atom -12405.699985 kJ/mol
# Density = 2.051725 g / cm^3
# Si number density = 20.564052 Si / 1000 Ang^3
#
#
#
# Elastic Constant Matrix: (Units=GPa)
#
#
# Indices 1 2 3 4 5 6 
#
# 1 76.9785 28.2538 37.4597 0.0000 0.0000 0.0000
# 2 28.2538 76.9879 44.4629 0.0000 0.0000 0.0000
# 3 37.4597 44.4629 96.2413 0.0000 0.0000 0.0000
# 4 0.0000 0.0000 0.0000 19.7509 0.0000 0.0000
# 5 0.0000 0.0000 0.0000 0.0000 29.9089 0.0000
# 6 0.0000 0.0000 0.0000 0.0000 0.0000 19.5306
#
#
#
# Elastic Compliance Matrix: (Units=1/GPa)
#
#
# Indices 1 2 3 4 5 6 
#
# 1 0.016591 -0.003218 -0.004971 0.000000 0.000000 0.000000
# 2 -0.003218 0.018340 -0.007221 0.000000 0.000000 0.000000
# 3 -0.004971 -0.007221 0.015661 0.000000 0.000000 0.000000
# 4 0.000000 0.000000 0.000000 0.050631 0.000000 0.000000
# 5 0.000000 0.000000 0.000000 0.000000 0.033435 0.000000
# 6 0.000000 0.000000 0.000000 0.000000 0.000000 0.051202
#
#
# Mechanical properties :
#
#
# Convention : Reuss Voigt Hill
#
# Bulk Modulus (GPa) = 50.57290 52.28450 51.42870
# Shear Modulus (GPa) = 22.39454 23.17350 22.78402
#
# Velocity S-wave (km/s) = 3.30360 3.36057 3.33221
# Velocity P-wave (km/s) = 6.26083 6.36697 6.31412
#
# Compressibility (1/GPa) = 0.01977343
#
# Stress axis : x y z
#
# Youngs Moduli (GPa) = 60.27488 54.52558 63.85197
#
# Poissons Ratio (x) = 0.17545 0.31741
# Poissons Ratio (y) = 0.19395 0.46105
# Poissons Ratio (z) = 0.29962 0.39370
#
# Static dielectric constant tensor:
#      x y z
#    x 3.643970 0.000000 0.000000 
#    y 0.000000 3.644890 0.000000 
#    z 0.000000 0.000000 3.771810 
# 
# 
# High freq. dielectric constant tensor:
#      x y z
#    x 1.802910 0.000000 0.000000 
#    y 0.000000 1.798940 0.000000 
#    z 0.000000 0.000000 1.817890 
# 
# From -- ./inp_files/2431.got.cif
#   From: 2010.03.12/outbox.cif.g09.slc.cpg/sg31_2_cif.got.tgz:2431.got - 2010.04.14 01:42:59.
