data_PCOD8170747
_publ_section_title
;
Structure prediction by ZEFSAII (Michael W. Deem and Ramdas Pophale) SiO2 
 PCOD8170747
Probable space group: P N A 21
;
_chemical_formula_sum "Si O2"
_cell_formula_units_Z 24
_cell_length_a 8.990350
_cell_length_b 16.548657
_cell_length_c 7.997296
_cell_angle_alpha 90.000000
_cell_angle_beta 90.000000
_cell_angle_gamma 90.000000
_cell_volume 1189.823451
_symmetry_space_group_name_H-M "P N A 21"
_symmetry_group_IT_number 33
_symmetry_cell_setting 'orthorhombic'
loop_
_space_group_symop_operation_xyz
x,y,z
-x,-y,1/2+z
1/2-x,1/2+y,1/2+z
1/2+x,1/2-y,z
loop_
_atom_site_type_symbol
_atom_site_label
_atom_site_fract_x
_atom_site_fract_y
_atom_site_fract_z
Si Si1 0.841377 0.838438 0.295450
Si Si2 0.897769 0.080567 0.388076
Si Si3 0.136394 0.464143 0.803767
Si Si4 0.357643 0.567981 0.614088
Si Si5 0.815916 0.487607 0.679021
Si Si6 0.332381 0.317486 0.691954
O O1 0.811249 0.858171 0.491783
O O2 0.808906 0.917434 0.182908
O O3 0.739750 0.769500 0.215897
O O4 0.013604 0.816260 0.290058
O O5 0.865759 0.160877 0.497603
O O6 0.032710 0.097426 0.260709
O O7 0.937499 0.003844 0.507659
O O8 0.746004 0.062918 0.286362
O O9 0.204210 0.535803 0.691917
O O10 0.220950 0.381270 0.772055
O O11 0.964133 0.452591 0.763048
O O12 0.152270 0.485011 0.994988
#
# Coordination Sequence:
#
# PCOD8170747 Si02
#       6
#     4   4   4   4   4   4
#     4  11  23  39  58  83 118 156 192 239 293 343
#     4  10  19  36  61  86 113 153 197 240 287 343
#     4  11  21  37  61  89 117 151 194 239 285 344
#     4  10  19  36  61  86 113 153 197 240 287 343
#     4  11  21  37  61  89 117 151 194 239 285 344
#     4  11  23  39  58  83 118 156 192 239 293 343
#
# _framework density 20.171061000000002
#
# number of rings (size 3 to 8) (size 9 to 14) (size 15 to 20)
#    0.000    1.333    0.000   11.000    0.000    0.000 
#    0.000    8.333    0.000    0.000    0.000    0.000 
#    0.000    0.000    0.000    0.000    0.000    0.000 
#
# Total GULP energy -297631.663819 kJ/mol
# GULP energy per Si atom -12401.319326 kJ/mol
# Density = 2.012515 g / cm^3
# Si number density = 20.171061 Si / 1000 Ang^3
#
#
#
# Elastic Constant Matrix: (Units=GPa)
#
#
# Indices 1 2 3 4 5 6 
#
# 1 64.2859 15.0980 -1.0591 0.0000 0.0000 0.0000
# 2 15.0980 70.8659 44.8317 0.0000 0.0000 0.0000
# 3 -1.0591 44.8317 117.9866 0.0000 0.0000 0.0000
# 4 0.0000 0.0000 0.0000 30.3399 0.0000 0.0000
# 5 0.0000 0.0000 0.0000 0.0000 47.8766 0.0000
# 6 0.0000 0.0000 0.0000 0.0000 0.0000 -10.9749
#
#
#
# Elastic Compliance Matrix: (Units=1/GPa)
#
#
# Indices 1 2 3 4 5 6 
#
# 1 0.016719 -0.004814 0.001979 0.000000 0.000000 0.000000
# 2 -0.004814 0.019963 -0.007629 0.000000 0.000000 0.000000
# 3 0.001979 -0.007629 0.011392 0.000000 0.000000 0.000000
# 4 0.000000 0.000000 0.000000 0.032960 0.000000 0.000000
# 5 0.000000 0.000000 0.000000 0.000000 0.020887 0.000000
# 6 0.000000 0.000000 0.000000 0.000000 0.000000 -0.091117
#
#
# Mechanical properties :
#
#
# Convention : Reuss Voigt Hill
#
# Bulk Modulus (GPa) = 36.83672 41.20886 39.02279
# Shear Modulus (GPa) = 122.61296 26.39953 74.50624
#
# Velocity S-wave (km/s) = 7.80503 3.62163 6.08419
# Velocity P-wave (km/s) = 9.97630 6.16136 8.29123
#
# Compressibility (1/GPa) = 0.02714683
#
# Stress axis : x y z
#
# Youngs Moduli (GPa) = 59.81316 50.09307 87.78134
#
# Poissons Ratio (x) = 0.24115 -0.17374
# Poissons Ratio (y) = 0.28795 0.66964
# Poissons Ratio (z) = -0.11839 0.38214
#
# Static dielectric constant tensor:
#      x y z
#    x 3.476400 0.000000 0.000000 
#    y 0.000000 3.412390 0.000000 
#    z 0.000000 0.000000 3.893290 
# 
# 
# High freq. dielectric constant tensor:
#      x y z
#    x 1.802130 0.000000 0.000000 
#    y 0.000000 1.754530 0.000000 
#    z 0.000000 0.000000 1.801870 
# 
# From -- ./inp_files/3145.got.cif
#   From: 2010.03.12/outbox.cif.g09.slc.cpg/sg33_2_cif.got.tgz:3145.got - 2010.04.14 01:49:19.
