data_PCOD8170823
_publ_section_title
;
Structure prediction by ZEFSAII (Michael W. Deem and Ramdas Pophale) SiO2 
 PCOD8170823
Probable space group: P N A 21
;
_chemical_formula_sum "Si O2"
_cell_formula_units_Z 32
_cell_length_a 13.687766
_cell_length_b 11.512164
_cell_length_c 10.171853
_cell_angle_alpha 90.000000
_cell_angle_beta 90.000000
_cell_angle_gamma 90.000000
_cell_volume 1602.837945
_symmetry_space_group_name_H-M "P N A 21"
_symmetry_group_IT_number 33
_symmetry_cell_setting 'orthorhombic'
loop_
_space_group_symop_operation_xyz
x,y,z
-x,-y,1/2+z
1/2-x,1/2+y,1/2+z
1/2+x,1/2-y,z
loop_
_atom_site_type_symbol
_atom_site_label
_atom_site_fract_x
_atom_site_fract_y
_atom_site_fract_z
Si Si1 0.078866 0.342569 0.617940
Si Si2 0.261489 0.149972 0.029242
Si Si3 0.371242 0.250450 0.569451
Si Si4 0.748212 0.668159 0.306022
Si Si5 0.439268 0.091350 0.210176
Si Si6 0.638249 0.174256 0.161007
Si Si7 0.166179 0.518805 0.957613
Si Si8 0.258484 0.897941 0.914267
O O1 0.142834 0.306136 0.746426
O O2 0.030824 0.468877 0.643512
O O3 0.151002 0.343168 0.493989
O O4 0.988059 0.257578 0.588206
O O5 0.352423 0.146319 0.126951
O O6 0.171481 0.196820 0.117977
O O7 0.284622 0.241518 0.915796
O O8 0.237717 0.028867 0.960056
O O9 0.331675 0.323932 0.692439
O O10 0.312891 0.125813 0.557454
O O11 0.340883 0.324844 0.440451
O O12 0.747129 0.534346 0.363769
O O13 0.529156 0.180956 0.216980
O O14 0.416392 0.072631 0.363335
O O15 0.714710 0.113325 0.261102
O O16 0.629654 0.094772 0.032280
#
# Coordination Sequence:
#
# PCOD8170823 Si02
#       8
#     4   4   4   4   4   4   4   4
#     4   9  19  36  60  91 108 153 212 250 295 361
#     4  10  22  38  55  90 125 153 198 252 314 376
#     4  11  19  36  63  82 120 163 198 255 310 356
#     4   9  21  35  58  88 123 152 199 258 307 366
#     4  10  20  35  61  89 118 149 204 262 299 361
#     4  11  21  35  61  90 118 158 203 257 316 360
#     4  10  20  35  57  93 113 149 209 254 298 366
#     4  10  22  36  59  85 123 161 199 256 311 370
#
# _framework density 19.964589
#
# number of rings (size 3 to 8) (size 9 to 14) (size 15 to 20)
#    0.000    2.000    1.250    3.000    1.750    2.000 
#    0.000    0.000   24.750    0.000    0.000    0.000 
#    0.000    0.000    0.000    0.000    0.000    0.000 
#
# Total GULP energy -396534.187451 kJ/mol
# GULP energy per Si atom -12391.693358 kJ/mol
# Density = 1.991915 g / cm^3
# Si number density = 19.964589 Si / 1000 Ang^3
#
#
#
# Elastic Constant Matrix: (Units=GPa)
#
#
# Indices 1 2 3 4 5 6 
#
# 1 85.6176 31.8106 27.3206 0.0000 0.0000 0.0000
# 2 31.8106 75.7829 19.1209 0.0000 0.0000 0.0000
# 3 27.3206 19.1209 84.5498 0.0000 0.0000 0.0000
# 4 0.0000 0.0000 0.0000 39.0535 0.0000 0.0000
# 5 0.0000 0.0000 0.0000 0.0000 14.7213 0.0000
# 6 0.0000 0.0000 0.0000 0.0000 0.0000 35.9323
#
#
#
# Elastic Compliance Matrix: (Units=1/GPa)
#
#
# Indices 1 2 3 4 5 6 
#
# 1 0.014794 -0.005307 -0.003580 0.000000 0.000000 0.000000
# 2 -0.005307 0.015898 -0.001881 0.000000 0.000000 0.000000
# 3 -0.003580 -0.001881 0.013410 0.000000 0.000000 0.000000
# 4 0.000000 0.000000 0.000000 0.025606 0.000000 0.000000
# 5 0.000000 0.000000 0.000000 0.000000 0.067929 0.000000
# 6 0.000000 0.000000 0.000000 0.000000 0.000000 0.027830
#
#
# Mechanical properties :
#
#
# Convention : Reuss Voigt Hill
#
# Bulk Modulus (GPa) = 44.31388 44.71715 44.51551
# Shear Modulus (GPa) = 25.70393 29.12129 27.41261
#
# Velocity S-wave (km/s) = 3.59203 3.82337 3.70950
# Velocity P-wave (km/s) = 6.28077 6.47593 6.37910
#
# Compressibility (1/GPa) = 0.02256629
#
# Stress axis : x y z
#
# Youngs Moduli (GPa) = 67.59532 62.90283 74.57386
#
# Poissons Ratio (x) = 0.33380 0.26700
# Poissons Ratio (y) = 0.35870 0.14024
# Poissons Ratio (z) = 0.24201 0.11829
#
# Static dielectric constant tensor:
#      x y z
#    x 3.431450 0.000000 0.000000 
#    y 0.000000 3.702400 0.000000 
#    z 0.000000 0.000000 3.939490 
# 
# 
# High freq. dielectric constant tensor:
#      x y z
#    x 1.750560 0.000000 0.000000 
#    y 0.000000 1.764650 0.000000 
#    z 0.000000 0.000000 1.802220 
# 
# From -- ./inp_files/6779.got.cif
#   From: 2010.03.12/outbox.cif.g09.slc.cpg/sg33_4_cif.got.tgz:6779.got - 2010.04.14 01:49:19.
