data_PCOD8170251
_publ_section_title
;
Structure prediction by ZEFSAII (Michael W. Deem and Ramdas Pophale) SiO2 
 PCOD8170251
Probable space group: P M N 21
;
_chemical_formula_sum "Si O2"
_cell_formula_units_Z 24
_cell_length_a 9.127397
_cell_length_b 13.612844
_cell_length_c 9.875794
_cell_angle_alpha 90.000000
_cell_angle_beta 90.000000
_cell_angle_gamma 90.000000
_cell_volume 1227.065740
_symmetry_space_group_name_H-M "P M N 21"
_symmetry_group_IT_number 31
_symmetry_cell_setting 'orthorhombic'
loop_
_space_group_symop_operation_xyz
x,y,z
1/2-x,-y,1/2+z
-x,y,z
1/2+x,-y,1/2+z
loop_
_atom_site_type_symbol
_atom_site_label
_atom_site_fract_x
_atom_site_fract_y
_atom_site_fract_z
Si Si1 0.331567 0.430366 0.682240
Si Si2 0.668681 0.211739 0.749271
Si Si3 0.671923 0.920157 0.041752
Si Si4 0.169059 0.579231 0.873408
Si Si5 0.330519 0.144213 0.046995
Si Si6 0.826827 0.222093 0.304364
O O1 0.500000 0.441919 0.730069
O O2 0.277950 0.318624 0.701774
O O3 0.228175 0.498357 0.770934
O O4 0.313699 0.461059 0.525885
O O5 0.500000 0.195714 0.711495
O O6 0.756755 0.127470 0.673244
O O7 0.696108 0.202132 0.908473
O O8 0.500000 0.911810 0.060673
O O9 0.721371 0.865161 0.904972
O O10 0.723647 0.032404 0.029958
O O11 0.259973 0.678171 0.860238
O O12 0.000000 0.601112 0.839327
O O13 0.500000 0.147780 0.090942
O O14 0.233567 0.199444 0.156570
O O15 0.000000 0.234441 0.295525
#
# Coordination Sequence:
#
# PCOD8170251 Si02
#       6
#     4   4   4   4   4   4
#     4  10  23  42  63  91 121 157 201 247 299 357
#     4  10  21  40  63  86 120 159 201 247 297 355
#     4  10  21  38  60  88 122 159 203 248 297 354
#     4  11  24  42  65  91 120 157 199 246 302 361
#     4  10  22  38  59  90 123 161 204 245 294 354
#     4  11  23  40  62  90 124 159 200 249 299 355
#
# _framework density 19.558854
#
# number of rings (size 3 to 8) (size 9 to 14) (size 15 to 20)
#    0.000    1.667    1.667    2.000    2.333    5.333 
#    0.000    0.000    0.000    0.000    0.000    0.000 
#    0.000    0.000    0.000    0.000    0.000    0.000 
#
# Total GULP energy -297741.221804 kJ/mol
# GULP energy per Si atom -12405.884242 kJ/mol
# Density = 1.951434 g / cm^3
# Si number density = 19.558854 Si / 1000 Ang^3
#
#
#
# Elastic Constant Matrix: (Units=GPa)
#
#
# Indices 1 2 3 4 5 6 
#
# 1 47.0496 28.9272 40.4249 0.0000 0.0000 0.0000
# 2 28.9272 70.6230 34.0066 0.0000 0.0000 0.0000
# 3 40.4249 34.0066 97.7374 0.0000 0.0000 0.0000
# 4 0.0000 0.0000 0.0000 38.0371 0.0000 0.0000
# 5 0.0000 0.0000 0.0000 0.0000 34.7687 0.0000
# 6 0.0000 0.0000 0.0000 0.0000 0.0000 32.0020
#
#
#
# Elastic Compliance Matrix: (Units=1/GPa)
#
#
# Indices 1 2 3 4 5 6 
#
# 1 0.037633 -0.009513 -0.012255 0.000000 0.000000 0.000000
# 2 -0.009513 0.019414 -0.002820 0.000000 0.000000 0.000000
# 3 -0.012255 -0.002820 0.016282 0.000000 0.000000 0.000000
# 4 0.000000 0.000000 0.000000 0.026290 0.000000 0.000000
# 5 0.000000 0.000000 0.000000 0.000000 0.028761 0.000000
# 6 0.000000 0.000000 0.000000 0.000000 0.000000 0.031248
#
#
# Mechanical properties :
#
#
# Convention : Reuss Voigt Hill
#
# Bulk Modulus (GPa) = 41.40553 46.90305 44.15429
# Shear Modulus (GPa) = 23.05678 28.43164 25.74421
#
# Velocity S-wave (km/s) = 3.43715 3.81681 3.63194
# Velocity P-wave (km/s) = 6.08010 6.59216 6.34130
#
# Compressibility (1/GPa) = 0.02415136
#
# Stress axis : x y z
#
# Youngs Moduli (GPa) = 26.57266 51.50834 61.41908
#
# Poissons Ratio (x) = 0.49001 0.75270
# Poissons Ratio (y) = 0.25279 0.17322
# Poissons Ratio (z) = 0.32565 0.14527
#
# Static dielectric constant tensor:
#      x y z
#    x 3.540380 0.000000 0.000000 
#    y 0.000000 3.718100 0.000000 
#    z 0.000000 0.000000 3.627690 
# 
# 
# High freq. dielectric constant tensor:
#      x y z
#    x 1.759640 0.000000 0.000000 
#    y 0.000000 1.769920 0.000000 
#    z 0.000000 0.000000 1.773720 
# 
# From -- ./inp_files/1691.got.cif
#   From: 2010.03.12/outbox.cif.g09.slc.cpg/sg31_1_cif.got.tgz:1691.got - 2010.04.14 01:42:59.
