data_PCOD8170054
_publ_section_title
;
Structure prediction by ZEFSAII (Michael W. Deem and Ramdas Pophale) SiO2 
 PCOD8170054
Probable space group: P M N 21
;
_chemical_formula_sum "Si O2"
_cell_formula_units_Z 32
_cell_length_a 9.135455
_cell_length_b 14.208256
_cell_length_c 12.772862
_cell_angle_alpha 90.000000
_cell_angle_beta 90.000000
_cell_angle_gamma 90.000000
_cell_volume 1657.903224
_symmetry_space_group_name_H-M "P M N 21"
_symmetry_group_IT_number 31
_symmetry_cell_setting 'orthorhombic'
loop_
_space_group_symop_operation_xyz
x,y,z
1/2-x,-y,1/2+z
-x,y,z
1/2+x,-y,1/2+z
loop_
_atom_site_type_symbol
_atom_site_label
_atom_site_fract_x
_atom_site_fract_y
_atom_site_fract_z
Si Si1 0.658952 0.678350 0.477050
Si Si2 0.340188 0.818195 0.284629
Si Si3 0.831898 0.156338 0.336503
Si Si4 0.326622 0.652178 0.142068
Si Si5 0.668886 0.046768 0.920066
Si Si6 0.327640 0.334782 0.425599
Si Si7 0.673435 0.526946 0.331370
Si Si8 0.674241 0.846862 0.599012
O O1 0.500000 0.647614 0.520537
O O2 0.640593 0.747951 0.380025
O O3 0.742377 0.585872 0.431349
O O4 0.736113 0.741654 0.567575
O O5 0.500000 0.862636 0.258615
O O6 0.284313 0.756023 0.186182
O O7 0.228584 0.900950 0.315789
O O8 0.732486 0.237392 0.383221
O O9 0.782623 0.133222 0.218184
O O10 0.000000 0.190063 0.338604
O O11 0.808974 0.064297 0.406397
O O12 0.500000 0.645710 0.122950
O O13 0.271347 0.569368 0.221045
O O14 0.242267 0.636289 0.035133
O O15 0.500000 0.074075 0.931618
O O16 0.752520 0.074313 0.026103
O O17 0.500000 0.326036 0.440330
O O18 0.286325 0.417330 0.342534
O O19 0.500000 0.544429 0.337451
O O20 0.500000 0.851417 0.580077
#
# Coordination Sequence:
#
# PCOD8170054 Si02
#       8
#     4   4   4   4   4   4   4   4
#     4   7  11  25  51  77  98 126 168 213 254 302
#     4   8  15  30  54  79 101 134 178 216 258 318
#     4  10  23  40  54  74 108 148 184 216 263 329
#     4   9  18  36  59  79 107 147 182 216 267 328
#     4  10  20  34  54  81 110 138 176 227 275 320
#     4  11  23  36  53  81 113 142 179 227 270 310
#     4   8  16  32  53  78 107 139 177 218 261 313
#     4   9  18  35  58  79 102 140 184 219 260 318
#
# _framework density 19.301487999999999
#
# number of rings (size 3 to 8) (size 9 to 14) (size 15 to 20)
#    0.000    3.000    0.000    3.000    0.000    4.000 
#    0.000    5.000    0.000    7.500    0.000    0.000 
#    0.000    0.000    0.000    0.000    0.000    0.000 
#
# Total GULP energy -396483.213341 kJ/mol
# GULP energy per Si atom -12390.100417 kJ/mol
# Density = 1.925756 g / cm^3
# Si number density = 19.301488 Si / 1000 Ang^3
#
#
#
# Elastic Constant Matrix: (Units=GPa)
#
#
# Indices 1 2 3 4 5 6 
#
# 1 68.2994 49.9140 44.7856 0.0000 0.0000 0.0000
# 2 49.9140 109.8962 50.3323 0.0000 0.0000 0.0000
# 3 44.7856 50.3323 109.8221 0.0000 0.0000 0.0000
# 4 0.0000 0.0000 0.0000 27.1795 0.0000 0.0000
# 5 0.0000 0.0000 0.0000 0.0000 26.1369 0.0000
# 6 0.0000 0.0000 0.0000 0.0000 0.0000 16.0757
#
#
#
# Elastic Compliance Matrix: (Units=1/GPa)
#
#
# Indices 1 2 3 4 5 6 
#
# 1 0.024945 -0.008443 -0.006303 0.000000 0.000000 0.000000
# 2 -0.008443 0.014375 -0.003145 0.000000 0.000000 0.000000
# 3 -0.006303 -0.003145 0.013117 0.000000 0.000000 0.000000
# 4 0.000000 0.000000 0.000000 0.036792 0.000000 0.000000
# 5 0.000000 0.000000 0.000000 0.000000 0.038260 0.000000
# 6 0.000000 0.000000 0.000000 0.000000 0.000000 0.062206
#
#
# Mechanical properties :
#
#
# Convention : Reuss Voigt Hill
#
# Bulk Modulus (GPa) = 60.04254 64.23127 62.13690
# Shear Modulus (GPa) = 21.64240 23.41081 22.52660
#
# Velocity S-wave (km/s) = 3.35219 3.48645 3.41998
# Velocity P-wave (km/s) = 6.79398 7.03969 6.91793
#
# Compressibility (1/GPa) = 0.01665486
#
# Stress axis : x y z
#
# Youngs Moduli (GPa) = 40.08887 69.56728 76.23478
#
# Poissons Ratio (x) = 0.58735 0.48051
# Poissons Ratio (y) = 0.33847 0.23976
# Poissons Ratio (z) = 0.25268 0.21879
#
# Static dielectric constant tensor:
#      x y z
#    x 3.255630 0.000000 0.000000 
#    y 0.000000 3.693500 0.000000 
#    z 0.000000 0.000000 3.566330 
# 
# 
# High freq. dielectric constant tensor:
#      x y z
#    x 1.718230 0.000000 0.000000 
#    y 0.000000 1.751710 0.000000 
#    z 0.000000 0.000000 1.745780 
# 
# From -- ./inp_files/3648.got.cif
#   From: 2010.03.12/outbox.cif.g09.slc.cpg/sg31_2_cif.got.tgz:3648.got - 2010.04.14 01:42:59.
