data_PCOD8170433
_publ_section_title
;
Structure prediction by ZEFSAII (Michael W. Deem and Ramdas Pophale) SiO2 
 PCOD8170433
Probable space group: P B A 2
;
_chemical_formula_sum "Si O2"
_cell_formula_units_Z 30
_cell_length_a 19.900907
_cell_length_b 12.596709
_cell_length_c 5.318544
_cell_angle_alpha 90.000000
_cell_angle_beta 90.000000
_cell_angle_gamma 90.000000
_cell_volume 1333.284172
_symmetry_space_group_name_H-M "P B A 2"
_symmetry_group_IT_number 32
_symmetry_cell_setting 'orthorhombic'
loop_
_space_group_symop_operation_xyz
x,y,z
-x,-y,z
1/2-x,1/2+y,z
1/2+x,1/2-y,z
loop_
_atom_site_type_symbol
_atom_site_label
_atom_site_fract_x
_atom_site_fract_y
_atom_site_fract_z
Si Si1 0.433639 0.164270 0.073990
Si Si2 0.836985 0.500000 0.936200
Si Si3 0.677176 0.682177 0.181762
Si Si4 0.933639 0.664270 0.798409
Si Si5 0.000000 0.500000 0.436200
Si Si6 0.730188 0.383459 0.194492
Si Si7 0.730188 0.616541 0.677907
Si Si8 0.822824 0.817823 0.690637
O O1 0.396791 0.264335 0.198949
O O2 0.451243 0.073750 0.274188
O O3 0.500000 0.206388 0.936200
O O4 0.382641 0.104633 0.878103
O O5 0.882641 0.604633 0.994296
O O6 0.788018 0.525126 0.698043
O O7 0.788018 0.474874 0.174356
O O8 0.735561 0.768518 0.192376
O O9 0.686473 0.603876 0.422575
O O10 0.682623 0.612774 0.926682
O O11 0.896791 0.764335 0.673450
O O12 0.951243 0.573750 0.598211
O O13 0.686473 0.396124 0.449824
O O14 0.682623 0.387226 0.945717
O O15 0.764439 0.731482 0.680023
#
# Coordination Sequence:
#
# PCOD8170433 Si02
#       8
#     4   4   4   4   2   4   4   4
#     4  11  22  36  51  85 118 161 193 247 302 374
#     4  10  19  36  56  82 123 144 206 248 306 356
#     4   9  20  35  52  74 115 149 199 226 289 356
#     4  11  22  36  51  85 118 161 193 247 302 374
#     4  12  22  32  56  82 116 154 194 232 308 356
#     4   9  19  34  53  79 105 158 187 243 285 341
#     4   9  19  34  53  79 105 158 187 243 285 341
#     4   9  20  35  52  74 115 149 199 226 289 356
#
# _framework density 22.500829
#
# number of rings (size 3 to 8) (size 9 to 14) (size 15 to 20)
#    0.000    2.133    2.667    0.000    3.733    7.467 
#    0.000    0.000    0.000    0.000    0.000    0.933 
#    0.000    0.000    0.000    0.000    0.000    0.000 
#
# Total GULP energy -371782.095018 kJ/mol
# GULP energy per Si atom -12392.736501 kJ/mol
# Density = 2.244962 g / cm^3
# Si number density = 22.500829 Si / 1000 Ang^3
#
#
#
# Elastic Constant Matrix: (Units=GPa)
#
#
# Indices 1 2 3 4 5 6 
#
# 1 148.8053 51.6172 71.7452 0.0000 0.0000 0.0000
# 2 51.6172 56.6081 26.0919 0.0000 0.0000 0.0000
# 3 71.7452 26.0919 166.5347 0.0000 0.0000 0.0000
# 4 0.0000 0.0000 0.0000 5.4103 0.0000 0.0000
# 5 0.0000 0.0000 0.0000 0.0000 23.8942 0.0000
# 6 0.0000 0.0000 0.0000 0.0000 0.0000 44.8020
#
#
#
# Elastic Compliance Matrix: (Units=1/GPa)
#
#
# Indices 1 2 3 4 5 6 
#
# 1 0.011513 -0.008851 -0.003573 0.000000 0.000000 0.000000
# 2 -0.008851 0.025845 -0.000236 0.000000 0.000000 0.000000
# 3 -0.003573 -0.000236 0.007581 0.000000 0.000000 0.000000
# 4 0.000000 0.000000 0.000000 0.184834 0.000000 0.000000
# 5 0.000000 0.000000 0.000000 0.000000 0.041851 0.000000
# 6 0.000000 0.000000 0.000000 0.000000 0.000000 0.022320
#
#
# Mechanical properties :
#
#
# Convention : Reuss Voigt Hill
#
# Bulk Modulus (GPa) = 50.97288 74.53962 62.75625
# Shear Modulus (GPa) = 15.34657 29.65422 22.50039
#
# Velocity S-wave (km/s) = 2.61443 3.63425 3.16568
# Velocity P-wave (km/s) = 5.64062 7.12810 6.42754
#
# Compressibility (1/GPa) = 0.01961828
#
# Stress axis : x y z
#
# Youngs Moduli (GPa) = 86.85594 38.69225 131.90587
#
# Poissons Ratio (x) = 0.34247 0.47134
# Poissons Ratio (y) = 0.76878 0.03114
# Poissons Ratio (z) = 0.31036 0.00913
#
# Static dielectric constant tensor:
#      x y z
#    x 4.210180 0.000000 0.000000 
#    y 0.000000 3.823540 0.000000 
#    z 0.000000 0.000000 4.326380 
# 
# 
# High freq. dielectric constant tensor:
#      x y z
#    x 1.861790 0.000000 0.000000 
#    y 0.000000 1.861990 0.000000 
#    z 0.000000 0.000000 1.883040 
# 
# From -- ./inp_files/1463.got.cif
#   From: 2010.03.12/outbox.cif.g09.slc.cpg/sg32_1_cif.got.tgz:1463.got - 2010.04.14 01:46:39.
