data_PCOD8170205
_publ_section_title
;
Structure prediction by ZEFSAII (Michael W. Deem and Ramdas Pophale) SiO2 
 PCOD8170205
Probable space group: P M N 21
;
_chemical_formula_sum "Si O2"
_cell_formula_units_Z 32
_cell_length_a 9.462570
_cell_length_b 14.408674
_cell_length_c 12.650237
_cell_angle_alpha 90.000000
_cell_angle_beta 90.000000
_cell_angle_gamma 90.000000
_cell_volume 1724.772355
_symmetry_space_group_name_H-M "P M N 21"
_symmetry_group_IT_number 31
_symmetry_cell_setting 'orthorhombic'
loop_
_space_group_symop_operation_xyz
x,y,z
1/2-x,-y,1/2+z
-x,y,z
1/2+x,-y,1/2+z
loop_
_atom_site_type_symbol
_atom_site_label
_atom_site_fract_x
_atom_site_fract_y
_atom_site_fract_z
Si Si1 0.164687 0.843926 0.143910
Si Si2 0.835624 0.651211 0.804389
Si Si3 0.168221 0.655790 0.041639
Si Si4 0.837987 0.466519 0.137778
Si Si5 0.837417 0.038720 0.060352
Si Si6 0.162577 0.817149 0.663660
Si Si7 0.159893 0.150225 0.851046
Si Si8 0.657732 0.702835 0.508834
O O1 0.228585 0.750495 0.092386
O O2 0.238025 0.867291 0.254108
O O3 0.000000 0.831324 0.167885
O O4 0.192581 0.928625 0.062727
O O5 0.750850 0.579874 0.730951
O O6 0.814941 0.759674 0.772076
O O7 0.000000 0.623549 0.795844
O O8 0.774836 0.643334 0.922647
O O9 0.220413 0.569128 0.112414
O O10 0.000000 0.659997 0.036653
O O11 0.000000 0.471267 0.175884
O O12 0.826889 0.407681 0.027104
O O13 0.749939 0.087098 0.156152
O O14 0.000000 0.059909 0.083946
O O15 0.794478 0.081047 0.946573
O O16 0.216687 0.749445 0.572675
O O17 0.000000 0.841745 0.644705
O O18 0.172861 0.258758 0.888985
O O19 0.000000 0.127947 0.815648
O O20 0.500000 0.733719 0.549434
#
# Coordination Sequence:
#
# PCOD8170205 Si02
#       8
#     4   4   4   4   4   4   4   4
#     4  10  21  36  52  72 100 133 168 204 244 295
#     4   9  18  33  53  76 101 131 166 205 249 294
#     4   9  19  35  52  72 102 137 168 199 245 302
#     4   9  17  32  54  76  99 132 171 206 242 291
#     4   9  19  35  53  72  98 134 169 201 246 303
#     4   9  16  27  49  78 100 121 160 211 248 280
#     4   9  18  33  52  74  99 128 164 206 251 295
#     4   8  15  29  49  72  99 130 162 196 241 296
#
# _framework density 18.553173000000001
#
# number of rings (size 3 to 8) (size 9 to 14) (size 15 to 20)
#    0.000    3.000    0.000    1.125    0.000    5.000 
#    0.000    5.625    0.000    0.000    0.000    0.000 
#    0.000    0.000    0.000    0.000    0.000    0.000 
#
# Total GULP energy -396498.561835 kJ/mol
# GULP energy per Si atom -12390.580057 kJ/mol
# Density = 1.851095 g / cm^3
# Si number density = 18.553173 Si / 1000 Ang^3
#
#
#
# Elastic Constant Matrix: (Units=GPa)
#
#
# Indices 1 2 3 4 5 6 
#
# 1 56.6057 41.2472 42.1378 0.0000 0.0000 0.0000
# 2 41.2472 148.3682 58.9337 0.0000 0.0000 0.0000
# 3 42.1378 58.9337 105.2812 0.0000 0.0000 0.0000
# 4 0.0000 0.0000 0.0000 24.2665 0.0000 0.0000
# 5 0.0000 0.0000 0.0000 0.0000 24.1799 0.0000
# 6 0.0000 0.0000 0.0000 0.0000 0.0000 17.0740
#
#
#
# Elastic Compliance Matrix: (Units=1/GPa)
#
#
# Indices 1 2 3 4 5 6 
#
# 1 0.027000 -0.004132 -0.008493 0.000000 0.000000 0.000000
# 2 -0.004132 0.009300 -0.003552 0.000000 0.000000 0.000000
# 3 -0.008493 -0.003552 0.014886 0.000000 0.000000 0.000000
# 4 0.000000 0.000000 0.000000 0.041209 0.000000 0.000000
# 5 0.000000 0.000000 0.000000 0.000000 0.041357 0.000000
# 6 0.000000 0.000000 0.000000 0.000000 0.000000 0.058568
#
#
# Mechanical properties :
#
#
# Convention : Reuss Voigt Hill
#
# Bulk Modulus (GPa) = 53.10532 66.09917 59.60225
# Shear Modulus (GPa) = 21.64964 24.29984 22.97474
#
# Velocity S-wave (km/s) = 3.41969 3.62296 3.52279
# Velocity P-wave (km/s) = 6.65416 7.29420 6.98152
#
# Compressibility (1/GPa) = 0.01883050
#
# Stress axis : x y z
#
# Youngs Moduli (GPa) = 37.03750 107.53126 67.17807
#
# Poissons Ratio (x) = 0.44437 0.57055
# Poissons Ratio (y) = 0.15306 0.23860
# Poissons Ratio (z) = 0.31456 0.38192
#
# Static dielectric constant tensor:
#      x y z
#    x 3.269630 0.000000 0.000000 
#    y 0.000000 3.710280 0.000000 
#    z 0.000000 0.000000 3.253530 
# 
# 
# High freq. dielectric constant tensor:
#      x y z
#    x 1.703590 0.000000 0.000000 
#    y 0.000000 1.726090 0.000000 
#    z 0.000000 0.000000 1.696360 
# 
# From -- ./inp_files/3669.got.cif
#   From: 2010.03.12/outbox.cif.g09.slc.cpg/sg31_2_cif.got.tgz:3669.got - 2010.04.14 01:42:59.
