data_PCOD8170571
_publ_section_title
;
Structure prediction by ZEFSAII (Michael W. Deem and Ramdas Pophale) SiO2 
 PCOD8170571
Probable space group: P B A 2
;
_chemical_formula_sum "Si O2"
_cell_formula_units_Z 32
_cell_length_a 13.977935
_cell_length_b 11.662641
_cell_length_c 8.899114
_cell_angle_alpha 90.000000
_cell_angle_beta 90.000000
_cell_angle_gamma 90.000000
_cell_volume 1450.730341
_symmetry_space_group_name_H-M "P B A 2"
_symmetry_group_IT_number 32
_symmetry_cell_setting 'orthorhombic'
loop_
_space_group_symop_operation_xyz
x,y,z
-x,-y,z
1/2-x,1/2+y,z
1/2+x,1/2-y,z
loop_
_atom_site_type_symbol
_atom_site_label
_atom_site_fract_x
_atom_site_fract_y
_atom_site_fract_z
Si Si1 0.830658 0.739420 0.174580
Si Si2 0.601857 0.014154 0.612608
Si Si3 0.131405 0.745221 0.683966
Si Si4 0.730065 0.609742 0.429301
Si Si5 0.412122 0.582254 0.382974
Si Si6 0.243602 0.142415 0.906825
Si Si7 0.900424 0.552196 0.940245
Si Si8 0.949125 0.879807 0.719184
O O1 0.752558 0.684048 0.283858
O O2 0.910172 0.810881 0.267904
O O3 0.770113 0.828745 0.079692
O O4 0.879523 0.653080 0.056786
O O5 0.643236 0.887181 0.637022
O O6 0.500000 0.000000 0.529052
O O7 0.669647 0.087576 0.508410
O O8 0.583630 0.089069 0.765674
O O9 0.157704 0.827750 0.544800
O O10 0.206831 0.751400 0.821851
O O11 0.027102 0.779196 0.748681
O O12 0.684547 0.491667 0.372818
O O13 0.500000 0.500000 0.341892
O O14 0.415719 0.635577 0.548402
O O15 0.141153 0.120542 0.829195
O O16 0.310862 0.032322 0.920343
O O17 0.000000 0.500000 0.000818
O O18 0.000000 0.000000 0.745482
#
# Coordination Sequence:
#
# PCOD8170571 Si02
#       8
#     4   4   4   4   4   4   4   4
#     4  12  27  41  70  95 148 194 222 281 365 427
#     4  10  24  41  71 101 132 173 238 293 341 412
#     4  11  24  42  77  99 134 183 231 305 351 411
#     4  12  23  44  68 100 141 179 232 287 355 426
#     4  11  24  46  67 103 141 177 238 291 342 427
#     4  11  26  44  70 105 141 181 240 290 356 427
#     4  10  24  46  67 100 139 182 237 289 344 429
#     4  11  24  46  76 107 134 179 244 298 358 411
#
# _framework density 22.057853000000001
#
# number of rings (size 3 to 8) (size 9 to 14) (size 15 to 20)
#    0.000    1.000    2.500    4.500   10.500    2.000 
#    0.000    0.000    0.000    0.000    0.000    0.000 
#    0.000    0.000    0.000    0.000    0.000    0.000 
#
# Total GULP energy -396677.507835 kJ/mol
# GULP energy per Si atom -12396.172120 kJ/mol
# Density = 2.200765 g / cm^3
# Si number density = 22.057853 Si / 1000 Ang^3
#
#
#
# Elastic Constant Matrix: (Units=GPa)
#
#
# Indices 1 2 3 4 5 6 
#
# 1 135.7602 34.2713 62.1937 0.0000 0.0000 0.0000
# 2 34.2713 79.1318 52.7857 0.0000 0.0000 0.0000
# 3 62.1937 52.7857 111.4626 0.0000 0.0000 0.0000
# 4 0.0000 0.0000 0.0000 36.8697 0.0000 0.0000
# 5 0.0000 0.0000 0.0000 0.0000 15.8993 0.0000
# 6 0.0000 0.0000 0.0000 0.0000 0.0000 36.7249
#
#
#
# Elastic Compliance Matrix: (Units=1/GPa)
#
#
# Indices 1 2 3 4 5 6 
#
# 1 0.009938 -0.000884 -0.005126 0.000000 0.000000 0.000000
# 2 -0.000884 0.018551 -0.008292 0.000000 0.000000 0.000000
# 3 -0.005126 -0.008292 0.015759 0.000000 0.000000 0.000000
# 4 0.000000 0.000000 0.000000 0.027123 0.000000 0.000000
# 5 0.000000 0.000000 0.000000 0.000000 0.062896 0.000000
# 6 0.000000 0.000000 0.000000 0.000000 0.000000 0.027230
#
#
# Mechanical properties :
#
#
# Convention : Reuss Voigt Hill
#
# Bulk Modulus (GPa) = 63.92758 69.42843 66.67801
# Shear Modulus (GPa) = 25.59973 29.70571 27.65272
#
# Velocity S-wave (km/s) = 3.41041 3.67375 3.54453
# Velocity P-wave (km/s) = 6.67477 7.03841 6.85900
#
# Compressibility (1/GPa) = 0.01564270
#
# Stress axis : x y z
#
# Youngs Moduli (GPa) = 100.62864 53.90424 63.45699
#
# Poissons Ratio (x) = 0.04768 0.32529
# Poissons Ratio (y) = 0.08900 0.52618
# Poissons Ratio (z) = 0.51583 0.44697
#
# Static dielectric constant tensor:
#      x y z
#    x 4.154920 0.000000 0.000000 
#    y 0.000000 4.005540 0.000000 
#    z 0.000000 0.000000 4.106250 
# 
# 
# High freq. dielectric constant tensor:
#      x y z
#    x 1.882340 0.000000 0.000000 
#    y 0.000000 1.873730 0.000000 
#    z 0.000000 0.000000 1.859950 
# 
# From -- ./inp_files/3092.got.cif
#   From: 2010.03.12/outbox.cif.g09.slc.cpg/sg32_2_cif.got.tgz:3092.got - 2010.04.14 01:46:39.
