data_PCOD8170900
_publ_section_title
;
Structure prediction by ZEFSAII (Michael W. Deem and Ramdas Pophale) SiO2 
 PCOD8170900
Probable space group: P N A 21
;
_chemical_formula_sum "Si O2"
_cell_formula_units_Z 28
_cell_length_a 9.976363
_cell_length_b 20.010916
_cell_length_c 6.690500
_cell_angle_alpha 90.000000
_cell_angle_beta 90.000000
_cell_angle_gamma 90.000000
_cell_volume 1335.665742
_symmetry_space_group_name_H-M "P N A 21"
_symmetry_group_IT_number 33
_symmetry_cell_setting 'orthorhombic'
loop_
_space_group_symop_operation_xyz
x,y,z
-x,-y,1/2+z
1/2-x,1/2+y,1/2+z
1/2+x,1/2-y,z
loop_
_atom_site_type_symbol
_atom_site_label
_atom_site_fract_x
_atom_site_fract_y
_atom_site_fract_z
Si Si1 0.125295 0.629354 0.798340
Si Si2 0.595963 0.578643 0.110357
Si Si3 0.392386 0.568511 0.756223
Si Si4 0.374308 0.863142 0.065783
Si Si5 0.250261 0.721990 0.098547
Si Si6 0.947259 0.834288 0.395212
Si Si7 0.532279 0.806656 0.403872
O O1 0.234687 0.569467 0.822748
O O2 0.102959 0.648465 0.568576
O O3 0.191818 0.694093 0.894530
O O4 0.984804 0.611566 0.905588
O O5 0.565485 0.504844 0.189096
O O6 0.751281 0.585333 0.045140
O O7 0.577013 0.631121 0.292650
O O8 0.496047 0.593044 0.925645
O O9 0.397447 0.619614 0.573036
O O10 0.324401 0.788220 0.023869
O O11 0.438336 0.859950 0.287625
O O12 0.344305 0.668316 0.209512
O O13 0.128961 0.733086 0.251550
O O14 0.957331 0.759150 0.489606
#
# Coordination Sequence:
#
# PCOD8170900 Si02
#       7
#     4   4   4   4   4   4   4
#     4  11  24  41  66 102 129 171 220 265 332 391
#     4  12  25  47  64  94 129 175 228 269 322 388
#     4  12  26  43  69  92 126 179 225 272 317 395
#     4  10  25  42  63  97 137 169 210 275 331 386
#     4  10  20  39  65  96 135 164 204 273 325 384
#     4  11  22  39  65  96 128 167 216 266 326 385
#     4  10  22  39  66  99 132 169 207 266 339 389
#
# _framework density 20.963328000000001
#
# number of rings (size 3 to 8) (size 9 to 14) (size 15 to 20)
#    0.000    1.143    5.714    0.000    4.000    1.143 
#    2.571    0.000    0.000    0.000    0.000    0.000 
#    0.000    0.000    0.000    0.000    0.000    0.000 
#
# Total GULP energy -347007.351623 kJ/mol
# GULP energy per Si atom -12393.119701 kJ/mol
# Density = 2.091561 g / cm^3
# Si number density = 20.963328 Si / 1000 Ang^3
#
#
#
# Elastic Constant Matrix: (Units=GPa)
#
#
# Indices 1 2 3 4 5 6 
#
# 1 126.5636 19.1249 35.9442 0.0000 0.0000 0.0000
# 2 19.1249 56.3995 27.8690 0.0000 0.0000 0.0000
# 3 35.9442 27.8690 71.0473 0.0000 0.0000 0.0000
# 4 0.0000 0.0000 0.0000 22.4894 0.0000 0.0000
# 5 0.0000 0.0000 0.0000 0.0000 30.5803 0.0000
# 6 0.0000 0.0000 0.0000 0.0000 0.0000 29.0184
#
#
#
# Elastic Compliance Matrix: (Units=1/GPa)
#
#
# Indices 1 2 3 4 5 6 
#
# 1 0.009274 -0.001025 -0.004290 0.000000 0.000000 0.000000
# 2 -0.001025 0.022107 -0.008153 0.000000 0.000000 0.000000
# 3 -0.004290 -0.008153 0.019444 0.000000 0.000000 0.000000
# 4 0.000000 0.000000 0.000000 0.044465 0.000000 0.000000
# 5 0.000000 0.000000 0.000000 0.000000 0.032701 0.000000
# 6 0.000000 0.000000 0.000000 0.000000 0.000000 0.034461
#
#
# Mechanical properties :
#
#
# Convention : Reuss Voigt Hill
#
# Bulk Modulus (GPa) = 41.86071 46.65404 44.25738
# Shear Modulus (GPa) = 25.33552 27.82244 26.57898
#
# Velocity S-wave (km/s) = 3.48021 3.64702 3.56459
# Velocity P-wave (km/s) = 6.01341 6.32754 6.17247
#
# Compressibility (1/GPa) = 0.02388875
#
# Stress axis : x y z
#
# Youngs Moduli (GPa) = 107.82338 45.23458 51.43074
#
# Poissons Ratio (x) = 0.04637 0.22064
# Poissons Ratio (y) = 0.11053 0.41932
# Poissons Ratio (z) = 0.46256 0.36880
#
# Static dielectric constant tensor:
#      x y z
#    x 4.102420 0.000000 0.000000 
#    y 0.000000 3.486170 0.000000 
#    z 0.000000 0.000000 3.720990 
# 
# 
# High freq. dielectric constant tensor:
#      x y z
#    x 1.835790 0.000000 0.000000 
#    y 0.000000 1.797950 0.000000 
#    z 0.000000 0.000000 1.819330 
# 
# From -- ./inp_files/978.got.cif
#   From: 2010.03.12/outbox.cif.g09.slc.cpg/sg33_1_cif.got.tgz:978.got - 2010.04.14 01:49:19.
