data_PCOD8170984
_publ_section_title
;
Structure prediction by ZEFSAII (Michael W. Deem and Ramdas Pophale) SiO2 
 PCOD8170984
Probable space group: P N A 21
;
_chemical_formula_sum "Si O2"
_cell_formula_units_Z 20
_cell_length_a 5.289490
_cell_length_b 8.151994
_cell_length_c 20.191133
_cell_angle_alpha 90.000000
_cell_angle_beta 90.000000
_cell_angle_gamma 90.000000
_cell_volume 870.639449
_symmetry_space_group_name_H-M "P N A 21"
_symmetry_group_IT_number 33
_symmetry_cell_setting 'orthorhombic'
loop_
_space_group_symop_operation_xyz
x,y,z
-x,-y,1/2+z
1/2-x,1/2+y,1/2+z
1/2+x,1/2-y,z
loop_
_atom_site_type_symbol
_atom_site_label
_atom_site_fract_x
_atom_site_fract_y
_atom_site_fract_z
Si Si1 0.249957 0.796563 0.509230
Si Si2 0.749973 0.345132 0.497760
Si Si3 0.750006 0.639479 0.240720
Si Si4 0.749958 0.350948 0.342648
Si Si5 0.250045 0.161634 0.152049
O O1 0.499956 0.749999 0.466670
O O2 0.249954 0.673412 0.572287
O O3 0.249957 0.981998 0.535750
O O4 0.499982 0.249989 0.519625
O O5 0.749970 0.389666 0.420472
O O6 0.500000 0.749995 0.241082
O O7 0.750006 0.523589 0.305242
O O8 0.750018 0.527721 0.174478
O O9 0.499930 0.250029 0.323022
O O10 0.500056 0.249987 0.181532
#
# Coordination Sequence:
#
# PCOD8170984 Si02
#       5
#     4   4   4   4   4
#     4  10  21  38  59  83 115 158 195 233 291 348
#     4  10  21  38  61  90 118 150 196 244 287 344
#     4  12  24  38  60  91 119 149 199 250 286 340
#     4  10  21  39  62  86 120 158 188 233 301 358
#     4  10  21  41  60  80 114 159 196 232 295 350
#
# _framework density 22.971620000000001
#
# number of rings (size 3 to 8) (size 9 to 14) (size 15 to 20)
#    0.000    1.600    0.000    4.800    0.000    1.600 
#    0.000   24.000    0.000    0.000    0.000    0.000 
#    0.000    0.000    0.000    0.000    0.000    0.000 
#
# Total GULP energy -247914.991676 kJ/mol
# GULP energy per Si atom -12395.749584 kJ/mol
# Density = 2.291934 g / cm^3
# Si number density = 22.971620 Si / 1000 Ang^3
#
#
#
# Elastic Constant Matrix: (Units=GPa)
#
#
# Indices 1 2 3 4 5 6 
#
# 1 286.3497 104.7590 1.2801 0.0000 0.0000 0.0000
# 2 104.7590 161.3091 2.1633 0.0000 0.0000 0.0000
# 3 1.2801 2.1633 31.7943 0.0000 0.0000 0.0000
# 4 0.0000 0.0000 0.0000 30.0110 0.0000 0.0000
# 5 0.0000 0.0000 0.0000 0.0000 0.8431 0.0000
# 6 0.0000 0.0000 0.0000 0.0000 0.0000 58.2783
#
#
#
# Elastic Compliance Matrix: (Units=1/GPa)
#
#
# Indices 1 2 3 4 5 6 
#
# 1 0.004581 -0.002975 0.000018 0.000000 0.000000 0.000000
# 2 -0.002975 0.008137 -0.000434 0.000000 0.000000 0.000000
# 3 0.000018 -0.000434 0.031481 0.000000 0.000000 0.000000
# 4 0.000000 0.000000 0.000000 0.033321 0.000000 0.000000
# 5 0.000000 0.000000 0.000000 0.000000 1.186121 0.000000
# 6 0.000000 0.000000 0.000000 0.000000 0.000000 0.017159
#
#
# Mechanical properties :
#
#
# Convention : Reuss Voigt Hill
#
# Bulk Modulus (GPa) = 26.72588 77.31756 52.02172
# Shear Modulus (GPa) = 3.84599 42.57651 23.21125
#
# Velocity S-wave (km/s) = 1.29533 4.30983 3.18218
# Velocity P-wave (km/s) = 3.72783 7.64834 6.01639
#
# Compressibility (1/GPa) = 0.03741692
#
# Stress axis : x y z
#
# Youngs Moduli (GPa) = 218.31553 122.89334 31.76522
#
# Poissons Ratio (x) = 0.36560 -0.00057
# Poissons Ratio (y) = 0.64948 0.01378
# Poissons Ratio (z) = -0.00393 0.05332
#
# Static dielectric constant tensor:
#      x y z
#    x 5.110910 0.000000 0.000000 
#    y 0.000000 4.092770 0.000000 
#    z 0.000000 0.000000 3.765660 
# 
# 
# High freq. dielectric constant tensor:
#      x y z
#    x 1.946930 0.000000 0.000000 
#    y 0.000000 1.912230 0.000000 
#    z 0.000000 0.000000 1.874790 
# 
# From -- ./inp_files/8866.got.cif
#   From: 2010.03.12/outbox.cif.g09.slc.cpg/sg33_5_cif.got.tgz:8866.got - 2010.04.14 01:49:19.
