data_PCOD8170489
_publ_section_title
;
Structure prediction by ZEFSAII (Michael W. Deem and Ramdas Pophale) SiO2 
 PCOD8170489
Probable space group: P B A 2
;
_chemical_formula_sum "Si O2"
_cell_formula_units_Z 32
_cell_length_a 5.282766
_cell_length_b 32.348998
_cell_length_c 8.453953
_cell_angle_alpha 90.000000
_cell_angle_beta 90.000000
_cell_angle_gamma 90.000000
_cell_volume 1444.714515
_symmetry_space_group_name_H-M "P B A 2"
_symmetry_group_IT_number 32
_symmetry_cell_setting 'orthorhombic'
loop_
_space_group_symop_operation_xyz
x,y,z
-x,-y,z
1/2-x,1/2+y,z
1/2+x,1/2-y,z
loop_
_atom_site_type_symbol
_atom_site_label
_atom_site_fract_x
_atom_site_fract_y
_atom_site_fract_z
Si Si1 0.243563 0.026011 0.449920
Si Si2 0.002668 0.595839 0.627872
Si Si3 0.681873 0.642475 0.410129
Si Si4 0.814685 0.111639 0.910923
Si Si5 0.870230 0.912371 0.187777
Si Si6 0.139196 0.164901 0.685681
Si Si7 0.283341 0.723911 0.956542
Si Si8 0.485257 0.155592 0.132149
O O1 0.291871 0.061153 0.582662
O O2 0.176595 0.044879 0.278327
O O3 0.500000 0.000000 0.434013
O O4 0.000000 0.000000 0.508610
O O5 0.792124 0.600261 0.490395
O O6 0.879759 0.586080 0.799102
O O7 0.110863 0.642759 0.619898
O O8 0.461471 0.624661 0.301267
O O9 0.561362 0.673146 0.543098
O O10 0.885855 0.666991 0.300885
O O11 0.037306 0.130455 0.806446
O O12 0.690912 0.152800 0.990738
O O13 0.934309 0.080726 0.042477
O O14 0.607230 0.892468 0.129729
O O15 0.215375 0.206830 0.776327
O O16 0.556845 0.743781 0.985990
O O17 0.236151 0.687693 0.085758
#
# Coordination Sequence:
#
# PCOD8170489 Si02
#       8
#     4   4   4   4   4   4   4   4
#     4  12  27  44  70 105 146 180 220 292 365 412
#     4  11  21  41  70 102 128 185 236 282 334 427
#     4  10  21  36  72  99 130 164 258 276 329 398
#     4  10  21  36  74  99 130 168 256 280 327 396
#     4  11  21  41  70 102 128 185 236 282 334 427
#     4  11  21  41  68 100 130 186 235 287 335 431
#     4  12  27  44  66 103 144 184 228 298 375 412
#     4  11  21  41  68 100 130 186 235 287 335 431
#
# _framework density 22.149706999999999
#
# number of rings (size 3 to 8) (size 9 to 14) (size 15 to 20)
#    0.000    1.000    5.000    1.500    7.000    0.000 
#    0.000    1.250    5.500    0.000    0.000    0.000 
#    0.000    0.000    0.000    0.000    0.000    0.000 
#
# Total GULP energy -396638.216998 kJ/mol
# GULP energy per Si atom -12394.944281 kJ/mol
# Density = 2.209929 g / cm^3
# Si number density = 22.149707 Si / 1000 Ang^3
#
#
#
# Elastic Constant Matrix: (Units=GPa)
#
#
# Indices 1 2 3 4 5 6 
#
# 1 88.3606 18.3313 37.6376 0.0000 0.0000 0.0000
# 2 18.3313 52.4293 24.0486 0.0000 0.0000 0.0000
# 3 37.6376 24.0486 135.7126 0.0000 0.0000 0.0000
# 4 0.0000 0.0000 0.0000 31.4816 0.0000 0.0000
# 5 0.0000 0.0000 0.0000 0.0000 42.9421 0.0000
# 6 0.0000 0.0000 0.0000 0.0000 0.0000 40.5232
#
#
#
# Elastic Compliance Matrix: (Units=1/GPa)
#
#
# Indices 1 2 3 4 5 6 
#
# 1 0.013316 -0.003224 -0.003122 0.000000 0.000000 0.000000
# 2 -0.003224 0.021541 -0.002923 0.000000 0.000000 0.000000
# 3 -0.003122 -0.002923 0.008752 0.000000 0.000000 0.000000
# 4 0.000000 0.000000 0.000000 0.031765 0.000000 0.000000
# 5 0.000000 0.000000 0.000000 0.000000 0.023287 0.000000
# 6 0.000000 0.000000 0.000000 0.000000 0.000000 0.024677
#
#
# Mechanical properties :
#
#
# Convention : Reuss Voigt Hill
#
# Bulk Modulus (GPa) = 39.88494 48.50416 44.19455
# Shear Modulus (GPa) = 33.28170 36.08839 34.68505
#
# Velocity S-wave (km/s) = 3.88052 4.04083 3.96149
# Velocity P-wave (km/s) = 6.17446 6.61188 6.39691
#
# Compressibility (1/GPa) = 0.02507212
#
# Stress axis : x y z
#
# Youngs Moduli (GPa) = 75.09900 46.42249 114.25671
#
# Poissons Ratio (x) = 0.14966 0.35667
# Poissons Ratio (y) = 0.24211 0.33398
# Poissons Ratio (z) = 0.23443 0.13570
#
# Static dielectric constant tensor:
#      x y z
#    x 4.173450 0.000000 0.000000 
#    y 0.000000 3.550540 0.000000 
#    z 0.000000 0.000000 4.210860 
# 
# 
# High freq. dielectric constant tensor:
#      x y z
#    x 1.898380 0.000000 0.000000 
#    y 0.000000 1.813580 0.000000 
#    z 0.000000 0.000000 1.882470 
# 
# From -- ./inp_files/2072.got.cif
#   From: 2010.03.12/outbox.cif.g09.slc.cpg/sg32_2_cif.got.tgz:2072.got - 2010.04.14 01:46:39.
