data_PCOD8170953
_publ_section_title
;
Structure prediction by ZEFSAII (Michael W. Deem and Ramdas Pophale) SiO2 
 PCOD8170953
Probable space group: P N A 21
;
_chemical_formula_sum "Si O2"
_cell_formula_units_Z 32
_cell_length_a 12.704809
_cell_length_b 14.408037
_cell_length_c 9.230479
_cell_angle_alpha 90.000000
_cell_angle_beta 90.000000
_cell_angle_gamma 90.000000
_cell_volume 1689.651717
_symmetry_space_group_name_H-M "P N A 21"
_symmetry_group_IT_number 33
_symmetry_cell_setting 'orthorhombic'
loop_
_space_group_symop_operation_xyz
x,y,z
-x,-y,1/2+z
1/2-x,1/2+y,1/2+z
1/2+x,1/2-y,z
loop_
_atom_site_type_symbol
_atom_site_label
_atom_site_fract_x
_atom_site_fract_y
_atom_site_fract_z
Si Si1 0.536823 0.908969 0.705110
Si Si2 0.457855 0.717027 0.368162
Si Si3 0.536823 0.908969 0.366397
Si Si4 0.593002 0.550792 0.704080
Si Si5 0.778310 0.918785 0.704617
Si Si6 0.778310 0.918785 0.366890
Si Si7 0.542145 0.282973 0.203345
Si Si8 0.593002 0.550792 0.367427
O O1 0.514906 0.922972 0.535753
O O2 0.659514 0.888942 0.733203
O O3 0.473934 0.819838 0.770297
O O4 0.500000 1.000000 0.785753
O O5 0.473934 0.819838 0.301210
O O6 0.356510 0.661902 0.304163
O O7 0.434635 0.731829 0.535753
O O8 0.567980 0.660229 0.347941
O O9 0.659514 0.888942 0.338303
O O10 0.700356 0.515804 0.780737
O O11 0.567980 0.660229 0.723565
O O12 0.595966 0.523257 0.535753
O O13 0.500000 0.500000 0.785753
O O14 0.802240 0.936644 0.535753
O O15 0.856510 0.838098 0.767343
O O16 0.799644 0.015804 0.790770
#
# Coordination Sequence:
#
# PCOD8170953 Si02
#       8
#     4   4   4   4   4   4   4   4
#     4  10  21  36  52  73 103 135 169 211 255 301
#     4   8  16  32  53  74  97 132 174 208 243 296
#     4  10  21  36  52  73 103 135 169 211 255 301
#     4   9  16  29  52  78 101 128 166 210 251 294
#     4   9  18  33  52  75 104 135 167 209 257 299
#     4   9  18  33  52  75 104 135 167 209 257 299
#     4   8  16  32  53  74  97 132 174 208 243 296
#     4   9  16  29  52  78 101 128 166 210 251 294
#
# _framework density 18.938815000000002
#
# number of rings (size 3 to 8) (size 9 to 14) (size 15 to 20)
#    0.000    3.000    0.000    2.250    0.000    3.000 
#    0.000   11.250    0.000    0.000    0.000    0.000 
#    0.000    0.000    0.000    0.000    0.000    0.000 
#
# Total GULP energy -396434.536732 kJ/mol
# GULP energy per Si atom -12388.579273 kJ/mol
# Density = 1.889571 g / cm^3
# Si number density = 18.938815 Si / 1000 Ang^3
#
#
#
# Elastic Constant Matrix: (Units=GPa)
#
#
# Indices 1 2 3 4 5 6 
#
# 1 85.3268 62.0300 33.1043 0.0000 0.0000 0.0000
# 2 62.0300 149.9943 41.8615 0.0000 0.0000 0.0000
# 3 33.1043 41.8615 57.4963 0.0000 0.0000 0.0000
# 4 0.0000 0.0000 0.0000 27.1617 0.0000 0.0000
# 5 0.0000 0.0000 0.0000 0.0000 25.9707 0.0000
# 6 0.0000 0.0000 0.0000 0.0000 0.0000 26.6566
#
#
#
# Elastic Compliance Matrix: (Units=1/GPa)
#
#
# Indices 1 2 3 4 5 6 
#
# 1 0.018440 -0.005852 -0.006356 0.000000 0.000000 0.000000
# 2 -0.005852 0.010224 -0.004075 0.000000 0.000000 0.000000
# 3 -0.006356 -0.004075 0.024019 0.000000 0.000000 0.000000
# 4 0.000000 0.000000 0.000000 0.036817 0.000000 0.000000
# 5 0.000000 0.000000 0.000000 0.000000 0.038505 0.000000
# 6 0.000000 0.000000 0.000000 0.000000 0.000000 0.037514
#
#
# Mechanical properties :
#
#
# Convention : Reuss Voigt Hill
#
# Bulk Modulus (GPa) = 49.70913 62.97879 56.34396
# Shear Modulus (GPa) = 24.41527 26.34591 25.38059
#
# Velocity S-wave (km/s) = 3.59439 3.73380 3.66476
# Velocity P-wave (km/s) = 6.59776 7.20516 6.90814
#
# Compressibility (1/GPa) = 0.02011703
#
# Stress axis : x y z
#
# Youngs Moduli (GPa) = 54.23043 97.80820 41.63392
#
# Poissons Ratio (x) = 0.57235 0.26464
# Poissons Ratio (y) = 0.31734 0.16964
# Poissons Ratio (z) = 0.34471 0.39853
#
# Static dielectric constant tensor:
#      x y z
#    x 3.920250 0.000000 0.000000 
#    y 0.000000 4.074570 0.000000 
#    z 0.000000 0.000000 3.485660 
# 
# 
# High freq. dielectric constant tensor:
#      x y z
#    x 1.727350 0.000000 0.000000 
#    y 0.000000 1.736650 0.000000 
#    z 0.000000 0.000000 1.706720 
# 
# From -- ./inp_files/3934.got.cif
#   From: 2010.03.12/outbox.cif.g09.slc.cpg/sg33_2_cif.got.tgz:3934.got - 2010.04.14 01:49:19.
