data_PCOD8170356
_publ_section_title
;
Structure prediction by ZEFSAII (Michael W. Deem and Ramdas Pophale) SiO2 
 PCOD8170356
Probable space group: P M N 21
;
_chemical_formula_sum "Si O2"
_cell_formula_units_Z 24
_cell_length_a 10.072644
_cell_length_b 13.733801
_cell_length_c 8.364210
_cell_angle_alpha 90.000000
_cell_angle_beta 90.000000
_cell_angle_gamma 90.000000
_cell_volume 1157.068747
_symmetry_space_group_name_H-M "P M N 21"
_symmetry_group_IT_number 31
_symmetry_cell_setting 'orthorhombic'
loop_
_space_group_symop_operation_xyz
x,y,z
1/2-x,-y,1/2+z
-x,y,z
1/2+x,-y,1/2+z
loop_
_atom_site_type_symbol
_atom_site_label
_atom_site_fract_x
_atom_site_fract_y
_atom_site_fract_z
Si Si1 0.000000 0.588772 0.772120
Si Si2 0.000000 0.379757 0.269605
Si Si3 0.000000 0.379397 0.902872
Si Si4 0.852056 0.921112 0.274559
Si Si5 0.760205 0.709776 0.274259
Si Si6 0.147907 0.920663 0.896708
Si Si7 0.239716 0.709328 0.898339
Si Si8 0.500000 0.410796 0.900676
O O1 0.000000 0.472605 0.787951
O O2 0.129771 0.629157 0.859021
O O3 0.000000 0.617678 0.586489
O O4 0.127290 0.313757 0.303109
O O5 0.000000 0.473093 0.384172
O O6 0.000000 0.414036 0.086148
O O7 0.127265 0.313314 0.869616
O O8 0.809264 0.814775 0.335318
O O9 0.000000 0.944021 0.340788
O O10 0.750121 0.000434 0.335249
O O11 0.853375 0.922266 0.085631
O O12 0.870265 0.629811 0.314065
O O13 0.731030 0.708870 0.086292
O O14 0.190321 0.814102 0.836671
O O15 0.000000 0.943652 0.830413
#
# Coordination Sequence:
#
# PCOD8170356 Si02
#       8
#     2   2   2   4   4   4   4   2
#     4  12  24  42  67  96 127 168 215 262 318 378
#     4  12  26  42  63  96 131 168 213 264 316 378
#     4  12  26  42  63  96 131 168 213 264 316 378
#     4  10  23  43  66  94 127 166 208 258 316 374
#     4  11  23  44  67  92 129 171 213 263 318 375
#     4  10  23  43  66  94 127 166 208 258 316 374
#     4  11  23  44  67  92 129 171 213 263 318 375
#     4  12  24  42  67  96 127 168 215 262 318 378
#
# _framework density 20.742069999999998
#
# number of rings (size 3 to 8) (size 9 to 14) (size 15 to 20)
#    0.000    1.000    1.667    5.000    2.333    3.333 
#    0.000    0.000    0.000    0.000    0.000    0.000 
#    0.000    0.000    0.000    0.000    0.000    0.000 
#
# Total GULP energy -297765.618219 kJ/mol
# GULP energy per Si atom -12406.900759 kJ/mol
# Density = 2.069486 g / cm^3
# Si number density = 20.742070 Si / 1000 Ang^3
#
#
#
# Elastic Constant Matrix: (Units=GPa)
#
#
# Indices 1 2 3 4 5 6 
#
# 1 192.0951 73.5589 19.0327 0.0000 0.0000 0.0000
# 2 73.5589 131.3002 16.8824 0.0000 0.0000 0.0000
# 3 19.0327 16.8824 56.7463 0.0000 0.0000 0.0000
# 4 0.0000 0.0000 0.0000 35.8372 0.0000 0.0000
# 5 0.0000 0.0000 0.0000 0.0000 41.6854 0.0000
# 6 0.0000 0.0000 0.0000 0.0000 0.0000 44.0834
#
#
#
# Elastic Compliance Matrix: (Units=1/GPa)
#
#
# Indices 1 2 3 4 5 6 
#
# 1 0.006702 -0.003604 -0.001176 0.000000 0.000000 0.000000
# 2 -0.003604 0.009857 -0.001724 0.000000 0.000000 0.000000
# 3 -0.001176 -0.001724 0.018529 0.000000 0.000000 0.000000
# 4 0.000000 0.000000 0.000000 0.027904 0.000000 0.000000
# 5 0.000000 0.000000 0.000000 0.000000 0.023989 0.000000
# 6 0.000000 0.000000 0.000000 0.000000 0.000000 0.022684
#
#
# Mechanical properties :
#
#
# Convention : Reuss Voigt Hill
#
# Bulk Modulus (GPa) = 45.28588 66.56550 55.92569
# Shear Modulus (GPa) = 38.45185 42.36572 40.40878
#
# Velocity S-wave (km/s) = 4.31026 4.52431 4.41858
# Velocity P-wave (km/s) = 6.83018 7.71065 7.28373
#
# Compressibility (1/GPa) = 0.02208194
#
# Stress axis : x y z
#
# Youngs Moduli (GPa) = 149.20519 101.45448 53.96803
#
# Poissons Ratio (x) = 0.36560 0.06346
# Poissons Ratio (y) = 0.53768 0.09303
# Poissons Ratio (z) = 0.17544 0.17488
#
# Static dielectric constant tensor:
#      x y z
#    x 3.848720 0.000000 0.000000 
#    y 0.000000 3.313680 0.000000 
#    z 0.000000 0.000000 3.676680 
# 
# 
# High freq. dielectric constant tensor:
#      x y z
#    x 1.831350 0.000000 0.000000 
#    y 0.000000 1.819320 0.000000 
#    z 0.000000 0.000000 1.810940 
# 
# From -- ./inp_files/1748.got.cif
#   From: 2010.03.12/outbox.cif.g09.slc.cpg/sg31_1_cif.got.tgz:1748.got - 2010.04.14 01:42:59.
