data_PCOD8170793
_publ_section_title
;
Structure prediction by ZEFSAII (Michael W. Deem and Ramdas Pophale) SiO2 
 PCOD8170793
Probable space group: P N A 21
;
_chemical_formula_sum "Si O2"
_cell_formula_units_Z 20
_cell_length_a 8.541239
_cell_length_b 15.205100
_cell_length_c 7.451905
_cell_angle_alpha 90.000000
_cell_angle_beta 90.000000
_cell_angle_gamma 90.000000
_cell_volume 967.781832
_symmetry_space_group_name_H-M "P N A 21"
_symmetry_group_IT_number 33
_symmetry_cell_setting 'orthorhombic'
loop_
_space_group_symop_operation_xyz
x,y,z
-x,-y,1/2+z
1/2-x,1/2+y,1/2+z
1/2+x,1/2-y,z
loop_
_atom_site_type_symbol
_atom_site_label
_atom_site_fract_x
_atom_site_fract_y
_atom_site_fract_z
Si Si1 0.632340 0.402336 0.426070
Si Si2 0.495537 0.131052 0.998215
Si Si3 0.949276 0.936066 0.299092
Si Si4 0.377774 0.038853 0.672404
Si Si5 0.154754 0.196609 0.080634
O O1 0.523453 0.389269 0.603774
O O2 0.585337 0.493433 0.328453
O O3 0.814338 0.412301 0.491516
O O4 0.611134 0.321723 0.289134
O O5 0.335331 0.176195 0.055267
O O6 0.632212 0.201820 0.029322
O O7 0.526943 0.048050 0.125147
O O8 0.490517 0.102391 0.788870
O O9 0.777034 0.983197 0.294186
O O10 0.955536 0.863446 0.454929
#
# Coordination Sequence:
#
# PCOD8170793 Si02
#       5
#     4   4   4   4   4
#     4  10  19  40  67  97 129 175 217 269 337 398
#     4  11  24  44  66 100 132 178 221 281 328 400
#     4   9  20  37  67  95 128 173 216 267 336 398
#     4   9  22  42  64  93 137 181 214 263 352 399
#     4  11  23  41  64  97 134 165 232 276 323 393
#
# _framework density 20.665813
#
# number of rings (size 3 to 8) (size 9 to 14) (size 15 to 20)
#    1.200    0.800    2.000    1.200    5.600    0.000 
#    7.200    0.000    0.000    0.000    0.000    0.000 
#    0.000    0.000    0.000    0.000    0.000    0.000 
#
# Total GULP energy -247840.388510 kJ/mol
# GULP energy per Si atom -12392.019425 kJ/mol
# Density = 2.061878 g / cm^3
# Si number density = 20.665813 Si / 1000 Ang^3
#
#
#
# Elastic Constant Matrix: (Units=GPa)
#
#
# Indices 1 2 3 4 5 6 
#
# 1 48.7226 42.4135 43.1287 0.0000 0.0000 0.0000
# 2 42.4135 110.3031 72.3488 0.0000 0.0000 0.0000
# 3 43.1287 72.3488 156.8164 0.0000 0.0000 0.0000
# 4 0.0000 0.0000 0.0000 31.4902 0.0000 0.0000
# 5 0.0000 0.0000 0.0000 0.0000 29.8989 0.0000
# 6 0.0000 0.0000 0.0000 0.0000 0.0000 29.8524
#
#
#
# Elastic Compliance Matrix: (Units=1/GPa)
#
#
# Indices 1 2 3 4 5 6 
#
# 1 0.033035 -0.009669 -0.004624 0.000000 0.000000 0.000000
# 2 -0.009669 0.015830 -0.004644 0.000000 0.000000 0.000000
# 3 -0.004624 -0.004644 0.009791 0.000000 0.000000 0.000000
# 4 0.000000 0.000000 0.000000 0.031756 0.000000 0.000000
# 5 0.000000 0.000000 0.000000 0.000000 0.033446 0.000000
# 6 0.000000 0.000000 0.000000 0.000000 0.000000 0.033498
#
#
# Mechanical properties :
#
#
# Convention : Reuss Voigt Hill
#
# Bulk Modulus (GPa) = 48.12139 70.18047 59.15093
# Shear Modulus (GPa) = 24.73298 28.77839 26.75568
#
# Velocity S-wave (km/s) = 3.46324 3.73575 3.60207
# Velocity P-wave (km/s) = 6.27121 7.25543 6.78120
#
# Compressibility (1/GPa) = 0.02078078
#
# Stress axis : x y z
#
# Youngs Moduli (GPa) = 30.27072 63.17112 102.13151
#
# Poissons Ratio (x) = 0.61083 0.47231
# Poissons Ratio (y) = 0.29270 0.47430
# Poissons Ratio (z) = 0.13999 0.29337
#
# Static dielectric constant tensor:
#      x y z
#    x 3.477530 0.000000 0.000000 
#    y 0.000000 3.423290 0.000000 
#    z 0.000000 0.000000 3.954350 
# 
# 
# High freq. dielectric constant tensor:
#      x y z
#    x 1.790890 0.000000 0.000000 
#    y 0.000000 1.777620 0.000000 
#    z 0.000000 0.000000 1.821050 
# 
# From -- ./inp_files/3015.got.cif
#   From: 2010.03.12/outbox.cif.g09.slc.cpg/sg33_2_cif.got.tgz:3015.got - 2010.04.14 01:49:19.
