data_PCOD8170330
_publ_section_title
;
Structure prediction by ZEFSAII (Michael W. Deem and Ramdas Pophale) SiO2 
 PCOD8170330
Probable space group: P M N 21
;
_chemical_formula_sum "Si O2"
_cell_formula_units_Z 32
_cell_length_a 29.647411
_cell_length_b 8.878104
_cell_length_c 5.145210
_cell_angle_alpha 90.000000
_cell_angle_beta 90.000000
_cell_angle_gamma 90.000000
_cell_volume 1354.285121
_symmetry_space_group_name_H-M "P M N 21"
_symmetry_group_IT_number 31
_symmetry_cell_setting 'orthorhombic'
loop_
_space_group_symop_operation_xyz
x,y,z
1/2-x,-y,1/2+z
-x,y,z
1/2+x,-y,1/2+z
loop_
_atom_site_type_symbol
_atom_site_label
_atom_site_fract_x
_atom_site_fract_y
_atom_site_fract_z
Si Si1 0.086184 0.643713 0.646480
Si Si2 0.672553 0.301522 0.432399
Si Si3 0.728913 0.551341 0.440523
Si Si4 0.448850 0.200394 0.648649
Si Si5 0.674327 0.034279 0.775829
Si Si6 0.257199 0.153916 0.130911
Si Si7 0.446638 0.693632 0.236105
Si Si8 0.584669 0.868633 0.733833
O O1 0.139075 0.671343 0.693277
O O2 0.079171 0.701572 0.354835
O O3 0.072367 0.470212 0.669849
O O4 0.059020 0.742056 0.856596
O O5 0.682737 0.469648 0.550674
O O6 0.651491 0.176023 0.625149
O O7 0.724726 0.245184 0.380791
O O8 0.768038 0.498531 0.639583
O O9 0.729869 0.732639 0.441253
O O10 0.500000 0.229700 0.724657
O O11 0.439648 0.023401 0.663950
O O12 0.692480 0.093196 0.050959
O O13 0.722433 0.981911 0.656971
O O14 0.637907 0.900538 0.791443
O O15 0.500000 0.686500 0.290296
O O16 0.421432 0.754791 0.493336
O O17 0.437061 0.802103 0.993612
#
# Coordination Sequence:
#
# PCOD8170330 Si02
#       8
#     4   4   4   4   4   4   4   4
#     4  12  27  46  76 109 146 188 240 309 358 439
#     4  11  24  45  67 101 142 181 241 295 350 421
#     4  10  22  41  65  92 129 181 230 275 336 401
#     4  12  24  46  76 108 139 186 238 299 374 441
#     4  12  24  44  70 101 145 185 246 289 369 418
#     4  11  24  43  69  98 141 196 229 296 348 430
#     4  12  27  52  75 107 149 197 242 302 381 451
#     4  12  28  47  76 110 150 190 247 309 362 445
#
# _framework density 23.628705
#
# number of rings (size 3 to 8) (size 9 to 14) (size 15 to 20)
#    0.000    0.500    3.750    4.500    3.500    0.000 
#    9.000    0.000    0.000    0.000    0.000    0.000 
#    0.000    0.000    0.000    0.000    0.000    0.000 
#
# Total GULP energy -396433.993432 kJ/mol
# GULP energy per Si atom -12388.562295 kJ/mol
# Density = 2.357493 g / cm^3
# Si number density = 23.628705 Si / 1000 Ang^3
#
#
#
# Elastic Constant Matrix: (Units=GPa)
#
#
# Indices 1 2 3 4 5 6 
#
# 1 98.0525 37.4418 4.0011 0.0000 0.0000 0.0000
# 2 37.4418 105.3365 15.1854 0.0000 0.0000 0.0000
# 3 4.0011 15.1854 70.6909 0.0000 0.0000 0.0000
# 4 0.0000 0.0000 0.0000 35.8170 0.0000 0.0000
# 5 0.0000 0.0000 0.0000 0.0000 41.4676 0.0000
# 6 0.0000 0.0000 0.0000 0.0000 0.0000 41.5992
#
#
#
# Elastic Compliance Matrix: (Units=1/GPa)
#
#
# Indices 1 2 3 4 5 6 
#
# 1 0.011804 -0.004230 0.000241 0.000000 0.000000 0.000000
# 2 -0.004230 0.011313 -0.002191 0.000000 0.000000 0.000000
# 3 0.000241 -0.002191 0.014603 0.000000 0.000000 0.000000
# 4 0.000000 0.000000 0.000000 0.027920 0.000000 0.000000
# 5 0.000000 0.000000 0.000000 0.000000 0.024115 0.000000
# 6 0.000000 0.000000 0.000000 0.000000 0.000000 0.024039
#
#
# Mechanical properties :
#
#
# Convention : Reuss Voigt Hill
#
# Bulk Modulus (GPa) = 39.43361 43.03738 41.23550
# Shear Modulus (GPa) = 37.14481 38.27352 37.70917
#
# Velocity S-wave (km/s) = 3.96917 4.02903 3.99921
# Velocity P-wave (km/s) = 6.14255 6.31646 6.23011
#
# Compressibility (1/GPa) = 0.02535908
#
# Stress axis : x y z
#
# Youngs Moduli (GPa) = 84.71541 88.39440 68.47872
#
# Poissons Ratio (x) = 0.37395 -0.01648
# Poissons Ratio (y) = 0.35839 0.15002
# Poissons Ratio (z) = -0.02039 0.19365
#
# Static dielectric constant tensor:
#      x y z
#    x 4.291890 0.000000 0.000000 
#    y 0.000000 4.676270 0.000000 
#    z 0.000000 0.000000 4.164830 
# 
# 
# High freq. dielectric constant tensor:
#      x y z
#    x 1.936560 0.000000 0.000000 
#    y 0.000000 1.958140 0.000000 
#    z 0.000000 0.000000 1.931910 
# 
# From -- ./inp_files/1373.got.cif
#   From: 2010.03.12/outbox.cif.g09.slc.cpg/sg31_1_cif.got.tgz:1373.got - 2010.04.14 01:42:59.
