data_PCOD8170154
_publ_section_title
;
Structure prediction by ZEFSAII (Michael W. Deem and Ramdas Pophale) SiO2 
 PCOD8170154
Probable space group: P M N 21
;
_chemical_formula_sum "Si O2"
_cell_formula_units_Z 32
_cell_length_a 8.986492
_cell_length_b 14.477978
_cell_length_c 12.622723
_cell_angle_alpha 90.000000
_cell_angle_beta 90.000000
_cell_angle_gamma 90.000000
_cell_volume 1642.294946
_symmetry_space_group_name_H-M "P M N 21"
_symmetry_group_IT_number 31
_symmetry_cell_setting 'orthorhombic'
loop_
_space_group_symop_operation_xyz
x,y,z
1/2-x,-y,1/2+z
-x,y,z
1/2+x,-y,1/2+z
loop_
_atom_site_type_symbol
_atom_site_label
_atom_site_fract_x
_atom_site_fract_y
_atom_site_fract_z
Si Si1 0.677011 0.131847 0.000000
Si Si2 0.824887 0.439306 0.730963
Si Si3 0.822394 0.946202 0.939022
Si Si4 0.176477 0.828749 0.736740
Si Si5 0.322663 0.366457 0.308248
Si Si6 0.676302 0.752130 0.331931
Si Si7 0.335546 0.168003 0.640569
Si Si8 0.336431 0.367010 0.542622
O O1 0.500000 0.131901 0.990750
O O2 0.728616 0.131254 0.123221
O O3 0.742232 0.222695 0.941832
O O4 0.745612 0.045437 0.937838
O O5 0.755346 0.536674 0.767662
O O6 0.771275 0.352151 0.802176
O O7 0.773420 0.429546 0.610550
O O8 0.000000 0.442890 0.734248
O O9 0.764216 0.890984 0.834822
O O10 0.000000 0.955959 0.936033
O O11 0.770242 0.897693 0.048441
O O12 0.237815 0.723366 0.745396
O O13 0.000000 0.826837 0.743906
O O14 0.500000 0.367859 0.302327
O O15 0.265499 0.356981 0.427579
O O16 0.500000 0.759284 0.345398
O O17 0.725195 0.825686 0.240845
O O18 0.500000 0.133998 0.677896
O O19 0.353171 0.267126 0.590363
O O20 0.500000 0.414245 0.537927
#
# Coordination Sequence:
#
# PCOD8170154 Si02
#       8
#     4   4   4   4   4   4   4   4
#     4  11  24  38  55  83 115 149 189 230 276 336
#     4   9  19  33  53  81 111 145 186 228 276 329
#     4  10  20  37  60  84 109 141 181 229 284 337
#     4   9  19  37  59  83 111 143 183 228 280 337
#     4   9  16  32  57  81 107 144 185 226 275 334
#     4  10  21  37  54  77 114 153 186 225 279 330
#     4   9  17  32  57  83 105 135 183 235 277 327
#     4   9  16  30  53  78 104 138 183 229 271 324
#
# _framework density 19.484928
#
# number of rings (size 3 to 8) (size 9 to 14) (size 15 to 20)
#    0.000    2.500    1.250    0.750    1.750    2.000 
#    0.000    1.250    0.000    3.000    0.000    0.000 
#    0.000    0.000    0.000    0.000    0.000    0.000 
#
# Total GULP energy -396625.336622 kJ/mol
# GULP energy per Si atom -12394.541769 kJ/mol
# Density = 1.944058 g / cm^3
# Si number density = 19.484928 Si / 1000 Ang^3
#
#
#
# Elastic Constant Matrix: (Units=GPa)
#
#
# Indices 1 2 3 4 5 6 
#
# 1 28.9536 28.8654 22.5203 0.0000 0.0000 0.0000
# 2 28.8654 109.1734 58.9793 0.0000 0.0000 0.0000
# 3 22.5203 58.9793 111.8323 0.0000 0.0000 0.0000
# 4 0.0000 0.0000 0.0000 18.8763 0.0000 0.0000
# 5 0.0000 0.0000 0.0000 0.0000 23.1972 0.0000
# 6 0.0000 0.0000 0.0000 0.0000 0.0000 22.3530
#
#
#
# Elastic Compliance Matrix: (Units=1/GPa)
#
#
# Indices 1 2 3 4 5 6 
#
# 1 0.048258 -0.010501 -0.004180 0.000000 0.000000 0.000000
# 2 -0.010501 0.015095 -0.005846 0.000000 0.000000 0.000000
# 3 -0.004180 -0.005846 0.012867 0.000000 0.000000 0.000000
# 4 0.000000 0.000000 0.000000 0.052976 0.000000 0.000000
# 5 0.000000 0.000000 0.000000 0.000000 0.043109 0.000000
# 6 0.000000 0.000000 0.000000 0.000000 0.000000 0.044737
#
#
# Mechanical properties :
#
#
# Convention : Reuss Voigt Hill
#
# Bulk Modulus (GPa) = 28.43702 52.29882 40.36792
# Shear Modulus (GPa) = 18.53103 22.19159 20.36131
#
# Velocity S-wave (km/s) = 3.08725 3.37844 3.23612
# Velocity P-wave (km/s) = 5.22821 6.48979 5.89286
#
# Compressibility (1/GPa) = 0.03516543
#
# Stress axis : x y z
#
# Youngs Moduli (GPa) = 20.72177 66.24913 77.71965
#
# Poissons Ratio (x) = 0.69571 0.32484
# Poissons Ratio (y) = 0.21761 0.45435
# Poissons Ratio (z) = 0.08661 0.38729
#
# Static dielectric constant tensor:
#      x y z
#    x 3.279740 0.000000 0.000000 
#    y 0.000000 3.729440 0.000000 
#    z 0.000000 0.000000 3.832410 
# 
# 
# High freq. dielectric constant tensor:
#      x y z
#    x 1.723390 0.000000 0.000000 
#    y 0.000000 1.758950 0.000000 
#    z 0.000000 0.000000 1.765080 
# 
# From -- ./inp_files/3690.got.cif
#   From: 2010.03.12/outbox.cif.g09.slc.cpg/sg31_2_cif.got.tgz:3690.got - 2010.04.14 01:42:59.
