data_PCOD8170417
_publ_section_title
;
Structure prediction by ZEFSAII (Michael W. Deem and Ramdas Pophale) SiO2 
 PCOD8170417
Probable space group: P B A 2
;
_chemical_formula_sum "Si O2"
_cell_formula_units_Z 30
_cell_length_a 11.746778
_cell_length_b 14.885025
_cell_length_c 8.800931
_cell_angle_alpha 90.000000
_cell_angle_beta 90.000000
_cell_angle_gamma 90.000000
_cell_volume 1538.852327
_symmetry_space_group_name_H-M "P B A 2"
_symmetry_group_IT_number 32
_symmetry_cell_setting 'orthorhombic'
loop_
_space_group_symop_operation_xyz
x,y,z
-x,-y,z
1/2-x,1/2+y,z
1/2+x,1/2-y,z
loop_
_atom_site_type_symbol
_atom_site_label
_atom_site_fract_x
_atom_site_fract_y
_atom_site_fract_z
Si Si1 0.477863 0.284242 0.101510
Si Si2 0.633823 0.131277 0.121560
Si Si3 0.892324 0.951268 0.173162
Si Si4 0.829966 0.091330 0.923619
Si Si5 0.284235 0.091648 0.426014
Si Si6 0.310175 0.293582 0.362527
Si Si7 0.500000 0.000000 0.322015
Si Si8 0.372455 0.460889 0.581559
O O1 0.529551 0.189162 0.056554
O O2 0.582911 0.352002 0.117028
O O3 0.422991 0.273930 0.267308
O O4 0.391645 0.315620 0.970850
O O5 0.712011 0.183112 0.243060
O O6 0.586572 0.048363 0.212109
O O7 0.697809 0.101322 0.967770
O O8 0.780644 0.947226 0.276571
O O9 0.000000 0.000000 0.261476
O O10 0.877274 0.010616 0.023992
O O11 0.854025 0.074883 0.749833
O O12 0.275902 0.199961 0.446783
O O13 0.418167 0.063619 0.424741
O O14 0.217274 0.042919 0.562949
O O15 0.338958 0.376370 0.474367
O O16 0.500000 0.500000 0.558535
#
# Coordination Sequence:
#
# PCOD8170417 Si02
#       8
#     4   4   4   4   4   4   2   4
#     4  10  19  36  64  93 118 155 216 277 309 364
#     4  11  21  39  65  90 130 160 218 280 322 384
#     4  10  18  36  66  91 115 162 218 267 308 366
#     4  10  23  42  60  96 129 169 216 256 332 400
#     4  12  22  39  66  95 130 167 215 277 327 391
#     4  11  23  38  63 102 122 166 226 268 328 378
#     4  12  22  38  62  96 128 164 208 274 336 380
#     4  12  25  45  65  94 138 179 215 267 326 400
#
# _framework density 19.495049000000002
#
# number of rings (size 3 to 8) (size 9 to 14) (size 15 to 20)
#    0.000    1.067    5.333    4.000    0.000    0.000 
#    4.800    0.667    0.000    0.000    0.000    0.000 
#    0.000    0.000    0.000    0.000    0.000    0.000 
#
# Total GULP energy -371750.475665 kJ/mol
# GULP energy per Si atom -12391.682522 kJ/mol
# Density = 1.945068 g / cm^3
# Si number density = 19.495049 Si / 1000 Ang^3
#
#
#
# Elastic Constant Matrix: (Units=GPa)
#
#
# Indices 1 2 3 4 5 6 
#
# 1 85.0105 35.7794 26.4828 0.0000 0.0000 0.0000
# 2 35.7794 110.8775 28.9816 0.0000 0.0000 0.0000
# 3 26.4828 28.9816 91.6446 0.0000 0.0000 0.0000
# 4 0.0000 0.0000 0.0000 17.1375 0.0000 0.0000
# 5 0.0000 0.0000 0.0000 0.0000 22.3799 0.0000
# 6 0.0000 0.0000 0.0000 0.0000 0.0000 41.8435
#
#
#
# Elastic Compliance Matrix: (Units=1/GPa)
#
#
# Indices 1 2 3 4 5 6 
#
# 1 0.014291 -0.003850 -0.002912 0.000000 0.000000 0.000000
# 2 -0.003850 0.010869 -0.002325 0.000000 0.000000 0.000000
# 3 -0.002912 -0.002325 0.012488 0.000000 0.000000 0.000000
# 4 0.000000 0.000000 0.000000 0.058352 0.000000 0.000000
# 5 0.000000 0.000000 0.000000 0.000000 0.044683 0.000000
# 6 0.000000 0.000000 0.000000 0.000000 0.000000 0.023899
#
#
# Mechanical properties :
#
#
# Convention : Reuss Voigt Hill
#
# Bulk Modulus (GPa) = 51.34966 52.22446 51.78706
# Shear Modulus (GPa) = 26.42049 29.35811 27.88930
#
# Velocity S-wave (km/s) = 3.68535 3.88484 3.78641
# Velocity P-wave (km/s) = 6.67129 6.85342 6.76297
#
# Compressibility (1/GPa) = 0.01947432
#
# Stress axis : x y z
#
# Youngs Moduli (GPa) = 69.97407 92.00421 80.07474
#
# Poissons Ratio (x) = 0.35426 0.23318
# Poissons Ratio (y) = 0.26943 0.18614
# Poissons Ratio (z) = 0.20377 0.21387
#
# Static dielectric constant tensor:
#      x y z
#    x 4.897030 0.000000 0.000000 
#    y 0.000000 3.754330 0.000000 
#    z 0.000000 0.000000 3.219940 
# 
# 
# High freq. dielectric constant tensor:
#      x y z
#    x 1.773760 0.000000 0.000000 
#    y 0.000000 1.771840 0.000000 
#    z 0.000000 0.000000 1.720130 
# 
# From -- ./inp_files/2827.got.cif
#   From: 2010.03.12/outbox.cif.g09.slc.cpg/sg32_2_cif.got.tgz:2827.got - 2010.04.14 01:46:39.
