data_PCOD8170039
_publ_section_title
;
Structure prediction by ZEFSAII (Michael W. Deem and Ramdas Pophale) SiO2 
 PCOD8170039
Probable space group: P M N 21
;
_chemical_formula_sum "Si O2"
_cell_formula_units_Z 32
_cell_length_a 8.981414
_cell_length_b 12.303576
_cell_length_c 15.206866
_cell_angle_alpha 90.000000
_cell_angle_beta 90.000000
_cell_angle_gamma 90.000000
_cell_volume 1680.412065
_symmetry_space_group_name_H-M "P M N 21"
_symmetry_group_IT_number 31
_symmetry_cell_setting 'orthorhombic'
loop_
_space_group_symop_operation_xyz
x,y,z
1/2-x,-y,1/2+z
-x,y,z
1/2+x,-y,1/2+z
loop_
_atom_site_type_symbol
_atom_site_label
_atom_site_fract_x
_atom_site_fract_y
_atom_site_fract_z
Si Si1 0.323642 0.773991 0.402390
Si Si2 0.829701 0.763750 0.705206
Si Si3 0.171670 0.989243 0.397750
Si Si4 0.822980 0.625975 0.542434
Si Si5 0.177310 0.378065 0.547790
Si Si6 0.324823 0.770463 0.891224
Si Si7 0.829588 0.235119 0.702575
Si Si8 0.832251 0.001344 0.722103
O O1 0.500000 0.769341 0.410079
O O2 0.252336 0.677072 0.457207
O O3 0.265067 0.758603 0.301837
O O4 0.268574 0.891447 0.439663
O O5 0.762918 0.686019 0.630047
O O6 0.748457 0.746789 0.797340
O O7 0.814742 0.888511 0.668966
O O8 0.000000 0.732334 0.721796
O O9 0.213982 0.110236 0.432229
O O10 0.204022 0.995599 0.294317
O O11 0.000000 0.961728 0.415444
O O12 0.769083 0.501863 0.547858
O O13 0.000000 0.636778 0.533501
O O14 0.235943 0.318665 0.459902
O O15 0.247447 0.317955 0.633900
O O16 0.000000 0.368949 0.550008
O O17 0.500000 0.761361 0.876145
O O18 0.000000 0.269839 0.709174
O O19 0.813171 0.111075 0.664240
O O20 0.000000 0.005057 0.765058
#
# Coordination Sequence:
#
# PCOD8170039 Si02
#       8
#     4   4   4   4   4   4   4   4
#     4  10  20  34  53  76 103 135 168 208 258 304
#     4   9  18  32  51  74 101 133 168 211 259 305
#     4   9  16  28  49  77 105 130 163 204 249 306
#     4  10  21  35  51  73 100 134 176 215 251 296
#     4   9  18  33  51  73 101 132 172 215 250 295
#     4   9  18  32  53  78 103 135 169 206 254 303
#     4   8  15  29  50  72  94 125 163 202 247 300
#     4   8  14  27  48  73  99 128 165 205 250 303
#
# _framework density 19.042947999999999
#
# number of rings (size 3 to 8) (size 9 to 14) (size 15 to 20)
#    0.000    3.000    0.000    1.500    0.000    3.000 
#    0.000    5.625    0.000    7.500    0.000    0.000 
#    0.000    0.000    0.000    0.000    0.000    0.000 
#
# Total GULP energy -396468.978608 kJ/mol
# GULP energy per Si atom -12389.655582 kJ/mol
# Density = 1.899961 g / cm^3
# Si number density = 19.042948 Si / 1000 Ang^3
#
#
#
# Elastic Constant Matrix: (Units=GPa)
#
#
# Indices 1 2 3 4 5 6 
#
# 1 33.3402 35.2172 25.6902 0.0000 0.0000 0.0000
# 2 35.2172 184.0383 88.3234 0.0000 0.0000 0.0000
# 3 25.6902 88.3234 112.3420 0.0000 0.0000 0.0000
# 4 0.0000 0.0000 0.0000 37.1751 0.0000 0.0000
# 5 0.0000 0.0000 0.0000 0.0000 20.6668 0.0000
# 6 0.0000 0.0000 0.0000 0.0000 0.0000 20.1206
#
#
#
# Elastic Compliance Matrix: (Units=1/GPa)
#
#
# Indices 1 2 3 4 5 6 
#
# 1 0.039220 -0.005140 -0.004928 0.000000 0.000000 0.000000
# 2 -0.005140 0.009400 -0.006215 0.000000 0.000000 0.000000
# 3 -0.004928 -0.006215 0.014914 0.000000 0.000000 0.000000
# 4 0.000000 0.000000 0.000000 0.026900 0.000000 0.000000
# 5 0.000000 0.000000 0.000000 0.000000 0.048387 0.000000
# 6 0.000000 0.000000 0.000000 0.000000 0.000000 0.049700
#
#
# Mechanical properties :
#
#
# Convention : Reuss Voigt Hill
#
# Bulk Modulus (GPa) = 32.28996 69.79802 51.04399
# Shear Modulus (GPa) = 21.60673 27.62517 24.61595
#
# Velocity S-wave (km/s) = 3.37208 3.81291 3.59925
# Velocity P-wave (km/s) = 5.67049 7.49112 6.64347
#
# Compressibility (1/GPa) = 0.03096938
#
# Stress axis : x y z
#
# Youngs Moduli (GPa) = 25.49691 106.38487 67.05021
#
# Poissons Ratio (x) = 0.54685 0.33039
# Poissons Ratio (y) = 0.13106 0.41670
# Poissons Ratio (z) = 0.12564 0.66115
#
# Static dielectric constant tensor:
#      x y z
#    x 3.181770 0.000000 0.000000 
#    y 0.000000 3.854840 0.000000 
#    z 0.000000 0.000000 3.371590 
# 
# 
# High freq. dielectric constant tensor:
#      x y z
#    x 1.706620 0.000000 0.000000 
#    y 0.000000 1.752560 0.000000 
#    z 0.000000 0.000000 1.720640 
# 
# From -- ./inp_files/5034.got.cif
#   From: 2010.03.12/outbox.cif.g09.slc.cpg/sg31_3_cif.got.tgz:5034.got - 2010.04.14 01:42:59.
