data_PCOD8170696
_publ_section_title
;
Structure prediction by ZEFSAII (Michael W. Deem and Ramdas Pophale) SiO2 
 PCOD8170696
Probable space group: P N A 21
;
_chemical_formula_sum "Si O2"
_cell_formula_units_Z 28
_cell_length_a 18.929256
_cell_length_b 9.075403
_cell_length_c 9.842089
_cell_angle_alpha 90.000000
_cell_angle_beta 90.000000
_cell_angle_gamma 90.000000
_cell_volume 1690.778637
_symmetry_space_group_name_H-M "P N A 21"
_symmetry_group_IT_number 33
_symmetry_cell_setting 'orthorhombic'
loop_
_space_group_symop_operation_xyz
x,y,z
-x,-y,1/2+z
1/2-x,1/2+y,1/2+z
1/2+x,1/2-y,z
loop_
_atom_site_type_symbol
_atom_site_label
_atom_site_fract_x
_atom_site_fract_y
_atom_site_fract_z
Si Si1 0.331155 0.778778 0.771790
Si Si2 0.624527 0.797364 0.671680
Si Si3 0.948528 0.562839 0.086858
Si Si4 0.313956 0.775588 0.084068
Si Si5 0.255198 0.009591 0.276485
Si Si6 0.227051 0.945174 0.579732
Si Si7 0.988663 0.631480 0.795286
O O1 0.313811 0.607499 0.739624
O O2 0.291800 0.890721 0.671388
O O3 0.414719 0.796541 0.753750
O O4 0.305553 0.812226 0.924859
O O5 0.679153 0.876406 0.774756
O O6 0.657562 0.655063 0.601100
O O7 0.553166 0.757047 0.757130
O O8 0.602157 0.919354 0.557634
O O9 0.896029 0.697385 0.126567
O O10 0.000431 0.522964 0.212487
O O11 0.994110 0.598635 0.954710
O O12 0.293765 0.609703 0.121592
O O13 0.261021 0.881270 0.165770
O O14 0.250407 0.934695 0.423648
#
# Coordination Sequence:
#
# PCOD8170696 Si02
#       7
#     4   4   4   4   4   4   4
#     4   9  19  32  51  77 100 133 170 213 256 306
#     4   8  18  32  51  74 103 132 171 214 255 304
#     4   8  17  31  53  70  99 134 172 206 251 308
#     4   9  18  34  51  74 102 131 167 214 255 307
#     4   9  18  32  52  75 100 132 172 210 254 313
#     4  10  19  32  56  74 104 134 172 213 265 299
#     4   9  17  31  54  72 102 134 174 208 258 307
#
# _framework density 16.560417000000001
#
# number of rings (size 3 to 8) (size 9 to 14) (size 15 to 20)
#    0.857    2.286    0.000    0.000    2.000    4.571 
#    0.000    0.000   12.571    1.714    0.000    0.000 
#    0.000    0.000    0.000    0.000    0.000    0.000 
#
# Total GULP energy -346916.341263 kJ/mol
# GULP energy per Si atom -12389.869331 kJ/mol
# Density = 1.652273 g / cm^3
# Si number density = 16.560417 Si / 1000 Ang^3
#
#
#
# Elastic Constant Matrix: (Units=GPa)
#
#
# Indices 1 2 3 4 5 6 
#
# 1 83.7896 32.6763 34.0960 0.0000 0.0000 0.0000
# 2 32.6763 85.4418 39.1031 0.0000 0.0000 0.0000
# 3 34.0960 39.1031 76.2460 0.0000 0.0000 0.0000
# 4 0.0000 0.0000 0.0000 25.9074 0.0000 0.0000
# 5 0.0000 0.0000 0.0000 0.0000 28.3658 0.0000
# 6 0.0000 0.0000 0.0000 0.0000 0.0000 27.9244
#
#
#
# Elastic Compliance Matrix: (Units=1/GPa)
#
#
# Indices 1 2 3 4 5 6 
#
# 1 0.015381 -0.003573 -0.005046 0.000000 0.000000 0.000000
# 2 -0.003573 0.016123 -0.006671 0.000000 0.000000 0.000000
# 3 -0.005046 -0.006671 0.018793 0.000000 0.000000 0.000000
# 4 0.000000 0.000000 0.000000 0.038599 0.000000 0.000000
# 5 0.000000 0.000000 0.000000 0.000000 0.035254 0.000000
# 6 0.000000 0.000000 0.000000 0.000000 0.000000 0.035811
#
#
# Mechanical properties :
#
#
# Convention : Reuss Voigt Hill
#
# Bulk Modulus (GPa) = 50.71557 50.80314 50.75936
# Shear Modulus (GPa) = 25.36596 25.74631 25.55614
#
# Velocity S-wave (km/s) = 3.91797 3.94723 3.93263
# Velocity P-wave (km/s) = 7.15251 7.17762 7.16508
#
# Compressibility (1/GPa) = 0.01971781
#
# Stress axis : x y z
#
# Youngs Moduli (GPa) = 65.01365 62.02130 53.21090
#
# Poissons Ratio (x) = 0.22162 0.26849
# Poissons Ratio (y) = 0.23231 0.35498
# Poissons Ratio (z) = 0.32804 0.41375
#
# Static dielectric constant tensor:
#      x y z
#    x 3.156750 0.000000 0.000000 
#    y 0.000000 3.020320 0.000000 
#    z 0.000000 0.000000 3.007520 
# 
# 
# High freq. dielectric constant tensor:
#      x y z
#    x 1.636590 0.000000 0.000000 
#    y 0.000000 1.622460 0.000000 
#    z 0.000000 0.000000 1.631450 
# 
# From -- ./inp_files/4937.got.cif
#   From: 2010.03.12/outbox.cif.g09.slc.cpg/sg33_3_cif.got.tgz:4937.got - 2010.04.14 01:49:19.
