data_PCOD8170870
_publ_section_title
;
Structure prediction by ZEFSAII (Michael W. Deem and Ramdas Pophale) SiO2 
 PCOD8170870
Probable space group: P N A 21
;
_chemical_formula_sum "Si O2"
_cell_formula_units_Z 32
_cell_length_a 19.116625
_cell_length_b 7.118674
_cell_length_c 12.347197
_cell_angle_alpha 90.000000
_cell_angle_beta 90.000000
_cell_angle_gamma 90.000000
_cell_volume 1680.268567
_symmetry_space_group_name_H-M "P N A 21"
_symmetry_group_IT_number 33
_symmetry_cell_setting 'orthorhombic'
loop_
_space_group_symop_operation_xyz
x,y,z
-x,-y,1/2+z
1/2-x,1/2+y,1/2+z
1/2+x,1/2-y,z
loop_
_atom_site_type_symbol
_atom_site_label
_atom_site_fract_x
_atom_site_fract_y
_atom_site_fract_z
Si Si1 0.016773 0.789503 0.416260
Si Si2 0.042074 0.811270 0.979373
Si Si3 0.912080 0.501868 0.319269
Si Si4 0.265224 0.037615 0.421379
Si Si5 0.334570 0.266516 0.826072
Si Si6 0.695536 0.096781 0.436819
Si Si7 0.688364 0.683924 0.081051
Si Si8 0.438921 0.969454 0.070234
O O1 0.082793 0.800001 0.335381
O O2 0.037684 0.669533 0.521569
O O3 0.951517 0.690269 0.357576
O O4 0.998911 0.001346 0.448175
O O5 0.054809 0.685404 0.872172
O O6 0.113035 0.874906 0.036721
O O7 0.000338 0.684729 0.066144
O O8 0.830473 0.519153 0.347063
O O9 0.917659 0.484842 0.191449
O O10 0.209186 0.869660 0.421501
O O11 0.220665 0.214967 0.374602
O O12 0.292993 0.100662 0.541219
O O13 0.307928 0.333940 0.709556
O O14 0.315532 0.049530 0.840617
O O15 0.755352 0.042019 0.526192
O O16 0.623762 0.123018 0.502205
#
# Coordination Sequence:
#
# PCOD8170870 Si02
#       8
#     4   4   4   4   4   4   4   4
#     4  10  23  37  61  89 117 161 199 251 300 361
#     4  10  21  40  57  86 124 148 204 253 291 375
#     4  10  21  37  60  85 120 157 199 249 305 352
#     4   9  21  38  56  88 116 154 201 245 291 357
#     4  11  20  40  61  83 122 157 196 247 303 350
#     4   9  21  39  55  88 117 150 201 245 287 353
#     4   9  21  39  57  87 117 154 196 242 299 351
#     4  10  20  38  59  84 121 155 198 252 298 353
#
# _framework density 19.044574999999998
#
# number of rings (size 3 to 8) (size 9 to 14) (size 15 to 20)
#    0.750    1.500    0.000    2.250    1.750    2.000 
#    6.750    0.000    0.000    0.000    0.000    0.000 
#    0.000    0.000    0.000    0.000    0.000    0.000 
#
# Total GULP energy -396585.433786 kJ/mol
# GULP energy per Si atom -12393.294806 kJ/mol
# Density = 1.900123 g / cm^3
# Si number density = 19.044575 Si / 1000 Ang^3
#
#
#
# Elastic Constant Matrix: (Units=GPa)
#
#
# Indices 1 2 3 4 5 6 
#
# 1 102.3970 35.1496 14.0090 0.0000 0.0000 0.0000
# 2 35.1496 73.6277 14.1224 0.0000 0.0000 0.0000
# 3 14.0090 14.1224 69.2454 0.0000 0.0000 0.0000
# 4 0.0000 0.0000 0.0000 14.1206 0.0000 0.0000
# 5 0.0000 0.0000 0.0000 0.0000 18.3999 0.0000
# 6 0.0000 0.0000 0.0000 0.0000 0.0000 38.9578
#
#
#
# Elastic Compliance Matrix: (Units=1/GPa)
#
#
# Indices 1 2 3 4 5 6 
#
# 1 0.011789 -0.005381 -0.001288 0.000000 0.000000 0.000000
# 2 -0.005381 0.016591 -0.002295 0.000000 0.000000 0.000000
# 3 -0.001288 -0.002295 0.015170 0.000000 0.000000 0.000000
# 4 0.000000 0.000000 0.000000 0.070818 0.000000 0.000000
# 5 0.000000 0.000000 0.000000 0.000000 0.054348 0.000000
# 6 0.000000 0.000000 0.000000 0.000000 0.000000 0.025669
#
#
# Mechanical properties :
#
#
# Convention : Reuss Voigt Hill
#
# Bulk Modulus (GPa) = 39.02802 41.31465 40.17134
# Shear Modulus (GPa) = 22.63939 26.42826 24.53383
#
# Velocity S-wave (km/s) = 3.45158 3.72923 3.59309
# Velocity P-wave (km/s) = 6.03506 6.34694 6.19297
#
# Compressibility (1/GPa) = 0.02562262
#
# Stress axis : x y z
#
# Youngs Moduli (GPa) = 84.82305 60.27369 65.91978
#
# Poissons Ratio (x) = 0.32434 0.08488
# Poissons Ratio (y) = 0.45645 0.15129
# Poissons Ratio (z) = 0.10922 0.13833
#
# Static dielectric constant tensor:
#      x y z
#    x 3.695410 0.000000 0.000000 
#    y 0.000000 3.286850 0.000000 
#    z 0.000000 0.000000 3.196490 
# 
# 
# High freq. dielectric constant tensor:
#      x y z
#    x 1.762960 0.000000 0.000000 
#    y 0.000000 1.728840 0.000000 
#    z 0.000000 0.000000 1.720910 
# 
# From -- ./inp_files/7261.got.cif
#   From: 2010.03.12/outbox.cif.g09.slc.cpg/sg33_4_cif.got.tgz:7261.got - 2010.04.14 01:49:19.
