data_PCOD8170099
_publ_section_title
;
Structure prediction by ZEFSAII (Michael W. Deem and Ramdas Pophale) SiO2 
 PCOD8170099
Probable space group: P M N 21
;
_chemical_formula_sum "Si O2"
_cell_formula_units_Z 32
_cell_length_a 9.180265
_cell_length_b 14.188177
_cell_length_c 12.405074
_cell_angle_alpha 90.000000
_cell_angle_beta 90.000000
_cell_angle_gamma 90.000000
_cell_volume 1615.776081
_symmetry_space_group_name_H-M "P M N 21"
_symmetry_group_IT_number 31
_symmetry_cell_setting 'orthorhombic'
loop_
_space_group_symop_operation_xyz
x,y,z
1/2-x,-y,1/2+z
-x,y,z
1/2+x,-y,1/2+z
loop_
_atom_site_type_symbol
_atom_site_label
_atom_site_fract_x
_atom_site_fract_y
_atom_site_fract_z
Si Si1 0.170813 0.834937 0.304530
Si Si2 0.332114 0.341058 0.361417
Si Si3 0.334216 0.333285 0.113300
Si Si4 0.337703 0.815334 0.972291
Si Si5 0.666695 0.043828 0.600468
Si Si6 0.331796 0.842079 0.523808
Si Si7 0.670423 0.532835 0.026470
Si Si8 0.160909 0.312003 0.682530
O O1 0.213584 0.913812 0.216115
O O2 0.247874 0.864469 0.414064
O O3 0.226445 0.731048 0.268461
O O4 0.000000 0.827813 0.324276
O O5 0.500000 0.331703 0.396189
O O6 0.314388 0.364595 0.236279
O O7 0.253360 0.241310 0.382929
O O8 0.261790 0.427624 0.426474
O O9 0.500000 0.301023 0.091401
O O10 0.228115 0.248707 0.084549
O O11 0.294034 0.422743 0.039127
O O12 0.500000 0.836289 0.927509
O O13 0.260688 0.913622 0.002177
O O14 0.344763 0.753589 0.078652
O O15 0.500000 0.071456 0.577277
O O16 0.689683 0.931500 0.602873
O O17 0.500000 0.825463 0.496179
O O18 0.500000 0.551320 0.003221
O O19 0.712645 0.585852 0.138901
O O20 0.000000 0.317674 0.735921
#
# Coordination Sequence:
#
# PCOD8170099 Si02
#       8
#     4   4   4   4   4   4   4   4
#     4  10  20  36  58  83 112 146 184 228 279 331
#     4  10  20  35  57  85 116 149 185 228 280 332
#     4  10  23  41  57  79 114 151 187 229 276 329
#     4   9  17  31  55  84 111 142 182 227 274 326
#     4   9  20  38  58  82 111 144 187 235 278 329
#     4  11  24  40  57  81 114 148 185 229 277 332
#     4   9  19  37  59  83 112 146 189 236 278 327
#     4   8  15  30  53  81 110 140 177 224 274 322
#
# _framework density 19.804725000000001
#
# number of rings (size 3 to 8) (size 9 to 14) (size 15 to 20)
#    0.000    2.500    0.000    2.250    0.000    8.000 
#    0.000    3.750    0.000    0.000    0.000    0.000 
#    0.000    0.000    0.000    0.000    0.000    0.000 
#
# Total GULP energy -396797.593189 kJ/mol
# GULP energy per Si atom -12399.924787 kJ/mol
# Density = 1.975965 g / cm^3
# Si number density = 19.804725 Si / 1000 Ang^3
#
#
#
# Elastic Constant Matrix: (Units=GPa)
#
#
# Indices 1 2 3 4 5 6 
#
# 1 118.2438 54.9656 47.9052 0.0000 0.0000 0.0000
# 2 54.9656 111.6971 35.9916 0.0000 0.0000 0.0000
# 3 47.9052 35.9916 75.5698 0.0000 0.0000 0.0000
# 4 0.0000 0.0000 0.0000 25.3534 0.0000 0.0000
# 5 0.0000 0.0000 0.0000 0.0000 32.3870 0.0000
# 6 0.0000 0.0000 0.0000 0.0000 0.0000 30.2254
#
#
#
# Elastic Compliance Matrix: (Units=1/GPa)
#
#
# Indices 1 2 3 4 5 6 
#
# 1 0.012996 -0.004419 -0.006134 0.000000 0.000000 0.000000
# 2 -0.004419 0.012078 -0.002951 0.000000 0.000000 0.000000
# 3 -0.006134 -0.002951 0.018527 0.000000 0.000000 0.000000
# 4 0.000000 0.000000 0.000000 0.039442 0.000000 0.000000
# 5 0.000000 0.000000 0.000000 0.000000 0.030877 0.000000
# 6 0.000000 0.000000 0.000000 0.000000 0.000000 0.033085
#
#
# Mechanical properties :
#
#
# Convention : Reuss Voigt Hill
#
# Bulk Modulus (GPa) = 60.26619 64.80394 62.53506
# Shear Modulus (GPa) = 27.84819 28.70306 28.27562
#
# Velocity S-wave (km/s) = 3.75392 3.81110 3.78262
# Velocity P-wave (km/s) = 7.02036 7.22208 7.12194
#
# Compressibility (1/GPa) = 0.01659305
#
# Stress axis : x y z
#
# Youngs Moduli (GPa) = 76.94447 82.79325 53.97547
#
# Poissons Ratio (x) = 0.36585 0.33109
# Poissons Ratio (y) = 0.34001 0.15930
# Poissons Ratio (z) = 0.47198 0.24435
#
# Static dielectric constant tensor:
#      x y z
#    x 3.749730 0.000000 0.000000 
#    y 0.000000 3.683520 0.000000 
#    z 0.000000 0.000000 3.400930 
# 
# 
# High freq. dielectric constant tensor:
#      x y z
#    x 1.776520 0.000000 0.000000 
#    y 0.000000 1.770360 0.000000 
#    z 0.000000 0.000000 1.755590 
# 
# From -- ./inp_files/3640.got.cif
#   From: 2010.03.12/outbox.cif.g09.slc.cpg/sg31_2_cif.got.tgz:3640.got - 2010.04.14 01:42:59.
