data_PCOD8170863
_publ_section_title
;
Structure prediction by ZEFSAII (Michael W. Deem and Ramdas Pophale) SiO2 
 PCOD8170863
Probable space group: P N A 21
;
_chemical_formula_sum "Si O2"
_cell_formula_units_Z 28
_cell_length_a 9.469126
_cell_length_b 9.297698
_cell_length_c 16.731626
_cell_angle_alpha 90.000000
_cell_angle_beta 90.000000
_cell_angle_gamma 90.000000
_cell_volume 1473.070321
_symmetry_space_group_name_H-M "P N A 21"
_symmetry_group_IT_number 33
_symmetry_cell_setting 'orthorhombic'
loop_
_space_group_symop_operation_xyz
x,y,z
-x,-y,1/2+z
1/2-x,1/2+y,1/2+z
1/2+x,1/2-y,z
loop_
_atom_site_type_symbol
_atom_site_label
_atom_site_fract_x
_atom_site_fract_y
_atom_site_fract_z
Si Si1 0.642071 0.536819 0.688360
Si Si2 0.353623 0.901964 0.271496
Si Si3 0.823292 0.667153 0.813693
Si Si4 0.974895 0.335387 0.176912
Si Si5 0.568745 0.703820 0.206201
Si Si6 0.121763 0.568548 0.082186
Si Si7 0.114634 0.606487 0.895963
O O1 0.729193 0.538956 0.772973
O O2 0.616924 0.697333 0.652953
O O3 0.494889 0.455225 0.700635
O O4 0.724230 0.449394 0.620364
O O5 0.489929 0.799701 0.272520
O O6 0.229568 0.810123 0.232907
O O7 0.379580 0.052173 0.225633
O O8 0.326942 0.953484 0.362539
O O9 0.712348 0.768481 0.858818
O O10 0.902654 0.730393 0.735016
O O11 0.946950 0.620276 0.875173
O O12 0.034936 0.420782 0.099779
O O13 0.552184 0.790806 0.122990
O O14 0.132996 0.603571 0.989922
#
# Coordination Sequence:
#
# PCOD8170863 Si02
#       7
#     4   4   4   4   4   4   4
#     4  11  20  39  66  89 115 167 210 247 305 376
#     4  10  21  39  62  89 119 160 209 253 297 366
#     4  10  20  37  66  89 112 162 215 245 297 371
#     4   9  20  39  65  89 117 163 213 249 291 380
#     4  11  22  39  64  90 121 162 210 252 306 366
#     4  10  24  40  59  93 130 158 202 262 313 364
#     4  11  23  39  62  91 130 158 203 264 311 361
#
# _framework density 19.007919000000001
#
# number of rings (size 3 to 8) (size 9 to 14) (size 15 to 20)
#    0.000    1.714    4.286    1.714    4.000    0.000 
#    2.571    0.000    0.000    0.000    0.000    0.000 
#    0.000    0.000    0.000    0.000    0.000    0.000 
#
# Total GULP energy -346883.053191 kJ/mol
# GULP energy per Si atom -12388.680471 kJ/mol
# Density = 1.896466 g / cm^3
# Si number density = 19.007919 Si / 1000 Ang^3
#
#
#
# Elastic Constant Matrix: (Units=GPa)
#
#
# Indices 1 2 3 4 5 6 
#
# 1 92.1470 42.3586 44.8453 0.0000 0.0000 0.0000
# 2 42.3586 103.6383 36.8945 0.0000 0.0000 0.0000
# 3 44.8453 36.8945 120.1330 0.0000 0.0000 0.0000
# 4 0.0000 0.0000 0.0000 20.8862 0.0000 0.0000
# 5 0.0000 0.0000 0.0000 0.0000 20.3497 0.0000
# 6 0.0000 0.0000 0.0000 0.0000 0.0000 36.9299
#
#
#
# Elastic Compliance Matrix: (Units=1/GPa)
#
#
# Indices 1 2 3 4 5 6 
#
# 1 0.015025 -0.004653 -0.004180 0.000000 0.000000 0.000000
# 2 -0.004653 0.012274 -0.002033 0.000000 0.000000 0.000000
# 3 -0.004180 -0.002033 0.010509 0.000000 0.000000 0.000000
# 4 0.000000 0.000000 0.000000 0.047879 0.000000 0.000000
# 5 0.000000 0.000000 0.000000 0.000000 0.049141 0.000000
# 6 0.000000 0.000000 0.000000 0.000000 0.000000 0.027078
#
#
# Mechanical properties :
#
#
# Convention : Reuss Voigt Hill
#
# Bulk Modulus (GPa) = 62.20000 62.67947 62.43974
# Shear Modulus (GPa) = 26.45552 28.42115 27.43833
#
# Velocity S-wave (km/s) = 3.73475 3.87101 3.80349
# Velocity P-wave (km/s) = 7.16883 7.28194 7.22561
#
# Compressibility (1/GPa) = 0.01607717
#
# Stress axis : x y z
#
# Youngs Moduli (GPa) = 66.55376 81.47076 95.15922
#
# Poissons Ratio (x) = 0.37909 0.39776
# Poissons Ratio (y) = 0.30968 0.19342
# Poissons Ratio (z) = 0.27819 0.16560
#
# Static dielectric constant tensor:
#      x y z
#    x 3.690390 0.000000 0.000000 
#    y 0.000000 3.496100 0.000000 
#    z 0.000000 0.000000 3.265140 
# 
# 
# High freq. dielectric constant tensor:
#      x y z
#    x 1.753880 0.000000 0.000000 
#    y 0.000000 1.742100 0.000000 
#    z 0.000000 0.000000 1.700530 
# 
# From -- ./inp_files/8675.got.cif
#   From: 2010.03.12/outbox.cif.g09.slc.cpg/sg33_5_cif.got.tgz:8675.got - 2010.04.14 01:49:19.
