data_PCOD8170008
_publ_section_title
;
Structure prediction by ZEFSAII (Michael W. Deem and Ramdas Pophale) SiO2 
 PCOD8170008
Probable space group: P M N 21
;
_chemical_formula_sum "Si O2"
_cell_formula_units_Z 32
_cell_length_a 9.119347
_cell_length_b 8.800488
_cell_length_c 19.972999
_cell_angle_alpha 90.000000
_cell_angle_beta 90.000000
_cell_angle_gamma 90.000000
_cell_volume 1602.927120
_symmetry_space_group_name_H-M "P M N 21"
_symmetry_group_IT_number 31
_symmetry_cell_setting 'orthorhombic'
loop_
_space_group_symop_operation_xyz
x,y,z
1/2-x,-y,1/2+z
-x,y,z
1/2+x,-y,1/2+z
loop_
_atom_site_type_symbol
_atom_site_label
_atom_site_fract_x
_atom_site_fract_y
_atom_site_fract_z
Si Si1 0.165146 0.384728 0.620610
Si Si2 0.337633 0.966423 0.160239
Si Si3 0.669288 0.293080 0.495807
Si Si4 0.829244 0.795463 0.422814
Si Si5 0.669174 0.949858 0.537670
Si Si6 0.833861 0.448703 0.384734
Si Si7 0.829681 0.556204 0.244941
Si Si8 0.827968 0.146883 0.796649
O O1 0.169955 0.212452 0.645455
O O2 0.245452 0.397902 0.549354
O O3 0.246651 0.489993 0.676267
O O4 0.000000 0.445090 0.612309
O O5 0.500000 0.027512 0.142632
O O6 0.220497 0.056751 0.115300
O O7 0.306075 0.985086 0.240129
O O8 0.500000 0.333908 0.502088
O O9 0.698783 0.116485 0.508300
O O10 0.725767 0.332570 0.421659
O O11 0.800113 0.619221 0.408903
O O12 0.740114 0.899443 0.368590
O O13 0.000000 0.838060 0.419159
O O14 0.765496 0.831383 0.495946
O O15 0.500000 0.903051 0.534388
O O16 0.809362 0.432321 0.304343
O O17 0.000000 0.404930 0.403333
O O18 0.764101 0.709910 0.273297
O O19 0.000000 0.582504 0.228418
O O20 0.000000 0.187115 0.803982
#
# Coordination Sequence:
#
# PCOD8170008 Si02
#       8
#     4   4   4   4   4   4   4   4
#     4   9  16  27  45  68  94 124 158 197 240 282
#     4   8  15  27  44  67  93 122 155 193 236 279
#     4  10  20  32  49  73  99 128 161 198 240 286
#     4  10  20  33  50  72  98 129 162 197 240 287
#     4  10  20  32  48  72  99 127 160 197 237 284
#     4   9  19  33  49  71  98 128 160 195 237 285
#     4   9  16  27  44  68  96 123 157 200 240 280
#     4   9  16  27  45  69  95 123 157 197 240 283
#
# _framework density 19.963477000000001
#
# number of rings (size 3 to 8) (size 9 to 14) (size 15 to 20)
#    0.000    2.750    0.000    3.750    0.000    8.000 
#    0.000    0.000    0.000    1.500    0.000    8.750 
#    0.000    0.000    0.000    0.000    0.000    0.000 
#
# Total GULP energy -396635.785314 kJ/mol
# GULP energy per Si atom -12394.868291 kJ/mol
# Density = 1.991804 g / cm^3
# Si number density = 19.963477 Si / 1000 Ang^3
#
#
#
# Elastic Constant Matrix: (Units=GPa)
#
#
# Indices 1 2 3 4 5 6 
#
# 1 98.2774 8.3727 2.2997 0.0000 0.0000 0.0000
# 2 8.3727 6.6656 -7.8825 0.0000 0.0000 0.0000
# 3 2.2997 -7.8825 22.5856 0.0000 0.0000 0.0000
# 4 0.0000 0.0000 0.0000 20.4181 0.0000 0.0000
# 5 0.0000 0.0000 0.0000 0.0000 44.2126 0.0000
# 6 0.0000 0.0000 0.0000 0.0000 0.0000 19.1902
#
#
#
# Elastic Compliance Matrix: (Units=1/GPa)
#
#
# Indices 1 2 3 4 5 6 
#
# 1 0.013066 -0.030625 -0.012019 0.000000 0.000000 0.000000
# 2 -0.030625 0.327241 0.117327 0.000000 0.000000 0.000000
# 3 -0.012019 0.117327 0.086447 0.000000 0.000000 0.000000
# 4 0.000000 0.000000 0.000000 0.048976 0.000000 0.000000
# 5 0.000000 0.000000 0.000000 0.000000 0.022618 0.000000
# 6 0.000000 0.000000 0.000000 0.000000 0.000000 0.052110
#
#
# Mechanical properties :
#
#
# Convention : Reuss Voigt Hill
#
# Bulk Modulus (GPa) = 1.73575 14.78982 8.26278
# Shear Modulus (GPa) = 8.42985 25.08009 16.75497
#
# Velocity S-wave (km/s) = 2.05713 3.54828 2.90018
# Velocity P-wave (km/s) = 2.55221 4.92052 3.91952
#
# Compressibility (1/GPa) = 0.57612124
#
# Stress axis : x y z
#
# Youngs Moduli (GPa) = 76.53699 3.05586 11.56772
#
# Poissons Ratio (x) = 0.09358 0.13903
# Poissons Ratio (y) = 2.34392 -1.35721
# Poissons Ratio (z) = 0.91986 -0.35853
#
# Static dielectric constant tensor:
#      x y z
#    x 3.754700 0.000000 0.000000 
#    y 0.000000 2.940290 0.000000 
#    z 0.000000 0.000000 4.238860 
# 
# 
# High freq. dielectric constant tensor:
#      x y z
#    x 1.790790 0.000000 0.000000 
#    y 0.000000 1.707910 0.000000 
#    z 0.000000 0.000000 1.796260 
# 
# From -- ./inp_files/5847.got.cif
#   From: 2010.03.12/outbox.cif.g09.slc.cpg/sg31_3_cif.got.tgz:5847.got - 2010.04.14 01:42:59.
