data_PCOD8170502
_publ_section_title
;
Structure prediction by ZEFSAII (Michael W. Deem and Ramdas Pophale) SiO2 
 PCOD8170502
Probable space group: P B A 2
;
_chemical_formula_sum "Si O2"
_cell_formula_units_Z 24
_cell_length_a 8.696872
_cell_length_b 16.401642
_cell_length_c 8.654338
_cell_angle_alpha 90.000000
_cell_angle_beta 90.000000
_cell_angle_gamma 90.000000
_cell_volume 1234.480571
_symmetry_space_group_name_H-M "P B A 2"
_symmetry_group_IT_number 32
_symmetry_cell_setting 'orthorhombic'
loop_
_space_group_symop_operation_xyz
x,y,z
-x,-y,z
1/2-x,1/2+y,z
1/2+x,1/2-y,z
loop_
_atom_site_type_symbol
_atom_site_label
_atom_site_fract_x
_atom_site_fract_y
_atom_site_fract_z
Si Si1 0.812432 0.176505 0.901480
Si Si2 0.015944 0.749899 0.374284
Si Si3 0.102900 0.074446 0.942529
Si Si4 0.244381 0.190094 0.159544
Si Si5 0.674116 0.028745 0.772229
Si Si6 0.736050 0.171062 0.573103
O O1 0.704969 0.094736 0.911015
O O2 0.778206 0.218410 0.733888
O O3 0.992665 0.150446 0.899923
O O4 0.773762 0.235625 0.041189
O O5 0.114898 0.683148 0.279119
O O6 0.130120 0.816899 0.447888
O O7 0.910974 0.796658 0.253692
O O8 0.924363 0.704579 0.508767
O O9 0.205616 0.045821 0.795172
O O10 0.224812 0.104627 0.071122
O O11 0.000000 0.000000 0.006724
O O12 0.714503 0.074322 0.610135
O O13 0.500000 0.000000 0.776346
#
# Coordination Sequence:
#
# PCOD8170502 Si02
#       6
#     4   4   4   4   4   4
#     4   9  21  37  65  91 122 162 226 264 303 382
#     4  10  22  39  60  94 132 164 208 272 330 383
#     4  10  21  39  62  96 127 160 216 272 330 370
#     4  11  21  38  66  95 123 170 217 271 320 383
#     4   9  21  39  63  93 123 159 213 272 310 379
#     4   9  22  39  59  90 128 164 212 260 318 386
#
# _framework density 19.441375000000001
#
# number of rings (size 3 to 8) (size 9 to 14) (size 15 to 20)
#    1.000    1.333    1.667    0.000    4.667    1.333 
#    3.000    1.667    0.000    0.000    0.000    0.000 
#    0.000    0.000    0.000    0.000    0.000    0.000 
#
# Total GULP energy -297342.071361 kJ/mol
# GULP energy per Si atom -12389.252973 kJ/mol
# Density = 1.939713 g / cm^3
# Si number density = 19.441375 Si / 1000 Ang^3
#
#
#
# Elastic Constant Matrix: (Units=GPa)
#
#
# Indices 1 2 3 4 5 6 
#
# 1 123.3449 47.3164 56.1190 0.0000 0.0000 0.0000
# 2 47.3164 73.6551 42.0306 0.0000 0.0000 0.0000
# 3 56.1190 42.0306 101.3730 0.0000 0.0000 0.0000
# 4 0.0000 0.0000 0.0000 30.8956 0.0000 0.0000
# 5 0.0000 0.0000 0.0000 0.0000 27.2952 0.0000
# 6 0.0000 0.0000 0.0000 0.0000 0.0000 28.2031
#
#
#
# Elastic Compliance Matrix: (Units=1/GPa)
#
#
# Indices 1 2 3 4 5 6 
#
# 1 0.012196 -0.005216 -0.004589 0.000000 0.000000 0.000000
# 2 -0.005216 0.020016 -0.005411 0.000000 0.000000 0.000000
# 3 -0.004589 -0.005411 0.014648 0.000000 0.000000 0.000000
# 4 0.000000 0.000000 0.000000 0.032367 0.000000 0.000000
# 5 0.000000 0.000000 0.000000 0.000000 0.036636 0.000000
# 6 0.000000 0.000000 0.000000 0.000000 0.000000 0.035457
#
#
# Mechanical properties :
#
#
# Convention : Reuss Voigt Hill
#
# Bulk Modulus (GPa) = 60.87295 65.47833 63.17564
# Shear Modulus (GPa) = 26.70524 27.47259 27.08892
#
# Velocity S-wave (km/s) = 3.71027 3.76320 3.73683
# Velocity P-wave (km/s) = 7.05222 7.25501 7.15434
#
# Compressibility (1/GPa) = 0.01642766
#
# Stress axis : x y z
#
# Youngs Moduli (GPa) = 81.99250 49.96126 68.26660
#
# Poissons Ratio (x) = 0.26061 0.31327
# Poissons Ratio (y) = 0.42769 0.36939
# Poissons Ratio (z) = 0.37626 0.27034
#
# Static dielectric constant tensor:
#      x y z
#    x 3.712400 0.000000 0.000000 
#    y 0.000000 3.290960 0.000000 
#    z 0.000000 0.000000 3.526750 
# 
# 
# High freq. dielectric constant tensor:
#      x y z
#    x 1.775760 0.000000 0.000000 
#    y 0.000000 1.727720 0.000000 
#    z 0.000000 0.000000 1.744630 
# 
# From -- ./inp_files/2387.got.cif
#   From: 2010.03.12/outbox.cif.g09.slc.cpg/sg32_2_cif.got.tgz:2387.got - 2010.04.14 01:46:39.
