data_PCOD8170042
_publ_section_title
;
Structure prediction by ZEFSAII (Michael W. Deem and Ramdas Pophale) SiO2 
 PCOD8170042
Probable space group: P M N 21
;
_chemical_formula_sum "Si O2"
_cell_formula_units_Z 24
_cell_length_a 8.778500
_cell_length_b 7.672453
_cell_length_c 18.992426
_cell_angle_alpha 90.000000
_cell_angle_beta 90.000000
_cell_angle_gamma 90.000000
_cell_volume 1279.189816
_symmetry_space_group_name_H-M "P M N 21"
_symmetry_group_IT_number 31
_symmetry_cell_setting 'orthorhombic'
loop_
_space_group_symop_operation_xyz
x,y,z
1/2-x,-y,1/2+z
-x,y,z
1/2+x,-y,1/2+z
loop_
_atom_site_type_symbol
_atom_site_label
_atom_site_fract_x
_atom_site_fract_y
_atom_site_fract_z
Si Si1 0.179392 0.308666 0.810160
Si Si2 0.319375 0.996121 0.563192
Si Si3 0.180142 0.983677 0.904875
Si Si4 0.820939 0.303947 0.161500
Si Si5 0.680726 0.674692 0.819172
Si Si6 0.178760 0.693902 0.161444
O O1 0.259047 0.483029 0.838703
O O2 0.232096 0.257168 0.732092
O O3 0.000000 0.338011 0.811394
O O4 0.230050 0.152285 0.861042
O O5 0.500000 0.979004 0.561385
O O6 0.256360 0.991578 0.484008
O O7 0.269578 0.176457 0.599819
O O8 0.247311 0.835430 0.607786
O O9 0.256589 0.811289 0.874612
O O10 0.000000 0.956039 0.903497
O O11 0.759425 0.274716 0.240872
O O12 0.779595 0.498904 0.135982
O O13 0.000000 0.274939 0.162379
O O14 0.500000 0.670611 0.821711
O O15 0.000000 0.709937 0.178647
#
# Coordination Sequence:
#
# PCOD8170042 Si02
#       6
#     4   4   4   4   4   4
#     4  10  20  34  53  78 109 139 170 214 265 315
#     4   9  17  30  49  73 100 130 168 212 255 305
#     4  10  21  34  51  78 108 138 170 210 264 316
#     4   8  15  28  48  73  94 120 164 212 252 290
#     4  10  20  35  56  78 102 136 179 221 257 303
#     4   9  17  31  53  76  97 129 175 219 255 299
#
# _framework density 18.761876000000001
#
# number of rings (size 3 to 8) (size 9 to 14) (size 15 to 20)
#    0.000    2.667    0.000    3.000    0.000    4.000 
#    0.000    5.833    0.000    5.000    0.000    0.000 
#    0.000    0.000    0.000    0.000    0.000    0.000 
#
# Total GULP energy -297578.283776 kJ/mol
# GULP energy per Si atom -12399.095157 kJ/mol
# Density = 1.871917 g / cm^3
# Si number density = 18.761876 Si / 1000 Ang^3
#
#
#
# Elastic Constant Matrix: (Units=GPa)
#
#
# Indices 1 2 3 4 5 6 
#
# 1 25.9278 20.1843 14.4370 0.0000 0.0000 0.0000
# 2 20.1843 135.0498 79.9739 0.0000 0.0000 0.0000
# 3 14.4370 79.9739 119.7530 0.0000 0.0000 0.0000
# 4 0.0000 0.0000 0.0000 21.5306 0.0000 0.0000
# 5 0.0000 0.0000 0.0000 0.0000 23.2809 0.0000
# 6 0.0000 0.0000 0.0000 0.0000 0.0000 22.6935
#
#
#
# Elastic Compliance Matrix: (Units=1/GPa)
#
#
# Indices 1 2 3 4 5 6 
#
# 1 0.043810 -0.005658 -0.001503 0.000000 0.000000 0.000000
# 2 -0.005658 0.012979 -0.007986 0.000000 0.000000 0.000000
# 3 -0.001503 -0.007986 0.013865 0.000000 0.000000 0.000000
# 4 0.000000 0.000000 0.000000 0.046445 0.000000 0.000000
# 5 0.000000 0.000000 0.000000 0.000000 0.042954 0.000000
# 6 0.000000 0.000000 0.000000 0.000000 0.000000 0.044065
#
#
# Mechanical properties :
#
#
# Convention : Reuss Voigt Hill
#
# Bulk Modulus (GPa) = 24.77650 56.65787 40.71719
# Shear Modulus (GPa) = 20.17221 24.57671 22.37446
#
# Velocity S-wave (km/s) = 3.28254 3.62322 3.45708
# Velocity P-wave (km/s) = 5.25368 6.91141 6.13876
#
# Compressibility (1/GPa) = 0.04036082
#
# Stress axis : x y z
#
# Youngs Moduli (GPa) = 22.82583 77.04575 72.12459
#
# Poissons Ratio (x) = 0.43589 0.10843
# Poissons Ratio (y) = 0.12914 0.57598
# Poissons Ratio (z) = 0.03432 0.61527
#
# Static dielectric constant tensor:
#      x y z
#    x 3.101160 0.000000 0.000000 
#    y 0.000000 3.647350 0.000000 
#    z 0.000000 0.000000 3.662660 
# 
# 
# High freq. dielectric constant tensor:
#      x y z
#    x 1.693760 0.000000 0.000000 
#    y 0.000000 1.744370 0.000000 
#    z 0.000000 0.000000 1.725940 
# 
# From -- ./inp_files/5710.got.cif
#   From: 2010.03.12/outbox.cif.g09.slc.cpg/sg31_3_cif.got.tgz:5710.got - 2010.04.14 01:42:59.
