data_PCOD8170832
_publ_section_title
;
Structure prediction by ZEFSAII (Michael W. Deem and Ramdas Pophale) SiO2 
 PCOD8170832
Probable space group: P N A 21
;
_chemical_formula_sum "Si O2"
_cell_formula_units_Z 32
_cell_length_a 12.769587
_cell_length_b 15.888663
_cell_length_c 8.130357
_cell_angle_alpha 90.000000
_cell_angle_beta 90.000000
_cell_angle_gamma 90.000000
_cell_volume 1649.581665
_symmetry_space_group_name_H-M "P N A 21"
_symmetry_group_IT_number 33
_symmetry_cell_setting 'orthorhombic'
loop_
_space_group_symop_operation_xyz
x,y,z
-x,-y,1/2+z
1/2-x,1/2+y,1/2+z
1/2+x,1/2-y,z
loop_
_atom_site_type_symbol
_atom_site_label
_atom_site_fract_x
_atom_site_fract_y
_atom_site_fract_z
Si Si1 0.318986 0.269548 0.300800
Si Si2 0.614477 0.481835 0.495126
Si Si3 0.287080 0.652993 0.563278
Si Si4 0.993162 0.887797 0.704200
Si Si5 0.420741 0.109631 0.464823
Si Si6 0.716297 0.931596 0.249022
Si Si7 0.835573 0.599608 0.948501
Si Si8 0.285151 0.992450 0.263229
O O1 0.269755 0.235150 0.132254
O O2 0.409678 0.330841 0.246850
O O3 0.360965 0.193467 0.410243
O O4 0.230356 0.318407 0.402579
O O5 0.554608 0.416059 0.378677
O O6 0.528773 0.533128 0.595436
O O7 0.688595 0.431608 0.620234
O O8 0.692523 0.540181 0.384611
O O9 0.411985 0.664313 0.589993
O O10 0.249288 0.640863 0.376936
O O11 0.260077 0.569584 0.661931
O O12 0.391382 0.094587 0.656695
O O13 0.542708 0.121045 0.429389
O O14 0.384853 0.026254 0.365167
O O15 0.699794 0.021887 0.334755
O O16 0.817393 0.581862 0.141491
#
# Coordination Sequence:
#
# PCOD8170832 Si02
#       8
#     4   4   4   4   4   4   4   4
#     4  11  23  39  57  89 124 162 195 251 308 367
#     4  10  20  35  61  92 113 151 204 255 295 360
#     4   9  20  39  58  82 122 155 190 251 310 350
#     4  11  21  37  63  86 120 158 201 243 311 363
#     4  10  21  38  60  88 123 160 199 248 317 357
#     4  10  20  40  62  91 117 155 210 257 293 371
#     4  11  20  38  64  86 118 163 206 248 299 368
#     4   8  19  36  59  86 117 150 201 251 291 360
#
# _framework density 19.398859000000002
#
# number of rings (size 3 to 8) (size 9 to 14) (size 15 to 20)
#    0.000    2.000    1.250    3.000    3.500    0.000 
#    2.250    1.250    0.000    0.000    0.000    0.000 
#    0.000    0.000    0.000    0.000    0.000    0.000 
#
# Total GULP energy -396721.471930 kJ/mol
# GULP energy per Si atom -12397.545998 kJ/mol
# Density = 1.935471 g / cm^3
# Si number density = 19.398859 Si / 1000 Ang^3
#
#
#
# Elastic Constant Matrix: (Units=GPa)
#
#
# Indices 1 2 3 4 5 6 
#
# 1 143.5890 46.4041 60.9872 0.0000 0.0000 0.0000
# 2 46.4041 79.1584 49.8068 0.0000 0.0000 0.0000
# 3 60.9872 49.8068 129.4789 0.0000 0.0000 0.0000
# 4 0.0000 0.0000 0.0000 24.9667 0.0000 0.0000
# 5 0.0000 0.0000 0.0000 0.0000 39.1631 0.0000
# 6 0.0000 0.0000 0.0000 0.0000 0.0000 30.1189
#
#
#
# Elastic Compliance Matrix: (Units=1/GPa)
#
#
# Indices 1 2 3 4 5 6 
#
# 1 0.009426 -0.003605 -0.003053 0.000000 0.000000 0.000000
# 2 -0.003605 0.018045 -0.005244 0.000000 0.000000 0.000000
# 3 -0.003053 -0.005244 0.011179 0.000000 0.000000 0.000000
# 4 0.000000 0.000000 0.000000 0.040053 0.000000 0.000000
# 5 0.000000 0.000000 0.000000 0.000000 0.025534 0.000000
# 6 0.000000 0.000000 0.000000 0.000000 0.000000 0.033202
#
#
# Mechanical properties :
#
#
# Convention : Reuss Voigt Hill
#
# Bulk Modulus (GPa) = 67.35463 74.06918 70.71190
# Shear Modulus (GPa) = 30.08581 31.85162 30.96871
#
# Velocity S-wave (km/s) = 3.94243 4.05647 3.99986
# Velocity P-wave (km/s) = 7.45117 7.75919 7.60674
#
# Compressibility (1/GPa) = 0.01484679
#
# Stress axis : x y z
#
# Youngs Moduli (GPa) = 106.08883 55.41603 89.45726
#
# Poissons Ratio (x) = 0.19975 0.27314
# Poissons Ratio (y) = 0.38241 0.46909
# Poissons Ratio (z) = 0.32392 0.29058
#
# Static dielectric constant tensor:
#      x y z
#    x 3.755080 0.000000 0.000000 
#    y 0.000000 3.339520 0.000000 
#    z 0.000000 0.000000 3.888900 
# 
# 
# High freq. dielectric constant tensor:
#      x y z
#    x 1.770800 0.000000 0.000000 
#    y 0.000000 1.728480 0.000000 
#    z 0.000000 0.000000 1.763870 
# 
# From -- ./inp_files/3969.got.cif
#   From: 2010.03.12/outbox.cif.g09.slc.cpg/sg33_2_cif.got.tgz:3969.got - 2010.04.14 01:49:19.
