data_PCOD8170610
_publ_section_title
;
Structure prediction by ZEFSAII (Michael W. Deem and Ramdas Pophale) SiO2 
 PCOD8170610
Probable space group: P B A 2
;
_chemical_formula_sum "Si O2"
_cell_formula_units_Z 20
_cell_length_a 13.791912
_cell_length_b 11.191954
_cell_length_c 5.027127
_cell_angle_alpha 90.000000
_cell_angle_beta 90.000000
_cell_angle_gamma 90.000000
_cell_volume 775.979505
_symmetry_space_group_name_H-M "P B A 2"
_symmetry_group_IT_number 32
_symmetry_cell_setting 'orthorhombic'
loop_
_space_group_symop_operation_xyz
x,y,z
-x,-y,z
1/2-x,1/2+y,z
1/2+x,1/2-y,z
loop_
_atom_site_type_symbol
_atom_site_label
_atom_site_fract_x
_atom_site_fract_y
_atom_site_fract_z
Si Si1 0.893904 0.950022 0.882760
Si Si2 0.253923 0.848010 0.023993
Si Si3 0.251731 0.685210 0.532928
Si Si4 0.953016 0.713090 0.124165
Si Si5 0.951653 0.375099 0.637521
O O1 0.844509 0.896866 0.612600
O O2 0.906757 0.844451 0.096546
O O3 0.823294 0.043609 0.040183
O O4 0.000000 0.000000 0.804496
O O5 0.241751 0.796796 0.730000
O O6 0.367764 0.886363 0.065182
O O7 0.242726 0.742480 0.241768
O O8 0.159120 0.599995 0.566397
O O9 0.040287 0.696687 0.914982
O O10 0.992583 0.704362 0.420363
O O11 0.000000 0.500000 0.666970
#
# Coordination Sequence:
#
# PCOD8170610 Si02
#       5
#     4   4   4   4   4
#     4  11  24  46  75 106 147 195 241 304 368 431
#     4  11  25  45  70 102 145 185 233 300 364 425
#     4  11  25  44  68 104 141 184 241 295 361 444
#     4  11  25  44  69 106 139 184 248 292 353 444
#     4  12  24  43  69  98 138 186 233 293 357 426
#
# _framework density 25.773876000000001
#
# number of rings (size 3 to 8) (size 9 to 14) (size 15 to 20)
#    0.000    0.800    0.000    7.800    0.000    8.000 
#    0.000   12.000    0.000    0.000    0.000    0.000 
#    0.000    0.000    0.000    0.000    0.000    0.000 
#
# Total GULP energy -247864.477966 kJ/mol
# GULP energy per Si atom -12393.223898 kJ/mol
# Density = 2.571521 g / cm^3
# Si number density = 25.773876 Si / 1000 Ang^3
#
#
#
# Elastic Constant Matrix: (Units=GPa)
#
#
# Indices 1 2 3 4 5 6 
#
# 1 151.1355 49.4962 20.9976 0.0000 0.0000 0.0000
# 2 49.4962 104.0505 22.8850 0.0000 0.0000 0.0000
# 3 20.9976 22.8850 90.0392 0.0000 0.0000 0.0000
# 4 0.0000 0.0000 0.0000 29.4627 0.0000 0.0000
# 5 0.0000 0.0000 0.0000 0.0000 25.3851 0.0000
# 6 0.0000 0.0000 0.0000 0.0000 0.0000 41.3393
#
#
#
# Elastic Compliance Matrix: (Units=1/GPa)
#
#
# Indices 1 2 3 4 5 6 
#
# 1 0.007912 -0.003557 -0.000941 0.000000 0.000000 0.000000
# 2 -0.003557 0.011779 -0.002164 0.000000 0.000000 0.000000
# 3 -0.000941 -0.002164 0.011876 0.000000 0.000000 0.000000
# 4 0.000000 0.000000 0.000000 0.033941 0.000000 0.000000
# 5 0.000000 0.000000 0.000000 0.000000 0.039393 0.000000
# 6 0.000000 0.000000 0.000000 0.000000 0.000000 0.024190
#
#
# Mechanical properties :
#
#
# Convention : Reuss Voigt Hill
#
# Bulk Modulus (GPa) = 54.81778 59.10921 56.96349
# Shear Modulus (GPa) = 33.67085 36.02716 34.84901
#
# Velocity S-wave (km/s) = 3.61833 3.74280 3.68109
# Velocity P-wave (km/s) = 6.22666 6.45458 6.34164
#
# Compressibility (1/GPa) = 0.01824226
#
# Stress axis : x y z
#
# Youngs Moduli (GPa) = 126.38777 84.89925 84.20450
#
# Poissons Ratio (x) = 0.30197 0.07925
# Poissons Ratio (y) = 0.44953 0.18224
# Poissons Ratio (z) = 0.11895 0.18375
#
# Static dielectric constant tensor:
#      x y z
#    x 5.534310 0.000000 0.000000 
#    y 0.000000 4.724370 0.000000 
#    z 0.000000 0.000000 4.734190 
# 
# 
# High freq. dielectric constant tensor:
#      x y z
#    x 2.055950 0.000000 0.000000 
#    y 0.000000 2.017950 0.000000 
#    z 0.000000 0.000000 2.034580 
# 
# From -- ./inp_files/1122.got.cif
#   From: 2010.03.12/outbox.cif.g09.slc.cpg/sg32_1_cif.got.tgz:1122.got - 2010.04.14 01:46:39.
