data_PCOD8170861
_publ_section_title
;
Structure prediction by ZEFSAII (Michael W. Deem and Ramdas Pophale) SiO2 
 PCOD8170861
Probable space group: P N A 21
;
_chemical_formula_sum "Si O2"
_cell_formula_units_Z 28
_cell_length_a 18.860702
_cell_length_b 5.044937
_cell_length_c 13.180877
_cell_angle_alpha 90.000000
_cell_angle_beta 90.000000
_cell_angle_gamma 90.000000
_cell_volume 1254.174331
_symmetry_space_group_name_H-M "P N A 21"
_symmetry_group_IT_number 33
_symmetry_cell_setting 'orthorhombic'
loop_
_space_group_symop_operation_xyz
x,y,z
-x,-y,1/2+z
1/2-x,1/2+y,1/2+z
1/2+x,1/2-y,z
loop_
_atom_site_type_symbol
_atom_site_label
_atom_site_fract_x
_atom_site_fract_y
_atom_site_fract_z
Si Si1 0.747447 0.666690 0.164150
Si Si2 0.834113 0.497250 0.518908
Si Si3 0.920333 0.013166 0.036346
Si Si4 0.631453 0.500002 0.751249
Si Si5 0.165900 0.497260 0.483598
Si Si6 0.920343 0.986821 0.466149
Si Si7 0.752544 0.833320 0.838358
O O1 0.699567 0.914879 0.127647
O O2 0.819639 0.757213 0.217999
O O3 0.705899 0.500002 0.251258
O O4 0.769659 0.490487 0.065781
O O5 0.870688 0.782968 0.528883
O O6 0.769669 0.509514 0.436729
O O7 0.893129 0.281763 0.487489
O O8 0.917308 0.084623 0.156004
O O9 0.870671 0.217017 0.973623
O O10 0.999992 0.045656 0.001237
O O11 0.893117 0.718225 0.015010
O O12 0.582693 0.415356 0.846492
O O13 0.680352 0.742819 0.784501
O O14 0.199583 0.414891 0.374861
#
# Coordination Sequence:
#
# PCOD8170861 Si02
#       7
#     4   4   4   4   4   4   4
#     4  10  20  37  64  93 125 156 209 268 330 384
#     4  10  23  38  64  93 123 163 211 266 322 376
#     4  11  23  43  62  90 129 172 216 260 313 401
#     4  10  22  38  66  88 124 174 208 266 338 378
#     4  10  23  38  64  93 123 163 211 266 322 376
#     4  11  23  43  62  90 129 172 216 260 313 401
#     4  10  20  37  64  93 125 156 209 268 330 384
#
# _framework density 22.325445999999999
#
# number of rings (size 3 to 8) (size 9 to 14) (size 15 to 20)
#    0.000    1.714    2.857    0.857    4.000    3.429 
#    2.571    0.000    0.000    0.000    0.000    0.000 
#    0.000    0.000    0.000    0.000    0.000    0.000 
#
# Total GULP energy -347223.547518 kJ/mol
# GULP energy per Si atom -12400.840983 kJ/mol
# Density = 2.227463 g / cm^3
# Si number density = 22.325446 Si / 1000 Ang^3
#
#
#
# Elastic Constant Matrix: (Units=GPa)
#
#
# Indices 1 2 3 4 5 6 
#
# 1 93.0502 -1.1254 45.6882 0.0000 0.0000 0.0000
# 2 -1.1254 50.8715 13.0996 0.0000 0.0000 0.0000
# 3 45.6882 13.0996 144.7712 0.0000 0.0000 0.0000
# 4 0.0000 0.0000 0.0000 38.0094 0.0000 0.0000
# 5 0.0000 0.0000 0.0000 0.0000 37.5435 0.0000
# 6 0.0000 0.0000 0.0000 0.0000 0.0000 22.3351
#
#
#
# Elastic Compliance Matrix: (Units=1/GPa)
#
#
# Indices 1 2 3 4 5 6 
#
# 1 0.012808 0.001356 -0.004165 0.000000 0.000000 0.000000
# 2 0.001356 0.020270 -0.002262 0.000000 0.000000 0.000000
# 3 -0.004165 -0.002262 0.008426 0.000000 0.000000 0.000000
# 4 0.000000 0.000000 0.000000 0.026309 0.000000 0.000000
# 5 0.000000 0.000000 0.000000 0.000000 0.026636 0.000000
# 6 0.000000 0.000000 0.000000 0.000000 0.000000 0.044772
#
#
# Mechanical properties :
#
#
# Convention : Reuss Voigt Hill
#
# Bulk Modulus (GPa) = 31.88516 44.89087 38.38801
# Shear Modulus (GPa) = 31.28553 34.97964 33.13258
#
# Velocity S-wave (km/s) = 3.74751 3.96258 3.85655
# Velocity P-wave (km/s) = 5.74788 6.40993 6.08791
#
# Compressibility (1/GPa) = 0.03136255
#
# Stress axis : x y z
#
# Youngs Moduli (GPa) = 78.07481 49.33437 118.67330
#
# Poissons Ratio (x) = -0.06689 0.49425
# Poissons Ratio (y) = -0.10585 0.26844
# Poissons Ratio (z) = 0.32517 0.11159
#
# Static dielectric constant tensor:
#      x y z
#    x 3.714140 0.000000 0.000000 
#    y 0.000000 3.897140 0.000000 
#    z 0.000000 0.000000 4.566110 
# 
# 
# High freq. dielectric constant tensor:
#      x y z
#    x 1.842750 0.000000 0.000000 
#    y 0.000000 1.886120 0.000000 
#    z 0.000000 0.000000 1.887190 
# 
# From -- ./inp_files/6930.got.cif
#   From: 2010.03.12/outbox.cif.g09.slc.cpg/sg33_4_cif.got.tgz:6930.got - 2010.04.14 01:49:19.
