data_PCOD8170376
_publ_section_title
;
Structure prediction by ZEFSAII (Michael W. Deem and Ramdas Pophale) SiO2 
 PCOD8170376
Probable space group: P M N 21
;
_chemical_formula_sum "Si O2"
_cell_formula_units_Z 32
_cell_length_a 8.479215
_cell_length_b 11.744780
_cell_length_c 15.254908
_cell_angle_alpha 90.000000
_cell_angle_beta 90.000000
_cell_angle_gamma 90.000000
_cell_volume 1519.183121
_symmetry_space_group_name_H-M "P M N 21"
_symmetry_group_IT_number 31
_symmetry_cell_setting 'orthorhombic'
loop_
_space_group_symop_operation_xyz
x,y,z
1/2-x,-y,1/2+z
-x,y,z
1/2+x,-y,1/2+z
loop_
_atom_site_type_symbol
_atom_site_label
_atom_site_fract_x
_atom_site_fract_y
_atom_site_fract_z
Si Si1 0.819341 0.266574 0.183900
Si Si2 0.686421 0.749874 0.384471
Si Si3 0.182748 0.501844 0.937373
Si Si4 0.679948 0.728198 0.881694
Si Si5 0.818261 0.502722 0.624161
Si Si6 0.181708 0.864843 0.036621
Si Si7 0.317939 0.109040 0.041311
Si Si8 0.185346 0.712404 0.202349
O O1 0.791225 0.225964 0.283466
O O2 0.707261 0.372011 0.162074
O O3 0.781881 0.161405 0.120822
O O4 0.000000 0.304716 0.169408
O O5 0.500000 0.763884 0.390875
O O6 0.741801 0.623372 0.411253
O O7 0.766444 0.839332 0.448811
O O8 0.747542 0.777483 0.287173
O O9 0.281357 0.593833 0.882552
O O10 0.000000 0.518894 0.915298
O O11 0.209350 0.520511 0.040357
O O12 0.500000 0.747332 0.910995
O O13 0.793361 0.795887 0.946931
O O14 0.771125 0.409998 0.697153
O O15 0.000000 0.488974 0.597526
O O16 0.230924 0.786150 0.117842
O O17 0.000000 0.901985 0.042630
O O18 0.291206 0.974756 0.038207
O O19 0.500000 0.135457 0.057924
O O20 0.000000 0.693886 0.211129
#
# Coordination Sequence:
#
# PCOD8170376 Si02
#       8
#     4   4   4   4   4   4   4   4
#     4  11  24  43  66  95 132 169 211 262 321 382
#     4  11  24  42  67  96 131 170 212 262 317 383
#     4  11  22  38  63  94 131 171 209 256 319 382
#     4  11  24  41  66  97 130 168 212 263 316 379
#     4  12  23  37  64  97 131 170 213 259 318 383
#     4  11  25  45  68  91 125 170 214 266 321 377
#     4  12  26  44  68  94 125 166 216 269 319 379
#     4  11  24  42  66  96 131 170 213 263 321 379
#
# _framework density 21.063953000000001
#
# number of rings (size 3 to 8) (size 9 to 14) (size 15 to 20)
#    0.000    0.750    2.500    5.250    0.000    8.000 
#    0.000    1.250    0.000    0.000    0.000    0.000 
#    0.000    0.000    0.000    0.000    0.000    0.000 
#
# Total GULP energy -397097.947171 kJ/mol
# GULP energy per Si atom -12409.310849 kJ/mol
# Density = 2.101601 g / cm^3
# Si number density = 21.063953 Si / 1000 Ang^3
#
#
#
# Elastic Constant Matrix: (Units=GPa)
#
#
# Indices 1 2 3 4 5 6 
#
# 1 67.6524 20.4321 30.7248 0.0000 0.0000 0.0000
# 2 20.4321 95.8790 26.3286 0.0000 0.0000 0.0000
# 3 30.7248 26.3286 112.1008 0.0000 0.0000 0.0000
# 4 0.0000 0.0000 0.0000 11.6448 0.0000 0.0000
# 5 0.0000 0.0000 0.0000 0.0000 30.6098 0.0000
# 6 0.0000 0.0000 0.0000 0.0000 0.0000 32.8255
#
#
#
# Elastic Compliance Matrix: (Units=1/GPa)
#
#
# Indices 1 2 3 4 5 6 
#
# 1 0.017457 -0.002572 -0.004181 0.000000 0.000000 0.000000
# 2 -0.002572 0.011528 -0.002003 0.000000 0.000000 0.000000
# 3 -0.004181 -0.002003 0.010537 0.000000 0.000000 0.000000
# 4 0.000000 0.000000 0.000000 0.085876 0.000000 0.000000
# 5 0.000000 0.000000 0.000000 0.000000 0.032669 0.000000
# 6 0.000000 0.000000 0.000000 0.000000 0.000000 0.030464
#
#
# Mechanical properties :
#
#
# Convention : Reuss Voigt Hill
#
# Bulk Modulus (GPa) = 45.43169 47.84478 46.63824
# Shear Modulus (GPa) = 23.43264 28.22580 25.82922
#
# Velocity S-wave (km/s) = 3.33896 3.66458 3.50555
# Velocity P-wave (km/s) = 6.03988 6.37722 6.21084
#
# Compressibility (1/GPa) = 0.02201107
#
# Stress axis : x y z
#
# Youngs Moduli (GPa) = 57.28409 86.74661 94.90670
#
# Poissons Ratio (x) = 0.22312 0.39676
# Poissons Ratio (y) = 0.14734 0.19005
# Poissons Ratio (z) = 0.23948 0.17371
#
# Static dielectric constant tensor:
#      x y z
#    x 3.771340 0.000000 0.000000 
#    y 0.000000 3.684920 0.000000 
#    z 0.000000 0.000000 3.897080 
# 
# 
# High freq. dielectric constant tensor:
#      x y z
#    x 1.834770 0.000000 0.000000 
#    y 0.000000 1.818530 0.000000 
#    z 0.000000 0.000000 1.837130 
# 
# From -- ./inp_files/4986.got.cif
#   From: 2010.03.12/outbox.cif.g09.slc.cpg/sg31_3_cif.got.tgz:4986.got - 2010.04.14 01:42:59.
