data_PCOD8170391
_publ_section_title
;
Structure prediction by ZEFSAII (Michael W. Deem and Ramdas Pophale) SiO2 
 PCOD8170391
Probable space group: P M N 21
;
_chemical_formula_sum "Si O2"
_cell_formula_units_Z 24
_cell_length_a 13.871811
_cell_length_b 17.411128
_cell_length_c 5.003563
_cell_angle_alpha 90.000000
_cell_angle_beta 90.000000
_cell_angle_gamma 90.000000
_cell_volume 1208.479934
_symmetry_space_group_name_H-M "P M N 21"
_symmetry_group_IT_number 31
_symmetry_cell_setting 'orthorhombic'
loop_
_space_group_symop_operation_xyz
x,y,z
1/2-x,-y,1/2+z
-x,y,z
1/2+x,-y,1/2+z
loop_
_atom_site_type_symbol
_atom_site_label
_atom_site_fract_x
_atom_site_fract_y
_atom_site_fract_z
Si Si1 0.500000 0.477346 0.282450
Si Si2 0.500000 0.374218 0.783230
Si Si3 0.500000 0.022631 0.782006
Si Si4 0.796636 0.799418 0.802693
Si Si5 0.705734 0.960650 0.878431
Si Si6 0.296633 0.299417 0.802735
Si Si7 0.705736 0.539343 0.378657
Si Si8 0.000000 0.874246 0.782799
O O1 0.500000 0.404395 0.479985
O O2 0.592870 0.529848 0.326475
O O3 0.500000 0.446840 0.980529
O O4 0.407585 0.322360 0.838004
O O5 0.500000 0.053129 0.480079
O O6 0.592880 0.970135 0.825993
O O7 0.500000 0.095584 0.979541
O O8 0.727801 0.870999 0.858563
O O9 0.773876 0.768909 0.507869
O O10 0.907590 0.822388 0.837603
O O11 0.773978 0.731083 0.007853
O O12 0.770287 0.009176 0.673293
O O13 0.227803 0.371017 0.858313
O O14 0.729789 0.509286 0.673621
#
# Coordination Sequence:
#
# PCOD8170391 Si02
#       8
#     2   2   2   4   4   4   4   2
#     4  12  22  41  68  97 118 166 224 258 302 371
#     4  12  22  39  66  95 130 158 208 270 320 375
#     4  12  22  41  68  97 118 166 224 258 302 371
#     4  12  24  40  61  96 133 163 204 262 326 375
#     4  12  23  43  66  91 128 169 214 258 306 381
#     4  12  24  40  61  96 133 163 204 262 326 375
#     4  12  23  43  66  91 128 169 214 258 306 381
#     4  12  22  39  66  95 130 158 208 270 320 375
#
# _framework density 19.859659000000001
#
# number of rings (size 3 to 8) (size 9 to 14) (size 15 to 20)
#    0.000    0.000    6.667    5.000    0.000    0.000 
#    0.000    1.667    0.000    0.000    0.000    0.000 
#    0.000    0.000    0.000    0.000    0.000    0.000 
#
# Total GULP energy -297839.033509 kJ/mol
# GULP energy per Si atom -12409.959730 kJ/mol
# Density = 1.981446 g / cm^3
# Si number density = 19.859659 Si / 1000 Ang^3
#
#
#
# Elastic Constant Matrix: (Units=GPa)
#
#
# Indices 1 2 3 4 5 6 
#
# 1 101.6349 37.1978 11.8798 0.0000 0.0000 0.0000
# 2 37.1978 103.4386 12.6055 0.0000 0.0000 0.0000
# 3 11.8798 12.6055 73.5312 0.0000 0.0000 0.0000
# 4 0.0000 0.0000 0.0000 44.3816 0.0000 0.0000
# 5 0.0000 0.0000 0.0000 0.0000 18.9831 0.0000
# 6 0.0000 0.0000 0.0000 0.0000 0.0000 -41.6209
#
#
#
# Elastic Compliance Matrix: (Units=1/GPa)
#
#
# Indices 1 2 3 4 5 6 
#
# 1 0.011427 -0.003967 -0.001166 0.000000 0.000000 0.000000
# 2 -0.003967 0.011251 -0.001288 0.000000 0.000000 0.000000
# 3 -0.001166 -0.001288 0.014009 0.000000 0.000000 0.000000
# 4 0.000000 0.000000 0.000000 0.022532 0.000000 0.000000
# 5 0.000000 0.000000 0.000000 0.000000 0.052678 0.000000
# 6 0.000000 0.000000 0.000000 0.000000 0.000000 -0.024026
#
#
# Mechanical properties :
#
#
# Convention : Reuss Voigt Hill
#
# Bulk Modulus (GPa) = 41.93762 44.66343 43.30052
# Shear Modulus (GPa) = 46.01413 18.81021 32.41217
#
# Velocity S-wave (km/s) = 4.81871 3.08093 4.04426
# Velocity P-wave (km/s) = 7.21961 5.93250 6.60747
#
# Compressibility (1/GPa) = 0.02384494
#
# Stress axis : x y z
#
# Youngs Moduli (GPa) = 87.50837 88.87928 71.38345
#
# Poissons Ratio (x) = 0.35262 0.08324
# Poissons Ratio (y) = 0.34718 0.09193
# Poissons Ratio (z) = 0.10205 0.11446
#
# Static dielectric constant tensor:
#      x y z
#    x 3.659970 0.000000 0.000000 
#    y 0.000000 3.536220 0.000000 
#    z 0.000000 0.000000 3.856130 
# 
# 
# High freq. dielectric constant tensor:
#      x y z
#    x 1.769010 0.000000 0.000000 
#    y 0.000000 1.772180 0.000000 
#    z 0.000000 0.000000 1.797210 
# 
# From -- ./inp_files/613.got.cif
#   From: 2010.03.12/outbox.cif.g09.slc.cpg/sg31_1_cif.got.tgz:613.got - 2010.04.14 01:42:59.
