data_PCOD8170892
_publ_section_title
;
Structure prediction by ZEFSAII (Michael W. Deem and Ramdas Pophale) SiO2 
 PCOD8170892
Probable space group: P N A 21
;
_chemical_formula_sum "Si O2"
_cell_formula_units_Z 32
_cell_length_a 8.673147
_cell_length_b 15.951179
_cell_length_c 11.258125
_cell_angle_alpha 90.000000
_cell_angle_beta 90.000000
_cell_angle_gamma 90.000000
_cell_volume 1557.526922
_symmetry_space_group_name_H-M "P N A 21"
_symmetry_group_IT_number 33
_symmetry_cell_setting 'orthorhombic'
loop_
_space_group_symop_operation_xyz
x,y,z
-x,-y,1/2+z
1/2-x,1/2+y,1/2+z
1/2+x,1/2-y,z
loop_
_atom_site_type_symbol
_atom_site_label
_atom_site_fract_x
_atom_site_fract_y
_atom_site_fract_z
Si Si1 0.777557 0.994692 0.451330
Si Si2 0.618078 0.778338 0.939494
Si Si3 0.093337 0.970293 0.574037
Si Si4 0.736899 0.951337 0.863241
Si Si5 0.144344 0.266118 0.609257
Si Si6 0.938675 0.125525 0.292529
Si Si7 0.753063 0.898911 0.223096
Si Si8 0.586066 0.055688 0.658374
O O1 0.819420 0.079131 0.380308
O O2 0.629071 0.010279 0.534374
O O3 0.738479 0.918066 0.362743
O O4 0.919435 0.965962 0.531001
O O5 0.625376 0.876837 0.908975
O O6 0.559640 0.723854 0.826824
O O7 0.786478 0.746727 0.977091
O O8 0.533588 0.762592 0.067164
O O9 0.119658 0.886936 0.655771
O O10 0.215035 0.982782 0.467020
O O11 0.107848 0.048713 0.664217
O O12 0.890514 0.912615 0.805740
O O13 0.634829 0.999929 0.768914
O O14 0.198625 0.197472 0.705047
O O15 0.179158 0.356473 0.667090
O O16 0.596025 0.926805 0.158293
#
# Coordination Sequence:
#
# PCOD8170892 Si02
#       8
#     4   4   4   4   4   4   4   4
#     4  10  22  39  67  95 132 177 214 275 341 392
#     4  12  22  39  68  97 135 165 231 279 325 392
#     4  10  20  41  65  96 130 174 221 272 333 410
#     4  11  23  40  65 100 134 174 223 275 338 402
#     4  12  23  40  65  96 127 175 223 281 319 396
#     4  10  20  38  67  98 124 171 226 276 328 395
#     4  11  25  40  65 101 135 165 231 276 332 401
#     4  12  25  41  68  97 139 177 217 284 342 392
#
# _framework density 20.545390000000001
#
# number of rings (size 3 to 8) (size 9 to 14) (size 15 to 20)
#    0.000    1.000    6.250    0.750    3.500    0.000 
#    0.000    1.250    0.000    0.000    0.000    0.000 
#    0.000    0.000    0.000    0.000    0.000    0.000 
#
# Total GULP energy -396614.714937 kJ/mol
# GULP energy per Si atom -12394.209842 kJ/mol
# Density = 2.049863 g / cm^3
# Si number density = 20.545390 Si / 1000 Ang^3
#
#
#
# Elastic Constant Matrix: (Units=GPa)
#
#
# Indices 1 2 3 4 5 6 
#
# 1 61.4970 40.8217 46.6724 0.0000 0.0000 0.0000
# 2 40.8217 123.4730 67.8248 0.0000 0.0000 0.0000
# 3 46.6724 67.8248 129.8196 0.0000 0.0000 0.0000
# 4 0.0000 0.0000 0.0000 46.7799 0.0000 0.0000
# 5 0.0000 0.0000 0.0000 0.0000 29.5999 0.0000
# 6 0.0000 0.0000 0.0000 0.0000 0.0000 27.0286
#
#
#
# Elastic Compliance Matrix: (Units=1/GPa)
#
#
# Indices 1 2 3 4 5 6 
#
# 1 0.024011 -0.004483 -0.006290 0.000000 0.000000 0.000000
# 2 -0.004483 0.012196 -0.004760 0.000000 0.000000 0.000000
# 3 -0.006290 -0.004760 0.012451 0.000000 0.000000 0.000000
# 4 0.000000 0.000000 0.000000 0.021377 0.000000 0.000000
# 5 0.000000 0.000000 0.000000 0.000000 0.033784 0.000000
# 6 0.000000 0.000000 0.000000 0.000000 0.000000 0.036998
#
#
# Mechanical properties :
#
#
# Convention : Reuss Voigt Hill
#
# Bulk Modulus (GPa) = 56.84576 69.49192 63.16884
# Shear Modulus (GPa) = 28.13004 31.31307 29.72155
#
# Velocity S-wave (km/s) = 3.70424 3.90820 3.80758
# Velocity P-wave (km/s) = 6.78407 7.36630 7.08117
#
# Compressibility (1/GPa) = 0.01759146
#
# Stress axis : x y z
#
# Youngs Moduli (GPa) = 41.64843 81.99544 80.31313
#
# Poissons Ratio (x) = 0.36759 0.50517
# Poissons Ratio (y) = 0.18671 0.38229
# Poissons Ratio (z) = 0.26197 0.39030
#
# Static dielectric constant tensor:
#      x y z
#    x 3.725650 0.000000 0.000000 
#    y 0.000000 3.658230 0.000000 
#    z 0.000000 0.000000 3.760980 
# 
# 
# High freq. dielectric constant tensor:
#      x y z
#    x 1.812570 0.000000 0.000000 
#    y 0.000000 1.782430 0.000000 
#    z 0.000000 0.000000 1.796860 
# 
# From -- ./inp_files/5982.got.cif
#   From: 2010.03.12/outbox.cif.g09.slc.cpg/sg33_3_cif.got.tgz:5982.got - 2010.04.14 01:49:19.
