data_PCOD8170237
_publ_section_title
;
Structure prediction by ZEFSAII (Michael W. Deem and Ramdas Pophale) SiO2 
 PCOD8170237
Probable space group: P M N 21
;
_chemical_formula_sum "Si O2"
_cell_formula_units_Z 32
_cell_length_a 9.012682
_cell_length_b 11.944454
_cell_length_c 15.510876
_cell_angle_alpha 90.000000
_cell_angle_beta 90.000000
_cell_angle_gamma 90.000000
_cell_volume 1669.770085
_symmetry_space_group_name_H-M "P M N 21"
_symmetry_group_IT_number 31
_symmetry_cell_setting 'orthorhombic'
loop_
_space_group_symop_operation_xyz
x,y,z
1/2-x,-y,1/2+z
-x,y,z
1/2+x,-y,1/2+z
loop_
_atom_site_type_symbol
_atom_site_label
_atom_site_fract_x
_atom_site_fract_y
_atom_site_fract_z
Si Si1 0.172494 0.273012 0.640450
Si Si2 0.329244 0.713578 0.459455
Si Si3 0.674512 0.897684 0.800834
Si Si4 0.323654 0.863942 0.301846
Si Si5 0.676597 0.737240 0.951925
Si Si6 0.827819 0.507431 0.714009
Si Si7 0.169886 0.272906 0.153668
Si Si8 0.823970 0.504045 0.392675
O O1 0.243396 0.204152 0.719951
O O2 0.238308 0.233959 0.547793
O O3 0.198889 0.406100 0.647464
O O4 0.000000 0.245630 0.642474
O O5 0.500000 0.683603 0.440035
O O6 0.270184 0.802794 0.389427
O O7 0.309918 0.766036 0.554785
O O8 0.235451 0.599725 0.456236
O O9 0.500000 0.920300 0.806240
O O10 0.732636 0.829317 0.884094
O O11 0.717076 0.829501 0.714702
O O12 0.759721 0.012934 0.799042
O O13 0.500000 0.870649 0.299427
O O14 0.500000 0.732833 0.952370
O O15 0.736731 0.615908 0.923870
O O16 0.772029 0.620989 0.671520
O O17 0.737510 0.473212 0.798107
O O18 0.000000 0.519779 0.738015
O O19 0.000000 0.307373 0.173729
O O20 0.000000 0.508189 0.391492
#
# Coordination Sequence:
#
# PCOD8170237 Si02
#       8
#     4   4   4   4   4   4   4   4
#     4   9  18  34  56  80 108 142 178 221 274 328
#     4  10  21  38  58  82 115 151 185 227 283 339
#     4  10  21  38  56  78 108 146 188 231 278 328
#     4  10  21  38  56  78 108 146 188 231 278 328
#     4   9  18  34  56  80 108 142 178 221 274 328
#     4  11  20  34  58  86 116 147 184 227 279 340
#     4  10  21  38  58  82 115 151 185 227 283 339
#     4  11  20  34  58  86 116 147 184 227 279 340
#
# _framework density 19.164314999999998
#
# number of rings (size 3 to 8) (size 9 to 14) (size 15 to 20)
#    0.000    2.000    2.500    1.500    0.000    3.500 
#    0.000    0.000    0.000    3.000    0.000    0.000 
#    0.000    0.000    0.000    0.000    0.000    0.000 
#
# Total GULP energy -396802.606545 kJ/mol
# GULP energy per Si atom -12400.081455 kJ/mol
# Density = 1.912070 g / cm^3
# Si number density = 19.164315 Si / 1000 Ang^3
#
#
#
# Elastic Constant Matrix: (Units=GPa)
#
#
# Indices 1 2 3 4 5 6 
#
# 1 39.8858 33.2484 25.8123 0.0000 0.0000 0.0000
# 2 33.2484 134.3052 55.9035 0.0000 0.0000 0.0000
# 3 25.8123 55.9035 141.5122 0.0000 0.0000 0.0000
# 4 0.0000 0.0000 0.0000 19.4228 0.0000 0.0000
# 5 0.0000 0.0000 0.0000 0.0000 16.7926 0.0000
# 6 0.0000 0.0000 0.0000 0.0000 0.0000 34.3518
#
#
#
# Elastic Compliance Matrix: (Units=1/GPa)
#
#
# Indices 1 2 3 4 5 6 
#
# 1 0.032849 -0.006747 -0.003326 0.000000 0.000000 0.000000
# 2 -0.006747 0.010297 -0.002837 0.000000 0.000000 0.000000
# 3 -0.003326 -0.002837 0.008794 0.000000 0.000000 0.000000
# 4 0.000000 0.000000 0.000000 0.051486 0.000000 0.000000
# 5 0.000000 0.000000 0.000000 0.000000 0.059550 0.000000
# 6 0.000000 0.000000 0.000000 0.000000 0.000000 0.029111
#
#
# Mechanical properties :
#
#
# Convention : Reuss Voigt Hill
#
# Bulk Modulus (GPa) = 38.28717 60.62571 49.45644
# Shear Modulus (GPa) = 22.06399 27.49604 24.78001
#
# Velocity S-wave (km/s) = 3.39677 3.79192 3.59977
# Velocity P-wave (km/s) = 5.95028 7.13267 6.56813
#
# Compressibility (1/GPa) = 0.02611841
#
# Stress axis : x y z
#
# Youngs Moduli (GPa) = 30.44256 97.11560 113.71429
#
# Poissons Ratio (x) = 0.65529 0.37823
# Poissons Ratio (y) = 0.20541 0.32261
# Poissons Ratio (z) = 0.10126 0.27552
#
# Static dielectric constant tensor:
#      x y z
#    x 3.234760 0.000000 0.000000 
#    y 0.000000 3.444170 0.000000 
#    z 0.000000 0.000000 3.936250 
# 
# 
# High freq. dielectric constant tensor:
#      x y z
#    x 1.715200 0.000000 0.000000 
#    y 0.000000 1.740170 0.000000 
#    z 0.000000 0.000000 1.764890 
# 
# From -- ./inp_files/2541.got.cif
#   From: 2010.03.12/outbox.cif.g09.slc.cpg/sg31_2_cif.got.tgz:2541.got - 2010.04.14 01:42:59.
