data_PCOD8170821
_publ_section_title
;
Structure prediction by ZEFSAII (Michael W. Deem and Ramdas Pophale) SiO2 
 PCOD8170821
Probable space group: P N A 21
;
_chemical_formula_sum "Si O2"
_cell_formula_units_Z 32
_cell_length_a 5.426579
_cell_length_b 30.675323
_cell_length_c 9.320920
_cell_angle_alpha 90.000000
_cell_angle_beta 90.000000
_cell_angle_gamma 90.000000
_cell_volume 1551.579578
_symmetry_space_group_name_H-M "P N A 21"
_symmetry_group_IT_number 33
_symmetry_cell_setting 'orthorhombic'
loop_
_space_group_symop_operation_xyz
x,y,z
-x,-y,1/2+z
1/2-x,1/2+y,1/2+z
1/2+x,1/2-y,z
loop_
_atom_site_type_symbol
_atom_site_label
_atom_site_fract_x
_atom_site_fract_y
_atom_site_fract_z
Si Si1 0.143170 0.727882 0.154160
Si Si2 0.588224 0.869717 0.147646
Si Si3 0.419688 0.954993 0.613268
Si Si4 0.388545 0.416204 0.601772
Si Si5 0.703982 0.013460 0.414480
Si Si6 0.470504 0.434902 0.901723
Si Si7 0.847284 0.371463 0.970189
Si Si8 0.856567 0.273026 0.995515
O O1 0.395775 0.749051 0.094357
O O2 0.140139 0.679020 0.096149
O O3 0.148182 0.729882 0.325230
O O4 0.346060 0.885717 0.059847
O O5 0.513891 0.870431 0.316828
O O6 0.839581 0.895510 0.109999
O O7 0.427769 0.961499 0.783553
O O8 0.146540 0.951827 0.548912
O O9 0.549792 0.909055 0.575268
O O10 0.521469 0.999126 0.541185
O O11 0.405687 0.454157 0.483442
O O12 0.303747 0.433972 0.759300
O O13 0.815948 0.968554 0.356214
O O14 0.567608 0.385810 0.933216
O O15 0.854519 0.323950 0.044461
O O16 0.607172 0.249696 0.055774
#
# Coordination Sequence:
#
# PCOD8170821 Si02
#       8
#     4   4   4   4   4   4   4   4
#     4   9  16  28  49  82 115 149 185 234 295 354
#     4  10  20  35  57  83 122 154 193 244 298 357
#     4  11  22  40  59  82 121 155 208 252 301 360
#     4  11  22  38  57  84 116 157 196 240 299 351
#     4  11  25  37  59  86 114 163 206 252 300 355
#     4  10  21  37  58  81 117 158 203 247 301 356
#     4   9  20  34  54  87 115 160 192 246 304 352
#     4   9  18  29  51  81 120 150 187 237 294 359
#
# _framework density 20.624146
#
# number of rings (size 3 to 8) (size 9 to 14) (size 15 to 20)
#    0.000    2.000    1.250    2.250    7.000    4.000 
#    0.000    0.000    0.000    0.000    0.000    5.250 
#    0.000    0.000    0.000    0.000    0.000    0.000 
#
# Total GULP energy -396435.580524 kJ/mol
# GULP energy per Si atom -12388.611891 kJ/mol
# Density = 2.057720 g / cm^3
# Si number density = 20.624146 Si / 1000 Ang^3
#
#
#
# Elastic Constant Matrix: (Units=GPa)
#
#
# Indices 1 2 3 4 5 6 
#
# 1 114.9078 47.4037 22.7748 0.0000 0.0000 0.0000
# 2 47.4037 141.4460 41.0891 0.0000 0.0000 0.0000
# 3 22.7748 41.0891 64.1806 0.0000 0.0000 0.0000
# 4 0.0000 0.0000 0.0000 16.5187 0.0000 0.0000
# 5 0.0000 0.0000 0.0000 0.0000 20.6070 0.0000
# 6 0.0000 0.0000 0.0000 0.0000 0.0000 28.4762
#
#
#
# Elastic Compliance Matrix: (Units=1/GPa)
#
#
# Indices 1 2 3 4 5 6 
#
# 1 0.010260 -0.002925 -0.001768 0.000000 0.000000 0.000000
# 2 -0.002925 0.009519 -0.005056 0.000000 0.000000 0.000000
# 3 -0.001768 -0.005056 0.019446 0.000000 0.000000 0.000000
# 4 0.000000 0.000000 0.000000 0.060537 0.000000 0.000000
# 5 0.000000 0.000000 0.000000 0.000000 0.048527 0.000000
# 6 0.000000 0.000000 0.000000 0.000000 0.000000 0.035117
#
#
# Mechanical properties :
#
#
# Convention : Reuss Voigt Hill
#
# Bulk Modulus (GPa) = 50.69539 60.34109 55.51824
# Shear Modulus (GPa) = 23.86872 27.07150 25.47011
#
# Velocity S-wave (km/s) = 3.40563 3.62693 3.51802
# Velocity P-wave (km/s) = 6.33233 6.84547 6.59389
#
# Compressibility (1/GPa) = 0.01972566
#
# Stress axis : x y z
#
# Youngs Moduli (GPa) = 97.46914 105.05522 51.42571
#
# Poissons Ratio (x) = 0.30726 0.09093
# Poissons Ratio (y) = 0.28507 0.26002
# Poissons Ratio (z) = 0.17235 0.53118
#
# Static dielectric constant tensor:
#      x y z
#    x 3.791470 0.000000 0.000000 
#    y 0.000000 3.853460 0.000000 
#    z 0.000000 0.000000 3.193570 
# 
# 
# High freq. dielectric constant tensor:
#      x y z
#    x 1.813800 0.000000 0.000000 
#    y 0.000000 1.817020 0.000000 
#    z 0.000000 0.000000 1.745060 
# 
# From -- ./inp_files/2833.got.cif
#   From: 2010.03.12/outbox.cif.g09.slc.cpg/sg33_2_cif.got.tgz:2833.got - 2010.04.14 01:49:19.
