data_PCOD8170590
_publ_section_title
;
Structure prediction by ZEFSAII (Michael W. Deem and Ramdas Pophale) SiO2 
 PCOD8170590
Probable space group: P B A 2
;
_chemical_formula_sum "Si O2"
_cell_formula_units_Z 18
_cell_length_a 14.402406
_cell_length_b 10.290056
_cell_length_c 5.061693
_cell_angle_alpha 90.000000
_cell_angle_beta 90.000000
_cell_angle_gamma 90.000000
_cell_volume 750.150820
_symmetry_space_group_name_H-M "P B A 2"
_symmetry_group_IT_number 32
_symmetry_cell_setting 'orthorhombic'
loop_
_space_group_symop_operation_xyz
x,y,z
-x,-y,z
1/2-x,1/2+y,z
1/2+x,1/2-y,z
loop_
_atom_site_type_symbol
_atom_site_label
_atom_site_fract_x
_atom_site_fract_y
_atom_site_fract_z
Si Si1 0.000000 0.500000 0.312160
Si Si2 0.860570 0.333852 0.613428
Si Si3 0.168772 0.067330 0.813759
Si Si4 0.621281 0.592794 0.309540
Si Si5 0.014781 0.243943 0.007339
O O1 0.913382 0.456915 0.489856
O O2 0.962232 0.617761 0.135567
O O3 0.773085 0.388423 0.766370
O O4 0.829075 0.230372 0.388132
O O5 0.929129 0.256305 0.807021
O O6 0.107729 0.195130 0.868390
O O7 0.121684 0.000759 0.561316
O O8 0.174837 0.971822 0.064747
O O9 0.515703 0.633571 0.222742
#
# Coordination Sequence:
#
# PCOD8170590 Si02
#       5
#     2   4   4   4   4
#     4  10  26  48  78 112 170 200 266 320 404 466
#     4  11  27  51  76 117 160 208 260 326 396 471
#     4  12  29  47  84 112 155 209 263 324 393 473
#     4  11  27  48  79 114 153 195 268 321 387 462
#     4  11  26  50  80 114 157 210 258 334 388 468
#
# _framework density 23.995176000000001
#
# number of rings (size 3 to 8) (size 9 to 14) (size 15 to 20)
#    0.000    0.889    2.222    1.333   15.556    5.333 
#    0.000    0.000    0.000    0.000    0.000    0.000 
#    0.000    0.000    0.000    0.000    0.000    0.000 
#
# Total GULP energy -223250.003932 kJ/mol
# GULP energy per Si atom -12402.777996 kJ/mol
# Density = 2.394056 g / cm^3
# Si number density = 23.995176 Si / 1000 Ang^3
#
#
#
# Elastic Constant Matrix: (Units=GPa)
#
#
# Indices 1 2 3 4 5 6 
#
# 1 159.7782 100.4090 75.4272 0.0000 0.0000 0.0000
# 2 100.4090 164.1618 87.3638 0.0000 0.0000 0.0000
# 3 75.4272 87.3638 167.9901 0.0000 0.0000 0.0000
# 4 0.0000 0.0000 0.0000 67.2835 0.0000 0.0000
# 5 0.0000 0.0000 0.0000 0.0000 28.6596 0.0000
# 6 0.0000 0.0000 0.0000 0.0000 0.0000 27.8867
#
#
#
# Elastic Compliance Matrix: (Units=1/GPa)
#
#
# Indices 1 2 3 4 5 6 
#
# 1 0.010595 -0.005460 -0.001918 0.000000 0.000000 0.000000
# 2 -0.005460 0.011236 -0.003392 0.000000 0.000000 0.000000
# 3 -0.001918 -0.003392 0.008578 0.000000 0.000000 0.000000
# 4 0.000000 0.000000 0.000000 0.014862 0.000000 0.000000
# 5 0.000000 0.000000 0.000000 0.000000 0.034892 0.000000
# 6 0.000000 0.000000 0.000000 0.000000 0.000000 0.035859
#
#
# Mechanical properties :
#
#
# Convention : Reuss Voigt Hill
#
# Bulk Modulus (GPa) = 112.74024 113.14779 112.94401
# Shear Modulus (GPa) = 35.58231 40.01463 37.79847
#
# Velocity S-wave (km/s) = 3.85501 4.08807 3.97325
# Velocity P-wave (km/s) = 8.17933 8.33906 8.25958
#
# Compressibility (1/GPa) = 0.00886995
#
# Stress axis : x y z
#
# Youngs Moduli (GPa) = 94.38290 88.99808 116.58008
#
# Poissons Ratio (x) = 0.48592 0.22357
# Poissons Ratio (y) = 0.51532 0.39543
# Poissons Ratio (z) = 0.18100 0.30188
#
# Static dielectric constant tensor:
#      x y z
#    x 3.898190 0.000000 0.000000 
#    y 0.000000 4.629170 0.000000 
#    z 0.000000 0.000000 4.850400 
# 
# 
# High freq. dielectric constant tensor:
#      x y z
#    x 1.926490 0.000000 0.000000 
#    y 0.000000 1.975310 0.000000 
#    z 0.000000 0.000000 1.973320 
# 
# From -- ./inp_files/713.got.cif
#   From: 2010.03.12/outbox.cif.g09.slc.cpg/sg32_1_cif.got.tgz:713.got - 2010.04.14 01:46:39.
