data_PCOD8170449
_publ_section_title
;
Structure prediction by ZEFSAII (Michael W. Deem and Ramdas Pophale) SiO2 
 PCOD8170449
Probable space group: P B A 2
;
_chemical_formula_sum "Si O2"
_cell_formula_units_Z 32
_cell_length_a 12.287552
_cell_length_b 12.401403
_cell_length_c 10.760859
_cell_angle_alpha 90.000000
_cell_angle_beta 90.000000
_cell_angle_gamma 90.000000
_cell_volume 1639.770731
_symmetry_space_group_name_H-M "P B A 2"
_symmetry_group_IT_number 32
_symmetry_cell_setting 'orthorhombic'
loop_
_space_group_symop_operation_xyz
x,y,z
-x,-y,z
1/2-x,1/2+y,z
1/2+x,1/2-y,z
loop_
_atom_site_type_symbol
_atom_site_label
_atom_site_fract_x
_atom_site_fract_y
_atom_site_fract_z
Si Si1 0.232574 0.773600 0.038380
Si Si2 0.225864 0.232620 0.440976
Si Si3 0.383950 0.439724 0.887335
Si Si4 0.869225 0.374669 0.238629
Si Si5 0.634223 0.724126 0.665832
Si Si6 0.774608 0.865547 0.814472
Si Si7 0.438532 0.614407 0.592399
Si Si8 0.874999 0.620450 0.240791
O O1 0.176956 0.676598 0.112772
O O2 0.327278 0.825555 0.118348
O O3 0.137495 0.858812 0.002048
O O4 0.291224 0.730500 0.913489
O O5 0.324019 0.183741 0.361037
O O6 0.269493 0.290480 0.565796
O O7 0.143879 0.135093 0.478212
O O8 0.165573 0.324858 0.366057
O O9 0.500000 0.500000 0.906805
O O10 0.376253 0.378665 0.756045
O O11 0.279096 0.521362 0.887960
O O12 0.833991 0.498357 0.243646
O O13 0.997403 0.364406 0.235730
O O14 0.662018 0.836185 0.740152
O O15 0.520215 0.718701 0.592332
O O16 0.877932 0.878546 0.724192
O O17 0.500000 0.500000 0.572356
#
# Coordination Sequence:
#
# PCOD8170449 Si02
#       8
#     4   4   4   4   4   4   4   4
#     4  10  23  37  62  89 118 162 205 246 304 360
#     4  10  23  37  62  89 118 162 205 246 304 360
#     4  11  20  37  60  90 123 157 199 256 303 364
#     4  10  22  42  60  84 120 166 202 252 302 356
#     4  10  20  34  57  87 122 155 193 243 308 361
#     4  10  20  34  57  87 122 155 193 243 308 361
#     4  11  20  37  60  90 123 157 199 256 303 364
#     4  10  22  42  60  82 126 156 206 252 296 356
#
# _framework density 19.514924000000001
#
# number of rings (size 3 to 8) (size 9 to 14) (size 15 to 20)
#    0.000    1.750    2.500    1.500    3.500    0.000 
#    0.000    0.000    0.000    5.250    0.000    0.000 
#    0.000    0.000    0.000    0.000    0.000    0.000 
#
# Total GULP energy -396516.922455 kJ/mol
# GULP energy per Si atom -12391.153827 kJ/mol
# Density = 1.947051 g / cm^3
# Si number density = 19.514924 Si / 1000 Ang^3
#
#
#
# Elastic Constant Matrix: (Units=GPa)
#
#
# Indices 1 2 3 4 5 6 
#
# 1 68.8950 53.5686 31.9087 0.0000 0.0000 0.0000
# 2 53.5686 115.0271 47.0756 0.0000 0.0000 0.0000
# 3 31.9087 47.0756 98.0304 0.0000 0.0000 0.0000
# 4 0.0000 0.0000 0.0000 16.9416 0.0000 0.0000
# 5 0.0000 0.0000 0.0000 0.0000 18.3855 0.0000
# 6 0.0000 0.0000 0.0000 0.0000 0.0000 35.5960
#
#
#
# Elastic Compliance Matrix: (Units=1/GPa)
#
#
# Indices 1 2 3 4 5 6 
#
# 1 0.023429 -0.009695 -0.002970 0.000000 0.000000 0.000000
# 2 -0.009695 0.014832 -0.003967 0.000000 0.000000 0.000000
# 3 -0.002970 -0.003967 0.013073 0.000000 0.000000 0.000000
# 4 0.000000 0.000000 0.000000 0.059026 0.000000 0.000000
# 5 0.000000 0.000000 0.000000 0.000000 0.054391 0.000000
# 6 0.000000 0.000000 0.000000 0.000000 0.000000 0.028093
#
#
# Mechanical properties :
#
#
# Convention : Reuss Voigt Hill
#
# Bulk Modulus (GPa) = 55.34338 60.78426 58.06382
# Shear Modulus (GPa) = 21.53946 24.14459 22.84203
#
# Velocity S-wave (km/s) = 3.32587 3.52125 3.42495
# Velocity P-wave (km/s) = 6.57036 6.90996 6.74230
#
# Compressibility (1/GPa) = 0.01806901
#
# Stress axis : x y z
#
# Youngs Moduli (GPa) = 42.68205 67.42072 76.49556
#
# Poissons Ratio (x) = 0.65367 0.22721
# Poissons Ratio (y) = 0.41382 0.30344
# Poissons Ratio (z) = 0.12678 0.26745
#
# Static dielectric constant tensor:
#      x y z
#    x 3.616160 0.000000 0.000000 
#    y 0.000000 3.736490 0.000000 
#    z 0.000000 0.000000 3.650400 
# 
# 
# High freq. dielectric constant tensor:
#      x y z
#    x 1.754970 0.000000 0.000000 
#    y 0.000000 1.758370 0.000000 
#    z 0.000000 0.000000 1.770860 
# 
# From -- ./inp_files/3875.got.cif
#   From: 2010.03.12/outbox.cif.g09.slc.cpg/sg32_2_cif.got.tgz:3875.got - 2010.04.14 01:46:39.
