data_PCOD8170185
_publ_section_title
;
Structure prediction by ZEFSAII (Michael W. Deem and Ramdas Pophale) SiO2 
 PCOD8170185
Probable space group: P M N 21
;
_chemical_formula_sum "Si O2"
_cell_formula_units_Z 32
_cell_length_a 8.635890
_cell_length_b 12.052137
_cell_length_c 15.243242
_cell_angle_alpha 90.000000
_cell_angle_beta 90.000000
_cell_angle_gamma 90.000000
_cell_volume 1586.530794
_symmetry_space_group_name_H-M "P M N 21"
_symmetry_group_IT_number 31
_symmetry_cell_setting 'orthorhombic'
loop_
_space_group_symop_operation_xyz
x,y,z
1/2-x,-y,1/2+z
-x,y,z
1/2+x,-y,1/2+z
loop_
_atom_site_type_symbol
_atom_site_label
_atom_site_fract_x
_atom_site_fract_y
_atom_site_fract_z
Si Si1 0.679424 0.990768 0.652300
Si Si2 0.817267 0.601247 0.993123
Si Si3 0.173865 0.758792 0.407478
Si Si4 0.815069 0.991830 0.348698
Si Si5 0.819355 0.526409 0.657264
Si Si6 0.171923 0.768627 0.608523
Si Si7 0.816737 0.857347 0.995472
Si Si8 0.182837 0.532215 0.337769
O O1 0.500000 0.017249 0.657286
O O2 0.703975 0.863676 0.625291
O O3 0.750343 0.005251 0.749349
O O4 0.752073 0.074670 0.579700
O O5 0.732891 0.528329 0.066427
O O6 0.000000 0.587903 0.004179
O O7 0.766304 0.729425 0.003797
O O8 0.767303 0.560478 0.896550
O O9 0.253966 0.876917 0.387894
O O10 0.177759 0.730836 0.508869
O O11 0.252806 0.653734 0.360660
O O12 0.000000 0.769214 0.370750
O O13 0.000000 0.999652 0.353018
O O14 0.750086 0.093778 0.405104
O O15 0.787405 0.658073 0.661566
O O16 0.716836 0.479870 0.735619
O O17 0.000000 0.500958 0.671322
O O18 0.000000 0.813238 0.632594
O O19 0.000000 0.869607 0.991519
O O20 0.000000 0.525513 0.356622
#
# Coordination Sequence:
#
# PCOD8170185 Si02
#       8
#     4   4   4   4   4   4   4   4
#     4  10  22  38  59  89 118 150 197 248 293 352
#     4  11  24  42  63  88 123 166 204 248 304 361
#     4   9  18  37  63  86 112 152 198 245 299 352
#     4  10  21  38  62  87 115 153 199 242 290 356
#     4  11  24  42  62  91 125 159 203 253 302 363
#     4  10  20  39  63  84 115 155 195 245 301 352
#     4  10  23  41  59  84 122 159 195 245 303 354
#     4  11  23  41  65  91 122 162 203 250 306 362
#
# _framework density 20.169792999999999
#
# number of rings (size 3 to 8) (size 9 to 14) (size 15 to 20)
#    0.000    1.750    2.500    1.125    3.500    2.500 
#    0.000    1.250    0.000    0.000    0.000    0.000 
#    0.000    0.000    0.000    0.000    0.000    0.000 
#
# Total GULP energy -396766.299906 kJ/mol
# GULP energy per Si atom -12398.946872 kJ/mol
# Density = 2.012389 g / cm^3
# Si number density = 20.169793 Si / 1000 Ang^3
#
#
#
# Elastic Constant Matrix: (Units=GPa)
#
#
# Indices 1 2 3 4 5 6 
#
# 1 34.9496 28.1591 16.7095 0.0000 0.0000 0.0000
# 2 28.1591 106.8237 27.9896 0.0000 0.0000 0.0000
# 3 16.7095 27.9896 92.0512 0.0000 0.0000 0.0000
# 4 0.0000 0.0000 0.0000 33.2568 0.0000 0.0000
# 5 0.0000 0.0000 0.0000 0.0000 31.7743 0.0000
# 6 0.0000 0.0000 0.0000 0.0000 0.0000 26.3579
#
#
#
# Elastic Compliance Matrix: (Units=1/GPa)
#
#
# Indices 1 2 3 4 5 6 
#
# 1 0.037737 -0.008859 -0.004157 0.000000 0.000000 0.000000
# 2 -0.008859 0.012251 -0.002117 0.000000 0.000000 0.000000
# 3 -0.004157 -0.002117 0.012262 0.000000 0.000000 0.000000
# 4 0.000000 0.000000 0.000000 0.030069 0.000000 0.000000
# 5 0.000000 0.000000 0.000000 0.000000 0.031472 0.000000
# 6 0.000000 0.000000 0.000000 0.000000 0.000000 0.037939
#
#
# Mechanical properties :
#
#
# Convention : Reuss Voigt Hill
#
# Bulk Modulus (GPa) = 31.26411 42.17122 36.71766
# Shear Modulus (GPa) = 24.67224 29.00890 26.84057
#
# Velocity S-wave (km/s) = 3.50126 3.79652 3.65188
# Velocity P-wave (km/s) = 5.64617 6.33811 6.00212
#
# Compressibility (1/GPa) = 0.03198556
#
# Stress axis : x y z
#
# Youngs Moduli (GPa) = 26.49898 81.62548 81.55426
#
# Poissons Ratio (x) = 0.72309 0.33899
# Poissons Ratio (y) = 0.23474 0.17266
# Poissons Ratio (z) = 0.11015 0.17281
#
# Static dielectric constant tensor:
#      x y z
#    x 3.448070 0.000000 0.000000 
#    y 0.000000 3.813550 0.000000 
#    z 0.000000 0.000000 3.756650 
# 
# 
# High freq. dielectric constant tensor:
#      x y z
#    x 1.763470 0.000000 0.000000 
#    y 0.000000 1.800970 0.000000 
#    z 0.000000 0.000000 1.796960 
# 
# From -- ./inp_files/4926.got.cif
#   From: 2010.03.12/outbox.cif.g09.slc.cpg/sg31_3_cif.got.tgz:4926.got - 2010.04.14 01:42:59.
