data_PCOD8170931
_publ_section_title
;
Structure prediction by ZEFSAII (Michael W. Deem and Ramdas Pophale) SiO2 
 PCOD8170931
Probable space group: P N A 21
;
_chemical_formula_sum "Si O2"
_cell_formula_units_Z 32
_cell_length_a 9.721831
_cell_length_b 11.415414
_cell_length_c 13.927220
_cell_angle_alpha 90.000000
_cell_angle_beta 90.000000
_cell_angle_gamma 90.000000
_cell_volume 1545.625128
_symmetry_space_group_name_H-M "P N A 21"
_symmetry_group_IT_number 33
_symmetry_cell_setting 'orthorhombic'
loop_
_space_group_symop_operation_xyz
x,y,z
-x,-y,1/2+z
1/2-x,1/2+y,1/2+z
1/2+x,1/2-y,z
loop_
_atom_site_type_symbol
_atom_site_label
_atom_site_fract_x
_atom_site_fract_y
_atom_site_fract_z
Si Si1 0.276656 0.880518 0.319940
Si Si2 0.625315 0.078966 0.029940
Si Si3 0.174293 0.179085 0.466830
Si Si4 0.618442 0.497905 0.617847
Si Si5 0.513670 0.294134 0.740383
Si Si6 0.459805 0.167881 0.545097
Si Si7 0.463898 0.729801 0.657950
Si Si8 0.702327 0.862753 0.759597
O O1 0.285284 0.912290 0.432697
O O2 0.390355 0.778968 0.311503
O O3 0.128078 0.827952 0.292864
O O4 0.308238 0.994919 0.252256
O O5 0.726394 0.047173 0.119328
O O6 0.541816 0.193980 0.060119
O O7 0.520810 0.970170 0.024687
O O8 0.303030 0.212063 0.534617
O O9 0.239409 0.156562 0.364969
O O10 0.062349 0.281394 0.464140
O O11 0.095776 0.068150 0.515476
O O12 0.591182 0.412395 0.707819
O O13 0.517720 0.605490 0.625822
O O14 0.498658 0.207467 0.650806
O O15 0.556023 0.799019 0.737819
O O16 0.309872 0.701731 0.691047
#
# Coordination Sequence:
#
# PCOD8170931 Si02
#       8
#     4   4   4   4   4   4   4   4
#     4  12  25  43  67 100 131 171 225 278 330 387
#     4  11  24  43  66  93 139 171 217 273 333 395
#     4  10  21  40  66  91 127 168 211 276 319 387
#     4  10  21  43  66  89 130 176 210 265 339 385
#     4  11  24  42  70  96 129 173 223 273 326 398
#     4  10  20  42  66  90 127 171 212 265 335 384
#     4  12  25  42  69  94 132 181 213 270 334 403
#     4  12  24  41  68  99 133 169 229 268 330 393
#
# _framework density 20.703598
#
# number of rings (size 3 to 8) (size 9 to 14) (size 15 to 20)
#    0.000    1.000    5.000    3.750    1.750    0.000 
#    0.000    0.000    0.000    0.000    0.000    0.000 
#    0.000    0.000    0.000    0.000    0.000    0.000 
#
# Total GULP energy -396513.182740 kJ/mol
# GULP energy per Si atom -12391.036961 kJ/mol
# Density = 2.065648 g / cm^3
# Si number density = 20.703598 Si / 1000 Ang^3
#
#
#
# Elastic Constant Matrix: (Units=GPa)
#
#
# Indices 1 2 3 4 5 6 
#
# 1 67.9672 51.3563 19.7995 0.0000 0.0000 0.0000
# 2 51.3563 138.3614 38.1442 0.0000 0.0000 0.0000
# 3 19.7995 38.1442 71.8050 0.0000 0.0000 0.0000
# 4 0.0000 0.0000 0.0000 23.6149 0.0000 0.0000
# 5 0.0000 0.0000 0.0000 0.0000 31.8132 0.0000
# 6 0.0000 0.0000 0.0000 0.0000 0.0000 42.7439
#
#
#
# Elastic Compliance Matrix: (Units=1/GPa)
#
#
# Indices 1 2 3 4 5 6 
#
# 1 0.020667 -0.007147 -0.001902 0.000000 0.000000 0.000000
# 2 -0.007147 0.010939 -0.003840 0.000000 0.000000 0.000000
# 3 -0.001902 -0.003840 0.016491 0.000000 0.000000 0.000000
# 4 0.000000 0.000000 0.000000 0.042346 0.000000 0.000000
# 5 0.000000 0.000000 0.000000 0.000000 0.031434 0.000000
# 6 0.000000 0.000000 0.000000 0.000000 0.000000 0.023395
#
#
# Mechanical properties :
#
#
# Convention : Reuss Voigt Hill
#
# Bulk Modulus (GPa) = 44.80563 55.19263 49.99913
# Shear Modulus (GPa) = 28.01274 30.88998 29.45136
#
# Velocity S-wave (km/s) = 3.68236 3.86685 3.77573
# Velocity P-wave (km/s) = 6.30620 6.83030 6.57347
#
# Compressibility (1/GPa) = 0.02231862
#
# Stress axis : x y z
#
# Youngs Moduli (GPa) = 48.38571 91.41731 60.63851
#
# Poissons Ratio (x) = 0.65334 0.11535
# Poissons Ratio (y) = 0.34580 0.23287
# Poissons Ratio (z) = 0.09204 0.35107
#
# Static dielectric constant tensor:
#      x y z
#    x 3.984980 0.000000 0.000000 
#    y 0.000000 4.178410 0.000000 
#    z 0.000000 0.000000 3.635320 
# 
# 
# High freq. dielectric constant tensor:
#      x y z
#    x 1.811010 0.000000 0.000000 
#    y 0.000000 1.827570 0.000000 
#    z 0.000000 0.000000 1.795480 
# 
# From -- ./inp_files/7643.got.cif
#   From: 2010.03.12/outbox.cif.g09.slc.cpg/sg33_4_cif.got.tgz:7643.got - 2010.04.14 01:49:19.
