data_PCOD8170430
_publ_section_title
;
Structure prediction by ZEFSAII (Michael W. Deem and Ramdas Pophale) SiO2 
 PCOD8170430
Probable space group: P B A 2
;
_chemical_formula_sum "Si O2"
_cell_formula_units_Z 32
_cell_length_a 9.762672
_cell_length_b 13.855720
_cell_length_c 10.573540
_cell_angle_alpha 90.000000
_cell_angle_beta 90.000000
_cell_angle_gamma 90.000000
_cell_volume 1430.270593
_symmetry_space_group_name_H-M "P B A 2"
_symmetry_group_IT_number 32
_symmetry_cell_setting 'orthorhombic'
loop_
_space_group_symop_operation_xyz
x,y,z
-x,-y,z
1/2-x,1/2+y,z
1/2+x,1/2-y,z
loop_
_atom_site_type_symbol
_atom_site_label
_atom_site_fract_x
_atom_site_fract_y
_atom_site_fract_z
Si Si1 0.612549 0.065491 0.832370
Si Si2 0.627617 0.062689 0.108798
Si Si3 0.645091 0.449576 0.226128
Si Si4 0.923971 0.214475 0.569487
Si Si5 0.351712 0.474678 0.654705
Si Si6 0.352463 0.718931 0.027857
Si Si7 0.078572 0.747015 0.863355
Si Si8 0.299317 0.649113 0.490995
O O1 0.752331 0.075523 0.755949
O O2 0.536382 0.163832 0.861366
O O3 0.500000 0.000000 0.759891
O O4 0.656144 0.020562 0.967517
O O5 0.615261 0.179872 0.102818
O O6 0.500000 0.000000 0.162643
O O7 0.750727 0.036999 0.202405
O O8 0.500000 0.500000 0.213819
O O9 0.675813 0.363089 0.129727
O O10 0.666642 0.404284 0.363111
O O11 0.878052 0.103465 0.541871
O O12 0.896437 0.224023 0.719311
O O13 0.840817 0.290509 0.485319
O O14 0.082046 0.225466 0.529827
O O15 0.500000 0.500000 0.716392
O O16 0.280604 0.570112 0.601321
O O17 0.221934 0.726208 0.932547
O O18 0.487736 0.680552 0.950215
#
# Coordination Sequence:
#
# PCOD8170430 Si02
#       8
#     4   4   4   4   4   4   4   4
#     4  10  19  35  60  91 128 163 207 269 333 395
#     4  10  23  42  64  94 129 172 222 273 334 404
#     4  12  26  44  66  95 133 176 225 273 327 401
#     4  11  22  42  66  92 130 170 211 274 331 383
#     4  10  22  39  62  92 127 167 217 270 325 394
#     4  11  23  41  67  99 137 176 217 281 344 400
#     4  11  22  39  66 101 133 169 222 273 343 418
#     4  11  26  44  65  92 127 175 225 267 322 393
#
# _framework density 22.373387000000001
#
# number of rings (size 3 to 8) (size 9 to 14) (size 15 to 20)
#    0.000    1.250    0.000    7.875    0.000    7.500 
#    0.000    1.875    0.000    0.000    0.000    0.000 
#    0.000    0.000    0.000    0.000    0.000    0.000 
#
# Total GULP energy -396481.560573 kJ/mol
# GULP energy per Si atom -12390.048768 kJ/mol
# Density = 2.232246 g / cm^3
# Si number density = 22.373387 Si / 1000 Ang^3
#
#
#
# Elastic Constant Matrix: (Units=GPa)
#
#
# Indices 1 2 3 4 5 6 
#
# 1 120.7828 32.1967 40.5025 0.0000 0.0000 0.0000
# 2 32.1967 86.3941 18.4639 0.0000 0.0000 0.0000
# 3 40.5025 18.4639 73.4873 0.0000 0.0000 0.0000
# 4 0.0000 0.0000 0.0000 27.8924 0.0000 0.0000
# 5 0.0000 0.0000 0.0000 0.0000 24.7542 0.0000
# 6 0.0000 0.0000 0.0000 0.0000 0.0000 45.9111
#
#
#
# Elastic Compliance Matrix: (Units=1/GPa)
#
#
# Indices 1 2 3 4 5 6 
#
# 1 0.010807 -0.002911 -0.005225 0.000000 0.000000 0.000000
# 2 -0.002911 0.013016 -0.001666 0.000000 0.000000 0.000000
# 3 -0.005225 -0.001666 0.016906 0.000000 0.000000 0.000000
# 4 0.000000 0.000000 0.000000 0.035852 0.000000 0.000000
# 5 0.000000 0.000000 0.000000 0.000000 0.040397 0.000000
# 6 0.000000 0.000000 0.000000 0.000000 0.000000 0.021781
#
#
# Mechanical properties :
#
#
# Convention : Reuss Voigt Hill
#
# Bulk Modulus (GPa) = 47.33626 51.44336 49.38981
# Shear Modulus (GPa) = 30.22873 32.34494 31.28684
#
# Velocity S-wave (km/s) = 3.67972 3.80635 3.74357
# Velocity P-wave (km/s) = 6.26555 6.50851 6.38819
#
# Compressibility (1/GPa) = 0.02112546
#
# Stress axis : x y z
#
# Youngs Moduli (GPa) = 92.52882 76.83018 59.14996
#
# Poissons Ratio (x) = 0.22365 0.30907
# Poissons Ratio (y) = 0.26935 0.09854
# Poissons Ratio (z) = 0.48348 0.12799
#
# Static dielectric constant tensor:
#      x y z
#    x 4.341560 0.000000 0.000000 
#    y 0.000000 4.265490 0.000000 
#    z 0.000000 0.000000 3.873860 
# 
# 
# High freq. dielectric constant tensor:
#      x y z
#    x 1.896650 0.000000 0.000000 
#    y 0.000000 1.890330 0.000000 
#    z 0.000000 0.000000 1.857570 
# 
# From -- ./inp_files/3788.got.cif
#   From: 2010.03.12/outbox.cif.g09.slc.cpg/sg32_2_cif.got.tgz:3788.got - 2010.04.14 01:46:39.
