data_PCOD8170926
_publ_section_title
;
Structure prediction by ZEFSAII (Michael W. Deem and Ramdas Pophale) SiO2 
 PCOD8170926
Probable space group: P N A 21
;
_chemical_formula_sum "Si O2"
_cell_formula_units_Z 16
_cell_length_a 10.658184
_cell_length_b 13.297096
_cell_length_c 5.104557
_cell_angle_alpha 90.000000
_cell_angle_beta 90.000000
_cell_angle_gamma 90.000000
_cell_volume 723.432600
_symmetry_space_group_name_H-M "P N A 21"
_symmetry_group_IT_number 33
_symmetry_cell_setting 'orthorhombic'
loop_
_space_group_symop_operation_xyz
x,y,z
-x,-y,1/2+z
1/2-x,1/2+y,1/2+z
1/2+x,1/2-y,z
loop_
_atom_site_type_symbol
_atom_site_label
_atom_site_fract_x
_atom_site_fract_y
_atom_site_fract_z
Si Si1 0.323692 0.930871 0.804720
Si Si2 0.553013 0.878636 0.510887
Si Si3 0.962540 0.056543 0.335321
Si Si4 0.505051 0.225524 0.500657
O O1 0.413278 0.929664 0.544650
O O2 0.178402 0.923647 0.734973
O O3 0.361620 0.833764 0.981657
O O4 0.346820 0.034590 0.959753
O O5 0.588719 0.820465 0.778834
O O6 0.554249 0.794548 0.283973
O O7 0.026943 0.157000 0.449282
O O8 0.961994 0.978594 0.578080
#
# Coordination Sequence:
#
# PCOD8170926 Si02
#       4
#     4   4   4   4
#     4  10  23  42  75  96 138 165 235 272 338 403
#     4  10  20  41  72 101 118 178 224 278 324 395
#     4  12  29  44  63 104 141 178 218 280 343 388
#     4  10  22  43  64  99 129 177 227 258 341 392
#
# _framework density 22.116779999999999
#
# number of rings (size 3 to 8) (size 9 to 14) (size 15 to 20)
#    1.500    0.000    2.500    1.500    3.500    4.000 
#    0.000    0.000    0.000    0.000    0.000    0.000 
#    0.000    0.000    0.000    0.000    0.000    0.000 
#
# Total GULP energy -198274.894406 kJ/mol
# GULP energy per Si atom -12392.180900 kJ/mol
# Density = 2.206644 g / cm^3
# Si number density = 22.116780 Si / 1000 Ang^3
#
#
#
# Elastic Constant Matrix: (Units=GPa)
#
#
# Indices 1 2 3 4 5 6 
#
# 1 67.2243 14.4594 1.8516 0.0000 0.0000 0.0000
# 2 14.4594 90.3452 7.1270 0.0000 0.0000 0.0000
# 3 1.8516 7.1270 113.3451 0.0000 0.0000 0.0000
# 4 0.0000 0.0000 0.0000 37.9029 0.0000 0.0000
# 5 0.0000 0.0000 0.0000 0.0000 17.3711 0.0000
# 6 0.0000 0.0000 0.0000 0.0000 0.0000 17.9306
#
#
#
# Elastic Compliance Matrix: (Units=1/GPa)
#
#
# Indices 1 2 3 4 5 6 
#
# 1 0.015407 -0.002458 -0.000097 0.000000 0.000000 0.000000
# 2 -0.002458 0.011516 -0.000684 0.000000 0.000000 0.000000
# 3 -0.000097 -0.000684 0.008867 0.000000 0.000000 0.000000
# 4 0.000000 0.000000 0.000000 0.026383 0.000000 0.000000
# 5 0.000000 0.000000 0.000000 0.000000 0.057567 0.000000
# 6 0.000000 0.000000 0.000000 0.000000 0.000000 0.055771
#
#
# Mechanical properties :
#
#
# Convention : Reuss Voigt Hill
#
# Bulk Modulus (GPa) = 34.11605 35.31009 34.71307
# Shear Modulus (GPa) = 26.07425 31.13934 28.60680
#
# Velocity S-wave (km/s) = 3.43729 3.75634 3.60035
# Velocity P-wave (km/s) = 5.58678 5.90029 5.74567
#
# Compressibility (1/GPa) = 0.02931171
#
# Stress axis : x y z
#
# Youngs Moduli (GPa) = 64.90562 86.83547 112.77508
#
# Poissons Ratio (x) = 0.21346 0.01095
# Poissons Ratio (y) = 0.15955 0.07713
# Poissons Ratio (z) = 0.00630 0.05939
#
# Static dielectric constant tensor:
#      x y z
#    x 3.396450 0.000000 0.000000 
#    y 0.000000 3.938520 0.000000 
#    z 0.000000 0.000000 3.882400 
# 
# 
# High freq. dielectric constant tensor:
#      x y z
#    x 1.824620 0.000000 0.000000 
#    y 0.000000 1.877970 0.000000 
#    z 0.000000 0.000000 1.873290 
# 
# From -- ./inp_files/699.got.cif
#   From: 2010.03.12/outbox.cif.g09.slc.cpg/sg33_1_cif.got.tgz:699.got - 2010.04.14 01:49:19.
