data_PCOD8170260
_publ_section_title
;
Structure prediction by ZEFSAII (Michael W. Deem and Ramdas Pophale) SiO2 
 PCOD8170260
Probable space group: P M N 21
;
_chemical_formula_sum "Si O2"
_cell_formula_units_Z 32
_cell_length_a 15.173961
_cell_length_b 8.565054
_cell_length_c 11.753695
_cell_angle_alpha 90.000000
_cell_angle_beta 90.000000
_cell_angle_gamma 90.000000
_cell_volume 1527.578319
_symmetry_space_group_name_H-M "P M N 21"
_symmetry_group_IT_number 31
_symmetry_cell_setting 'orthorhombic'
loop_
_space_group_symop_operation_xyz
x,y,z
1/2-x,-y,1/2+z
-x,y,z
1/2+x,-y,1/2+z
loop_
_atom_site_type_symbol
_atom_site_label
_atom_site_fract_x
_atom_site_fract_y
_atom_site_fract_z
Si Si1 0.231961 0.477663 0.609040
Si Si2 0.598975 0.007973 0.612651
Si Si3 0.839098 0.918151 0.358598
Si Si4 0.673677 0.715217 0.322656
Si Si5 0.402557 0.952222 0.174033
Si Si6 0.397775 0.650862 0.561369
Si Si7 0.259067 0.834831 0.001948
Si Si8 0.903647 0.744176 0.568545
O O1 0.185466 0.410766 0.721657
O O2 0.331703 0.539182 0.633485
O O3 0.237974 0.353131 0.504585
O O4 0.172423 0.617851 0.562546
O O5 0.500000 0.041934 0.572258
O O6 0.621322 0.825852 0.602621
O O7 0.607933 0.062919 0.742738
O O8 0.661083 0.106178 0.529700
O O9 0.769313 0.779734 0.351031
O O10 0.902078 0.864204 0.461352
O O11 0.793034 0.086519 0.385435
O O12 0.609929 0.863349 0.293962
O O13 0.628503 0.630008 0.429148
O O14 0.500000 0.910346 0.125844
O O15 0.322292 0.886390 0.102785
O O16 0.392713 0.141522 0.179318
O O17 0.500000 0.602562 0.581542
O O18 0.000000 0.662377 0.570810
#
# Coordination Sequence:
#
# PCOD8170260 Si02
#       8
#     4   4   4   4   4   4   4   4
#     4  11  23  39  61  96 128 168 204 256 324 390
#     4  11  22  40  66  93 121 165 218 266 314 371
#     4  11  20  41  66  89 118 167 215 261 311 366
#     4  11  21  39  67  88 120 170 213 259 314 371
#     4   9  18  35  61  90 115 153 209 261 305 361
#     4  11  24  43  64  93 134 170 209 266 321 383
#     4  10  21  38  63  88 121 160 209 261 310 370
#     4  10  21  39  62  91 129 161 203 262 317 380
#
# _framework density 20.948188999999999
#
# number of rings (size 3 to 8) (size 9 to 14) (size 15 to 20)
#    0.000    1.500    5.000    1.500    0.000    4.500 
#    0.000    0.000    0.000    0.000    0.000    0.000 
#    0.000    0.000    0.000    0.000    0.000    0.000 
#
# Total GULP energy -396585.400295 kJ/mol
# GULP energy per Si atom -12393.293759 kJ/mol
# Density = 2.090051 g / cm^3
# Si number density = 20.948189 Si / 1000 Ang^3
#
#
#
# Elastic Constant Matrix: (Units=GPa)
#
#
# Indices 1 2 3 4 5 6 
#
# 1 126.8603 45.9178 2.1604 0.0000 0.0000 0.0000
# 2 45.9178 94.2095 8.4680 0.0000 0.0000 0.0000
# 3 2.1604 8.4680 39.6011 0.0000 0.0000 0.0000
# 4 0.0000 0.0000 0.0000 31.0430 0.0000 0.0000
# 5 0.0000 0.0000 0.0000 0.0000 12.5206 0.0000
# 6 0.0000 0.0000 0.0000 0.0000 0.0000 17.4330
#
#
#
# Elastic Compliance Matrix: (Units=1/GPa)
#
#
# Indices 1 2 3 4 5 6 
#
# 1 0.009580 -0.004713 0.000485 0.000000 0.000000 0.000000
# 2 -0.004713 0.013141 -0.002553 0.000000 0.000000 0.000000
# 3 0.000485 -0.002553 0.025771 0.000000 0.000000 0.000000
# 4 0.000000 0.000000 0.000000 0.032213 0.000000 0.000000
# 5 0.000000 0.000000 0.000000 0.000000 0.079869 0.000000
# 6 0.000000 0.000000 0.000000 0.000000 0.000000 0.057363
#
#
# Mechanical properties :
#
#
# Convention : Reuss Voigt Hill
#
# Bulk Modulus (GPa) = 28.62772 41.52926 35.07849
# Shear Modulus (GPa) = 20.56404 25.80761 23.18582
#
# Velocity S-wave (km/s) = 3.13655 3.51376 3.33050
# Velocity P-wave (km/s) = 5.17811 6.02742 5.61884
#
# Compressibility (1/GPa) = 0.03493118
#
# Stress axis : x y z
#
# Youngs Moduli (GPa) = 104.38029 76.09612 38.80295
#
# Poissons Ratio (x) = 0.35865 -0.01883
# Poissons Ratio (y) = 0.49195 0.09906
# Poissons Ratio (z) = -0.05064 0.19427
#
# Static dielectric constant tensor:
#      x y z
#    x 3.912290 0.000000 0.000000 
#    y 0.000000 3.899450 0.000000 
#    z 0.000000 0.000000 3.782910 
# 
# 
# High freq. dielectric constant tensor:
#      x y z
#    x 1.834010 0.000000 0.000000 
#    y 0.000000 1.814410 0.000000 
#    z 0.000000 0.000000 1.798500 
# 
# From -- ./inp_files/4287.got.cif
#   From: 2010.03.12/outbox.cif.g09.slc.cpg/sg31_3_cif.got.tgz:4287.got - 2010.04.14 01:42:59.
