data_PCOD8170692
_publ_section_title
;
Structure prediction by ZEFSAII (Michael W. Deem and Ramdas Pophale) SiO2 
 PCOD8170692
Probable space group: P N A 21
;
_chemical_formula_sum "Si O2"
_cell_formula_units_Z 32
_cell_length_a 15.164012
_cell_length_b 8.418884
_cell_length_c 14.292927
_cell_angle_alpha 90.000000
_cell_angle_beta 90.000000
_cell_angle_gamma 90.000000
_cell_volume 1824.693062
_symmetry_space_group_name_H-M "P N A 21"
_symmetry_group_IT_number 33
_symmetry_cell_setting 'orthorhombic'
loop_
_space_group_symop_operation_xyz
x,y,z
-x,-y,1/2+z
1/2-x,1/2+y,1/2+z
1/2+x,1/2-y,z
loop_
_atom_site_type_symbol
_atom_site_label
_atom_site_fract_x
_atom_site_fract_y
_atom_site_fract_z
Si Si1 0.409280 0.901202 0.655270
Si Si2 0.733868 0.075155 0.298902
Si Si3 0.987266 0.820058 0.798901
Si Si4 0.584443 0.102425 0.941142
Si Si5 0.911799 0.876307 0.298902
Si Si6 0.584444 0.102426 0.656661
Si Si7 0.161703 0.622314 0.798902
Si Si8 0.409280 0.901199 0.942534
O O1 0.322515 0.969068 0.706519
O O2 0.435872 0.735823 0.705552
O O3 0.386529 0.870607 0.547558
O O4 0.487074 0.029135 0.665884
O O5 0.751926 0.266714 0.298903
O O6 0.677483 0.030931 0.391284
O O7 0.820609 0.970521 0.298905
O O8 0.082146 0.742927 0.798902
O O9 0.935870 0.764180 0.892250
O O10 0.002520 0.008856 0.798900
O O11 0.582655 0.272659 0.892306
O O12 0.656489 0.988681 0.891238
O O13 0.487076 0.029126 0.931921
O O14 0.917341 0.772660 0.205497
O O15 0.613471 0.129393 0.550246
O O16 0.656488 0.988678 0.706565
#
# Coordination Sequence:
#
# PCOD8170692 Si02
#       8
#     4   4   4   4   4   4   4   4
#     4   9  18  34  53  70  94 132 168 196 235 291
#     4  10  19  31  48  71 100 128 159 202 245 288
#     4   8  16  31  48  69  96 124 156 194 239 282
#     4   9  18  34  53  70  95 131 165 198 240 288
#     4  10  19  31  49  75 103 125 155 205 249 281
#     4   9  18  34  53  70  95 131 165 198 240 288
#     4   8  16  31  47  65  95 129 154 191 245 287
#     4   9  18  34  53  70  94 132 168 196 235 291
#
# _framework density 17.537196000000002
#
# number of rings (size 3 to 8) (size 9 to 14) (size 15 to 20)
#    0.000    3.000    0.000    2.250    0.000    3.000 
#    0.000   10.000    0.000    0.000    0.000    0.000 
#    0.000    0.000    0.000    0.000    0.000    0.000 
#
# Total GULP energy -396656.600392 kJ/mol
# GULP energy per Si atom -12395.518762 kJ/mol
# Density = 1.749728 g / cm^3
# Si number density = 17.537196 Si / 1000 Ang^3
#
#
#
# Elastic Constant Matrix: (Units=GPa)
#
#
# Indices 1 2 3 4 5 6 
#
# 1 62.0054 29.6770 44.3756 0.0000 0.0000 0.0000
# 2 29.6770 103.8622 60.4239 0.0000 0.0000 0.0000
# 3 44.3756 60.4239 182.7787 0.0000 0.0000 0.0000
# 4 0.0000 0.0000 0.0000 16.0396 0.0000 0.0000
# 5 0.0000 0.0000 0.0000 0.0000 18.9958 0.0000
# 6 0.0000 0.0000 0.0000 0.0000 0.0000 23.8598
#
#
#
# Elastic Compliance Matrix: (Units=1/GPa)
#
#
# Indices 1 2 3 4 5 6 
#
# 1 0.020599 -0.003685 -0.003783 0.000000 0.000000 0.000000
# 2 -0.003685 0.012580 -0.003264 0.000000 0.000000 0.000000
# 3 -0.003783 -0.003264 0.007469 0.000000 0.000000 0.000000
# 4 0.000000 0.000000 0.000000 0.062346 0.000000 0.000000
# 5 0.000000 0.000000 0.000000 0.000000 0.052643 0.000000
# 6 0.000000 0.000000 0.000000 0.000000 0.000000 0.041911
#
#
# Mechanical properties :
#
#
# Convention : Reuss Voigt Hill
#
# Bulk Modulus (GPa) = 52.12851 68.62216 60.37534
# Shear Modulus (GPa) = 22.18220 26.05702 24.11961
#
# Velocity S-wave (km/s) = 3.56035 3.85881 3.71258
# Velocity P-wave (km/s) = 6.83305 7.68559 7.27182
#
# Compressibility (1/GPa) = 0.01918336
#
# Stress axis : x y z
#
# Youngs Moduli (GPa) = 48.54703 79.49102 133.89457
#
# Poissons Ratio (x) = 0.29293 0.50649
# Poissons Ratio (y) = 0.17890 0.43705
# Poissons Ratio (z) = 0.18364 0.25947
#
# Static dielectric constant tensor:
#      x y z
#    x 3.219050 0.000000 0.000000 
#    y 0.000000 3.321980 0.000000 
#    z 0.000000 0.000000 3.402650 
# 
# 
# High freq. dielectric constant tensor:
#      x y z
#    x 1.666730 0.000000 0.000000 
#    y 0.000000 1.668260 0.000000 
#    z 0.000000 0.000000 1.682000 
# 
# From -- ./inp_files/8295.got.cif
#   From: 2010.03.12/outbox.cif.g09.slc.cpg/sg33_5_cif.got.tgz:8295.got - 2010.04.14 01:49:19.
