data_PCOD8170507
_publ_section_title
;
Structure prediction by ZEFSAII (Michael W. Deem and Ramdas Pophale) SiO2 
 PCOD8170507
Probable space group: P B A 2
;
_chemical_formula_sum "Si O2"
_cell_formula_units_Z 30
_cell_length_a 11.514173
_cell_length_b 8.090417
_cell_length_c 14.935088
_cell_angle_alpha 90.000000
_cell_angle_beta 90.000000
_cell_angle_gamma 90.000000
_cell_volume 1391.270072
_symmetry_space_group_name_H-M "P B A 2"
_symmetry_group_IT_number 32
_symmetry_cell_setting 'orthorhombic'
loop_
_space_group_symop_operation_xyz
x,y,z
-x,-y,z
1/2-x,1/2+y,z
1/2+x,1/2-y,z
loop_
_atom_site_type_symbol
_atom_site_label
_atom_site_fract_x
_atom_site_fract_y
_atom_site_fract_z
Si Si1 0.368963 0.057546 0.300450
Si Si2 0.000000 0.000000 0.497968
Si Si3 0.189527 0.118619 0.855970
Si Si4 0.123713 0.582588 0.099044
Si Si5 0.616348 0.088423 0.754543
Si Si6 0.918180 0.651313 0.551007
Si Si7 0.690558 0.630885 0.989211
Si Si8 0.786083 0.147113 0.410578
O O1 0.336942 0.117351 0.200879
O O2 0.351384 0.187131 0.380987
O O3 0.500000 0.000000 0.305234
O O4 0.282427 0.907851 0.321863
O O5 0.012714 0.171875 0.554724
O O6 0.884832 0.014750 0.437275
O O7 0.106148 0.224159 0.792028
O O8 0.275910 0.013886 0.792928
O O9 0.253751 0.245133 0.919621
O O10 0.120829 0.997655 0.925120
O O11 0.214270 0.466381 0.048031
O O12 0.108994 0.764088 0.054769
O O13 0.000000 0.500000 0.094929
O O14 0.627556 0.099096 0.648162
O O15 0.500000 0.000000 0.786242
O O16 0.803918 0.673351 0.491197
O O17 0.000000 0.500000 0.515486
#
# Coordination Sequence:
#
# PCOD8170507 Si02
#       8
#     4   2   4   4   4   4   4   4
#     4  11  24  40  67  97 129 174 224 277 338 392
#     4  12  26  42  70 102 126 194 230 268 352 404
#     4   9  20  39  66  95 126 168 211 266 325 397
#     4  10  21  40  65  93 129 169 213 274 329 394
#     4  10  23  43  65  97 133 169 220 275 328 391
#     4  11  26  46  69  99 137 181 231 279 342 401
#     4   9  19  39  63  93 128 165 214 254 333 399
#     4  12  23  44  66  94 136 173 222 283 328 406
#
# _framework density 21.563030000000001
#
# number of rings (size 3 to 8) (size 9 to 14) (size 15 to 20)
#    0.000    1.600    1.333    2.800    1.867    5.867 
#    4.800    6.667    0.000    0.000    0.000    0.000 
#    0.000    0.000    0.000    0.000    0.000    0.000 
#
# Total GULP energy -371754.536051 kJ/mol
# GULP energy per Si atom -12391.817868 kJ/mol
# Density = 2.151395 g / cm^3
# Si number density = 21.563030 Si / 1000 Ang^3
#
#
#
# Elastic Constant Matrix: (Units=GPa)
#
#
# Indices 1 2 3 4 5 6 
#
# 1 86.3517 43.7843 48.9142 0.0000 0.0000 0.0000
# 2 43.7843 141.7878 59.8762 0.0000 0.0000 0.0000
# 3 48.9142 59.8762 129.7972 0.0000 0.0000 0.0000
# 4 0.0000 0.0000 0.0000 44.1776 0.0000 0.0000
# 5 0.0000 0.0000 0.0000 0.0000 29.3674 0.0000
# 6 0.0000 0.0000 0.0000 0.0000 0.0000 37.6589
#
#
#
# Elastic Compliance Matrix: (Units=1/GPa)
#
#
# Indices 1 2 3 4 5 6 
#
# 1 0.015631 -0.002905 -0.004550 0.000000 0.000000 0.000000
# 2 -0.002905 0.009299 -0.003195 0.000000 0.000000 0.000000
# 3 -0.004550 -0.003195 0.010893 0.000000 0.000000 0.000000
# 4 0.000000 0.000000 0.000000 0.022636 0.000000 0.000000
# 5 0.000000 0.000000 0.000000 0.000000 0.034051 0.000000
# 6 0.000000 0.000000 0.000000 0.000000 0.000000 0.026554
#
#
# Mechanical properties :
#
#
# Convention : Reuss Voigt Hill
#
# Bulk Modulus (GPa) = 68.86038 73.67623 71.26830
# Shear Modulus (GPa) = 34.43367 35.93159 35.18263
#
# Velocity S-wave (km/s) = 4.00044 4.08653 4.04371
# Velocity P-wave (km/s) = 7.30355 7.51720 7.41114
#
# Compressibility (1/GPa) = 0.01452214
#
# Stress axis : x y z
#
# Youngs Moduli (GPa) = 63.97428 107.53678 91.80250
#
# Poissons Ratio (x) = 0.31243 0.41774
# Poissons Ratio (y) = 0.18587 0.29330
# Poissons Ratio (z) = 0.29111 0.34356
#
# Static dielectric constant tensor:
#      x y z
#    x 3.638910 0.000000 0.000000 
#    y 0.000000 4.617990 0.000000 
#    z 0.000000 0.000000 4.260970 
# 
# 
# High freq. dielectric constant tensor:
#      x y z
#    x 1.828310 0.000000 0.000000 
#    y 0.000000 1.866750 0.000000 
#    z 0.000000 0.000000 1.860440 
# 
# From -- ./inp_files/4167.got.cif
#   From: 2010.03.12/outbox.cif.g09.slc.cpg/sg32_3_cif.got.tgz:4167.got - 2010.04.14 01:46:39.
