data_PCOD8170506
_publ_section_title
;
Structure prediction by ZEFSAII (Michael W. Deem and Ramdas Pophale) SiO2 
 PCOD8170506
Probable space group: P B A 2
;
_chemical_formula_sum "Si O2"
_cell_formula_units_Z 16
_cell_length_a 12.615992
_cell_length_b 5.383665
_cell_length_c 8.333547
_cell_angle_alpha 90.000000
_cell_angle_beta 90.000000
_cell_angle_gamma 90.000000
_cell_volume 566.016800
_symmetry_space_group_name_H-M "P B A 2"
_symmetry_group_IT_number 32
_symmetry_cell_setting 'orthorhombic'
loop_
_space_group_symop_operation_xyz
x,y,z
-x,-y,z
1/2-x,1/2+y,z
1/2+x,1/2-y,z
loop_
_atom_site_type_symbol
_atom_site_label
_atom_site_fract_x
_atom_site_fract_y
_atom_site_fract_z
Si Si1 0.638280 0.853017 0.861930
Si Si2 0.610422 0.264366 0.364412
Si Si3 0.123896 0.147929 0.734847
Si Si4 0.622548 0.764376 0.231251
O O1 0.751090 0.892482 0.772449
O O2 0.573080 0.624644 0.777441
O O3 0.579559 0.121164 0.842826
O O4 0.652918 0.784891 0.046125
O O5 0.596295 0.288215 0.553183
O O6 0.673661 0.506280 0.297765
O O7 0.501579 0.250384 0.266407
O O8 0.670593 0.005779 0.324273
#
# Coordination Sequence:
#
# PCOD8170506 Si02
#       4
#     4   4   4   4
#     4  10  21  40  62  90 122 160 202 250 302 360
#     4  10  21  40  62  90 122 160 202 250 302 360
#     4  10  21  40  62  90 122 160 202 250 302 360
#     4  10  21  40  62  90 122 160 202 250 302 360
#
# _framework density 28.267714000000002
#
# number of rings (size 3 to 8) (size 9 to 14) (size 15 to 20)
#    0.000    2.000    0.000    3.000    0.000    0.000 
#    0.000   60.000    0.000    0.000    0.000    0.000 
#    0.000    0.000    0.000    0.000    0.000    0.000 
#
# Total GULP energy -198275.958748 kJ/mol
# GULP energy per Si atom -12392.247422 kJ/mol
# Density = 2.820338 g / cm^3
# Si number density = 28.267714 Si / 1000 Ang^3
#
#
#
# Elastic Constant Matrix: (Units=GPa)
#
#
# Indices 1 2 3 4 5 6 
#
# 1 86.7267 -12.8072 -10.7408 0.0000 0.0000 0.0000
# 2 -12.8072 370.1065 74.7058 0.0000 0.0000 0.0000
# 3 -10.7408 74.7058 142.0887 0.0000 0.0000 0.0000
# 4 0.0000 0.0000 0.0000 66.3307 0.0000 0.0000
# 5 0.0000 0.0000 0.0000 0.0000 10.4301 0.0000
# 6 0.0000 0.0000 0.0000 0.0000 0.0000 -147.0045
#
#
#
# Elastic Compliance Matrix: (Units=1/GPa)
#
#
# Indices 1 2 3 4 5 6 
#
# 1 0.011660 0.000252 0.000749 0.000000 0.000000 0.000000
# 2 0.000252 0.003028 -0.001573 0.000000 0.000000 0.000000
# 3 0.000749 -0.001573 0.007922 0.000000 0.000000 0.000000
# 4 0.000000 0.000000 0.000000 0.015076 0.000000 0.000000
# 5 0.000000 0.000000 0.000000 0.000000 0.095876 0.000000
# 6 0.000000 0.000000 0.000000 0.000000 0.000000 -0.006803
#
#
# Mechanical properties :
#
#
# Convention : Reuss Voigt Hill
#
# Bulk Modulus (GPa) = 46.58461 77.91527 62.24994
# Shear Modulus (GPa) = 37.02079 22.46887 29.74483
#
# Velocity S-wave (km/s) = 3.62283 2.82238 3.24737
# Velocity P-wave (km/s) = 5.83228 6.18420 6.01081
#
# Compressibility (1/GPa) = 0.02146632
#
# Stress axis : x y z
#
# Youngs Moduli (GPa) = 85.75981 330.23183 126.23847
#
# Poissons Ratio (x) = -0.08334 -0.09452
# Poissons Ratio (y) = -0.02164 0.19858
# Poissons Ratio (z) = -0.06421 0.51947
#
# Static dielectric constant tensor:
#      x y z
#    x 5.058890 0.000000 0.000000 
#    y 0.000000 10.425460 0.000000 
#    z 0.000000 0.000000 4.492890 
# 
# 
# High freq. dielectric constant tensor:
#      x y z
#    x 2.188030 0.000000 0.000000 
#    y 0.000000 2.199820 0.000000 
#    z 0.000000 0.000000 2.114580 
# 
# From -- ./inp_files/1527.got.cif
#   From: 2010.03.12/outbox.cif.g09.slc.cpg/sg32_1_cif.got.tgz:1527.got - 2010.04.14 01:46:39.
