data_PCOD8170763
_publ_section_title
;
Structure prediction by ZEFSAII (Michael W. Deem and Ramdas Pophale) SiO2 
 PCOD8170763
Probable space group: P N A 21
;
_chemical_formula_sum "Si O2"
_cell_formula_units_Z 24
_cell_length_a 5.356837
_cell_length_b 8.176176
_cell_length_c 23.519283
_cell_angle_alpha 90.000000
_cell_angle_beta 90.000000
_cell_angle_gamma 90.000000
_cell_volume 1030.107955
_symmetry_space_group_name_H-M "P N A 21"
_symmetry_group_IT_number 33
_symmetry_cell_setting 'orthorhombic'
loop_
_space_group_symop_operation_xyz
x,y,z
-x,-y,1/2+z
1/2-x,1/2+y,1/2+z
1/2+x,1/2-y,z
loop_
_atom_site_type_symbol
_atom_site_label
_atom_site_fract_x
_atom_site_fract_y
_atom_site_fract_z
Si Si1 0.005514 0.641693 0.094410
Si Si2 0.506989 0.408340 0.934124
Si Si3 0.994622 0.666102 0.663208
Si Si4 0.494694 0.660948 0.301469
Si Si5 0.007059 0.448769 0.979288
Si Si6 0.503828 0.297630 0.287552
O O1 0.755653 0.750137 0.093114
O O2 0.005351 0.527940 0.150395
O O3 0.005168 0.512217 0.043139
O O4 0.504047 0.353960 0.869204
O O5 0.259073 0.514454 0.948036
O O6 0.508375 0.248871 0.974945
O O7 0.756239 0.513791 0.947360
O O8 0.744614 0.749991 0.637226
O O9 0.994401 0.685653 0.731284
O O10 0.741266 0.754164 0.280521
O O11 0.501986 0.486546 0.270947
O O12 0.254276 0.248973 0.323142
#
# Coordination Sequence:
#
# PCOD8170763 Si02
#       6
#     4   4   4   4   4   4
#     4  12  26  43  65 103 136 172 223 283 331 385
#     4  10  19  37  63  94 125 177 214 253 314 400
#     4  10  23  45  70  93 128 175 223 270 339 406
#     4  12  21  40  69 101 131 171 230 274 323 390
#     4  10  20  36  61  91 134 167 218 253 319 392
#     4  10  23  45  64  96 132 170 224 273 340 395
#
# _framework density 23.29853
#
# number of rings (size 3 to 8) (size 9 to 14) (size 15 to 20)
#    0.000    1.333    3.333    3.000    4.667    0.000 
#    0.000   25.000    0.000    0.000    0.000    0.000 
#    0.000    0.000    0.000    0.000    0.000    0.000 
#
# Total GULP energy -297416.252182 kJ/mol
# GULP energy per Si atom -12392.343841 kJ/mol
# Density = 2.324550 g / cm^3
# Si number density = 23.298530 Si / 1000 Ang^3
#
#
#
# Elastic Constant Matrix: (Units=GPa)
#
#
# Indices 1 2 3 4 5 6 
#
# 1 271.1041 39.0326 12.1305 0.0000 0.0000 0.0000
# 2 39.0326 90.1974 26.4300 0.0000 0.0000 0.0000
# 3 12.1305 26.4300 46.7170 0.0000 0.0000 0.0000
# 4 0.0000 0.0000 0.0000 25.6767 0.0000 0.0000
# 5 0.0000 0.0000 0.0000 0.0000 1.7634 0.0000
# 6 0.0000 0.0000 0.0000 0.0000 0.0000 40.5511
#
#
#
# Elastic Compliance Matrix: (Units=1/GPa)
#
#
# Indices 1 2 3 4 5 6 
#
# 1 0.003934 -0.001682 -0.000070 0.000000 0.000000 0.000000
# 2 -0.001682 0.014009 -0.007489 0.000000 0.000000 0.000000
# 3 -0.000070 -0.007489 0.025660 0.000000 0.000000 0.000000
# 4 0.000000 0.000000 0.000000 0.038946 0.000000 0.000000
# 5 0.000000 0.000000 0.000000 0.000000 0.567086 0.000000
# 6 0.000000 0.000000 0.000000 0.000000 0.000000 0.024660
#
#
# Mechanical properties :
#
#
# Convention : Reuss Voigt Hill
#
# Bulk Modulus (GPa) = 39.80573 62.57829 51.19201
# Shear Modulus (GPa) = 7.13114 35.62661 21.37887
#
# Velocity S-wave (km/s) = 1.75140 3.91466 3.03249
# Velocity P-wave (km/s) = 4.60565 6.88116 5.85502
#
# Compressibility (1/GPa) = 0.02512201
#
# Stress axis : x y z
#
# Youngs Moduli (GPa) = 254.20055 71.38251 38.97051
#
# Poissons Ratio (x) = 0.12006 0.00273
# Poissons Ratio (y) = 0.42754 0.29184
# Poissons Ratio (z) = 0.01778 0.53457
#
# Static dielectric constant tensor:
#      x y z
#    x 6.098360 0.000000 0.000000 
#    y 0.000000 3.967670 0.000000 
#    z 0.000000 0.000000 3.721570 
# 
# 
# High freq. dielectric constant tensor:
#      x y z
#    x 1.971830 0.000000 0.000000 
#    y 0.000000 1.898270 0.000000 
#    z 0.000000 0.000000 1.882800 
# 
# From -- ./inp_files/9314.got.cif
#   From: 2010.03.12/outbox.cif.g09.slc.cpg/sg33_5_cif.got.tgz:9314.got - 2010.04.14 01:49:19.
