data_PCOD8170381
_publ_section_title
;
Structure prediction by ZEFSAII (Michael W. Deem and Ramdas Pophale) SiO2 
 PCOD8170381
Probable space group: P M N 21
;
_chemical_formula_sum "Si O2"
_cell_formula_units_Z 24
_cell_length_a 14.071072
_cell_length_b 10.132964
_cell_length_c 8.430910
_cell_angle_alpha 90.000000
_cell_angle_beta 90.000000
_cell_angle_gamma 90.000000
_cell_volume 1202.093194
_symmetry_space_group_name_H-M "P M N 21"
_symmetry_group_IT_number 31
_symmetry_cell_setting 'orthorhombic'
loop_
_space_group_symop_operation_xyz
x,y,z
1/2-x,-y,1/2+z
-x,y,z
1/2+x,-y,1/2+z
loop_
_atom_site_type_symbol
_atom_site_label
_atom_site_fract_x
_atom_site_fract_y
_atom_site_fract_z
Si Si1 0.198071 0.371915 0.185800
Si Si2 0.193916 0.876217 0.812815
Si Si3 0.198071 0.371945 0.814497
Si Si4 0.806088 0.876184 0.187494
Si Si5 0.000000 0.974372 0.689579
Si Si6 0.000000 0.277650 0.686954
Si Si7 0.500000 0.025635 0.810728
Si Si8 0.000000 0.277643 0.313345
O O1 0.264895 0.250744 0.227756
O O2 0.250016 0.499965 0.250168
O O3 0.093083 0.355334 0.257518
O O4 0.185399 0.384740 0.000151
O O5 0.086077 0.893574 0.763013
O O6 0.249989 0.000037 0.750183
O O7 0.206409 0.861474 0.000153
O O8 0.264928 0.250815 0.772509
O O9 0.093086 0.355338 0.742774
O O10 0.913924 0.893566 0.237292
O O11 0.000000 0.967788 0.500153
O O12 0.000000 0.126287 0.750414
O O13 0.000000 0.273415 0.500150
O O14 0.500000 0.873722 0.749890
#
# Coordination Sequence:
#
# PCOD8170381 Si02
#       8
#     4   4   4   4   2   2   2   2
#     4  12  26  45  69  98 135 176 221 272 332 395
#     4  12  24  41  66  98 132 171 220 271 325 386
#     4  12  26  45  69  98 135 176 221 272 332 395
#     4  12  24  41  66  98 132 171 220 271 325 386
#     4  11  23  40  67 100 134 173 221 275 328 386
#     4  11  23  42  69  98 132 173 221 271 330 394
#     4  11  23  40  67 100 134 173 221 275 328 386
#     4  11  23  42  69  98 132 173 221 271 330 394
#
# _framework density 19.965174999999999
#
# number of rings (size 3 to 8) (size 9 to 14) (size 15 to 20)
#    0.000    0.333    3.333    7.000    0.000    2.667 
#    0.000    6.667    0.000    0.000    0.000    0.000 
#    0.000    0.000    0.000    0.000    0.000    0.000 
#
# Total GULP energy -297709.880894 kJ/mol
# GULP energy per Si atom -12404.578371 kJ/mol
# Density = 1.991973 g / cm^3
# Si number density = 19.965175 Si / 1000 Ang^3
#
#
#
# Elastic Constant Matrix: (Units=GPa)
#
#
# Indices 1 2 3 4 5 6 
#
# 1 183.9674 72.5987 23.7247 0.0000 0.0000 0.0000
# 2 72.5987 146.1139 18.3464 0.0000 0.0000 0.0000
# 3 23.7247 18.3464 90.0345 0.0000 0.0000 0.0000
# 4 0.0000 0.0000 0.0000 34.4379 0.0000 0.0000
# 5 0.0000 0.0000 0.0000 0.0000 40.5453 0.0000
# 6 0.0000 0.0000 0.0000 0.0000 0.0000 38.1960
#
#
#
# Elastic Compliance Matrix: (Units=1/GPa)
#
#
# Indices 1 2 3 4 5 6 
#
# 1 0.006875 -0.003272 -0.001145 0.000000 0.000000 0.000000
# 2 -0.003272 0.008581 -0.000886 0.000000 0.000000 0.000000
# 3 -0.001145 -0.000886 0.011589 0.000000 0.000000 0.000000
# 4 0.000000 0.000000 0.000000 0.029038 0.000000 0.000000
# 5 0.000000 0.000000 0.000000 0.000000 0.024664 0.000000
# 6 0.000000 0.000000 0.000000 0.000000 0.000000 0.026181
#
#
# Mechanical properties :
#
#
# Convention : Reuss Voigt Hill
#
# Bulk Modulus (GPa) = 60.83294 72.16173 66.49734
# Shear Modulus (GPa) = 40.64619 42.99891 41.82255
#
# Velocity S-wave (km/s) = 4.51694 4.64583 4.58184
# Velocity P-wave (km/s) = 7.59864 8.06229 7.83390
#
# Compressibility (1/GPa) = 0.01643846
#
# Stress axis : x y z
#
# Youngs Moduli (GPa) = 145.46302 116.53636 86.28785
#
# Poissons Ratio (x) = 0.38131 0.09878
# Poissons Ratio (y) = 0.47596 0.07648
# Poissons Ratio (z) = 0.16652 0.10329
#
# Static dielectric constant tensor:
#      x y z
#    x 3.904110 0.000000 0.000000 
#    y 0.000000 14.456470 0.000000 
#    z 0.000000 0.000000 3.936620 
# 
# 
# High freq. dielectric constant tensor:
#      x y z
#    x 1.802900 0.000000 0.000000 
#    y 0.000000 1.783430 0.000000 
#    z 0.000000 0.000000 1.800600 
# 
# From -- ./inp_files/2495.got.cif
#   From: 2010.03.12/outbox.cif.g09.slc.cpg/sg31_2_cif.got.tgz:2495.got - 2010.04.14 01:42:59.
