data_PCOD8170650
_publ_section_title
;
Structure prediction by ZEFSAII (Michael W. Deem and Ramdas Pophale) SiO2 
 PCOD8170650
Probable space group: P N A 21
;
_chemical_formula_sum "Si O2"
_cell_formula_units_Z 32
_cell_length_a 11.689440
_cell_length_b 15.817673
_cell_length_c 9.529481
_cell_angle_alpha 90.000000
_cell_angle_beta 90.000000
_cell_angle_gamma 90.000000
_cell_volume 1761.998554
_symmetry_space_group_name_H-M "P N A 21"
_symmetry_group_IT_number 33
_symmetry_cell_setting 'orthorhombic'
loop_
_space_group_symop_operation_xyz
x,y,z
-x,-y,1/2+z
1/2-x,1/2+y,1/2+z
1/2+x,1/2-y,z
loop_
_atom_site_type_symbol
_atom_site_label
_atom_site_fract_x
_atom_site_fract_y
_atom_site_fract_z
Si Si1 0.525768 0.184868 0.724740
Si Si2 0.074065 0.847516 0.120722
Si Si3 0.421375 0.949750 0.419973
Si Si4 0.826802 0.439172 0.639416
Si Si5 0.278417 0.500748 0.715869
Si Si6 0.794271 0.694340 0.987086
Si Si7 0.363361 0.627709 0.934835
Si Si8 0.824557 0.510603 0.921260
O O1 0.484561 0.282292 0.730736
O O2 0.555511 0.149601 0.882332
O O3 0.433612 0.123399 0.653217
O O4 0.639412 0.179210 0.632584
O O5 0.137697 0.919882 0.209564
O O6 0.162088 0.791873 0.028452
O O7 0.984732 0.888422 0.010230
O O8 0.338030 0.985076 0.299446
O O9 0.364687 0.970399 0.570026
O O10 0.539760 0.999764 0.418012
O O11 0.732694 0.394767 0.546648
O O12 0.771150 0.459942 0.789984
O O13 0.351271 0.575227 0.790764
O O14 0.238771 0.526101 0.559138
O O15 0.845929 0.772784 0.899822
O O16 0.801957 0.609576 0.895859
#
# Coordination Sequence:
#
# PCOD8170650 Si02
#       8
#     4   4   4   4   4   4   4   4
#     4  10  17  32  56  85 109 147 194 240 288 337
#     4  10  20  34  57  83 113 153 199 236 285 358
#     4  10  17  32  57  89 113 140 192 248 289 342
#     4  10  19  31  54  90 112 140 190 245 293 347
#     4  10  21  37  57  86 118 156 196 242 293 350
#     4  10  18  35  56  86 106 154 196 242 282 348
#     4  10  22  35  59  80 114 152 200 235 281 355
#     4  10  18  32  58  83 115 146 187 244 297 337
#
# _framework density 18.161196
#
# number of rings (size 3 to 8) (size 9 to 14) (size 15 to 20)
#    0.000    2.000    5.000    0.750    0.000    2.000 
#    0.000    0.000   19.250    0.000    0.000    0.000 
#    0.000    0.000    0.000    0.000    0.000    0.000 
#
# Total GULP energy -396517.966581 kJ/mol
# GULP energy per Si atom -12391.186456 kJ/mol
# Density = 1.811986 g / cm^3
# Si number density = 18.161196 Si / 1000 Ang^3
#
#
#
# Elastic Constant Matrix: (Units=GPa)
#
#
# Indices 1 2 3 4 5 6 
#
# 1 84.1887 30.7290 28.9155 0.0000 0.0000 0.0000
# 2 30.7290 92.0718 47.3795 0.0000 0.0000 0.0000
# 3 28.9155 47.3795 98.7744 0.0000 0.0000 0.0000
# 4 0.0000 0.0000 0.0000 22.6046 0.0000 0.0000
# 5 0.0000 0.0000 0.0000 0.0000 26.3555 0.0000
# 6 0.0000 0.0000 0.0000 0.0000 0.0000 25.9109
#
#
#
# Elastic Compliance Matrix: (Units=1/GPa)
#
#
# Indices 1 2 3 4 5 6 
#
# 1 0.013962 -0.003394 -0.002459 0.000000 0.000000 0.000000
# 2 -0.003394 0.015246 -0.006319 0.000000 0.000000 0.000000
# 3 -0.002459 -0.006319 0.013875 0.000000 0.000000 0.000000
# 4 0.000000 0.000000 0.000000 0.044239 0.000000 0.000000
# 5 0.000000 0.000000 0.000000 0.000000 0.037943 0.000000
# 6 0.000000 0.000000 0.000000 0.000000 0.000000 0.038594
#
#
# Mechanical properties :
#
#
# Convention : Reuss Voigt Hill
#
# Bulk Modulus (GPa) = 53.36962 54.34254 53.85608
# Shear Modulus (GPa) = 25.71370 26.17494 25.94432
#
# Velocity S-wave (km/s) = 3.76687 3.80051 3.78373
# Velocity P-wave (km/s) = 6.95482 7.01753 6.98625
#
# Compressibility (1/GPa) = 0.01873725
#
# Stress axis : x y z
#
# Youngs Moduli (GPa) = 71.62522 65.59173 72.07119
#
# Poissons Ratio (x) = 0.22264 0.17722
# Poissons Ratio (y) = 0.24312 0.45544
# Poissons Ratio (z) = 0.17613 0.41450
#
# Static dielectric constant tensor:
#      x y z
#    x 3.478300 0.000000 0.000000 
#    y 0.000000 3.600810 0.000000 
#    z 0.000000 0.000000 3.321640 
# 
# 
# High freq. dielectric constant tensor:
#      x y z
#    x 1.715890 0.000000 0.000000 
#    y 0.000000 1.696730 0.000000 
#    z 0.000000 0.000000 1.675590 
# 
# From -- ./inp_files/4051.got.cif
#   From: 2010.03.12/outbox.cif.g09.slc.cpg/sg33_3_cif.got.tgz:4051.got - 2010.04.14 01:49:19.
