data_PCOD8170435
_publ_section_title
;
Structure prediction by ZEFSAII (Michael W. Deem and Ramdas Pophale) SiO2 
 PCOD8170435
Probable space group: P B A 2
;
_chemical_formula_sum "Si O2"
_cell_formula_units_Z 16
_cell_length_a 16.357664
_cell_length_b 4.795608
_cell_length_c 7.640428
_cell_angle_alpha 90.000000
_cell_angle_beta 90.000000
_cell_angle_gamma 90.000000
_cell_volume 599.352949
_symmetry_space_group_name_H-M "P B A 2"
_symmetry_group_IT_number 32
_symmetry_cell_setting 'orthorhombic'
loop_
_space_group_symop_operation_xyz
x,y,z
-x,-y,z
1/2-x,1/2+y,z
1/2+x,1/2-y,z
loop_
_atom_site_type_symbol
_atom_site_label
_atom_site_fract_x
_atom_site_fract_y
_atom_site_fract_z
Si Si1 0.808580 0.754098 0.305010
Si Si2 0.588826 0.076773 0.611129
Si Si3 0.806217 0.193355 0.805010
Si Si4 0.411174 0.923227 0.998891
O O1 0.768110 0.452558 0.305010
O O2 0.865611 0.782860 0.477201
O O3 0.865611 0.782860 0.132819
O O4 0.500000 0.000000 0.534310
O O5 0.642282 0.789907 0.633577
O O6 0.578282 0.222903 0.805010
O O7 0.719110 0.368265 0.805010
O O8 0.857718 0.289907 0.976443
O O9 0.500000 0.000000 0.075710
#
# Coordination Sequence:
#
# PCOD8170435 Si02
#       4
#     4   4   4   4
#     4  12  25  42  67  94 126 168 212 260 311 374
#     4   9  21  42  65  93 129 166 208 260 317 373
#     4  10  19  36  59  86 118 154 200 246 297 360
#     4   9  21  42  65  93 129 166 208 260 317 373
#
# _framework density 26.695454999999999
#
# number of rings (size 3 to 8) (size 9 to 14) (size 15 to 20)
#    1.500    0.500    0.000    3.750    0.000    0.000 
#    0.000   15.000    0.000    0.000    0.000    0.000 
#    0.000    0.000    0.000    0.000    0.000    0.000 
#
# Total GULP energy -198229.230085 kJ/mol
# GULP energy per Si atom -12389.326880 kJ/mol
# Density = 2.663469 g / cm^3
# Si number density = 26.695455 Si / 1000 Ang^3
#
#
#
# Elastic Constant Matrix: (Units=GPa)
#
#
# Indices 1 2 3 4 5 6 
#
# 1 155.8939 1.3465 16.7832 0.0000 0.0000 0.0000
# 2 1.3465 38.7226 21.3370 0.0000 0.0000 0.0000
# 3 16.7832 21.3370 116.6617 0.0000 0.0000 0.0000
# 4 0.0000 0.0000 0.0000 15.3127 0.0000 0.0000
# 5 0.0000 0.0000 0.0000 0.0000 51.1448 0.0000
# 6 0.0000 0.0000 0.0000 0.0000 0.0000 11.2394
#
#
#
# Elastic Compliance Matrix: (Units=1/GPa)
#
#
# Indices 1 2 3 4 5 6 
#
# 1 0.006519 0.000323 -0.000997 0.000000 0.000000 0.000000
# 2 0.000323 0.028735 -0.005302 0.000000 0.000000 0.000000
# 3 -0.000997 -0.005302 0.009685 0.000000 0.000000 0.000000
# 4 0.000000 0.000000 0.000000 0.065305 0.000000 0.000000
# 5 0.000000 0.000000 0.000000 0.000000 0.019552 0.000000
# 6 0.000000 0.000000 0.000000 0.000000 0.000000 0.088973
#
#
# Mechanical properties :
#
#
# Convention : Reuss Voigt Hill
#
# Bulk Modulus (GPa) = 30.31530 43.35684 36.83607
# Shear Modulus (GPa) = 20.68530 33.66014 27.17272
#
# Velocity S-wave (km/s) = 2.78665 3.55476 3.19388
# Velocity P-wave (km/s) = 4.66203 5.75543 5.23734
#
# Compressibility (1/GPa) = 0.03298664
#
# Stress axis : x y z
#
# Youngs Moduli (GPa) = 153.39415 34.80079 103.25341
#
# Poissons Ratio (x) = -0.01123 0.10293
# Poissons Ratio (y) = -0.04948 0.54744
# Poissons Ratio (z) = 0.15291 0.18451
#
# Static dielectric constant tensor:
#      x y z
#    x 5.019940 0.000000 0.000000 
#    y 0.000000 4.040310 0.000000 
#    z 0.000000 0.000000 4.730140 
# 
# 
# High freq. dielectric constant tensor:
#      x y z
#    x 2.098410 0.000000 0.000000 
#    y 0.000000 2.030240 0.000000 
#    z 0.000000 0.000000 2.057920 
# 
# From -- ./inp_files/3139.got.cif
#   From: 2010.03.12/outbox.cif.g09.slc.cpg/sg32_2_cif.got.tgz:3139.got - 2010.04.14 01:46:39.
