data_PCOD8170495
_publ_section_title
;
Structure prediction by ZEFSAII (Michael W. Deem and Ramdas Pophale) SiO2 
 PCOD8170495
Probable space group: P B A 2
;
_chemical_formula_sum "Si O2"
_cell_formula_units_Z 28
_cell_length_a 25.260472
_cell_length_b 8.575625
_cell_length_c 6.356397
_cell_angle_alpha 90.000000
_cell_angle_beta 90.000000
_cell_angle_gamma 90.000000
_cell_volume 1376.950274
_symmetry_space_group_name_H-M "P B A 2"
_symmetry_group_IT_number 32
_symmetry_cell_setting 'orthorhombic'
loop_
_space_group_symop_operation_xyz
x,y,z
-x,-y,z
1/2-x,1/2+y,z
1/2+x,1/2-y,z
loop_
_atom_site_type_symbol
_atom_site_label
_atom_site_fract_x
_atom_site_fract_y
_atom_site_fract_z
Si Si1 0.753734 0.040271 0.087920
Si Si2 0.208456 0.211263 0.394529
Si Si3 0.050041 0.414162 0.027207
Si Si4 0.709146 0.792043 0.781139
Si Si5 0.004787 0.179540 0.689796
Si Si6 0.094507 0.619768 0.681548
Si Si7 0.094374 0.306991 0.430311
O O1 0.717442 0.145901 0.236220
O O2 0.789573 0.943238 0.251225
O O3 0.789576 0.137463 0.924792
O O4 0.716818 0.934891 0.940828
O O5 0.248265 0.209026 0.592105
O O6 0.149959 0.227634 0.492176
O O7 0.089621 0.325707 0.181060
O O8 0.000000 0.500000 0.139275
O O9 0.083460 0.547427 0.909839
O O10 0.028083 0.281300 0.876413
O O11 0.652191 0.802616 0.672577
O O12 0.947682 0.246585 0.621319
O O13 0.046526 0.194897 0.499975
O O14 0.000000 0.000000 0.757526
O O15 0.089726 0.481447 0.515960
#
# Coordination Sequence:
#
# PCOD8170495 Si02
#       7
#     4   4   4   4   4   4   4
#     4  10  23  39  58  90 121 156 205 244 298 363
#     4  11  23  39  61  91 120 157 205 245 296 363
#     4   9  19  38  60  81 109 150 196 240 287 348
#     4  11  22  40  62  86 124 161 193 253 305 343
#     4  10  23  38  56  88 119 147 191 241 295 354
#     4  10  21  38  61  84 112 155 199 237 291 359
#     4  11  21  38  62  84 115 154 195 240 289 352
#
# _framework density 20.334795
#
# number of rings (size 3 to 8) (size 9 to 14) (size 15 to 20)
#    0.000    1.714    0.000    5.571    0.000    8.571 
#    0.000    1.429    0.000    0.000    0.000    0.000 
#    0.000    0.000    0.000    0.000    0.000    0.000 
#
# Total GULP energy -347149.696914 kJ/mol
# GULP energy per Si atom -12398.203461 kJ/mol
# Density = 2.028851 g / cm^3
# Si number density = 20.334795 Si / 1000 Ang^3
#
#
#
# Elastic Constant Matrix: (Units=GPa)
#
#
# Indices 1 2 3 4 5 6 
#
# 1 141.0431 36.0590 36.6400 0.0000 0.0000 0.0000
# 2 36.0590 105.5829 19.0903 0.0000 0.0000 0.0000
# 3 36.6400 19.0903 89.7819 0.0000 0.0000 0.0000
# 4 0.0000 0.0000 0.0000 16.6852 0.0000 0.0000
# 5 0.0000 0.0000 0.0000 0.0000 28.9151 0.0000
# 6 0.0000 0.0000 0.0000 0.0000 0.0000 28.3995
#
#
#
# Elastic Compliance Matrix: (Units=1/GPa)
#
#
# Indices 1 2 3 4 5 6 
#
# 1 0.008459 -0.002355 -0.002951 0.000000 0.000000 0.000000
# 2 -0.002355 0.010506 -0.001273 0.000000 0.000000 0.000000
# 3 -0.002951 -0.001273 0.012613 0.000000 0.000000 0.000000
# 4 0.000000 0.000000 0.000000 0.059933 0.000000 0.000000
# 5 0.000000 0.000000 0.000000 0.000000 0.034584 0.000000
# 6 0.000000 0.000000 0.000000 0.000000 0.000000 0.035212
#
#
# Mechanical properties :
#
#
# Convention : Reuss Voigt Hill
#
# Bulk Modulus (GPa) = 54.29078 57.77628 56.03353
# Shear Modulus (GPa) = 27.68470 31.10786 29.39628
#
# Velocity S-wave (km/s) = 3.69378 3.91549 3.80625
# Velocity P-wave (km/s) = 6.70436 6.99397 6.85069
#
# Compressibility (1/GPa) = 0.01841933
#
# Stress axis : x y z
#
# Youngs Moduli (GPa) = 118.21932 95.18623 79.28261
#
# Poissons Ratio (x) = 0.22419 0.23398
# Poissons Ratio (y) = 0.27844 0.10090
# Poissons Ratio (z) = 0.34890 0.12114
#
# Static dielectric constant tensor:
#      x y z
#    x 3.697800 0.000000 0.000000 
#    y 0.000000 3.791860 0.000000 
#    z 0.000000 0.000000 3.710760 
# 
# 
# High freq. dielectric constant tensor:
#      x y z
#    x 1.795820 0.000000 0.000000 
#    y 0.000000 1.795000 0.000000 
#    z 0.000000 0.000000 1.797320 
# 
# From -- ./inp_files/561.got.cif
#   From: 2010.03.12/outbox.cif.g09.slc.cpg/sg32_1_cif.got.tgz:561.got - 2010.04.14 01:46:39.
