data_PCOD8170831
_publ_section_title
;
Structure prediction by ZEFSAII (Michael W. Deem and Ramdas Pophale) SiO2 
 PCOD8170831
Probable space group: P N A 21
;
_chemical_formula_sum "Si O2"
_cell_formula_units_Z 28
_cell_length_a 12.147284
_cell_length_b 12.554207
_cell_length_c 8.790006
_cell_angle_alpha 90.000000
_cell_angle_beta 90.000000
_cell_angle_gamma 90.000000
_cell_volume 1340.471677
_symmetry_space_group_name_H-M "P N A 21"
_symmetry_group_IT_number 33
_symmetry_cell_setting 'orthorhombic'
loop_
_space_group_symop_operation_xyz
x,y,z
-x,-y,1/2+z
1/2-x,1/2+y,1/2+z
1/2+x,1/2-y,z
loop_
_atom_site_type_symbol
_atom_site_label
_atom_site_fract_x
_atom_site_fract_y
_atom_site_fract_z
Si Si1 0.703730 0.112688 0.795660
Si Si2 0.149652 0.791944 0.039853
Si Si3 0.262177 0.180163 0.981108
Si Si4 0.255251 0.631222 0.816166
Si Si5 0.979368 0.883707 0.475369
Si Si6 0.464130 0.181703 0.804361
Si Si7 0.503040 0.412365 0.311268
O O1 0.757137 0.144437 0.633659
O O2 0.742449 0.197919 0.923589
O O3 0.570510 0.108064 0.781656
O O4 0.737646 0.994368 0.841015
O O5 0.056191 0.743433 0.147907
O O6 0.202157 0.691691 0.956187
O O7 0.092553 0.870808 0.921044
O O8 0.153210 0.108075 0.969251
O O9 0.354251 0.123491 0.871188
O O10 0.297239 0.176080 0.158764
O O11 0.385525 0.656729 0.822642
O O12 0.014754 0.765126 0.438996
O O13 0.033967 0.912458 0.636604
O O14 0.028854 0.965044 0.352572
#
# Coordination Sequence:
#
# PCOD8170831 Si02
#       7
#     4   4   4   4   4   4   4
#     4  10  22  41  62  86 120 158 201 249 297 360
#     4  11  22  37  58  88 119 156 201 249 299 363
#     4   9  20  39  59  85 119 155 200 248 297 359
#     4  11  23  39  60  88 119 155 200 246 301 364
#     4  10  20  35  61  88 115 158 202 248 305 360
#     4  10  20  38  58  82 120 158 196 248 303 353
#     4  11  21  37  60  87 120 156 202 256 304 355
#
# _framework density 20.888169999999999
#
# number of rings (size 3 to 8) (size 9 to 14) (size 15 to 20)
#    0.000    1.714    0.000    6.000    0.000    3.429 
#    0.000    4.286    0.000    0.000    0.000    0.000 
#    0.000    0.000    0.000    0.000    0.000    0.000 
#
# Total GULP energy -347153.259245 kJ/mol
# GULP energy per Si atom -12398.330687 kJ/mol
# Density = 2.084063 g / cm^3
# Si number density = 20.888170 Si / 1000 Ang^3
#
#
#
# Elastic Constant Matrix: (Units=GPa)
#
#
# Indices 1 2 3 4 5 6 
#
# 1 92.6696 11.9112 29.6373 0.0000 0.0000 0.0000
# 2 11.9112 80.3811 34.7824 0.0000 0.0000 0.0000
# 3 29.6373 34.7824 108.5245 0.0000 0.0000 0.0000
# 4 0.0000 0.0000 0.0000 36.2951 0.0000 0.0000
# 5 0.0000 0.0000 0.0000 0.0000 36.1456 0.0000
# 6 0.0000 0.0000 0.0000 0.0000 0.0000 22.0513
#
#
#
# Elastic Compliance Matrix: (Units=1/GPa)
#
#
# Indices 1 2 3 4 5 6 
#
# 1 0.011835 -0.000412 -0.003100 0.000000 0.000000 0.000000
# 2 -0.000412 0.014458 -0.004521 0.000000 0.000000 0.000000
# 3 -0.003100 -0.004521 0.011510 0.000000 0.000000 0.000000
# 4 0.000000 0.000000 0.000000 0.027552 0.000000 0.000000
# 5 0.000000 0.000000 0.000000 0.000000 0.027666 0.000000
# 6 0.000000 0.000000 0.000000 0.000000 0.000000 0.045349
#
#
# Mechanical properties :
#
#
# Convention : Reuss Voigt Hill
#
# Bulk Modulus (GPa) = 46.00549 48.24856 47.12703
# Shear Modulus (GPa) = 30.92460 32.58134 31.75297
#
# Velocity S-wave (km/s) = 3.85188 3.95371 3.90313
# Velocity P-wave (km/s) = 6.46955 6.63258 6.55157
#
# Compressibility (1/GPa) = 0.02173654
#
# Stress axis : x y z
#
# Youngs Moduli (GPa) = 84.49179 69.16445 86.87953
#
# Poissons Ratio (x) = 0.02852 0.26933
# Poissons Ratio (y) = 0.03484 0.39281
# Poissons Ratio (z) = 0.26193 0.31271
#
# Static dielectric constant tensor:
#      x y z
#    x 4.144840 0.000000 0.000000 
#    y 0.000000 3.489120 0.000000 
#    z 0.000000 0.000000 3.837160 
# 
# 
# High freq. dielectric constant tensor:
#      x y z
#    x 1.830240 0.000000 0.000000 
#    y 0.000000 1.794630 0.000000 
#    z 0.000000 0.000000 1.825540 
# 
# From -- ./inp_files/3848.got.cif
#   From: 2010.03.12/outbox.cif.g09.slc.cpg/sg33_2_cif.got.tgz:3848.got - 2010.04.14 01:49:19.
