data_PCOD8170868
_publ_section_title
;
Structure prediction by ZEFSAII (Michael W. Deem and Ramdas Pophale) SiO2 
 PCOD8170868
Probable space group: P N A 21
;
_chemical_formula_sum "Si O2"
_cell_formula_units_Z 24
_cell_length_a 15.130694
_cell_length_b 9.260467
_cell_length_c 8.994532
_cell_angle_alpha 90.000000
_cell_angle_beta 90.000000
_cell_angle_gamma 90.000000
_cell_volume 1260.289471
_symmetry_space_group_name_H-M "P N A 21"
_symmetry_group_IT_number 33
_symmetry_cell_setting 'orthorhombic'
loop_
_space_group_symop_operation_xyz
x,y,z
-x,-y,1/2+z
1/2-x,1/2+y,1/2+z
1/2+x,1/2-y,z
loop_
_atom_site_type_symbol
_atom_site_label
_atom_site_fract_x
_atom_site_fract_y
_atom_site_fract_z
Si Si1 0.676368 0.338184 0.009400
Si Si2 0.512844 0.343545 0.552333
Si Si3 0.838882 0.326665 0.211177
Si Si4 0.843837 0.665120 0.211737
Si Si5 0.008207 0.138268 0.206468
Si Si6 0.318107 0.328452 0.507058
O O1 0.769975 0.292142 0.079770
O O2 0.598229 0.314739 0.127382
O O3 0.654296 0.238540 0.871084
O O4 0.680814 0.504121 0.957976
O O5 0.576357 0.217827 0.608752
O O6 0.529783 0.487030 0.647608
O O7 0.530116 0.377667 0.379887
O O8 0.413135 0.286351 0.575026
O O9 0.853830 0.495588 0.232843
O O10 0.796733 0.264793 0.362067
O O11 0.933212 0.256719 0.174021
O O12 0.752293 0.706573 0.133357
#
# Coordination Sequence:
#
# PCOD8170868 Si02
#       6
#     4   4   4   4   4   4
#     4  10  22  38  58  82 111 152 188 221 281 342
#     4  10  20  38  59  81 111 150 189 225 275 338
#     4  10  22  38  57  84 112 143 188 236 277 322
#     4  11  22  36  58  85 112 143 185 235 279 324
#     4  10  21  38  60  82 112 151 188 226 275 339
#     4   9  21  40  56  78 112 149 184 223 275 337
#
# _framework density 19.043244000000001
#
# number of rings (size 3 to 8) (size 9 to 14) (size 15 to 20)
#    0.000    2.000    0.000    4.000    0.000   10.667 
#    0.000    3.333    0.000    0.000    0.000    0.000 
#    0.000    0.000    0.000    0.000    0.000    0.000 
#
# Total GULP energy -297694.739107 kJ/mol
# GULP energy per Si atom -12403.947463 kJ/mol
# Density = 1.899990 g / cm^3
# Si number density = 19.043244 Si / 1000 Ang^3
#
#
#
# Elastic Constant Matrix: (Units=GPa)
#
#
# Indices 1 2 3 4 5 6 
#
# 1 106.8843 55.8745 58.1455 0.0000 0.0000 0.0000
# 2 55.8745 88.6322 62.7801 0.0000 0.0000 0.0000
# 3 58.1455 62.7801 123.0475 0.0000 0.0000 0.0000
# 4 0.0000 0.0000 0.0000 36.3194 0.0000 0.0000
# 5 0.0000 0.0000 0.0000 0.0000 31.4581 0.0000
# 6 0.0000 0.0000 0.0000 0.0000 0.0000 30.0234
#
#
#
# Elastic Compliance Matrix: (Units=1/GPa)
#
#
# Indices 1 2 3 4 5 6 
#
# 1 0.014865 -0.006883 -0.003513 0.000000 0.000000 0.000000
# 2 -0.006883 0.020854 -0.007388 0.000000 0.000000 0.000000
# 3 -0.003513 -0.007388 0.013556 0.000000 0.000000 0.000000
# 4 0.000000 0.000000 0.000000 0.027533 0.000000 0.000000
# 5 0.000000 0.000000 0.000000 0.000000 0.031788 0.000000
# 6 0.000000 0.000000 0.000000 0.000000 0.000000 0.033307
#
#
# Mechanical properties :
#
#
# Convention : Reuss Voigt Hill
#
# Bulk Modulus (GPa) = 72.94447 74.68491 73.81469
# Shear Modulus (GPa) = 27.46642 29.01113 28.23877
#
# Velocity S-wave (km/s) = 3.80191 3.90735 3.85499
# Velocity P-wave (km/s) = 7.59345 7.72401 7.65901
#
# Compressibility (1/GPa) = 0.01370906
#
# Stress axis : x y z
#
# Youngs Moduli (GPa) = 67.27276 47.95136 73.76772
#
# Poissons Ratio (x) = 0.33004 0.25912
# Poissons Ratio (y) = 0.46303 0.54497
# Poissons Ratio (z) = 0.23630 0.35425
#
# Static dielectric constant tensor:
#      x y z
#    x 3.655010 0.000000 0.000000 
#    y 0.000000 3.442980 0.000000 
#    z 0.000000 0.000000 3.481590 
# 
# 
# High freq. dielectric constant tensor:
#      x y z
#    x 1.754870 0.000000 0.000000 
#    y 0.000000 1.737650 0.000000 
#    z 0.000000 0.000000 1.747230 
# 
# From -- ./inp_files/4195.got.cif
#   From: 2010.03.12/outbox.cif.g09.slc.cpg/sg33_3_cif.got.tgz:4195.got - 2010.04.14 01:49:19.
