data_PCOD8170422
_publ_section_title
;
Structure prediction by ZEFSAII (Michael W. Deem and Ramdas Pophale) SiO2 
 PCOD8170422
Probable space group: P B A 2
;
_chemical_formula_sum "Si O2"
_cell_formula_units_Z 26
_cell_length_a 5.220731
_cell_length_b 27.378032
_cell_length_c 7.999340
_cell_angle_alpha 90.000000
_cell_angle_beta 90.000000
_cell_angle_gamma 90.000000
_cell_volume 1143.372387
_symmetry_space_group_name_H-M "P B A 2"
_symmetry_group_IT_number 32
_symmetry_cell_setting 'orthorhombic'
loop_
_space_group_symop_operation_xyz
x,y,z
-x,-y,z
1/2-x,1/2+y,z
1/2+x,1/2-y,z
loop_
_atom_site_type_symbol
_atom_site_label
_atom_site_fract_x
_atom_site_fract_y
_atom_site_fract_z
Si Si1 0.500000 0.500000 0.393780
Si Si2 0.844107 0.088963 0.173931
Si Si3 0.710288 0.735521 0.525465
Si Si4 0.722876 0.127696 0.506615
Si Si5 0.347010 0.108420 0.969056
Si Si6 0.777719 0.923956 0.615138
Si Si7 0.157455 0.723324 0.887513
O O1 0.651050 0.537959 0.275511
O O2 0.713639 0.475431 0.516227
O O3 0.783598 0.131160 0.309061
O O4 0.621063 0.089827 0.036299
O O5 0.123611 0.098894 0.100844
O O6 0.448821 0.742770 0.418949
O O7 0.753838 0.680827 0.586179
O O8 0.658094 0.769677 0.687410
O O9 0.433271 0.109369 0.525446
O O10 0.931694 0.095735 0.603431
O O11 0.292416 0.073437 0.810245
O O12 0.355569 0.165552 0.923294
O O13 0.411539 0.748537 0.965311
#
# Coordination Sequence:
#
# PCOD8170422 Si02
#       7
#     2   4   4   4   4   4   4
#     4  10  26  50  70  98 126 184 224 282 342 422
#     4  11  26  45  69  96 145 172 216 280 362 410
#     4  10  19  33  60  92 126 170 226 269 303 374
#     4  11  22  43  67  98 133 183 219 273 335 399
#     4  12  24  43  69 106 137 179 218 288 344 391
#     4  11  23  42  73  97 128 167 237 276 326 408
#     4  10  19  35  61  93 132 173 220 268 317 381
#
# _framework density 22.739749
#
# number of rings (size 3 to 8) (size 9 to 14) (size 15 to 20)
#    0.000    1.231    0.000    8.308    0.000    6.154 
#    0.000    7.692    0.000    0.000    0.000    0.000 
#    0.000    0.000    0.000    0.000    0.000    0.000 
#
# Total GULP energy -322228.494934 kJ/mol
# GULP energy per Si atom -12393.403651 kJ/mol
# Density = 2.268799 g / cm^3
# Si number density = 22.739749 Si / 1000 Ang^3
#
#
#
# Elastic Constant Matrix: (Units=GPa)
#
#
# Indices 1 2 3 4 5 6 
#
# 1 157.8716 46.8706 19.8328 0.0000 0.0000 0.0000
# 2 46.8706 129.2941 36.1069 0.0000 0.0000 0.0000
# 3 19.8328 36.1069 95.8467 0.0000 0.0000 0.0000
# 4 0.0000 0.0000 0.0000 28.2467 0.0000 0.0000
# 5 0.0000 0.0000 0.0000 0.0000 37.7663 0.0000
# 6 0.0000 0.0000 0.0000 0.0000 0.0000 36.0486
#
#
#
# Elastic Compliance Matrix: (Units=1/GPa)
#
#
# Indices 1 2 3 4 5 6 
#
# 1 0.007125 -0.002426 -0.000560 0.000000 0.000000 0.000000
# 2 -0.002426 0.009470 -0.003065 0.000000 0.000000 0.000000
# 3 -0.000560 -0.003065 0.011704 0.000000 0.000000 0.000000
# 4 0.000000 0.000000 0.000000 0.035402 0.000000 0.000000
# 5 0.000000 0.000000 0.000000 0.000000 0.026479 0.000000
# 6 0.000000 0.000000 0.000000 0.000000 0.000000 0.027740
#
#
# Mechanical properties :
#
#
# Convention : Reuss Voigt Hill
#
# Bulk Modulus (GPa) = 61.74802 65.40368 63.57585
# Shear Modulus (GPa) = 36.92139 39.09246 38.00692
#
# Velocity S-wave (km/s) = 4.03383 4.15073 4.09270
# Velocity P-wave (km/s) = 6.99349 7.19692 7.09593
#
# Compressibility (1/GPa) = 0.01619485
#
# Stress axis : x y z
#
# Youngs Moduli (GPa) = 140.35020 105.59696 85.44064
#
# Poissons Ratio (x) = 0.25623 0.04787
# Poissons Ratio (y) = 0.34055 0.26191
# Poissons Ratio (z) = 0.07863 0.32370
#
# Static dielectric constant tensor:
#      x y z
#    x 5.015800 0.000000 0.000000 
#    y 0.000000 4.140240 0.000000 
#    z 0.000000 0.000000 4.024250 
# 
# 
# High freq. dielectric constant tensor:
#      x y z
#    x 1.930510 0.000000 0.000000 
#    y 0.000000 1.893180 0.000000 
#    z 0.000000 0.000000 1.873570 
# 
# From -- ./inp_files/2009.got.cif
#   From: 2010.03.12/outbox.cif.g09.slc.cpg/sg32_2_cif.got.tgz:2009.got - 2010.04.14 01:46:39.
