data_PCOD8170980
_publ_section_title
;
Structure prediction by ZEFSAII (Michael W. Deem and Ramdas Pophale) SiO2 
 PCOD8170980
Probable space group: P N A 21
;
_chemical_formula_sum "Si O2"
_cell_formula_units_Z 32
_cell_length_a 20.779567
_cell_length_b 12.306396
_cell_length_c 5.256132
_cell_angle_alpha 90.000000
_cell_angle_beta 90.000000
_cell_angle_gamma 90.000000
_cell_volume 1344.106381
_symmetry_space_group_name_H-M "P N A 21"
_symmetry_group_IT_number 33
_symmetry_cell_setting 'orthorhombic'
loop_
_space_group_symop_operation_xyz
x,y,z
-x,-y,1/2+z
1/2-x,1/2+y,1/2+z
1/2+x,1/2-y,z
loop_
_atom_site_type_symbol
_atom_site_label
_atom_site_fract_x
_atom_site_fract_y
_atom_site_fract_z
Si Si1 0.139729 0.251407 0.370020
Si Si2 0.334550 0.260881 0.100094
Si Si3 0.438925 0.417488 0.951263
Si Si4 0.937811 0.869892 0.228149
Si Si5 0.234433 0.832477 0.089211
Si Si6 0.931431 0.581970 0.573740
Si Si7 0.654560 0.465779 0.106788
Si Si8 0.578148 0.944988 0.572853
O O1 0.077197 0.233299 0.550886
O O2 0.189690 0.322519 0.533824
O O3 0.111863 0.308673 0.113218
O O4 0.168759 0.131553 0.307026
O O5 0.298096 0.261958 0.366801
O O6 0.366642 0.144656 0.067598
O O7 0.389555 0.352080 0.127751
O O8 0.285371 0.285239 0.865974
O O9 0.501274 0.339669 0.905260
O O10 0.400182 0.449523 0.696543
O O11 0.465495 0.526973 0.075426
O O12 0.870700 0.906763 0.354808
O O13 0.218361 0.961594 0.063517
O O14 0.911181 0.524587 0.312386
O O15 0.007315 0.608719 0.581774
O O16 0.912466 0.508662 0.812605
#
# Coordination Sequence:
#
# PCOD8170980 Si02
#       8
#     4   4   4   4   4   4   4   4
#     4  11  28  43  71 102 139 195 241 291 356 426
#     4  11  24  44  72  99 135 192 231 292 358 421
#     4  10  21  37  67 103 146 177 224 300 368 435
#     4  11  21  39  66 107 142 180 230 293 373 435
#     4  11  26  48  68  99 145 182 243 286 339 430
#     4  10  24  44  67  99 139 179 233 303 349 424
#     4  10  23  43  67 101 139 184 232 289 360 422
#     4  10  23  44  68 100 137 177 236 290 363 421
#
# _framework density 23.807639000000002
#
# number of rings (size 3 to 8) (size 9 to 14) (size 15 to 20)
#    0.000    1.500    2.500    0.750    5.250    5.000 
#    2.250    0.000    0.000    0.000    0.000    0.000 
#    0.000    0.000    0.000    0.000    0.000    0.000 
#
# Total GULP energy -396722.317306 kJ/mol
# GULP energy per Si atom -12397.572416 kJ/mol
# Density = 2.375345 g / cm^3
# Si number density = 23.807639 Si / 1000 Ang^3
#
#
#
# Elastic Constant Matrix: (Units=GPa)
#
#
# Indices 1 2 3 4 5 6 
#
# 1 89.2343 33.4538 4.4361 0.0000 0.0000 0.0000
# 2 33.4538 87.5036 7.8349 0.0000 0.0000 0.0000
# 3 4.4361 7.8349 70.6901 0.0000 0.0000 0.0000
# 4 0.0000 0.0000 0.0000 24.0304 0.0000 0.0000
# 5 0.0000 0.0000 0.0000 0.0000 27.7287 0.0000
# 6 0.0000 0.0000 0.0000 0.0000 0.0000 36.6251
#
#
#
# Elastic Compliance Matrix: (Units=1/GPa)
#
#
# Indices 1 2 3 4 5 6 
#
# 1 0.013086 -0.004979 -0.000269 0.000000 0.000000 0.000000
# 2 -0.004979 0.013437 -0.001177 0.000000 0.000000 0.000000
# 3 -0.000269 -0.001177 0.014294 0.000000 0.000000 0.000000
# 4 0.000000 0.000000 0.000000 0.041614 0.000000 0.000000
# 5 0.000000 0.000000 0.000000 0.000000 0.036064 0.000000
# 6 0.000000 0.000000 0.000000 0.000000 0.000000 0.027304
#
#
# Mechanical properties :
#
#
# Convention : Reuss Voigt Hill
#
# Bulk Modulus (GPa) = 35.75691 37.65306 36.70499
# Shear Modulus (GPa) = 29.76704 31.12373 30.44539
#
# Velocity S-wave (km/s) = 3.53982 3.61958 3.57992
# Velocity P-wave (km/s) = 5.63549 5.77221 5.70426
#
# Compressibility (1/GPa) = 0.02796662
#
# Stress axis : x y z
#
# Youngs Moduli (GPa) = 76.41477 74.42128 69.96142
#
# Poissons Ratio (x) = 0.37054 0.01885
# Poissons Ratio (y) = 0.38047 0.08233
# Poissons Ratio (z) = 0.02059 0.08758
#
# Static dielectric constant tensor:
#      x y z
#    x 4.238400 0.000000 0.000000 
#    y 0.000000 4.294780 0.000000 
#    z 0.000000 0.000000 4.326910 
# 
# 
# High freq. dielectric constant tensor:
#      x y z
#    x 1.934400 0.000000 0.000000 
#    y 0.000000 1.941600 0.000000 
#    z 0.000000 0.000000 1.949760 
# 
# From -- ./inp_files/2051.got.cif
#   From: 2010.03.12/outbox.cif.g09.slc.cpg/sg33_2_cif.got.tgz:2051.got - 2010.04.14 01:49:19.
