data_PCOD8170421
_publ_section_title
;
Structure prediction by ZEFSAII (Michael W. Deem and Ramdas Pophale) SiO2 
 PCOD8170421
Probable space group: P B A 2
;
_chemical_formula_sum "Si O2"
_cell_formula_units_Z 32
_cell_length_a 19.968893
_cell_length_b 8.592206
_cell_length_c 10.062654
_cell_angle_alpha 90.000000
_cell_angle_beta 90.000000
_cell_angle_gamma 90.000000
_cell_volume 1726.518398
_symmetry_space_group_name_H-M "P B A 2"
_symmetry_group_IT_number 32
_symmetry_cell_setting 'orthorhombic'
loop_
_space_group_symop_operation_xyz
x,y,z
-x,-y,z
1/2-x,1/2+y,z
1/2+x,1/2-y,z
loop_
_atom_site_type_symbol
_atom_site_label
_atom_site_fract_x
_atom_site_fract_y
_atom_site_fract_z
Si Si1 0.178053 0.184718 0.819080
Si Si2 0.426145 0.315262 0.604606
Si Si3 0.321068 0.818026 0.102209
Si Si4 0.821948 0.184719 0.819080
Si Si5 0.178931 0.681974 0.102209
Si Si6 0.421994 0.680176 0.305286
Si Si7 0.078006 0.819823 0.305286
Si Si8 0.073856 0.184738 0.604606
O O1 0.250000 0.249999 0.779089
O O2 0.125895 0.252614 0.711345
O O3 0.179962 0.999999 0.816811
O O4 0.155874 0.240592 0.964382
O O5 0.374105 0.247384 0.711346
O O6 0.405111 0.266965 0.455570
O O7 0.428609 0.500000 0.612432
O O8 0.500000 0.248327 0.637595
O O9 0.250000 0.750000 0.150753
O O10 0.377785 0.786649 0.210254
O O11 0.312204 1.000000 0.078969
O O12 0.844127 0.240592 0.964382
O O13 0.122215 0.713350 0.210254
O O14 0.403400 0.500000 0.282658
O O15 0.500000 0.708493 0.273870
O O16 0.405111 0.733034 0.455569
#
# Coordination Sequence:
#
# PCOD8170421 Si02
#       8
#     4   4   4   4   4   4   4   4
#     4  10  19  33  53  76 103 134 170 211 257 306
#     4   8  16  32  54  78 102 131 169 209 249 301
#     4  11  22  36  53  75 105 138 176 217 258 305
#     4  10  19  33  53  76 103 134 170 211 257 306
#     4  11  22  36  53  75 105 138 176 217 258 305
#     4   9  18  35  57  79 105 137 172 210 255 307
#     4   9  18  35  57  79 105 137 172 210 255 307
#     4   8  16  32  54  78 102 131 169 209 249 301
#
# _framework density 18.534407999999999
#
# number of rings (size 3 to 8) (size 9 to 14) (size 15 to 20)
#    0.000    2.500    0.000    6.000    0.000    2.500 
#    0.000    7.500    0.000    5.250    0.000    0.000 
#    0.000    0.000    0.000    0.000    0.000    0.000 
#
# Total GULP energy -396787.858477 kJ/mol
# GULP energy per Si atom -12399.620577 kJ/mol
# Density = 1.849222 g / cm^3
# Si number density = 18.534408 Si / 1000 Ang^3
#
#
#
# Elastic Constant Matrix: (Units=GPa)
#
#
# Indices 1 2 3 4 5 6 
#
# 1 112.9909 29.9656 95.2059 0.0000 0.0000 0.0000
# 2 29.9656 68.0569 28.2044 0.0000 0.0000 0.0000
# 3 95.2059 28.2044 131.8765 0.0000 0.0000 0.0000
# 4 0.0000 0.0000 0.0000 22.6665 0.0000 0.0000
# 5 0.0000 0.0000 0.0000 0.0000 43.3854 0.0000
# 6 0.0000 0.0000 0.0000 0.0000 0.0000 28.2277
#
#
#
# Elastic Compliance Matrix: (Units=1/GPa)
#
#
# Indices 1 2 3 4 5 6 
#
# 1 0.023380 -0.003620 -0.016104 0.000000 0.000000 0.000000
# 2 -0.003620 0.016683 -0.000955 0.000000 0.000000 0.000000
# 3 -0.016104 -0.000955 0.019413 0.000000 0.000000 0.000000
# 4 0.000000 0.000000 0.000000 0.044118 0.000000 0.000000
# 5 0.000000 0.000000 0.000000 0.000000 0.023049 0.000000
# 6 0.000000 0.000000 0.000000 0.000000 0.000000 0.035426
#
#
# Mechanical properties :
#
#
# Convention : Reuss Voigt Hill
#
# Bulk Modulus (GPa) = 55.19346 68.85291 62.02318
# Shear Modulus (GPa) = 23.87005 29.49249 26.68127
#
# Velocity S-wave (km/s) = 3.59259 3.99335 3.79826
# Velocity P-wave (km/s) = 6.85949 7.64799 7.26445
#
# Compressibility (1/GPa) = 0.01811809
#
# Stress axis : x y z
#
# Youngs Moduli (GPa) = 42.77168 59.94083 51.51100
#
# Poissons Ratio (x) = 0.21700 0.82956
# Poissons Ratio (y) = 0.15484 0.04917
# Poissons Ratio (z) = 0.68882 0.05721
#
# Static dielectric constant tensor:
#      x y z
#    x 3.622090 0.000000 0.000000 
#    y 0.000000 3.159350 0.000000 
#    z 0.000000 0.000000 3.550510 
# 
# 
# High freq. dielectric constant tensor:
#      x y z
#    x 1.722210 0.000000 0.000000 
#    y 0.000000 1.701240 0.000000 
#    z 0.000000 0.000000 1.724320 
# 
# From -- ./inp_files/4005.got.cif
#   From: 2010.03.12/outbox.cif.g09.slc.cpg/sg32_3_cif.got.tgz:4005.got - 2010.04.14 01:46:39.
