data_PCOD8170829
_publ_section_title
;
Structure prediction by ZEFSAII (Michael W. Deem and Ramdas Pophale) SiO2 
 PCOD8170829
Probable space group: P N A 21
;
_chemical_formula_sum "Si O2"
_cell_formula_units_Z 32
_cell_length_a 9.005337
_cell_length_b 11.088088
_cell_length_c 16.467896
_cell_angle_alpha 90.000000
_cell_angle_beta 90.000000
_cell_angle_gamma 90.000000
_cell_volume 1644.351843
_symmetry_space_group_name_H-M "P N A 21"
_symmetry_group_IT_number 33
_symmetry_cell_setting 'orthorhombic'
loop_
_space_group_symop_operation_xyz
x,y,z
-x,-y,1/2+z
1/2-x,1/2+y,1/2+z
1/2+x,1/2-y,z
loop_
_atom_site_type_symbol
_atom_site_label
_atom_site_fract_x
_atom_site_fract_y
_atom_site_fract_z
Si Si1 0.461330 0.012285 0.654800
Si Si2 0.307305 0.788764 0.736658
Si Si3 0.101766 0.285803 0.754565
Si Si4 0.730828 0.319681 0.592922
Si Si5 0.478011 0.352754 0.335161
Si Si6 0.619132 0.591450 0.286775
Si Si7 0.288570 0.546907 0.631562
Si Si8 0.425048 0.383271 0.516377
O O1 0.489294 0.112732 0.723111
O O2 0.346196 0.068431 0.590339
O O3 0.391663 0.896079 0.694650
O O4 0.615871 0.977648 0.612160
O O5 0.399272 0.750014 0.817132
O O6 0.145853 0.836593 0.764565
O O7 0.302573 0.679959 0.670518
O O8 0.178251 0.208634 0.683497
O O9 0.223348 0.349396 0.813487
O O10 0.006887 0.189866 0.804377
O O11 0.595092 0.355495 0.535779
O O12 0.809432 0.200985 0.561686
O O13 0.571186 0.476269 0.337311
O O14 0.399969 0.351874 0.422103
O O15 0.641966 0.552127 0.193036
O O16 0.380042 0.520051 0.547360
#
# Coordination Sequence:
#
# PCOD8170829 Si02
#       8
#     4   4   4   4   4   4   4   4
#     4  11  20  34  63  92 113 151 207 253 295 351
#     4  11  23  40  61  89 122 167 204 248 302 378
#     4  11  17  34  61  89 111 139 201 259 288 343
#     4  12  19  33  61  93 113 153 193 257 302 348
#     4  11  25  40  59  88 128 166 196 251 315 370
#     4  10  20  35  60  86 113 152 200 248 298 351
#     4  10  20  38  60  87 118 155 206 249 293 367
#     4  12  22  38  61  90 130 155 203 257 315 358
#
# _framework density 19.460557000000001
#
# number of rings (size 3 to 8) (size 9 to 14) (size 15 to 20)
#    0.000    1.000    7.500    1.500    1.750    0.000 
#    0.000    0.000    5.500    0.000    0.000    0.000 
#    0.000    0.000    0.000    0.000    0.000    0.000 
#
# Total GULP energy -396553.737374 kJ/mol
# GULP energy per Si atom -12392.304293 kJ/mol
# Density = 1.941626 g / cm^3
# Si number density = 19.460557 Si / 1000 Ang^3
#
#
#
# Elastic Constant Matrix: (Units=GPa)
#
#
# Indices 1 2 3 4 5 6 
#
# 1 112.8149 40.9370 19.8254 0.0000 0.0000 0.0000
# 2 40.9370 83.5210 23.3614 0.0000 0.0000 0.0000
# 3 19.8254 23.3614 46.2556 0.0000 0.0000 0.0000
# 4 0.0000 0.0000 0.0000 12.8683 0.0000 0.0000
# 5 0.0000 0.0000 0.0000 0.0000 16.2360 0.0000
# 6 0.0000 0.0000 0.0000 0.0000 0.0000 20.7122
#
#
#
# Elastic Compliance Matrix: (Units=1/GPa)
#
#
# Indices 1 2 3 4 5 6 
#
# 1 0.010991 -0.004739 -0.002317 0.000000 0.000000 0.000000
# 2 -0.004739 0.015986 -0.006043 0.000000 0.000000 0.000000
# 3 -0.002317 -0.006043 0.025664 0.000000 0.000000 0.000000
# 4 0.000000 0.000000 0.000000 0.077710 0.000000 0.000000
# 5 0.000000 0.000000 0.000000 0.000000 0.061592 0.000000
# 6 0.000000 0.000000 0.000000 0.000000 0.000000 0.048281
#
#
# Mechanical properties :
#
#
# Convention : Reuss Voigt Hill
#
# Bulk Modulus (GPa) = 37.81694 45.64878 41.73286
# Shear Modulus (GPa) = 18.16625 20.52781 19.34703
#
# Velocity S-wave (km/s) = 3.05862 3.25136 3.15646
# Velocity P-wave (km/s) = 5.65229 6.13214 5.89709
#
# Compressibility (1/GPa) = 0.02644318
#
# Stress axis : x y z
#
# Youngs Moduli (GPa) = 90.98422 62.55513 38.96502
#
# Poissons Ratio (x) = 0.29644 0.09030
# Poissons Ratio (y) = 0.43116 0.23545
# Poissons Ratio (z) = 0.21085 0.37799
#
# Static dielectric constant tensor:
#      x y z
#    x 3.979640 0.000000 0.000000 
#    y 0.000000 3.718690 0.000000 
#    z 0.000000 0.000000 3.196550 
# 
# 
# High freq. dielectric constant tensor:
#      x y z
#    x 1.784850 0.000000 0.000000 
#    y 0.000000 1.764980 0.000000 
#    z 0.000000 0.000000 1.697840 
# 
# From -- ./inp_files/8543.got.cif
#   From: 2010.03.12/outbox.cif.g09.slc.cpg/sg33_5_cif.got.tgz:8543.got - 2010.04.14 01:49:19.
