data_PCOD8170956
_publ_section_title
;
Structure prediction by ZEFSAII (Michael W. Deem and Ramdas Pophale) SiO2 
 PCOD8170956
Probable space group: P N A 21
;
_chemical_formula_sum "Si O2"
_cell_formula_units_Z 28
_cell_length_a 13.361457
_cell_length_b 16.704062
_cell_length_c 6.294151
_cell_angle_alpha 90.000000
_cell_angle_beta 90.000000
_cell_angle_gamma 90.000000
_cell_volume 1404.795377
_symmetry_space_group_name_H-M "P N A 21"
_symmetry_group_IT_number 33
_symmetry_cell_setting 'orthorhombic'
loop_
_space_group_symop_operation_xyz
x,y,z
-x,-y,1/2+z
1/2-x,1/2+y,1/2+z
1/2+x,1/2-y,z
loop_
_atom_site_type_symbol
_atom_site_label
_atom_site_fract_x
_atom_site_fract_y
_atom_site_fract_z
Si Si1 0.000000 0.750000 0.828270
Si Si2 0.009188 0.388377 0.015664
Si Si3 0.363532 0.839469 0.131094
Si Si4 0.635412 0.511898 0.830646
Si Si5 0.364588 0.988102 0.830646
Si Si6 0.990812 0.111623 0.015664
Si Si7 0.636468 0.660531 0.131094
O O1 0.967285 0.826068 0.688087
O O2 0.032715 0.673932 0.688087
O O3 0.095204 0.771662 0.972827
O O4 0.904796 0.728338 0.972827
O O5 0.074422 0.338756 0.847733
O O6 0.914610 0.428996 0.902596
O O7 0.079191 0.455593 0.122496
O O8 0.250000 0.816794 0.185078
O O9 0.371603 0.926391 0.024639
O O10 0.750000 0.494996 0.767109
O O11 0.579191 0.544407 0.622496
O O12 0.585390 0.428996 0.902596
O O13 0.628397 0.573609 0.024639
O O14 0.925578 0.161244 0.847733
#
# Coordination Sequence:
#
# PCOD8170956 Si02
#       7
#     4   4   4   4   4   4   4
#     4  10  24  38  60  88 126 160 200 254 302 362
#     4  11  20  40  62  89 125 157 205 258 301 364
#     4  10  21  40  62  88 123 167 202 245 312 367
#     4  10  21  36  62  92 119 159 206 255 309 360
#     4  10  21  36  62  92 119 159 206 255 309 360
#     4  11  20  40  62  89 125 157 205 258 301 364
#     4  10  21  40  62  88 123 167 202 245 312 367
#
# _framework density 19.931729000000001
#
# number of rings (size 3 to 8) (size 9 to 14) (size 15 to 20)
#    0.000    1.714    2.857    1.714    0.000    2.286 
#    0.000    4.286    0.000    0.000    0.000    0.000 
#    0.000    0.000    0.000    0.000    0.000    0.000 
#
# Total GULP energy -347362.892102 kJ/mol
# GULP energy per Si atom -12405.817575 kJ/mol
# Density = 1.988636 g / cm^3
# Si number density = 19.931729 Si / 1000 Ang^3
#
#
#
# Elastic Constant Matrix: (Units=GPa)
#
#
# Indices 1 2 3 4 5 6 
#
# 1 128.7154 65.7879 43.1925 0.0000 0.0000 0.0000
# 2 65.7879 97.7780 47.7785 0.0000 0.0000 0.0000
# 3 43.1925 47.7785 101.6864 0.0000 0.0000 0.0000
# 4 0.0000 0.0000 0.0000 31.6662 0.0000 0.0000
# 5 0.0000 0.0000 0.0000 0.0000 26.7136 0.0000
# 6 0.0000 0.0000 0.0000 0.0000 0.0000 29.2543
#
#
#
# Elastic Compliance Matrix: (Units=1/GPa)
#
#
# Indices 1 2 3 4 5 6 
#
# 1 0.012064 -0.007286 -0.001701 0.000000 0.000000 0.000000
# 2 -0.007286 0.017675 -0.005210 0.000000 0.000000 0.000000
# 3 -0.001701 -0.005210 0.013005 0.000000 0.000000 0.000000
# 4 0.000000 0.000000 0.000000 0.031579 0.000000 0.000000
# 5 0.000000 0.000000 0.000000 0.000000 0.037434 0.000000
# 6 0.000000 0.000000 0.000000 0.000000 0.000000 0.034183
#
#
# Mechanical properties :
#
#
# Convention : Reuss Voigt Hill
#
# Bulk Modulus (GPa) = 69.68655 71.29971 70.49313
# Shear Modulus (GPa) = 27.91477 28.95491 28.43484
#
# Velocity S-wave (km/s) = 3.74641 3.81557 3.78115
# Velocity P-wave (km/s) = 7.33162 7.43378 7.38288
#
# Compressibility (1/GPa) = 0.01434997
#
# Stress axis : x y z
#
# Youngs Moduli (GPa) = 82.89399 56.57670 76.89511
#
# Poissons Ratio (x) = 0.41219 0.13079
# Poissons Ratio (y) = 0.60393 0.40064
# Poissons Ratio (z) = 0.14100 0.29478
#
# Static dielectric constant tensor:
#      x y z
#    x 3.600200 0.000000 0.000000 
#    y 0.000000 3.484590 0.000000 
#    z 0.000000 0.000000 3.686740 
# 
# 
# High freq. dielectric constant tensor:
#      x y z
#    x 1.772370 0.000000 0.000000 
#    y 0.000000 1.769080 0.000000 
#    z 0.000000 0.000000 1.788040 
# 
# From -- ./inp_files/1401.got.cif
#   From: 2010.03.12/outbox.cif.g09.slc.cpg/sg33_1_cif.got.tgz:1401.got - 2010.04.14 01:49:19.
