data_PCOD8170705
_publ_section_title
;
Structure prediction by ZEFSAII (Michael W. Deem and Ramdas Pophale) SiO2 
 PCOD8170705
Probable space group: P N A 21
;
_chemical_formula_sum "Si O2"
_cell_formula_units_Z 28
_cell_length_a 29.070225
_cell_length_b 9.139759
_cell_length_c 5.036210
_cell_angle_alpha 90.000000
_cell_angle_beta 90.000000
_cell_angle_gamma 90.000000
_cell_volume 1338.095063
_symmetry_space_group_name_H-M "P N A 21"
_symmetry_group_IT_number 33
_symmetry_cell_setting 'orthorhombic'
loop_
_space_group_symop_operation_xyz
x,y,z
-x,-y,1/2+z
1/2-x,1/2+y,1/2+z
1/2+x,1/2-y,z
loop_
_atom_site_type_symbol
_atom_site_label
_atom_site_fract_x
_atom_site_fract_y
_atom_site_fract_z
Si Si1 0.518837 0.953163 0.345980
Si Si2 0.218246 0.572196 0.214487
Si Si3 0.060003 0.059462 0.598559
Si Si4 0.370063 0.332327 0.254575
Si Si5 0.479573 0.675725 0.593211
Si Si6 0.883813 0.349120 0.748545
Si Si7 0.232251 0.767625 0.731550
O O1 0.503876 0.832188 0.571436
O O2 0.572061 0.955048 0.255192
O O3 0.508699 0.080189 0.567157
O O4 0.162987 0.567509 0.169416
O O5 0.232668 0.668918 0.467799
O O6 0.231502 0.401010 0.227261
O O7 0.242764 0.653657 0.968153
O O8 0.056053 0.156368 0.334945
O O9 0.109316 0.982718 0.639592
O O10 0.053356 0.166072 0.842269
O O11 0.020499 0.938558 0.599978
O O12 0.392085 0.284530 0.538967
O O13 0.315606 0.351861 0.282714
O O14 0.380199 0.205102 0.047494
#
# Coordination Sequence:
#
# PCOD8170705 Si02
#       7
#     4   4   4   4   4   4   4
#     4  12  24  38  56  78 117 159 199 236 278 349
#     4  10  21  40  64  93 122 158 202 246 308 361
#     4  10  19  33  56  80 106 137 182 247 281 328
#     4  10  19  35  61  87 112 148 200 241 286 354
#     4  10  21  33  52  79 107 142 186 234 293 315
#     4  10  21  37  59  83 114 156 205 234 279 358
#     4  10  21  38  64  94 122 158 198 250 301 367
#
# _framework density 20.925269
#
# number of rings (size 3 to 8) (size 9 to 14) (size 15 to 20)
#    0.000    1.714    1.429    3.429    4.000    0.000 
#    0.000    4.286    0.000    0.000    0.000    0.000 
#    0.000    0.000    0.000    0.000    0.000    0.000 
#
# Total GULP energy -346893.259959 kJ/mol
# GULP energy per Si atom -12389.044999 kJ/mol
# Density = 2.087764 g / cm^3
# Si number density = 20.925269 Si / 1000 Ang^3
#
#
#
# Elastic Constant Matrix: (Units=GPa)
#
#
# Indices 1 2 3 4 5 6 
#
# 1 86.1821 31.2348 28.8049 0.0000 0.0000 0.0000
# 2 31.2348 60.1897 20.6585 0.0000 0.0000 0.0000
# 3 28.8049 20.6585 118.1651 0.0000 0.0000 0.0000
# 4 0.0000 0.0000 0.0000 30.8577 0.0000 0.0000
# 5 0.0000 0.0000 0.0000 0.0000 22.8404 0.0000
# 6 0.0000 0.0000 0.0000 0.0000 0.0000 32.3228
#
#
#
# Elastic Compliance Matrix: (Units=1/GPa)
#
#
# Indices 1 2 3 4 5 6 
#
# 1 0.014919 -0.006908 -0.002429 0.000000 0.000000 0.000000
# 2 -0.006908 0.020874 -0.001965 0.000000 0.000000 0.000000
# 3 -0.002429 -0.001965 0.009398 0.000000 0.000000 0.000000
# 4 0.000000 0.000000 0.000000 0.032407 0.000000 0.000000
# 5 0.000000 0.000000 0.000000 0.000000 0.043782 0.000000
# 6 0.000000 0.000000 0.000000 0.000000 0.000000 0.030938
#
#
# Mechanical properties :
#
#
# Convention : Reuss Voigt Hill
#
# Bulk Modulus (GPa) = 44.27550 47.32592 45.80071
# Shear Modulus (GPa) = 27.40449 29.46007 28.43228
#
# Velocity S-wave (km/s) = 3.62282 3.75623 3.69013
# Velocity P-wave (km/s) = 6.22130 6.44035 6.33177
#
# Compressibility (1/GPa) = 0.02258586
#
# Stress axis : x y z
#
# Youngs Moduli (GPa) = 67.02872 47.90722 106.40078
#
# Poissons Ratio (x) = 0.33096 0.25845
# Poissons Ratio (y) = 0.46306 0.20911
# Poissons Ratio (z) = 0.16281 0.09415
#
# Static dielectric constant tensor:
#      x y z
#    x 3.755790 0.000000 0.000000 
#    y 0.000000 3.636390 0.000000 
#    z 0.000000 0.000000 4.586220 
# 
# 
# High freq. dielectric constant tensor:
#      x y z
#    x 1.799000 0.000000 0.000000 
#    y 0.000000 1.799850 0.000000 
#    z 0.000000 0.000000 1.850470 
# 
# From -- ./inp_files/2430.got.cif
#   From: 2010.03.12/outbox.cif.g09.slc.cpg/sg33_2_cif.got.tgz:2430.got - 2010.04.14 01:49:19.
