data_PCOD8170624
_publ_section_title
;
Structure prediction by ZEFSAII (Michael W. Deem and Ramdas Pophale) SiO2 
 PCOD8170624
Probable space group: P B A 2
;
_chemical_formula_sum "Si O2"
_cell_formula_units_Z 32
_cell_length_a 9.805890
_cell_length_b 14.792958
_cell_length_c 10.079953
_cell_angle_alpha 90.000000
_cell_angle_beta 90.000000
_cell_angle_gamma 90.000000
_cell_volume 1462.179021
_symmetry_space_group_name_H-M "P B A 2"
_symmetry_group_IT_number 32
_symmetry_cell_setting 'orthorhombic'
loop_
_space_group_symop_operation_xyz
x,y,z
-x,-y,z
1/2-x,1/2+y,z
1/2+x,1/2-y,z
loop_
_atom_site_type_symbol
_atom_site_label
_atom_site_fract_x
_atom_site_fract_y
_atom_site_fract_z
Si Si1 0.512590 0.750051 0.321160
Si Si2 0.592811 0.081147 0.479929
Si Si3 0.999604 0.146824 0.772992
Si Si4 0.263756 0.095853 0.912389
Si Si5 0.229969 0.894153 0.963428
Si Si6 0.408000 0.418515 0.496106
Si Si7 0.764117 0.763801 0.146115
Si Si8 0.469704 0.854874 0.768337
O O1 0.436378 0.829665 0.396809
O O2 0.545382 0.672007 0.424253
O O3 0.651204 0.786511 0.256043
O O4 0.412413 0.714892 0.205534
O O5 0.751778 0.057202 0.465370
O O6 0.556503 0.094318 0.632477
O O7 0.500000 0.000000 0.422970
O O8 0.920667 0.126632 0.909282
O O9 0.930818 0.092208 0.653331
O O10 0.153415 0.111924 0.796014
O O11 0.991325 0.251979 0.738087
O O12 0.409940 0.092886 0.842857
O O13 0.244813 0.000941 0.988320
O O14 0.258092 0.175949 0.017239
O O15 0.335321 0.855845 0.856522
O O16 0.252015 0.841723 0.102337
O O17 0.500000 0.500000 0.441071
#
# Coordination Sequence:
#
# PCOD8170624 Si02
#       8
#     4   4   4   4   4   4   4   4
#     4  12  28  48  76  98 144 196 250 292 346 422
#     4  12  28  48  75 109 144 185 240 300 362 428
#     4  12  23  44  73 106 144 182 225 292 368 427
#     4  12  26  43  75 106 143 185 231 292 356 425
#     4  12  24  45  69 104 143 183 233 288 356 423
#     4  12  28  48  75 109 144 185 240 300 362 428
#     4  12  26  46  72 104 140 194 248 292 346 416
#     4  12  23  44  73 106 144 182 225 292 368 427
#
# _framework density 21.885144
#
# number of rings (size 3 to 8) (size 9 to 14) (size 15 to 20)
#    0.000    0.000    6.250    3.750    3.500    2.000 
#    0.000    0.000    0.000    0.000    0.000    0.000 
#    0.000    0.000    0.000    0.000    0.000    0.000 
#
# Total GULP energy -397099.744164 kJ/mol
# GULP energy per Si atom -12409.367005 kJ/mol
# Density = 2.183533 g / cm^3
# Si number density = 21.885144 Si / 1000 Ang^3
#
#
#
# Elastic Constant Matrix: (Units=GPa)
#
#
# Indices 1 2 3 4 5 6 
#
# 1 90.7375 60.9288 28.7539 0.0000 0.0000 0.0000
# 2 60.9288 109.4575 15.6366 0.0000 0.0000 0.0000
# 3 28.7539 15.6366 73.5824 0.0000 0.0000 0.0000
# 4 0.0000 0.0000 0.0000 19.0640 0.0000 0.0000
# 5 0.0000 0.0000 0.0000 0.0000 30.3863 0.0000
# 6 0.0000 0.0000 0.0000 0.0000 0.0000 35.0323
#
#
#
# Elastic Compliance Matrix: (Units=1/GPa)
#
#
# Indices 1 2 3 4 5 6 
#
# 1 0.019536 -0.010090 -0.005490 0.000000 0.000000 0.000000
# 2 -0.010090 0.014634 0.000833 0.000000 0.000000 0.000000
# 3 -0.005490 0.000833 0.015558 0.000000 0.000000 0.000000
# 4 0.000000 0.000000 0.000000 0.052455 0.000000 0.000000
# 5 0.000000 0.000000 0.000000 0.000000 0.032910 0.000000
# 6 0.000000 0.000000 0.000000 0.000000 0.000000 0.028545
#
#
# Mechanical properties :
#
#
# Convention : Reuss Voigt Hill
#
# Bulk Modulus (GPa) = 49.42119 53.82402 51.62260
# Shear Modulus (GPa) = 25.01549 28.12705 26.57127
#
# Velocity S-wave (km/s) = 3.38455 3.58887 3.48821
# Velocity P-wave (km/s) = 6.15668 6.46689 6.31369
#
# Compressibility (1/GPa) = 0.02023424
#
# Stress axis : x y z
#
# Youngs Moduli (GPa) = 51.18764 68.33573 64.27395
#
# Poissons Ratio (x) = 0.68953 0.35285
# Poissons Ratio (y) = 0.51650 -0.05356
# Poissons Ratio (z) = 0.28101 -0.05694
#
# Static dielectric constant tensor:
#      x y z
#    x 4.163050 0.000000 0.000000 
#    y 0.000000 3.881360 0.000000 
#    z 0.000000 0.000000 3.853930 
# 
# 
# High freq. dielectric constant tensor:
#      x y z
#    x 1.878330 0.000000 0.000000 
#    y 0.000000 1.871230 0.000000 
#    z 0.000000 0.000000 1.853080 
# 
# From -- ./inp_files/3796.got.cif
#   From: 2010.03.12/outbox.cif.g09.slc.cpg/sg32_2_cif.got.tgz:3796.got - 2010.04.14 01:46:39.
