data_PCOD8170302
_publ_section_title
;
Structure prediction by ZEFSAII (Michael W. Deem and Ramdas Pophale) SiO2 
 PCOD8170302
Probable space group: P M N 21
;
_chemical_formula_sum "Si O2"
_cell_formula_units_Z 32
_cell_length_a 9.262795
_cell_length_b 20.753755
_cell_length_c 9.209287
_cell_angle_alpha 90.000000
_cell_angle_beta 90.000000
_cell_angle_gamma 90.000000
_cell_volume 1770.372870
_symmetry_space_group_name_H-M "P M N 21"
_symmetry_group_IT_number 31
_symmetry_cell_setting 'orthorhombic'
loop_
_space_group_symop_operation_xyz
x,y,z
1/2-x,-y,1/2+z
-x,y,z
1/2+x,-y,1/2+z
loop_
_atom_site_type_symbol
_atom_site_label
_atom_site_fract_x
_atom_site_fract_y
_atom_site_fract_z
Si Si1 0.835871 0.327510 0.059330
Si Si2 0.165274 0.049381 0.113273
Si Si3 0.169431 0.567642 0.388847
Si Si4 0.831702 0.938020 0.909617
Si Si5 0.162211 0.189005 0.112834
Si Si6 0.831145 0.446687 0.588580
Si Si7 0.833449 0.796661 0.897941
Si Si8 0.831377 0.326025 0.397789
O O1 0.821167 0.252068 0.010658
O O2 0.790006 0.335605 0.228390
O O3 0.000000 0.352059 0.037417
O O4 0.730475 0.366538 0.955210
O O5 0.249222 0.052355 0.261608
O O6 0.179391 0.119691 0.032349
O O7 0.000000 0.033277 0.148359
O O8 0.231292 0.992091 0.017305
O O9 0.205129 0.511249 0.501478
O O10 0.242452 0.551737 0.236311
O O11 0.000000 0.575172 0.362337
O O12 0.805954 0.865995 0.976203
O O13 0.000000 0.949237 0.878377
O O14 0.285104 0.193655 0.232907
O O15 0.000000 0.192402 0.183632
O O16 0.778887 0.387444 0.488774
O O17 0.000000 0.441297 0.625344
O O18 0.744906 0.737264 0.966863
O O19 0.000000 0.777266 0.902284
O O20 0.000000 0.315228 0.414635
#
# Coordination Sequence:
#
# PCOD8170302 Si02
#       8
#     4   4   4   4   4   4   4   4
#     4   9  17  32  54  77 102 130 161 203 250 291
#     4   9  17  31  50  70  95 130 170 206 242 292
#     4  11  23  37  55  79 103 130 166 203 242 292
#     4   9  18  31  47  71 101 129 162 207 253 293
#     4   8  15  29  49  70  94 129 170 204 237 288
#     4  10  22  39  56  75 102 134 166 202 243 287
#     4   9  16  27  46  72 101 129 159 202 252 294
#     4   9  18  34  55  76  98 129 168 203 239 291
#
# _framework density 18.075289000000001
#
# number of rings (size 3 to 8) (size 9 to 14) (size 15 to 20)
#    0.000    2.750    0.000    2.250    0.000    5.500 
#    0.000    1.250    0.000    4.500    0.000    0.000 
#    0.000    0.000    0.000    0.000    0.000    0.000 
#
# Total GULP energy -396546.614879 kJ/mol
# GULP energy per Si atom -12392.081715 kJ/mol
# Density = 1.803415 g / cm^3
# Si number density = 18.075289 Si / 1000 Ang^3
#
#
#
# Elastic Constant Matrix: (Units=GPa)
#
#
# Indices 1 2 3 4 5 6 
#
# 1 49.8545 27.9615 24.3525 0.0000 0.0000 0.0000
# 2 27.9615 92.4407 13.6804 0.0000 0.0000 0.0000
# 3 24.3525 13.6804 48.0115 0.0000 0.0000 0.0000
# 4 0.0000 0.0000 0.0000 30.1580 0.0000 0.0000
# 5 0.0000 0.0000 0.0000 0.0000 24.1815 0.0000
# 6 0.0000 0.0000 0.0000 0.0000 0.0000 29.2211
#
#
#
# Elastic Compliance Matrix: (Units=1/GPa)
#
#
# Indices 1 2 3 4 5 6 
#
# 1 0.030759 -0.007303 -0.013521 0.000000 0.000000 0.000000
# 2 -0.007303 0.013028 -0.000008 0.000000 0.000000 0.000000
# 3 -0.013521 -0.000008 0.027689 0.000000 0.000000 0.000000
# 4 0.000000 0.000000 0.000000 0.033159 0.000000 0.000000
# 5 0.000000 0.000000 0.000000 0.000000 0.041354 0.000000
# 6 0.000000 0.000000 0.000000 0.000000 0.000000 0.034222
#
#
# Mechanical properties :
#
#
# Convention : Reuss Voigt Hill
#
# Bulk Modulus (GPa) = 33.54336 35.81062 34.67699
# Shear Modulus (GPa) = 21.56938 24.99960 23.28449
#
# Velocity S-wave (km/s) = 3.45818 3.72302 3.59304
# Velocity P-wave (km/s) = 5.87734 6.19161 6.03652
#
# Compressibility (1/GPa) = 0.02981216
#
# Stress axis : x y z
#
# Youngs Moduli (GPa) = 32.51108 76.75807 36.11605
#
# Poissons Ratio (x) = 0.56056 0.48831
# Poissons Ratio (y) = 0.23743 0.00029
# Poissons Ratio (z) = 0.43957 0.00061
#
# Static dielectric constant tensor:
#      x y z
#    x 3.309700 0.000000 0.000000 
#    y 0.000000 3.960070 0.000000 
#    z 0.000000 0.000000 2.975860 
# 
# 
# High freq. dielectric constant tensor:
#      x y z
#    x 1.700180 0.000000 0.000000 
#    y 0.000000 1.727250 0.000000 
#    z 0.000000 0.000000 1.652950 
# 
# From -- ./inp_files/1876.got.cif
#   From: 2010.03.12/outbox.cif.g09.slc.cpg/sg31_1_cif.got.tgz:1876.got - 2010.04.14 01:42:59.
