data_PCOD8170051
_publ_section_title
;
Structure prediction by ZEFSAII (Michael W. Deem and Ramdas Pophale) SiO2 
 PCOD8170051
Probable space group: P M N 21
;
_chemical_formula_sum "Si O2"
_cell_formula_units_Z 32
_cell_length_a 9.033392
_cell_length_b 7.569280
_cell_length_c 24.646498
_cell_angle_alpha 90.000000
_cell_angle_beta 90.000000
_cell_angle_gamma 90.000000
_cell_volume 1685.235686
_symmetry_space_group_name_H-M "P M N 21"
_symmetry_group_IT_number 31
_symmetry_cell_setting 'orthorhombic'
loop_
_space_group_symop_operation_xyz
x,y,z
1/2-x,-y,1/2+z
-x,y,z
1/2+x,-y,1/2+z
loop_
_atom_site_type_symbol
_atom_site_label
_atom_site_fract_x
_atom_site_fract_y
_atom_site_fract_z
Si Si1 0.173140 0.689417 0.000000
Si Si2 0.675072 0.696736 0.225436
Si Si3 0.329543 0.315412 0.992979
Si Si4 0.323569 0.996708 0.304261
Si Si5 0.170599 0.700370 0.728998
Si Si6 0.175197 0.014384 0.926840
Si Si7 0.667358 0.340958 0.111818
Si Si8 0.669567 0.306026 0.619741
O O1 0.266660 0.513518 0.988854
O O2 0.225799 0.837356 0.957503
O O3 0.000000 0.642469 0.993238
O O4 0.202892 0.773692 0.059901
O O5 0.500000 0.696878 0.220954
O O6 0.730555 0.816915 0.275197
O O7 0.738020 0.497669 0.234313
O O8 0.734646 0.777989 0.168472
O O9 0.500000 0.320510 0.975329
O O10 0.242964 0.188716 0.952869
O O11 0.312480 0.238423 0.054790
O O12 0.500000 0.005450 0.303036
O O13 0.254452 0.163265 0.271077
O O14 0.264438 0.000313 0.365480
O O15 0.189488 0.774405 0.666831
O O16 0.000000 0.687329 0.744953
O O17 0.000000 0.036363 0.928789
O O18 0.500000 0.423720 0.113562
O O19 0.792280 0.488605 0.113769
O O20 0.500000 0.281910 0.635965
#
# Coordination Sequence:
#
# PCOD8170051 Si02
#       8
#     4   4   4   4   4   4   4   4
#     4   9  19  35  54  76 105 141 176 212 256 308
#     4   9  17  30  50  74  98 125 158 202 253 300
#     4  10  20  34  54  79 106 137 171 212 264 314
#     4   9  18  31  49  72  94 124 169 211 246 291
#     4   8  14  27  47  71  96 118 151 201 245 286
#     4  10  21  36  53  75 103 136 177 219 256 302
#     4   8  15  29  49  73 100 129 163 204 251 303
#     4   9  16  28  48  74 102 130 161 199 249 308
#
# _framework density 18.988441000000002
#
# number of rings (size 3 to 8) (size 9 to 14) (size 15 to 20)
#    0.000    3.000    0.000    1.500    0.000    3.500 
#    0.000    5.625    0.000    6.000    0.000    0.000 
#    0.000    0.000    0.000    0.000    0.000    0.000 
#
# Total GULP energy -396469.374320 kJ/mol
# GULP energy per Si atom -12389.667948 kJ/mol
# Density = 1.894522 g / cm^3
# Si number density = 18.988441 Si / 1000 Ang^3
#
#
#
# Elastic Constant Matrix: (Units=GPa)
#
#
# Indices 1 2 3 4 5 6 
#
# 1 31.8060 23.9699 30.5284 0.0000 0.0000 0.0000
# 2 23.9699 96.7224 77.2710 0.0000 0.0000 0.0000
# 3 30.5284 77.2710 177.4141 0.0000 0.0000 0.0000
# 4 0.0000 0.0000 0.0000 36.7535 0.0000 0.0000
# 5 0.0000 0.0000 0.0000 0.0000 23.4574 0.0000
# 6 0.0000 0.0000 0.0000 0.0000 0.0000 13.1383
#
#
#
# Elastic Compliance Matrix: (Units=1/GPa)
#
#
# Indices 1 2 3 4 5 6 
#
# 1 0.040410 -0.006839 -0.003975 0.000000 0.000000 0.000000
# 2 -0.006839 0.017013 -0.006233 0.000000 0.000000 0.000000
# 3 -0.003975 -0.006233 0.009035 0.000000 0.000000 0.000000
# 4 0.000000 0.000000 0.000000 0.027208 0.000000 0.000000
# 5 0.000000 0.000000 0.000000 0.000000 0.042631 0.000000
# 6 0.000000 0.000000 0.000000 0.000000 0.000000 0.076114
#
#
# Mechanical properties :
#
#
# Convention : Reuss Voigt Hill
#
# Bulk Modulus (GPa) = 30.89804 63.27566 47.08685
# Shear Modulus (GPa) = 19.43309 26.28136 22.85723
#
# Velocity S-wave (km/s) = 3.20256 3.72435 3.47327
# Velocity P-wave (km/s) = 5.47563 7.20347 6.39814
#
# Compressibility (1/GPa) = 0.03236451
#
# Stress axis : x y z
#
# Youngs Moduli (GPa) = 24.74646 58.77726 110.67679
#
# Poissons Ratio (x) = 0.40197 0.43992
# Poissons Ratio (y) = 0.16924 0.68987
# Poissons Ratio (z) = 0.09836 0.36637
#
# Static dielectric constant tensor:
#      x y z
#    x 3.167880 0.000000 0.000000 
#    y 0.000000 3.347670 0.000000 
#    z 0.000000 0.000000 3.900580 
# 
# 
# High freq. dielectric constant tensor:
#      x y z
#    x 1.704430 0.000000 0.000000 
#    y 0.000000 1.715860 0.000000 
#    z 0.000000 0.000000 1.750260 
# 
# From -- ./inp_files/6453.got.cif
#   From: 2010.03.12/outbox.cif.g09.slc.cpg/sg31_4_cif.got.tgz:6453.got - 2010.04.14 01:42:59.
