data_PCOD8170056
_publ_section_title
;
Structure prediction by ZEFSAII (Michael W. Deem and Ramdas Pophale) SiO2 
 PCOD8170056
Probable space group: P M N 21
;
_chemical_formula_sum "Si O2"
_cell_formula_units_Z 32
_cell_length_a 8.982966
_cell_length_b 14.423730
_cell_length_c 13.821997
_cell_angle_alpha 90.000000
_cell_angle_beta 90.000000
_cell_angle_gamma 90.000000
_cell_volume 1790.886796
_symmetry_space_group_name_H-M "P M N 21"
_symmetry_group_IT_number 31
_symmetry_cell_setting 'orthorhombic'
loop_
_space_group_symop_operation_xyz
x,y,z
1/2-x,-y,1/2+z
-x,y,z
1/2+x,-y,1/2+z
loop_
_atom_site_type_symbol
_atom_site_label
_atom_site_fract_x
_atom_site_fract_y
_atom_site_fract_z
Si Si1 0.668663 0.651894 0.275140
Si Si2 0.669579 0.114507 0.998143
Si Si3 0.325608 0.479829 0.405650
Si Si4 0.828321 0.489346 0.607129
Si Si5 0.169103 0.005551 0.669206
Si Si6 0.828241 0.172084 0.172667
Si Si7 0.825378 0.844039 0.285472
Si Si8 0.673458 0.628171 0.745804
O O1 0.500000 0.687865 0.287462
O O2 0.709904 0.580366 0.360451
O O3 0.688442 0.602173 0.172116
O O4 0.780459 0.737133 0.281045
O O5 0.500000 0.150601 0.998232
O O6 0.680383 0.013377 0.052202
O O7 0.766107 0.187063 0.062610
O O8 0.727708 0.111335 0.887952
O O9 0.500000 0.457188 0.395293
O O10 0.276605 0.476885 0.515689
O O11 0.230868 0.401236 0.351065
O O12 0.771479 0.578501 0.664687
O O13 0.000000 0.505280 0.577334
O O14 0.244348 0.915959 0.721865
O O15 0.000000 0.012989 0.703996
O O16 0.250379 0.100250 0.697650
O O17 0.800200 0.262235 0.237005
O O18 0.000000 0.146623 0.165455
O O19 0.000000 0.852072 0.271663
O O20 0.500000 0.602387 0.732630
#
# Coordination Sequence:
#
# PCOD8170056 Si02
#       8
#     4   4   4   4   4   4   4   4
#     4   9  21  38  54  80 112 146 185 226 278 331
#     4   8  19  35  52  78 108 137 173 216 271 324
#     4  10  21  36  55  80 110 146 188 232 275 331
#     4  10  21  37  56  78 111 150 185 229 279 329
#     4   9  19  36  54  76 108 143 174 219 274 323
#     4   9  18  33  54  79 105 135 175 222 265 318
#     4  11  21  35  57  84 110 142 183 228 273 328
#     4  10  20  34  54  81 110 143 181 226 277 328
#
# _framework density 17.868244000000001
#
# number of rings (size 3 to 8) (size 9 to 14) (size 15 to 20)
#    0.750    1.750    0.000    2.625    1.750    6.000 
#    0.000    1.250    0.000    3.000    0.000    0.000 
#    0.000    0.000    0.000    0.000    0.000    0.000 
#
# Total GULP energy -396634.732576 kJ/mol
# GULP energy per Si atom -12394.835393 kJ/mol
# Density = 1.782757 g / cm^3
# Si number density = 17.868244 Si / 1000 Ang^3
#
#
#
# Elastic Constant Matrix: (Units=GPa)
#
#
# Indices 1 2 3 4 5 6 
#
# 1 85.4548 47.9210 20.3454 0.0000 0.0000 0.0000
# 2 47.9210 75.1552 31.4665 0.0000 0.0000 0.0000
# 3 20.3454 31.4665 71.7711 0.0000 0.0000 0.0000
# 4 0.0000 0.0000 0.0000 17.0622 0.0000 0.0000
# 5 0.0000 0.0000 0.0000 0.0000 27.7234 0.0000
# 6 0.0000 0.0000 0.0000 0.0000 0.0000 29.6997
#
#
#
# Elastic Compliance Matrix: (Units=1/GPa)
#
#
# Indices 1 2 3 4 5 6 
#
# 1 0.018216 -0.011578 -0.000087 0.000000 0.000000 0.000000
# 2 -0.011578 0.023657 -0.007090 0.000000 0.000000 0.000000
# 3 -0.000087 -0.007090 0.017066 0.000000 0.000000 0.000000
# 4 0.000000 0.000000 0.000000 0.058609 0.000000 0.000000
# 5 0.000000 0.000000 0.000000 0.000000 0.036071 0.000000
# 6 0.000000 0.000000 0.000000 0.000000 0.000000 0.033670
#
#
# Mechanical properties :
#
#
# Convention : Reuss Voigt Hill
#
# Bulk Modulus (GPa) = 46.66783 47.98298 47.32540
# Shear Modulus (GPa) = 21.55709 23.74027 22.64868
#
# Velocity S-wave (km/s) = 3.47716 3.64899 3.56411
# Velocity P-wave (km/s) = 6.50349 6.68323 6.59397
#
# Compressibility (1/GPa) = 0.02142804
#
# Stress axis : x y z
#
# Youngs Moduli (GPa) = 54.89776 42.27130 58.59496
#
# Poissons Ratio (x) = 0.48942 0.00513
# Poissons Ratio (y) = 0.63562 0.41542
# Poissons Ratio (z) = 0.00480 0.29969
#
# Static dielectric constant tensor:
#      x y z
#    x 3.403120 0.000000 0.000000 
#    y 0.000000 3.080330 0.000000 
#    z 0.000000 0.000000 3.281300 
# 
# 
# High freq. dielectric constant tensor:
#      x y z
#    x 1.707100 0.000000 0.000000 
#    y 0.000000 1.674880 0.000000 
#    z 0.000000 0.000000 1.678400 
# 
# From -- ./inp_files/5137.got.cif
#   From: 2010.03.12/outbox.cif.g09.slc.cpg/sg31_3_cif.got.tgz:5137.got - 2010.04.14 01:42:59.
