data_PCOD8170187
_publ_section_title
;
Structure prediction by ZEFSAII (Michael W. Deem and Ramdas Pophale) SiO2 
 PCOD8170187
Probable space group: P M N 21
;
_chemical_formula_sum "Si O2"
_cell_formula_units_Z 24
_cell_length_a 15.387687
_cell_length_b 8.424465
_cell_length_c 9.019412
_cell_angle_alpha 90.000000
_cell_angle_beta 90.000000
_cell_angle_gamma 90.000000
_cell_volume 1169.213711
_symmetry_space_group_name_H-M "P M N 21"
_symmetry_group_IT_number 31
_symmetry_cell_setting 'orthorhombic'
loop_
_space_group_symop_operation_xyz
x,y,z
1/2-x,-y,1/2+z
-x,y,z
1/2+x,-y,1/2+z
loop_
_atom_site_type_symbol
_atom_site_label
_atom_site_fract_x
_atom_site_fract_y
_atom_site_fract_z
Si Si1 0.676263 0.691520 0.481620
Si Si2 0.662412 0.323977 0.481237
Si Si3 0.000000 0.801073 0.812359
Si Si4 0.000000 0.130499 0.970733
Si Si5 0.000000 0.149512 0.307856
Si Si6 0.000000 0.827847 0.464170
Si Si7 0.686970 0.814637 0.794416
Si Si8 0.329478 0.188334 0.799025
O O1 0.663012 0.508281 0.519745
O O2 0.584545 0.765495 0.433496
O O3 0.715666 0.777576 0.626602
O O4 0.744808 0.713576 0.348894
O O5 0.585164 0.288114 0.368581
O O6 0.753257 0.275186 0.409476
O O7 0.649436 0.221744 0.628528
O O8 0.000000 0.792434 0.636565
O O9 0.000000 0.982255 0.862362
O O10 0.000000 0.071195 0.141949
O O11 0.911731 0.252085 0.321814
O O12 0.000000 0.015676 0.433135
O O13 0.912951 0.753660 0.392684
O O14 0.689624 0.002550 0.821841
#
# Coordination Sequence:
#
# PCOD8170187 Si02
#       8
#     4   4   2   2   2   2   4   4
#     4  11  23  40  61  92 128 161 203 260 314 362
#     4  12  24  39  61  92 127 164 204 259 316 364
#     4  12  23  39  64  91 120 162 211 254 306 375
#     4  10  21  40  65  88 117 162 209 254 308 374
#     4   8  18  37  61  87 115 150 201 256 302 353
#     4  10  22  38  62  90 116 150 205 262 300 352
#     4  10  20  39  63  90 120 162 211 253 303 371
#     4  11  22  40  64  90 122 164 209 255 307 371
#
# _framework density 20.526617000000002
#
# number of rings (size 3 to 8) (size 9 to 14) (size 15 to 20)
#    0.000    1.333    0.000    8.000    0.000    4.000 
#    0.000    2.500    0.000    6.000    0.000    0.000 
#    0.000    0.000    0.000    0.000    0.000    0.000 
#
# Total GULP energy -297681.796513 kJ/mol
# GULP energy per Si atom -12403.408188 kJ/mol
# Density = 2.047990 g / cm^3
# Si number density = 20.526617 Si / 1000 Ang^3
#
#
#
# Elastic Constant Matrix: (Units=GPa)
#
#
# Indices 1 2 3 4 5 6 
#
# 1 150.3531 31.0046 63.2744 0.0000 0.0000 0.0000
# 2 31.0046 74.7582 4.6781 0.0000 0.0000 0.0000
# 3 63.2744 4.6781 124.0051 0.0000 0.0000 0.0000
# 4 0.0000 0.0000 0.0000 23.9237 0.0000 0.0000
# 5 0.0000 0.0000 0.0000 0.0000 34.7586 0.0000
# 6 0.0000 0.0000 0.0000 0.0000 0.0000 22.9495
#
#
#
# Elastic Compliance Matrix: (Units=1/GPa)
#
#
# Indices 1 2 3 4 5 6 
#
# 1 0.009338 -0.003583 -0.004630 0.000000 0.000000 0.000000
# 2 -0.003583 0.014783 0.001271 0.000000 0.000000 0.000000
# 3 -0.004630 0.001271 0.010379 0.000000 0.000000 0.000000
# 4 0.000000 0.000000 0.000000 0.041800 0.000000 0.000000
# 5 0.000000 0.000000 0.000000 0.000000 0.028770 0.000000
# 6 0.000000 0.000000 0.000000 0.000000 0.000000 0.043574
#
#
# Mechanical properties :
#
#
# Convention : Reuss Voigt Hill
#
# Bulk Modulus (GPa) = 48.50753 60.78120 54.64436
# Shear Modulus (GPa) = 29.51600 33.00363 31.25982
#
# Velocity S-wave (km/s) = 3.79613 4.01415 3.90666
# Velocity P-wave (km/s) = 6.54958 7.15260 6.85772
#
# Compressibility (1/GPa) = 0.02061536
#
# Stress axis : x y z
#
# Youngs Moduli (GPa) = 107.08614 67.64523 96.35204
#
# Poissons Ratio (x) = 0.24238 0.44609
# Poissons Ratio (y) = 0.38371 -0.12243
# Poissons Ratio (z) = 0.49578 -0.08595
#
# Static dielectric constant tensor:
#      x y z
#    x 4.001400 0.000000 0.000000 
#    y 0.000000 3.475470 0.000000 
#    z 0.000000 0.000000 3.622780 
# 
# 
# High freq. dielectric constant tensor:
#      x y z
#    x 1.825870 0.000000 0.000000 
#    y 0.000000 1.787050 0.000000 
#    z 0.000000 0.000000 1.801040 
# 
# From -- ./inp_files/2486.got.cif
#   From: 2010.03.12/outbox.cif.g09.slc.cpg/sg31_2_cif.got.tgz:2486.got - 2010.04.14 01:42:59.
