data_PCOD8170002
_publ_section_title
;
Structure prediction by ZEFSAII (Michael W. Deem and Ramdas Pophale) SiO2 
 PCOD8170002
Probable space group: P M N 21
;
_chemical_formula_sum "Si O2"
_cell_formula_units_Z 32
_cell_length_a 14.112946
_cell_length_b 8.913284
_cell_length_c 12.724008
_cell_angle_alpha 90.000000
_cell_angle_beta 90.000000
_cell_angle_gamma 90.000000
_cell_volume 1600.587267
_symmetry_space_group_name_H-M "P M N 21"
_symmetry_group_IT_number 31
_symmetry_cell_setting 'orthorhombic'
loop_
_space_group_symop_operation_xyz
x,y,z
1/2-x,-y,1/2+z
-x,y,z
1/2+x,-y,1/2+z
loop_
_atom_site_type_symbol
_atom_site_label
_atom_site_fract_x
_atom_site_fract_y
_atom_site_fract_z
Si Si1 0.604218 0.544725 0.466920
Si Si2 0.608121 0.870294 0.037224
Si Si3 0.687178 0.851552 0.483317
Si Si4 0.749796 0.628072 0.101409
Si Si5 0.819271 0.848138 0.666115
Si Si6 0.392806 0.112067 0.625363
Si Si7 0.311829 0.987007 0.827355
Si Si8 0.603648 0.451011 0.233657
O O1 0.500000 0.512189 0.517557
O O2 0.610223 0.725647 0.453486
O O3 0.694224 0.493085 0.533370
O O4 0.610618 0.455493 0.358575
O O5 0.500000 0.827134 0.057065
O O6 0.670350 0.720451 0.039543
O O7 0.637486 0.993171 0.125601
O O8 0.621808 0.926680 0.919338
O O9 0.754596 0.782785 0.572988
O O10 0.642354 0.006029 0.529658
O O11 0.745588 0.883169 0.376807
O O12 0.829046 0.742049 0.141547
O O13 0.693762 0.544030 0.193578
O O14 0.759315 0.869012 0.773049
O O15 0.895907 0.721256 0.693052
O O16 0.500000 0.159315 0.600798
O O17 0.386225 0.034308 0.738223
O O18 0.500000 0.515797 0.198783
#
# Coordination Sequence:
#
# PCOD8170002 Si02
#       8
#     4   4   4   4   4   4   4   4
#     4  11  24  40  62  90 121 162 202 243 301 364
#     4  11  22  38  63  90 118 158 204 249 296 352
#     4  10  20  40  63  87 123 157 198 248 300 352
#     4  12  22  42  60  84 130 156 198 250 300 354
#     4  10  20  40  63  87 123 157 198 248 300 352
#     4  11  22  38  63  90 118 158 204 249 296 352
#     4  10  19  38  65  88 116 156 195 252 301 340
#     4  11  24  40  62  90 121 162 202 243 301 364
#
# _framework density 19.992660999999998
#
# number of rings (size 3 to 8) (size 9 to 14) (size 15 to 20)
#    0.000    1.250    5.000    3.375    0.000    0.000 
#    0.000    1.250    0.000    3.000    0.000    0.000 
#    0.000    0.000    0.000    0.000    0.000    0.000 
#
# Total GULP energy -396528.511973 kJ/mol
# GULP energy per Si atom -12391.515999 kJ/mol
# Density = 1.994716 g / cm^3
# Si number density = 19.992661 Si / 1000 Ang^3
#
#
#
# Elastic Constant Matrix: (Units=GPa)
#
#
# Indices 1 2 3 4 5 6 
#
# 1 136.6676 28.4879 12.9044 0.0000 0.0000 0.0000
# 2 28.4879 71.0782 6.8159 0.0000 0.0000 0.0000
# 3 12.9044 6.8159 52.3670 0.0000 0.0000 0.0000
# 4 0.0000 0.0000 0.0000 15.9835 0.0000 0.0000
# 5 0.0000 0.0000 0.0000 0.0000 23.1624 0.0000
# 6 0.0000 0.0000 0.0000 0.0000 0.0000 12.4068
#
#
#
# Elastic Compliance Matrix: (Units=1/GPa)
#
#
# Indices 1 2 3 4 5 6 
#
# 1 0.008114 -0.003099 -0.001596 0.000000 0.000000 0.000000
# 2 -0.003099 0.015430 -0.001245 0.000000 0.000000 0.000000
# 3 -0.001596 -0.001245 0.019651 0.000000 0.000000 0.000000
# 4 0.000000 0.000000 0.000000 0.062564 0.000000 0.000000
# 5 0.000000 0.000000 0.000000 0.000000 0.043174 0.000000
# 6 0.000000 0.000000 0.000000 0.000000 0.000000 0.080601
#
#
# Mechanical properties :
#
#
# Convention : Reuss Voigt Hill
#
# Bulk Modulus (GPa) = 31.93251 39.61434 35.77342
# Shear Modulus (GPa) = 19.85289 24.43750 22.14520
#
# Velocity S-wave (km/s) = 3.15462 3.49997 3.33177
# Velocity P-wave (km/s) = 5.41070 6.01585 5.72128
#
# Compressibility (1/GPa) = 0.03131605
#
# Stress axis : x y z
#
# Youngs Moduli (GPa) = 123.24867 64.80717 50.88722
#
# Poissons Ratio (x) = 0.20083 0.08122
# Poissons Ratio (y) = 0.38193 0.06334
# Poissons Ratio (z) = 0.19671 0.08067
#
# Static dielectric constant tensor:
#      x y z
#    x 3.761780 0.000000 0.000000 
#    y 0.000000 3.570970 0.000000 
#    z 0.000000 0.000000 3.553020 
# 
# 
# High freq. dielectric constant tensor:
#      x y z
#    x 1.789190 0.000000 0.000000 
#    y 0.000000 1.775990 0.000000 
#    z 0.000000 0.000000 1.775410 
# 
# From -- ./inp_files/4276.got.cif
#   From: 2010.03.12/outbox.cif.g09.slc.cpg/sg31_3_cif.got.tgz:4276.got - 2010.04.14 01:42:59.
