data_PCOD8170386
_publ_section_title
;
Structure prediction by ZEFSAII (Michael W. Deem and Ramdas Pophale) SiO2 
 PCOD8170386
Probable space group: P M N 21
;
_chemical_formula_sum "Si O2"
_cell_formula_units_Z 16
_cell_length_a 24.977767
_cell_length_b 4.655923
_cell_length_c 5.377744
_cell_angle_alpha 90.000000
_cell_angle_beta 90.000000
_cell_angle_gamma 90.000000
_cell_volume 625.402372
_symmetry_space_group_name_H-M "P M N 21"
_symmetry_group_IT_number 31
_symmetry_cell_setting 'orthorhombic'
loop_
_space_group_symop_operation_xyz
x,y,z
1/2-x,-y,1/2+z
-x,y,z
1/2+x,-y,1/2+z
loop_
_atom_site_type_symbol
_atom_site_label
_atom_site_fract_x
_atom_site_fract_y
_atom_site_fract_z
Si Si1 0.661061 0.007157 0.332530
Si Si2 0.088322 0.492538 0.823273
Si Si3 0.000000 0.804369 0.140100
Si Si4 0.249998 0.318215 0.587307
Si Si5 0.500000 0.670987 0.972982
O O1 0.628271 0.271453 0.205096
O O2 0.697431 0.119623 0.559920
O O3 0.623955 0.754896 0.453441
O O4 0.697763 0.882781 0.111277
O O5 0.053652 0.293691 0.633957
O O6 0.052708 0.689316 0.004722
O O7 0.000000 0.667696 0.413210
O O8 0.000000 0.145051 0.211748
O O9 0.243145 0.501102 0.337755
#
# Coordination Sequence:
#
# PCOD8170386 Si02
#       5
#     4   4   2   4   2
#     4  12  26  51  78 116 160 217 266 334 406 478
#     4  11  26  48  78 114 160 204 270 333 400 484
#     4  11  24  49  76 114 155 207 263 333 404 487
#     4  12  28  56  80 116 170 218 272 336 400 484
#     4  11  24  49  76 114 155 207 263 333 404 487
#
# _framework density 25.583531000000001
#
# number of rings (size 3 to 8) (size 9 to 14) (size 15 to 20)
#    0.000    0.500    2.500    4.500    0.000    6.000 
#   22.500    0.000    0.000    0.000    0.000    0.000 
#    0.000    0.000    0.000    0.000    0.000    0.000 
#
# Total GULP energy -198232.233242 kJ/mol
# GULP energy per Si atom -12389.514578 kJ/mol
# Density = 2.552530 g / cm^3
# Si number density = 25.583531 Si / 1000 Ang^3
#
#
#
# Elastic Constant Matrix: (Units=GPa)
#
#
# Indices 1 2 3 4 5 6 
#
# 1 181.1061 93.1794 57.4464 0.0000 0.0000 0.0000
# 2 93.1794 172.0886 60.3915 0.0000 0.0000 0.0000
# 3 57.4464 60.3915 133.1727 0.0000 0.0000 0.0000
# 4 0.0000 0.0000 0.0000 52.1150 0.0000 0.0000
# 5 0.0000 0.0000 0.0000 0.0000 9.2990 0.0000
# 6 0.0000 0.0000 0.0000 0.0000 0.0000 12.6189
#
#
#
# Elastic Compliance Matrix: (Units=1/GPa)
#
#
# Indices 1 2 3 4 5 6 
#
# 1 0.007988 -0.003706 -0.001765 0.000000 0.000000 0.000000
# 2 -0.003706 0.008630 -0.002315 0.000000 0.000000 0.000000
# 3 -0.001765 -0.002315 0.009320 0.000000 0.000000 0.000000
# 4 0.000000 0.000000 0.000000 0.019188 0.000000 0.000000
# 5 0.000000 0.000000 0.000000 0.000000 0.107539 0.000000
# 6 0.000000 0.000000 0.000000 0.000000 0.000000 0.079247
#
#
# Mechanical properties :
#
#
# Convention : Reuss Voigt Hill
#
# Bulk Modulus (GPa) = 96.46656 100.93356 98.70006
# Shear Modulus (GPa) = 19.92510 33.16324 26.54417
#
# Velocity S-wave (km/s) = 2.79377 3.60428 3.22460
# Velocity P-wave (km/s) = 6.94228 7.54051 7.24757
#
# Compressibility (1/GPa) = 0.01036629
#
# Stress axis : x y z
#
# Youngs Moduli (GPa) = 125.18419 115.87618 107.29207
#
# Poissons Ratio (x) = 0.42941 0.18941
# Poissons Ratio (y) = 0.46391 0.24838
# Poissons Ratio (z) = 0.22099 0.26825
#
# Static dielectric constant tensor:
#      x y z
#    x 5.173170 0.000000 0.000000 
#    y 0.000000 5.091200 0.000000 
#    z 0.000000 0.000000 4.213500 
# 
# 
# High freq. dielectric constant tensor:
#      x y z
#    x 2.046680 0.000000 0.000000 
#    y 0.000000 2.056480 0.000000 
#    z 0.000000 0.000000 1.980200 
# 
# From -- ./inp_files/1058.got.cif
#   From: 2010.03.12/outbox.cif.g09.slc.cpg/sg31_1_cif.got.tgz:1058.got - 2010.04.14 01:42:59.
