data_PCOD8170416
_publ_section_title
;
Structure prediction by ZEFSAII (Michael W. Deem and Ramdas Pophale) SiO2 
 PCOD8170416
Probable space group: P B A 2
;
_chemical_formula_sum "Si O2"
_cell_formula_units_Z 30
_cell_length_a 10.524219
_cell_length_b 15.519352
_cell_length_c 8.733164
_cell_angle_alpha 90.000000
_cell_angle_beta 90.000000
_cell_angle_gamma 90.000000
_cell_volume 1426.379460
_symmetry_space_group_name_H-M "P B A 2"
_symmetry_group_IT_number 32
_symmetry_cell_setting 'orthorhombic'
loop_
_space_group_symop_operation_xyz
x,y,z
-x,-y,z
1/2-x,1/2+y,z
1/2+x,1/2-y,z
loop_
_atom_site_type_symbol
_atom_site_label
_atom_site_fract_x
_atom_site_fract_y
_atom_site_fract_z
Si Si1 0.241892 0.155359 0.037190
Si Si2 0.350515 0.006118 0.823735
Si Si3 0.259194 0.056677 0.496806
Si Si4 0.474615 0.355814 0.192562
Si Si5 0.597165 0.816915 0.323587
Si Si6 0.251096 0.847667 0.988093
Si Si7 0.104206 0.437839 0.259438
Si Si8 0.500000 0.500000 0.409827
O O1 0.360857 0.162306 0.149619
O O2 0.217476 0.247229 0.949339
O O3 0.120822 0.135728 0.143826
O O4 0.274407 0.077635 0.922347
O O5 0.333119 0.031022 0.648509
O O6 0.500000 0.000000 0.861773
O O7 0.286016 0.911890 0.849561
O O8 0.294509 0.155799 0.448148
O O9 0.300668 0.994935 0.357977
O O10 0.106923 0.045972 0.516099
O O11 0.443011 0.281723 0.317458
O O12 0.397144 0.352544 0.033303
O O13 0.430653 0.434980 0.295185
O O14 0.473405 0.873008 0.369446
O O15 0.327373 0.878574 0.136501
O O16 0.000000 0.500000 0.176857
#
# Coordination Sequence:
#
# PCOD8170416 Si02
#       8
#     4   4   4   4   4   4   4   2
#     4  11  23  41  67 102 128 172 227 276 342 389
#     4  12  26  46  65  92 140 182 224 273 334 419
#     4  11  24  42  65  96 131 179 219 265 341 401
#     4  11  22  38  68  99 133 161 220 284 330 389
#     4  10  20  39  65  95 127 164 222 277 319 385
#     4  11  22  39  67  98 129 168 215 280 330 389
#     4  10  18  36  64  91 119 166 220 267 317 384
#     4  12  22  42  64  98 132 168 218 278 332 394
#
# _framework density 21.032271999999999
#
# number of rings (size 3 to 8) (size 9 to 14) (size 15 to 20)
#    0.000    1.067    4.000    4.800    1.867    1.067 
#    2.400    1.333    0.000    0.000    0.000    0.000 
#    0.000    0.000    0.000    0.000    0.000    0.000 
#
# Total GULP energy -371709.327885 kJ/mol
# GULP energy per Si atom -12390.310929 kJ/mol
# Density = 2.098440 g / cm^3
# Si number density = 21.032272 Si / 1000 Ang^3
#
#
#
# Elastic Constant Matrix: (Units=GPa)
#
#
# Indices 1 2 3 4 5 6 
#
# 1 96.7712 35.3047 16.4659 0.0000 0.0000 0.0000
# 2 35.3047 134.4918 32.3609 0.0000 0.0000 0.0000
# 3 16.4659 32.3609 65.8179 0.0000 0.0000 0.0000
# 4 0.0000 0.0000 0.0000 24.6446 0.0000 0.0000
# 5 0.0000 0.0000 0.0000 0.0000 17.7652 0.0000
# 6 0.0000 0.0000 0.0000 0.0000 0.0000 31.7334
#
#
#
# Elastic Compliance Matrix: (Units=1/GPa)
#
#
# Indices 1 2 3 4 5 6 
#
# 1 0.011573 -0.002655 -0.001590 0.000000 0.000000 0.000000
# 2 -0.002655 0.009042 -0.003782 0.000000 0.000000 0.000000
# 3 -0.001590 -0.003782 0.017450 0.000000 0.000000 0.000000
# 4 0.000000 0.000000 0.000000 0.040577 0.000000 0.000000
# 5 0.000000 0.000000 0.000000 0.000000 0.056290 0.000000
# 6 0.000000 0.000000 0.000000 0.000000 0.000000 0.031513
#
#
# Mechanical properties :
#
#
# Convention : Reuss Voigt Hill
#
# Bulk Modulus (GPa) = 45.42892 51.70487 48.56689
# Shear Modulus (GPa) = 26.33858 29.02528 27.68193
#
# Velocity S-wave (km/s) = 3.54262 3.71891 3.63183
# Velocity P-wave (km/s) = 6.19516 6.56334 6.38190
#
# Compressibility (1/GPa) = 0.02201241
#
# Stress axis : x y z
#
# Youngs Moduli (GPa) = 86.40874 110.59044 57.30529
#
# Poissons Ratio (x) = 0.29367 0.09109
# Poissons Ratio (y) = 0.22945 0.21670
# Poissons Ratio (z) = 0.13736 0.41821
#
# Static dielectric constant tensor:
#      x y z
#    x 4.097220 0.000000 0.000000 
#    y 0.000000 4.226680 0.000000 
#    z 0.000000 0.000000 3.334860 
# 
# 
# High freq. dielectric constant tensor:
#      x y z
#    x 1.840770 0.000000 0.000000 
#    y 0.000000 1.838330 0.000000 
#    z 0.000000 0.000000 1.775140 
# 
# From -- ./inp_files/2840.got.cif
#   From: 2010.03.12/outbox.cif.g09.slc.cpg/sg32_2_cif.got.tgz:2840.got - 2010.04.14 01:46:39.
