data_PCOD8170077
_publ_section_title
;
Structure prediction by ZEFSAII (Michael W. Deem and Ramdas Pophale) SiO2 
 PCOD8170077
Probable space group: P M N 21
;
_chemical_formula_sum "Si O2"
_cell_formula_units_Z 32
_cell_length_a 9.350823
_cell_length_b 14.216296
_cell_length_c 13.959922
_cell_angle_alpha 90.000000
_cell_angle_beta 90.000000
_cell_angle_gamma 90.000000
_cell_volume 1855.749215
_symmetry_space_group_name_H-M "P M N 21"
_symmetry_group_IT_number 31
_symmetry_cell_setting 'orthorhombic'
loop_
_space_group_symop_operation_xyz
x,y,z
1/2-x,-y,1/2+z
-x,y,z
1/2+x,-y,1/2+z
loop_
_atom_site_type_symbol
_atom_site_label
_atom_site_fract_x
_atom_site_fract_y
_atom_site_fract_z
Si Si1 0.333649 0.524809 0.028470
Si Si2 0.166286 0.163501 0.140163
Si Si3 0.165391 0.090821 0.934054
Si Si4 0.839384 0.020698 0.300461
Si Si5 0.665340 0.532582 0.809347
Si Si6 0.160958 0.815404 0.286386
Si Si7 0.335156 0.361006 0.672300
Si Si8 0.668606 0.352714 0.162393
O O1 0.500000 0.545516 0.039046
O O2 0.253004 0.611427 0.078355
O O3 0.292763 0.426611 0.078839
O O4 0.285575 0.519773 0.918591
O O5 0.264214 0.254377 0.131539
O O6 0.000000 0.192639 0.148846
O O7 0.217498 0.102987 0.231732
O O8 0.190222 0.098955 0.047020
O O9 0.238544 0.993843 0.894264
O O10 0.238866 0.181220 0.881345
O O11 0.000000 0.088898 0.906434
O O12 0.839890 0.921128 0.241516
O O13 0.000000 0.044268 0.335502
O O14 0.500000 0.563145 0.801557
O O15 0.693319 0.433759 0.757992
O O16 0.761367 0.613738 0.761986
O O17 0.219121 0.740820 0.208958
O O18 0.000000 0.784753 0.317462
O O19 0.500000 0.358393 0.641997
O O20 0.500000 0.341478 0.177045
#
# Coordination Sequence:
#
# PCOD8170077 Si02
#       8
#     4   4   4   4   4   4   4   4
#     4   9  19  33  50  73 103 136 170 212 258 303
#     4  10  20  35  54  76 106 141 171 208 262 313
#     4   9  18  31  50  77 103 127 165 212 253 297
#     4   8  17  34  52  70 100 135 165 203 253 308
#     4   9  18  34  52  70 102 140 168 206 260 311
#     4   8  16  31  51  72  97 129 163 204 252 304
#     4   9  17  30  51  74  97 130 170 207 251 305
#     4  10  21  34  52  80 106 134 176 220 255 299
#
# _framework density 17.24371
#
# number of rings (size 3 to 8) (size 9 to 14) (size 15 to 20)
#    0.750    2.250    0.000    0.375    1.750    3.000 
#    0.000    1.250    0.000    1.500    0.000    0.000 
#    0.000    0.000    0.000    0.000    0.000    0.000 
#
# Total GULP energy -396593.153116 kJ/mol
# GULP energy per Si atom -12393.536035 kJ/mol
# Density = 1.720446 g / cm^3
# Si number density = 17.243710 Si / 1000 Ang^3
#
#
#
# Elastic Constant Matrix: (Units=GPa)
#
#
# Indices 1 2 3 4 5 6 
#
# 1 71.3717 28.1221 44.7151 0.0000 0.0000 0.0000
# 2 28.1221 45.7485 23.8544 0.0000 0.0000 0.0000
# 3 44.7151 23.8544 98.7988 0.0000 0.0000 0.0000
# 4 0.0000 0.0000 0.0000 22.8314 0.0000 0.0000
# 5 0.0000 0.0000 0.0000 0.0000 28.3192 0.0000
# 6 0.0000 0.0000 0.0000 0.0000 0.0000 24.9877
#
#
#
# Elastic Compliance Matrix: (Units=1/GPa)
#
#
# Indices 1 2 3 4 5 6 
#
# 1 0.022921 -0.009931 -0.007976 0.000000 0.000000 0.000000
# 2 -0.009931 0.029310 -0.002582 0.000000 0.000000 0.000000
# 3 -0.007976 -0.002582 0.014355 0.000000 0.000000 0.000000
# 4 0.000000 0.000000 0.000000 0.043799 0.000000 0.000000
# 5 0.000000 0.000000 0.000000 0.000000 0.035312 0.000000
# 6 0.000000 0.000000 0.000000 0.000000 0.000000 0.040020
#
#
# Mechanical properties :
#
#
# Convention : Reuss Voigt Hill
#
# Bulk Modulus (GPa) = 39.05096 45.47805 42.26450
# Shear Modulus (GPa) = 21.25572 23.17615 22.21594
#
# Velocity S-wave (km/s) = 3.51474 3.67009 3.59325
# Velocity P-wave (km/s) = 6.25834 6.66261 6.46364
#
# Compressibility (1/GPa) = 0.02560757
#
# Stress axis : x y z
#
# Youngs Moduli (GPa) = 43.62741 34.11844 69.66270
#
# Poissons Ratio (x) = 0.33883 0.55564
# Poissons Ratio (y) = 0.43327 0.17987
# Poissons Ratio (z) = 0.34798 0.08809
#
# Static dielectric constant tensor:
#      x y z
#    x 3.210260 0.000000 0.000000 
#    y 0.000000 3.085230 0.000000 
#    z 0.000000 0.000000 3.109530 
# 
# 
# High freq. dielectric constant tensor:
#      x y z
#    x 1.665790 0.000000 0.000000 
#    y 0.000000 1.651700 0.000000 
#    z 0.000000 0.000000 1.651890 
# 
# From -- ./inp_files/5130.got.cif
#   From: 2010.03.12/outbox.cif.g09.slc.cpg/sg31_3_cif.got.tgz:5130.got - 2010.04.14 01:42:59.
