data_PCOD8170840
_publ_section_title
;
Structure prediction by ZEFSAII (Michael W. Deem and Ramdas Pophale) SiO2 
 PCOD8170840
Probable space group: P N A 21
;
_chemical_formula_sum "Si O2"
_cell_formula_units_Z 24
_cell_length_a 10.313589
_cell_length_b 8.479892
_cell_length_c 13.681075
_cell_angle_alpha 90.000000
_cell_angle_beta 90.000000
_cell_angle_gamma 90.000000
_cell_volume 1196.521111
_symmetry_space_group_name_H-M "P N A 21"
_symmetry_group_IT_number 33
_symmetry_cell_setting 'orthorhombic'
loop_
_space_group_symop_operation_xyz
x,y,z
-x,-y,1/2+z
1/2-x,1/2+y,1/2+z
1/2+x,1/2-y,z
loop_
_atom_site_type_symbol
_atom_site_label
_atom_site_fract_x
_atom_site_fract_y
_atom_site_fract_z
Si Si1 0.484335 0.389184 0.449180
Si Si2 0.993052 0.192108 0.056967
Si Si3 0.511522 0.310221 0.840634
Si Si4 0.748849 0.806324 0.010695
Si Si5 0.275480 0.891418 0.618292
Si Si6 0.766104 0.306287 0.726804
O O1 0.477126 0.504252 0.545275
O O2 0.488867 0.498296 0.352010
O O3 0.360424 0.275975 0.445180
O O4 0.613773 0.282772 0.456301
O O5 0.991145 0.268948 0.947632
O O6 0.101742 0.275844 0.122547
O O7 0.854801 0.214373 0.110521
O O8 0.649306 0.256048 0.797421
O O9 0.399756 0.258302 0.768115
O O10 0.755705 0.729258 0.119433
O O11 0.718272 0.994015 0.022174
O O12 0.274371 0.002292 0.714980
#
# Coordination Sequence:
#
# PCOD8170840 Si02
#       6
#     4   4   4   4   4   4
#     4   9  20  35  61  82 115 147 198 229 281 345
#     4   9  19  37  58  84 111 151 193 231 277 349
#     4  10  20  36  58  84 114 149 183 243 286 336
#     4   9  19  37  58  86 106 154 193 230 276 353
#     4   9  20  35  61  81 111 148 198 225 282 349
#     4  10  20  36  58  83 113 145 191 234 292 334
#
# _framework density 20.058150000000001
#
# number of rings (size 3 to 8) (size 9 to 14) (size 15 to 20)
#    2.000    0.667    0.000    2.000    0.000    1.333 
#    0.000    1.667    0.000    0.000    0.000    0.000 
#    0.000    0.000    0.000    0.000    0.000    0.000 
#
# Total GULP energy -297342.672813 kJ/mol
# GULP energy per Si atom -12389.278034 kJ/mol
# Density = 2.001250 g / cm^3
# Si number density = 20.058150 Si / 1000 Ang^3
#
#
#
# Elastic Constant Matrix: (Units=GPa)
#
#
# Indices 1 2 3 4 5 6 
#
# 1 172.8156 64.1888 37.4702 0.0000 0.0000 0.0000
# 2 64.1888 50.8362 15.0892 0.0000 0.0000 0.0000
# 3 37.4702 15.0892 29.9244 0.0000 0.0000 0.0000
# 4 0.0000 0.0000 0.0000 24.3428 0.0000 0.0000
# 5 0.0000 0.0000 0.0000 0.0000 17.1871 0.0000
# 6 0.0000 0.0000 0.0000 0.0000 0.0000 36.8294
#
#
#
# Elastic Compliance Matrix: (Units=1/GPa)
#
#
# Indices 1 2 3 4 5 6 
#
# 1 0.012749 -0.013359 -0.009228 0.000000 0.000000 0.000000
# 2 -0.013359 0.037131 -0.001996 0.000000 0.000000 0.000000
# 3 -0.009228 -0.001996 0.045979 0.000000 0.000000 0.000000
# 4 0.000000 0.000000 0.000000 0.041080 0.000000 0.000000
# 5 0.000000 0.000000 0.000000 0.000000 0.058183 0.000000
# 6 0.000000 0.000000 0.000000 0.000000 0.000000 0.027152
#
#
# Mechanical properties :
#
#
# Convention : Reuss Voigt Hill
#
# Bulk Modulus (GPa) = 21.41600 54.11919 37.76760
# Shear Modulus (GPa) = 17.42135 24.79372 21.10754
#
# Velocity S-wave (km/s) = 2.95030 3.51962 3.24746
# Velocity P-wave (km/s) = 4.72291 6.59975 5.73858
#
# Compressibility (1/GPa) = 0.04669405
#
# Stress axis : x y z
#
# Youngs Moduli (GPa) = 78.43613 26.93155 21.74920
#
# Poissons Ratio (x) = 0.35978 0.20070
# Poissons Ratio (y) = 1.04782 0.04340
# Poissons Ratio (z) = 0.72380 0.05375
#
# Static dielectric constant tensor:
#      x y z
#    x 3.505490 0.000000 0.000000 
#    y 0.000000 3.249830 0.000000 
#    z 0.000000 0.000000 3.245470 
# 
# 
# High freq. dielectric constant tensor:
#      x y z
#    x 1.793220 0.000000 0.000000 
#    y 0.000000 1.746860 0.000000 
#    z 0.000000 0.000000 1.750530 
# 
# From -- ./inp_files/8441.got.cif
#   From: 2010.03.12/outbox.cif.g09.slc.cpg/sg33_5_cif.got.tgz:8441.got - 2010.04.14 01:49:19.
