data_PCOD8170568
_publ_section_title
;
Structure prediction by ZEFSAII (Michael W. Deem and Ramdas Pophale) SiO2 
 PCOD8170568
Probable space group: P B A 2
;
_chemical_formula_sum "Si O2"
_cell_formula_units_Z 22
_cell_length_a 8.773198
_cell_length_b 13.310941
_cell_length_c 7.842625
_cell_angle_alpha 90.000000
_cell_angle_beta 90.000000
_cell_angle_gamma 90.000000
_cell_volume 915.857991
_symmetry_space_group_name_H-M "P B A 2"
_symmetry_group_IT_number 32
_symmetry_cell_setting 'orthorhombic'
loop_
_space_group_symop_operation_xyz
x,y,z
-x,-y,z
1/2-x,1/2+y,z
1/2+x,1/2-y,z
loop_
_atom_site_type_symbol
_atom_site_label
_atom_site_fract_x
_atom_site_fract_y
_atom_site_fract_z
Si Si1 0.741382 0.121325 0.502450
Si Si2 0.475619 0.239529 0.627426
Si Si3 0.500000 0.500000 0.885781
Si Si4 0.793462 0.139085 0.121803
Si Si5 0.286903 0.066634 0.727106
Si Si6 0.530945 0.822667 0.984843
O O1 0.612757 0.208676 0.500998
O O2 0.901974 0.153732 0.584962
O O3 0.792482 0.093423 0.311862
O O4 0.669514 0.034103 0.621916
O O5 0.333892 0.159970 0.607697
O O6 0.531986 0.242285 0.823780
O O7 0.612684 0.566257 0.999903
O O8 0.393800 0.568864 0.764329
O O9 0.615433 0.137966 0.080999
O O10 0.863785 0.251956 0.106997
O O11 0.375036 0.080806 0.909920
#
# Coordination Sequence:
#
# PCOD8170568 Si02
#       6
#     4   4   2   4   4   4
#     4  12  25  47  72 112 151 187 251 325 390 440
#     4  10  24  44  74 101 137 202 246 294 375 472
#     4  12  26  46  70 110 142 204 252 304 370 466
#     4  12  26  46  74 115 153 193 249 336 388 438
#     4  10  26  45  76 102 146 202 259 292 374 472
#     4  10  23  48  75 103 146 201 255 298 383 466
#
# _framework density 24.021191999999999
#
# number of rings (size 3 to 8) (size 9 to 14) (size 15 to 20)
#    1.091    0.000    0.000    6.000    7.636    0.727 
#   13.091    0.000    0.000    0.000    0.000    0.000 
#    0.000    0.000    0.000    0.000    0.000    0.000 
#
# Total GULP energy -272581.983031 kJ/mol
# GULP energy per Si atom -12390.090138 kJ/mol
# Density = 2.396652 g / cm^3
# Si number density = 24.021192 Si / 1000 Ang^3
#
#
#
# Elastic Constant Matrix: (Units=GPa)
#
#
# Indices 1 2 3 4 5 6 
#
# 1 119.2518 23.0246 25.1574 0.0000 0.0000 0.0000
# 2 23.0246 68.1992 13.4537 0.0000 0.0000 0.0000
# 3 25.1574 13.4537 90.2336 0.0000 0.0000 0.0000
# 4 0.0000 0.0000 0.0000 25.7257 0.0000 0.0000
# 5 0.0000 0.0000 0.0000 0.0000 36.3323 0.0000
# 6 0.0000 0.0000 0.0000 0.0000 0.0000 53.1434
#
#
#
# Elastic Compliance Matrix: (Units=1/GPa)
#
#
# Indices 1 2 3 4 5 6 
#
# 1 0.009379 -0.002731 -0.002208 0.000000 0.000000 0.000000
# 2 -0.002731 0.015902 -0.001610 0.000000 0.000000 0.000000
# 3 -0.002208 -0.001610 0.011938 0.000000 0.000000 0.000000
# 4 0.000000 0.000000 0.000000 0.038872 0.000000 0.000000
# 5 0.000000 0.000000 0.000000 0.000000 0.027524 0.000000
# 6 0.000000 0.000000 0.000000 0.000000 0.000000 0.018817
#
#
# Mechanical properties :
#
#
# Convention : Reuss Voigt Hill
#
# Bulk Modulus (GPa) = 41.45480 44.55068 43.00274
# Shear Modulus (GPa) = 34.82664 37.44354 36.13509
#
# Velocity S-wave (km/s) = 3.81179 3.95241 3.88274
# Velocity P-wave (km/s) = 6.05542 6.27817 6.16780
#
# Compressibility (1/GPa) = 0.02412266
#
# Stress axis : x y z
#
# Youngs Moduli (GPa) = 106.62589 62.88352 83.76730
#
# Poissons Ratio (x) = 0.17172 0.18493
# Poissons Ratio (y) = 0.29117 0.13484
# Poissons Ratio (z) = 0.23539 0.10122
#
# Static dielectric constant tensor:
#      x y z
#    x 4.308910 0.000000 0.000000 
#    y 0.000000 4.185010 0.000000 
#    z 0.000000 0.000000 4.047700 
# 
# 
# High freq. dielectric constant tensor:
#      x y z
#    x 1.972810 0.000000 0.000000 
#    y 0.000000 1.946070 0.000000 
#    z 0.000000 0.000000 1.926470 
# 
# From -- ./inp_files/2297.got.cif
#   From: 2010.03.12/outbox.cif.g09.slc.cpg/sg32_2_cif.got.tgz:2297.got - 2010.04.14 01:46:39.
