data_PCOD8170423
_publ_section_title
;
Structure prediction by ZEFSAII (Michael W. Deem and Ramdas Pophale) SiO2 
 PCOD8170423
Probable space group: P B A 2
;
_chemical_formula_sum "Si O2"
_cell_formula_units_Z 32
_cell_length_a 8.992436
_cell_length_b 12.314891
_cell_length_c 14.441473
_cell_angle_alpha 90.000000
_cell_angle_beta 90.000000
_cell_angle_gamma 90.000000
_cell_volume 1599.261272
_symmetry_space_group_name_H-M "P B A 2"
_symmetry_group_IT_number 32
_symmetry_cell_setting 'orthorhombic'
loop_
_space_group_symop_operation_xyz
x,y,z
-x,-y,z
1/2-x,1/2+y,z
1/2+x,1/2-y,z
loop_
_atom_site_type_symbol
_atom_site_label
_atom_site_fract_x
_atom_site_fract_y
_atom_site_fract_z
Si Si1 0.775574 0.250653 0.466870
Si Si2 0.025938 0.377103 0.365568
Si Si3 0.846263 0.944824 0.938675
Si Si4 0.228885 0.736086 0.051021
Si Si5 0.236340 0.348938 0.866209
Si Si6 0.972950 0.871117 0.574411
Si Si7 0.465469 0.693847 0.779777
Si Si8 0.465140 0.876345 0.147408
O O1 0.675910 0.161955 0.414849
O O2 0.876488 0.189616 0.542859
O O3 0.667688 0.342231 0.509918
O O4 0.881991 0.307607 0.392533
O O5 0.000000 0.500000 0.397220
O O6 0.048027 0.367307 0.256596
O O7 0.859830 0.878718 0.843699
O O8 0.718212 0.032320 0.912244
O O9 0.814864 0.877213 0.032377
O O10 0.000000 0.000000 0.964438
O O11 0.312960 0.833251 0.103245
O O12 0.085576 0.708885 0.110773
O O13 0.193288 0.773771 0.947083
O O14 0.362592 0.339365 0.787621
O O15 0.080040 0.314862 0.817579
O O16 0.923618 0.825253 0.673809
O O17 0.000000 0.000000 0.574739
O O18 0.500000 0.000000 0.116386
#
# Coordination Sequence:
#
# PCOD8170423 Si02
#       8
#     4   4   4   4   4   4   4   4
#     4  10  22  38  60  84 109 147 188 235 299 358
#     4  10  21  40  59  81 113 145 183 236 297 354
#     4   9  18  33  53  74 107 150 184 223 274 326
#     4  11  21  35  55  81 111 147 190 232 276 332
#     4  10  19  34  52  74 109 147 182 221 270 325
#     4  11  21  36  59  85 113 146 191 240 287 346
#     4  10  20  33  52  77 106 142 180 223 271 323
#     4  11  23  37  58  84 112 146 189 240 288 344
#
# _framework density 20.009236999999999
#
# number of rings (size 3 to 8) (size 9 to 14) (size 15 to 20)
#    0.000    1.750    0.000    6.375    0.000    0.000 
#    0.000    1.875    0.000   12.000    0.000    0.000 
#    0.000    0.000    0.000    0.000    0.000    0.000 
#
# Total GULP energy -396588.353215 kJ/mol
# GULP energy per Si atom -12393.386038 kJ/mol
# Density = 1.996370 g / cm^3
# Si number density = 20.009237 Si / 1000 Ang^3
#
#
#
# Elastic Constant Matrix: (Units=GPa)
#
#
# Indices 1 2 3 4 5 6 
#
# 1 70.3802 21.8584 15.8941 0.0000 0.0000 0.0000
# 2 21.8584 97.8700 23.3172 0.0000 0.0000 0.0000
# 3 15.8941 23.3172 68.0074 0.0000 0.0000 0.0000
# 4 0.0000 0.0000 0.0000 24.1709 0.0000 0.0000
# 5 0.0000 0.0000 0.0000 0.0000 29.2399 0.0000
# 6 0.0000 0.0000 0.0000 0.0000 0.0000 34.5084
#
#
#
# Elastic Compliance Matrix: (Units=1/GPa)
#
#
# Indices 1 2 3 4 5 6 
#
# 1 0.015706 -0.002868 -0.002688 0.000000 0.000000 0.000000
# 2 -0.002868 0.011650 -0.003324 0.000000 0.000000 0.000000
# 3 -0.002688 -0.003324 0.016472 0.000000 0.000000 0.000000
# 4 0.000000 0.000000 0.000000 0.041372 0.000000 0.000000
# 5 0.000000 0.000000 0.000000 0.000000 0.034200 0.000000
# 6 0.000000 0.000000 0.000000 0.000000 0.000000 0.028978
#
#
# Mechanical properties :
#
#
# Convention : Reuss Voigt Hill
#
# Bulk Modulus (GPa) = 38.35863 39.82191 39.09027
# Shear Modulus (GPa) = 28.59971 29.26304 28.93137
#
# Velocity S-wave (km/s) = 3.78474 3.82838 3.80663
# Velocity P-wave (km/s) = 6.18960 6.28387 6.23691
#
# Compressibility (1/GPa) = 0.02606976
#
# Stress axis : x y z
#
# Youngs Moduli (GPa) = 63.66978 85.83659 60.70864
#
# Poissons Ratio (x) = 0.24614 0.16316
# Poissons Ratio (y) = 0.18257 0.20181
# Poissons Ratio (z) = 0.17111 0.28534
#
# Static dielectric constant tensor:
#      x y z
#    x 3.775050 0.000000 0.000000 
#    y 0.000000 4.072010 0.000000 
#    z 0.000000 0.000000 3.537250 
# 
# 
# High freq. dielectric constant tensor:
#      x y z
#    x 1.776620 0.000000 0.000000 
#    y 0.000000 1.791300 0.000000 
#    z 0.000000 0.000000 1.778940 
# 
# From -- ./inp_files/4144.got.cif
#   From: 2010.03.12/outbox.cif.g09.slc.cpg/sg32_3_cif.got.tgz:4144.got - 2010.04.14 01:46:39.
