data_PCOD8170532
_publ_section_title
;
Structure prediction by ZEFSAII (Michael W. Deem and Ramdas Pophale) SiO2 
 PCOD8170532
Probable space group: P B A 2
;
_chemical_formula_sum "Si O2"
_cell_formula_units_Z 22
_cell_length_a 12.604988
_cell_length_b 13.036608
_cell_length_c 6.929543
_cell_angle_alpha 90.000000
_cell_angle_beta 90.000000
_cell_angle_gamma 90.000000
_cell_volume 1138.706075
_symmetry_space_group_name_H-M "P B A 2"
_symmetry_group_IT_number 32
_symmetry_cell_setting 'orthorhombic'
loop_
_space_group_symop_operation_xyz
x,y,z
-x,-y,z
1/2-x,1/2+y,z
1/2+x,1/2-y,z
loop_
_atom_site_type_symbol
_atom_site_label
_atom_site_fract_x
_atom_site_fract_y
_atom_site_fract_z
Si Si1 0.000000 0.500000 0.866271
Si Si2 0.768316 0.622094 0.339680
Si Si3 0.051834 0.776796 0.324349
Si Si4 0.360474 0.715217 0.059468
Si Si5 0.582204 0.196383 0.660035
Si Si6 0.832025 0.420031 0.161463
O O1 0.978842 0.596279 0.730762
O O2 0.897971 0.476047 0.995706
O O3 0.642024 0.637240 0.343051
O O4 0.817809 0.680918 0.156820
O O5 0.814254 0.665813 0.538545
O O6 0.797855 0.502726 0.322572
O O7 0.097961 0.666535 0.262966
O O8 0.969595 0.817280 0.163788
O O9 0.996362 0.764416 0.530703
O O10 0.275112 0.624985 0.071432
O O11 0.380906 0.733079 0.835170
#
# Coordination Sequence:
#
# PCOD8170532 Si02
#       6
#     2   4   4   4   4   4
#     4  12  20  36  68  90 118 158 208 260 312 364
#     4  10  22  39  60  88 122 163 207 253 314 374
#     4  10  22  40  62  85 125 166 200 257 317 368
#     4  10  22  39  61  88 122 162 205 252 315 371
#     4  11  21  37  62  95 117 156 214 257 307 372
#     4  11  21  40  63  87 125 162 207 256 311 377
#
# _framework density 19.320174999999999
#
# number of rings (size 3 to 8) (size 9 to 14) (size 15 to 20)
#    0.000    1.455    3.636    2.182    2.545    0.727 
#    3.273    0.000    0.000    0.000    0.000    0.000 
#    0.000    0.000    0.000    0.000    0.000    0.000 
#
# Total GULP energy -272904.212835 kJ/mol
# GULP energy per Si atom -12404.736947 kJ/mol
# Density = 1.927620 g / cm^3
# Si number density = 19.320175 Si / 1000 Ang^3
#
#
#
# Elastic Constant Matrix: (Units=GPa)
#
#
# Indices 1 2 3 4 5 6 
#
# 1 153.0397 41.2337 63.2285 0.0000 0.0000 0.0000
# 2 41.2337 47.9022 22.8622 0.0000 0.0000 0.0000
# 3 63.2285 22.8622 136.7332 0.0000 0.0000 0.0000
# 4 0.0000 0.0000 0.0000 13.2800 0.0000 0.0000
# 5 0.0000 0.0000 0.0000 0.0000 14.7698 0.0000
# 6 0.0000 0.0000 0.0000 0.0000 0.0000 35.7451
#
#
#
# Elastic Compliance Matrix: (Units=1/GPa)
#
#
# Indices 1 2 3 4 5 6 
#
# 1 0.009759 -0.006788 -0.003378 0.000000 0.000000 0.000000
# 2 -0.006788 0.027408 -0.001444 0.000000 0.000000 0.000000
# 3 -0.003378 -0.001444 0.009117 0.000000 0.000000 0.000000
# 4 0.000000 0.000000 0.000000 0.075301 0.000000 0.000000
# 5 0.000000 0.000000 0.000000 0.000000 0.067706 0.000000
# 6 0.000000 0.000000 0.000000 0.000000 0.000000 0.027976
#
#
# Mechanical properties :
#
#
# Convention : Reuss Voigt Hill
#
# Bulk Modulus (GPa) = 43.35656 65.81379 54.58517
# Shear Modulus (GPa) = 20.14723 26.78237 23.46480
#
# Velocity S-wave (km/s) = 3.23276 3.72726 3.48878
# Velocity P-wave (km/s) = 6.03524 7.25686 6.67406
#
# Compressibility (1/GPa) = 0.02306456
#
# Stress axis : x y z
#
# Youngs Moduli (GPa) = 102.47308 36.48559 109.68760
#
# Poissons Ratio (x) = 0.24767 0.37048
# Poissons Ratio (y) = 0.69560 0.15836
# Poissons Ratio (z) = 0.34612 0.05268
#
# Static dielectric constant tensor:
#      x y z
#    x 3.725880 0.000000 0.000000 
#    y 0.000000 3.393380 0.000000 
#    z 0.000000 0.000000 3.524170 
# 
# 
# High freq. dielectric constant tensor:
#      x y z
#    x 1.765790 0.000000 0.000000 
#    y 0.000000 1.738430 0.000000 
#    z 0.000000 0.000000 1.754450 
# 
# From -- ./inp_files/823.got.cif
#   From: 2010.03.12/outbox.cif.g09.slc.cpg/sg32_1_cif.got.tgz:823.got - 2010.04.14 01:46:39.
