data_PCOD8170005
_publ_section_title
;
Structure prediction by ZEFSAII (Michael W. Deem and Ramdas Pophale) SiO2 
 PCOD8170005
Probable space group: P M N 21
;
_chemical_formula_sum "Si O2"
_cell_formula_units_Z 32
_cell_length_a 9.623462
_cell_length_b 7.775803
_cell_length_c 23.997128
_cell_angle_alpha 90.000000
_cell_angle_beta 90.000000
_cell_angle_gamma 90.000000
_cell_volume 1795.708560
_symmetry_space_group_name_H-M "P M N 21"
_symmetry_group_IT_number 31
_symmetry_cell_setting 'orthorhombic'
loop_
_space_group_symop_operation_xyz
x,y,z
1/2-x,-y,1/2+z
-x,y,z
1/2+x,-y,1/2+z
loop_
_atom_site_type_symbol
_atom_site_label
_atom_site_fract_x
_atom_site_fract_y
_atom_site_fract_z
Si Si1 0.334699 0.559838 0.231330
Si Si2 0.659394 0.558283 0.507160
Si Si3 0.166220 0.750000 0.805890
Si Si4 0.665301 0.940161 0.231330
Si Si5 0.658022 0.951069 0.106207
Si Si6 0.835123 0.750000 0.930830
Si Si7 0.658022 0.548931 0.106207
Si Si8 0.659394 0.941717 0.507160
O O1 0.500000 0.564967 0.232786
O O2 0.276125 0.419677 0.274621
O O3 0.277259 0.750000 0.247283
O O4 0.288714 0.509486 0.168739
O O5 0.500000 0.513785 0.521500
O O6 0.718154 0.420875 0.462584
O O7 0.744946 0.553728 0.564114
O O8 0.672440 0.750000 0.481423
O O9 0.226756 0.750000 0.868455
O O10 0.000000 0.750000 0.805300
O O11 0.223875 0.919677 0.774621
O O12 0.500000 0.935033 0.232786
O O13 0.711286 0.990514 0.168739
O O14 0.500000 0.015163 0.098505
O O15 0.668995 0.750000 0.093292
O O16 0.755054 0.053728 0.064114
O O17 0.000000 0.750000 0.926737
O O18 0.781846 0.920875 0.962584
O O19 0.500000 0.484837 0.098505
O O20 0.500000 0.986215 0.521500
#
# Coordination Sequence:
#
# PCOD8170005 Si02
#       8
#     4   4   4   4   4   4   4   4
#     4   8  15  26  40  65  96 119 147 191 237 282
#     4  10  20  32  47  69  97 130 163 196 236 282
#     4   9  16  26  44  65  89 127 158 185 236 284
#     4   8  15  26  40  65  96 119 147 191 237 282
#     4   9  17  30  49  73 100 126 155 195 242 288
#     4   9  18  32  45  63  95 129 164 199 232 280
#     4   9  17  30  49  73 100 126 155 195 242 288
#     4  10  20  32  47  69  97 130 163 196 236 282
#
# _framework density 17.820263000000001
#
# number of rings (size 3 to 8) (size 9 to 14) (size 15 to 20)
#    0.000    3.000    1.250    1.500    1.750    1.500 
#    0.000    5.000    0.000    0.000    0.000    3.500 
#    0.000    4.000    0.000    0.000    0.000    0.000 
#
# Total GULP energy -396669.292617 kJ/mol
# GULP energy per Si atom -12395.915394 kJ/mol
# Density = 1.777970 g / cm^3
# Si number density = 17.820263 Si / 1000 Ang^3
#
#
#
# Elastic Constant Matrix: (Units=GPa)
#
#
# Indices 1 2 3 4 5 6 
#
# 1 26.4874 21.4514 26.0528 0.0000 0.0000 0.0000
# 2 21.4514 137.3846 85.6097 0.0000 0.0000 0.0000
# 3 26.0528 85.6097 144.4204 0.0000 0.0000 0.0000
# 4 0.0000 0.0000 0.0000 27.4047 0.0000 0.0000
# 5 0.0000 0.0000 0.0000 0.0000 18.0012 0.0000
# 6 0.0000 0.0000 0.0000 0.0000 0.0000 13.9472
#
#
#
# Elastic Compliance Matrix: (Units=1/GPa)
#
#
# Indices 1 2 3 4 5 6 
#
# 1 0.046792 -0.003245 -0.006518 0.000000 0.000000 0.000000
# 2 -0.003245 0.011767 -0.006390 0.000000 0.000000 0.000000
# 3 -0.006518 -0.006390 0.011888 0.000000 0.000000 0.000000
# 4 0.000000 0.000000 0.000000 0.036490 0.000000 0.000000
# 5 0.000000 0.000000 0.000000 0.000000 0.055552 0.000000
# 6 0.000000 0.000000 0.000000 0.000000 0.000000 0.071699
#
#
# Mechanical properties :
#
#
# Convention : Reuss Voigt Hill
#
# Bulk Modulus (GPa) = 26.21750 63.83557 45.02654
# Shear Modulus (GPa) = 17.90777 23.54917 20.72847
#
# Velocity S-wave (km/s) = 3.17347 3.63916 3.41427
# Velocity P-wave (km/s) = 5.30773 7.31831 6.39256
#
# Compressibility (1/GPa) = 0.03814246
#
# Stress axis : x y z
#
# Youngs Moduli (GPa) = 21.37103 84.98017 84.11873
#
# Poissons Ratio (x) = 0.27574 0.54826
# Poissons Ratio (y) = 0.06934 0.53753
# Poissons Ratio (z) = 0.13929 0.54304
#
# Static dielectric constant tensor:
#      x y z
#    x 2.764850 0.000000 0.000000 
#    y 0.000000 3.568150 0.000000 
#    z 0.000000 0.000000 3.399470 
# 
# 
# High freq. dielectric constant tensor:
#      x y z
#    x 1.622290 0.000000 0.000000 
#    y 0.000000 1.704520 0.000000 
#    z 0.000000 0.000000 1.685100 
# 
# From -- ./inp_files/6363.got.cif
#   From: 2010.03.12/outbox.cif.g09.slc.cpg/sg31_4_cif.got.tgz:6363.got - 2010.04.14 01:42:59.
