data_PCOD8170275
_publ_section_title
;
Structure prediction by ZEFSAII (Michael W. Deem and Ramdas Pophale) SiO2 
 PCOD8170275
Probable space group: P M N 21
;
_chemical_formula_sum "Si O2"
_cell_formula_units_Z 28
_cell_length_a 12.663207
_cell_length_b 20.120382
_cell_length_c 5.302357
_cell_angle_alpha 90.000000
_cell_angle_beta 90.000000
_cell_angle_gamma 90.000000
_cell_volume 1350.979916
_symmetry_space_group_name_H-M "P M N 21"
_symmetry_group_IT_number 31
_symmetry_cell_setting 'orthorhombic'
loop_
_space_group_symop_operation_xyz
x,y,z
1/2-x,-y,1/2+z
-x,y,z
1/2+x,-y,1/2+z
loop_
_atom_site_type_symbol
_atom_site_label
_atom_site_fract_x
_atom_site_fract_y
_atom_site_fract_z
Si Si1 0.624358 0.962460 0.591410
Si Si2 0.376481 0.723032 0.554692
Si Si3 0.790186 0.409265 0.946692
Si Si4 0.769942 0.085875 0.591218
Si Si5 0.386717 0.473659 0.213831
Si Si6 0.381942 0.350990 0.591111
Si Si7 0.263181 0.765098 0.037943
O O1 0.500000 0.968703 0.573273
O O2 0.665084 0.921073 0.350900
O O3 0.671004 0.036599 0.585106
O O4 0.654642 0.926617 0.851821
O O5 0.500000 0.733496 0.526642
O O6 0.348483 0.645440 0.619460
O O7 0.326284 0.742973 0.287242
O O8 0.338131 0.765822 0.792054
O O9 0.722535 0.468584 0.067701
O O10 0.883589 0.450495 0.813926
O O11 0.701623 0.367734 0.803107
O O12 0.722679 0.160016 0.578337
O O13 0.500000 0.469225 0.064750
O O14 0.386342 0.412910 0.406079
O O15 0.500000 0.337563 0.698620
O O16 0.337268 0.282284 0.472193
#
# Coordination Sequence:
#
# PCOD8170275 Si02
#       7
#     4   4   4   4   4   4   4
#     4  10  21  39  63  91 124 158 198 246 292 345
#     4  11  24  40  60  87 122 160 201 249 301 356
#     4  11  21  39  57  84 113 148 197 258 300 359
#     4  10  22  38  61  92 123 158 200 244 292 349
#     4  11  21  36  58  80 106 147 195 244 302 355
#     4  10  22  39  58  81 112 153 195 242 298 357
#     4  11  23  41  61  89 124 158 200 245 293 357
#
# _framework density 20.725697
#
# number of rings (size 3 to 8) (size 9 to 14) (size 15 to 20)
#    0.000    1.429    2.857    2.571    0.000    4.000 
#    0.000    1.429    0.000    5.143    0.000    0.000 
#    0.000    0.000    0.000    0.000    0.000    0.000 
#
# Total GULP energy -346879.603597 kJ/mol
# GULP energy per Si atom -12388.557271 kJ/mol
# Density = 2.067852 g / cm^3
# Si number density = 20.725697 Si / 1000 Ang^3
#
#
#
# Elastic Constant Matrix: (Units=GPa)
#
#
# Indices 1 2 3 4 5 6 
#
# 1 80.1030 13.5392 6.6509 0.0000 0.0000 0.0000
# 2 13.5392 77.3312 -9.5597 0.0000 0.0000 0.0000
# 3 6.6509 -9.5597 85.5528 0.0000 0.0000 0.0000
# 4 0.0000 0.0000 0.0000 16.7047 0.0000 0.0000
# 5 0.0000 0.0000 0.0000 0.0000 7.5700 0.0000
# 6 0.0000 0.0000 0.0000 0.0000 0.0000 21.3606
#
#
#
# Elastic Compliance Matrix: (Units=1/GPa)
#
#
# Indices 1 2 3 4 5 6 
#
# 1 0.013002 -0.002435 -0.001283 0.000000 0.000000 0.000000
# 2 -0.002435 0.013569 0.001705 0.000000 0.000000 0.000000
# 3 -0.001283 0.001705 0.011979 0.000000 0.000000 0.000000
# 4 0.000000 0.000000 0.000000 0.059863 0.000000 0.000000
# 5 0.000000 0.000000 0.000000 0.000000 0.132100 0.000000
# 6 0.000000 0.000000 0.000000 0.000000 0.000000 0.046815
#
#
# Mechanical properties :
#
#
# Convention : Reuss Voigt Hill
#
# Bulk Modulus (GPa) = 28.96475 29.36087 29.16281
# Shear Modulus (GPa) = 17.07294 24.61751 20.84522
#
# Velocity S-wave (km/s) = 2.87323 3.45015 3.17482
# Velocity P-wave (km/s) = 5.00129 5.48348 5.24793
#
# Compressibility (1/GPa) = 0.03452473
#
# Stress axis : x y z
#
# Youngs Moduli (GPa) = 76.91122 73.69985 83.47949
#
# Poissons Ratio (x) = 0.17946 0.10709
# Poissons Ratio (y) = 0.18728 -0.14237
# Poissons Ratio (z) = 0.09867 -0.12569
#
# Static dielectric constant tensor:
#      x y z
#    x 4.496220 0.000000 0.000000 
#    y 0.000000 4.027650 0.000000 
#    z 0.000000 0.000000 3.963480 
# 
# 
# High freq. dielectric constant tensor:
#      x y z
#    x 1.814150 0.000000 0.000000 
#    y 0.000000 1.823100 0.000000 
#    z 0.000000 0.000000 1.801230 
# 
# From -- ./inp_files/408.got.cif
#   From: 2010.03.12/outbox.cif.g09.slc.cpg/sg31_1_cif.got.tgz:408.got - 2010.04.14 01:42:59.
