data_PCOD8170664
_publ_section_title
;
Structure prediction by ZEFSAII (Michael W. Deem and Ramdas Pophale) SiO2 
 PCOD8170664
Probable space group: P N A 21
;
_chemical_formula_sum "Si O2"
_cell_formula_units_Z 24
_cell_length_a 13.864389
_cell_length_b 15.056191
_cell_length_c 6.029688
_cell_angle_alpha 90.000000
_cell_angle_beta 90.000000
_cell_angle_gamma 90.000000
_cell_volume 1258.666552
_symmetry_space_group_name_H-M "P N A 21"
_symmetry_group_IT_number 33
_symmetry_cell_setting 'orthorhombic'
loop_
_space_group_symop_operation_xyz
x,y,z
-x,-y,1/2+z
1/2-x,1/2+y,1/2+z
1/2+x,1/2-y,z
loop_
_atom_site_type_symbol
_atom_site_label
_atom_site_fract_x
_atom_site_fract_y
_atom_site_fract_z
Si Si1 0.753333 0.675111 0.446780
Si Si2 0.111078 0.416531 0.651834
Si Si3 0.910349 0.413752 0.880113
Si Si4 0.286576 0.188787 0.573444
Si Si5 0.587530 0.741110 0.691570
Si Si6 0.118180 0.252902 0.330285
O O1 0.793123 0.591327 0.307417
O O2 0.747166 0.758720 0.287473
O O3 0.647088 0.663980 0.559441
O O4 0.831929 0.695392 0.631984
O O5 0.132732 0.499686 0.496373
O O6 0.092614 0.325916 0.516782
O O7 0.017936 0.435190 0.801315
O O8 0.840212 0.398683 0.666411
O O9 0.912369 0.332062 0.051074
O O10 0.362436 0.244287 0.428318
O O11 0.189164 0.175170 0.425654
O O12 0.479383 0.707329 0.739263
#
# Coordination Sequence:
#
# PCOD8170664 Si02
#       6
#     4   4   4   4   4   4
#     4   9  20  33  49  77 114 138 180 226 272 327
#     4  11  21  31  49  80 118 147 173 222 292 350
#     4  11  21  31  49  80 118 147 173 222 292 350
#     4   9  20  33  49  77 114 138 180 226 272 327
#     4  10  18  34  54  75 112 144 186 230 272 327
#     4  10  18  34  54  75 112 144 186 230 272 327
#
# _framework density 19.067799000000001
#
# number of rings (size 3 to 8) (size 9 to 14) (size 15 to 20)
#    0.000    2.000    3.333    1.000    0.000    0.000 
#    0.000    0.000    0.000    0.000    0.000    0.000 
#  360.000    0.000    0.000    0.000    0.000    0.000 
#
# Total GULP energy -297372.935485 kJ/mol
# GULP energy per Si atom -12390.538979 kJ/mol
# Density = 1.902440 g / cm^3
# Si number density = 19.067799 Si / 1000 Ang^3
#
#
#
# Elastic Constant Matrix: (Units=GPa)
#
#
# Indices 1 2 3 4 5 6 
#
# 1 142.1218 30.8383 32.5572 0.0000 0.0000 0.0000
# 2 30.8383 48.3895 17.8532 0.0000 0.0000 0.0000
# 3 32.5572 17.8532 71.3278 0.0000 0.0000 0.0000
# 4 0.0000 0.0000 0.0000 34.9480 0.0000 0.0000
# 5 0.0000 0.0000 0.0000 0.0000 41.5749 0.0000
# 6 0.0000 0.0000 0.0000 0.0000 0.0000 17.9861
#
#
#
# Elastic Compliance Matrix: (Units=1/GPa)
#
#
# Indices 1 2 3 4 5 6 
#
# 1 0.008655 -0.004471 -0.002831 0.000000 0.000000 0.000000
# 2 -0.004471 0.025078 -0.004236 0.000000 0.000000 0.000000
# 3 -0.002831 -0.004236 0.016372 0.000000 0.000000 0.000000
# 4 0.000000 0.000000 0.000000 0.028614 0.000000 0.000000
# 5 0.000000 0.000000 0.000000 0.000000 0.024053 0.000000
# 6 0.000000 0.000000 0.000000 0.000000 0.000000 0.055599
#
#
# Mechanical properties :
#
#
# Convention : Reuss Voigt Hill
#
# Bulk Modulus (GPa) = 36.99858 47.14849 42.07353
# Shear Modulus (GPa) = 26.25255 30.94115 28.59685
#
# Velocity S-wave (km/s) = 3.71455 4.03263 3.87686
# Velocity P-wave (km/s) = 6.15167 6.81640 6.49255
#
# Compressibility (1/GPa) = 0.02702807
#
# Stress axis : x y z
#
# Youngs Moduli (GPa) = 115.54010 39.87564 61.07815
#
# Poissons Ratio (x) = 0.17829 0.17294
# Poissons Ratio (y) = 0.51659 0.25874
# Poissons Ratio (z) = 0.32714 0.16892
#
# Static dielectric constant tensor:
#      x y z
#    x 3.906900 0.000000 0.000000 
#    y 0.000000 3.057110 0.000000 
#    z 0.000000 0.000000 3.961550 
# 
# 
# High freq. dielectric constant tensor:
#      x y z
#    x 1.750300 0.000000 0.000000 
#    y 0.000000 1.674080 0.000000 
#    z 0.000000 0.000000 1.773650 
# 
# From -- ./inp_files/849.got.cif
#   From: 2010.03.12/outbox.cif.g09.slc.cpg/sg33_1_cif.got.tgz:849.got - 2010.04.14 01:49:19.
