data_PCOD8170934
_publ_section_title
;
Structure prediction by ZEFSAII (Michael W. Deem and Ramdas Pophale) SiO2 
 PCOD8170934
Probable space group: P N A 21
;
_chemical_formula_sum "Si O2"
_cell_formula_units_Z 28
_cell_length_a 5.740849
_cell_length_b 15.142260
_cell_length_c 12.173918
_cell_angle_alpha 90.000000
_cell_angle_beta 90.000000
_cell_angle_gamma 90.000000
_cell_volume 1058.271730
_symmetry_space_group_name_H-M "P N A 21"
_symmetry_group_IT_number 33
_symmetry_cell_setting 'orthorhombic'
loop_
_space_group_symop_operation_xyz
x,y,z
-x,-y,1/2+z
1/2-x,1/2+y,1/2+z
1/2+x,1/2-y,z
loop_
_atom_site_type_symbol
_atom_site_label
_atom_site_fract_x
_atom_site_fract_y
_atom_site_fract_z
Si Si1 0.076748 0.025407 0.618770
Si Si2 0.710821 0.732616 0.395824
Si Si3 0.050988 0.439682 0.257921
Si Si4 0.921458 0.712522 0.912029
Si Si5 0.298832 0.115658 0.056973
Si Si6 0.181570 0.458839 0.920488
Si Si7 0.530210 0.274362 0.655739
O O1 0.972448 0.122441 0.636413
O O2 0.238990 0.002977 0.722319
O O3 0.217326 0.031554 0.503966
O O4 0.903738 0.943431 0.606507
O O5 0.466657 0.760249 0.333746
O O6 0.761071 0.786770 0.509570
O O7 0.662847 0.629914 0.423392
O O8 0.118143 0.386583 0.368410
O O9 0.982821 0.374714 0.157767
O O10 0.833943 0.502427 0.296609
O O11 0.680279 0.758630 0.867163
O O12 0.931391 0.719143 0.043696
O O13 0.417691 0.064275 0.956225
O O14 0.287842 0.238944 0.715194
#
# Coordination Sequence:
#
# PCOD8170934 Si02
#       7
#     4   4   4   4   4   4   4
#     4  11  24  44  70 101 142 188 238 299 364 430
#     4  10  20  42  67  99 135 193 236 289 353 428
#     4  11  26  42  69 110 142 185 244 304 362 426
#     4  10  23  41  65 103 141 184 236 296 354 423
#     4  10  24  41  70  99 141 187 239 301 358 429
#     4  10  22  43  69  97 144 190 239 290 366 432
#     4  10  23  43  72  97 135 189 238 287 355 428
#
# _framework density 26.458231000000001
#
# number of rings (size 3 to 8) (size 9 to 14) (size 15 to 20)
#    0.000    1.714    1.429    1.714   10.000    4.571 
#    0.000    2.857    0.000    0.000    0.000    0.000 
#    0.000    0.000    0.000    0.000    0.000    0.000 
#
# Total GULP energy -346915.776060 kJ/mol
# GULP energy per Si atom -12389.849145 kJ/mol
# Density = 2.639801 g / cm^3
# Si number density = 26.458231 Si / 1000 Ang^3
#
#
#
# Elastic Constant Matrix: (Units=GPa)
#
#
# Indices 1 2 3 4 5 6 
#
# 1 135.7034 45.9046 47.4134 0.0000 0.0000 0.0000
# 2 45.9046 128.1704 57.7835 0.0000 0.0000 0.0000
# 3 47.4134 57.7835 122.6937 0.0000 0.0000 0.0000
# 4 0.0000 0.0000 0.0000 20.3466 0.0000 0.0000
# 5 0.0000 0.0000 0.0000 0.0000 27.2107 0.0000
# 6 0.0000 0.0000 0.0000 0.0000 0.0000 49.8443
#
#
#
# Elastic Compliance Matrix: (Units=1/GPa)
#
#
# Indices 1 2 3 4 5 6 
#
# 1 0.008938 -0.002087 -0.002471 0.000000 0.000000 0.000000
# 2 -0.002087 0.010393 -0.004088 0.000000 0.000000 0.000000
# 3 -0.002471 -0.004088 0.011031 0.000000 0.000000 0.000000
# 4 0.000000 0.000000 0.000000 0.049148 0.000000 0.000000
# 5 0.000000 0.000000 0.000000 0.000000 0.036750 0.000000
# 6 0.000000 0.000000 0.000000 0.000000 0.000000 0.020062
#
#
# Mechanical properties :
#
#
# Convention : Reuss Voigt Hill
#
# Bulk Modulus (GPa) = 76.51669 76.53007 76.52338
# Shear Modulus (GPa) = 31.65128 35.17805 33.41467
#
# Velocity S-wave (km/s) = 3.46247 3.65028 3.55762
# Velocity P-wave (km/s) = 6.70578 6.83767 6.77205
#
# Compressibility (1/GPa) = 0.01306904
#
# Stress axis : x y z
#
# Youngs Moduli (GPa) = 111.87603 96.22200 90.65736
#
# Poissons Ratio (x) = 0.20084 0.22403
# Poissons Ratio (y) = 0.23352 0.37060
# Poissons Ratio (z) = 0.27646 0.39335
#
# Static dielectric constant tensor:
#      x y z
#    x 5.383580 0.000000 0.000000 
#    y 0.000000 4.491140 0.000000 
#    z 0.000000 0.000000 4.917580 
# 
# 
# High freq. dielectric constant tensor:
#      x y z
#    x 2.094080 0.000000 0.000000 
#    y 0.000000 2.044420 0.000000 
#    z 0.000000 0.000000 2.081410 
# 
# From -- ./inp_files/7406.got.cif
#   From: 2010.03.12/outbox.cif.g09.slc.cpg/sg33_4_cif.got.tgz:7406.got - 2010.04.14 01:49:19.
