data_PCOD8170290
_publ_section_title
;
Structure prediction by ZEFSAII (Michael W. Deem and Ramdas Pophale) SiO2 
 PCOD8170290
Probable space group: P M N 21
;
_chemical_formula_sum "Si O2"
_cell_formula_units_Z 32
_cell_length_a 8.996823
_cell_length_b 15.228414
_cell_length_c 11.962364
_cell_angle_alpha 90.000000
_cell_angle_beta 90.000000
_cell_angle_gamma 90.000000
_cell_volume 1638.931735
_symmetry_space_group_name_H-M "P M N 21"
_symmetry_group_IT_number 31
_symmetry_cell_setting 'orthorhombic'
loop_
_space_group_symop_operation_xyz
x,y,z
1/2-x,-y,1/2+z
-x,y,z
1/2+x,-y,1/2+z
loop_
_atom_site_type_symbol
_atom_site_label
_atom_site_fract_x
_atom_site_fract_y
_atom_site_fract_z
Si Si1 0.674606 0.161200 0.059630
Si Si2 0.832123 0.421913 0.845041
Si Si3 0.675612 0.915327 0.354932
Si Si4 0.325937 0.598969 0.812087
Si Si5 0.823917 0.890786 0.801481
Si Si6 0.323066 0.260278 0.465844
Si Si7 0.674223 0.751251 0.205224
Si Si8 0.331775 0.666267 0.569665
O O1 0.500000 0.148500 0.051812
O O2 0.737600 0.143201 0.183425
O O3 0.720283 0.259297 0.027106
O O4 0.750462 0.094175 0.975376
O O5 0.717948 0.497270 0.812299
O O6 0.787462 0.332279 0.782045
O O7 0.000000 0.449083 0.811535
O O8 0.821045 0.410889 0.978844
O O9 0.500000 0.911922 0.370112
O O10 0.727208 0.839455 0.269205
O O11 0.733205 0.009891 0.313971
O O12 0.500000 0.608197 0.835581
O O13 0.237954 0.652447 0.906217
O O14 0.280525 0.632888 0.690061
O O15 0.765430 0.826091 0.899116
O O16 0.000000 0.888571 0.801760
O O17 0.500000 0.266115 0.467194
O O18 0.264385 0.255420 0.591110
O O19 0.500000 0.756002 0.177808
O O20 0.500000 0.703638 0.572987
#
# Coordination Sequence:
#
# PCOD8170290 Si02
#       8
#     4   4   4   4   4   4   4   4
#     4  11  21  37  62  91 119 151 201 252 295 347
#     4  10  22  41  62  87 119 157 197 242 302 354
#     4  10  21  41  63  85 121 162 198 243 301 355
#     4  11  24  40  62  92 119 153 202 246 294 355
#     4   9  21  39  60  87 120 159 196 241 299 352
#     4  11  23  41  61  85 123 162 197 243 300 354
#     4  10  22  40  62  87 119 159 200 243 296 356
#     4  10  21  41  64  86 116 157 199 242 297 359
#
# _framework density 19.524913000000002
#
# number of rings (size 3 to 8) (size 9 to 14) (size 15 to 20)
#    0.000    1.750    2.500    1.125    3.500    2.000 
#    0.000    1.875    0.000    0.000    0.000    0.000 
#    0.000    0.000    0.000    0.000    0.000    0.000 
#
# Total GULP energy -396870.891711 kJ/mol
# GULP energy per Si atom -12402.215366 kJ/mol
# Density = 1.948047 g / cm^3
# Si number density = 19.524913 Si / 1000 Ang^3
#
#
#
# Elastic Constant Matrix: (Units=GPa)
#
#
# Indices 1 2 3 4 5 6 
#
# 1 51.3832 34.1337 39.9196 0.0000 0.0000 0.0000
# 2 34.1337 122.0537 37.9411 0.0000 0.0000 0.0000
# 3 39.9196 37.9411 122.5149 0.0000 0.0000 0.0000
# 4 0.0000 0.0000 0.0000 27.8520 0.0000 0.0000
# 5 0.0000 0.0000 0.0000 0.0000 32.5726 0.0000
# 6 0.0000 0.0000 0.0000 0.0000 0.0000 24.4187
#
#
#
# Elastic Compliance Matrix: (Units=1/GPa)
#
#
# Indices 1 2 3 4 5 6 
#
# 1 0.029344 -0.005792 -0.007768 0.000000 0.000000 0.000000
# 2 -0.005792 0.010209 -0.001274 0.000000 0.000000 0.000000
# 3 -0.007768 -0.001274 0.011088 0.000000 0.000000 0.000000
# 4 0.000000 0.000000 0.000000 0.035904 0.000000 0.000000
# 5 0.000000 0.000000 0.000000 0.000000 0.030701 0.000000
# 6 0.000000 0.000000 0.000000 0.000000 0.000000 0.040952
#
#
# Mechanical properties :
#
#
# Convention : Reuss Voigt Hill
#
# Bulk Modulus (GPa) = 47.68008 57.77117 52.72562
# Shear Modulus (GPa) = 25.65998 29.23248 27.44623
#
# Velocity S-wave (km/s) = 3.62915 3.87355 3.75334
# Velocity P-wave (km/s) = 6.48337 7.04688 6.77099
#
# Compressibility (1/GPa) = 0.02097312
#
# Stress axis : x y z
#
# Youngs Moduli (GPa) = 34.07895 97.95281 90.18849
#
# Poissons Ratio (x) = 0.56731 0.70054
# Poissons Ratio (y) = 0.19737 0.11494
# Poissons Ratio (z) = 0.26471 0.12484
#
# Static dielectric constant tensor:
#      x y z
#    x 3.369990 0.000000 0.000000 
#    y 0.000000 3.661360 0.000000 
#    z 0.000000 0.000000 3.692150 
# 
# 
# High freq. dielectric constant tensor:
#      x y z
#    x 1.746310 0.000000 0.000000 
#    y 0.000000 1.765660 0.000000 
#    z 0.000000 0.000000 1.773400 
# 
# From -- ./inp_files/3605.got.cif
#   From: 2010.03.12/outbox.cif.g09.slc.cpg/sg31_2_cif.got.tgz:3605.got - 2010.04.14 01:42:59.
