data_PCOD8170009
_publ_section_title
;
Structure prediction by ZEFSAII (Michael W. Deem and Ramdas Pophale) SiO2 
 PCOD8170009
Probable space group: P M N 21
;
_chemical_formula_sum "Si O2"
_cell_formula_units_Z 32
_cell_length_a 9.090503
_cell_length_b 20.711216
_cell_length_c 9.314492
_cell_angle_alpha 90.000000
_cell_angle_beta 90.000000
_cell_angle_gamma 90.000000
_cell_volume 1753.689439
_symmetry_space_group_name_H-M "P M N 21"
_symmetry_group_IT_number 31
_symmetry_cell_setting 'orthorhombic'
loop_
_space_group_symop_operation_xyz
x,y,z
1/2-x,-y,1/2+z
-x,y,z
1/2+x,-y,1/2+z
loop_
_atom_site_type_symbol
_atom_site_label
_atom_site_fract_x
_atom_site_fract_y
_atom_site_fract_z
Si Si1 0.167055 0.047849 0.346580
Si Si2 0.169482 0.446847 0.042395
Si Si3 0.670611 0.939195 0.511528
Si Si4 0.830423 0.190869 0.344737
Si Si5 0.328077 0.183336 0.044770
Si Si6 0.670784 0.559883 0.879034
Si Si7 0.334621 0.312668 0.375652
Si Si8 0.837458 0.676920 0.534162
O O1 0.281853 0.001585 0.423120
O O2 0.187240 0.119795 0.414678
O O3 0.000000 0.024182 0.372651
O O4 0.203536 0.047726 0.178070
O O5 0.199386 0.452032 0.211325
O O6 0.219439 0.376302 0.984939
O O7 0.000000 0.456616 0.002417
O O8 0.265314 0.500300 0.965506
O O9 0.500000 0.925135 0.483314
O O10 0.764806 0.877239 0.454274
O O11 0.769607 0.185040 0.185738
O O12 0.742956 0.246694 0.431634
O O13 0.000000 0.211915 0.336550
O O14 0.500000 0.173218 0.081614
O O15 0.305933 0.252518 0.963205
O O16 0.500000 0.566775 0.913663
O O17 0.749342 0.624832 0.934484
O O18 0.500000 0.314542 0.436305
O O19 0.331691 0.312556 0.204368
O O20 0.000000 0.652287 0.489588
#
# Coordination Sequence:
#
# PCOD8170009 Si02
#       8
#     4   4   4   4   4   4   4   4
#     4   9  19  33  48  70  99 128 159 196 237 284
#     4  10  20  32  49  73  98 127 161 196 237 285
#     4  10  20  32  49  73  98 127 162 198 239 287
#     4   9  16  27  44  68  96 123 157 200 240 280
#     4   9  16  27  45  68  94 124 157 196 241 283
#     4  10  20  33  50  72  99 130 161 197 241 286
#     4   9  16  27  45  69  95 123 158 198 239 282
#     4   8  15  27  44  67  93 122 155 193 236 279
#
# _framework density 18.247244999999999
#
# number of rings (size 3 to 8) (size 9 to 14) (size 15 to 20)
#    0.000    2.750    0.000    3.750    0.000    8.000 
#    0.000    0.000    0.000    1.500    0.000    8.750 
#    0.000    0.000    0.000    0.000    0.000    0.000 
#
# Total GULP energy -396615.739891 kJ/mol
# GULP energy per Si atom -12394.241872 kJ/mol
# Density = 1.820571 g / cm^3
# Si number density = 18.247245 Si / 1000 Ang^3
#
#
#
# Elastic Constant Matrix: (Units=GPa)
#
#
# Indices 1 2 3 4 5 6 
#
# 1 145.5251 100.9904 34.5049 0.0000 0.0000 0.0000
# 2 100.9904 185.1094 38.9065 0.0000 0.0000 0.0000
# 3 34.5049 38.9065 23.6537 0.0000 0.0000 0.0000
# 4 0.0000 0.0000 0.0000 18.7400 0.0000 0.0000
# 5 0.0000 0.0000 0.0000 0.0000 20.2362 0.0000
# 6 0.0000 0.0000 0.0000 0.0000 0.0000 41.5220
#
#
#
# Elastic Compliance Matrix: (Units=1/GPa)
#
#
# Indices 1 2 3 4 5 6 
#
# 1 0.012653 -0.004621 -0.010856 0.000000 0.000000 0.000000
# 2 -0.004621 0.009944 -0.009616 0.000000 0.000000 0.000000
# 3 -0.010856 -0.009616 0.073930 0.000000 0.000000 0.000000
# 4 0.000000 0.000000 0.000000 0.053362 0.000000 0.000000
# 5 0.000000 0.000000 0.000000 0.000000 0.049416 0.000000
# 6 0.000000 0.000000 0.000000 0.000000 0.000000 0.024084
#
#
# Mechanical properties :
#
#
# Convention : Reuss Voigt Hill
#
# Bulk Modulus (GPa) = 21.57937 78.12133 49.85035
# Shear Modulus (GPa) = 17.29975 28.09208 22.69591
#
# Velocity S-wave (km/s) = 3.08242 3.92793 3.53058
# Velocity P-wave (km/s) = 4.95179 7.96726 6.63315
#
# Compressibility (1/GPa) = 0.04634056
#
# Stress axis : x y z
#
# Youngs Moduli (GPa) = 79.03449 100.55824 13.52638
#
# Poissons Ratio (x) = 0.46470 0.14684
# Poissons Ratio (y) = 0.36524 0.13007
# Poissons Ratio (z) = 0.85800 0.96695
#
# Static dielectric constant tensor:
#      x y z
#    x 3.525790 0.000000 0.000000 
#    y 0.000000 3.960060 0.000000 
#    z 0.000000 0.000000 2.743180 
# 
# 
# High freq. dielectric constant tensor:
#      x y z
#    x 1.723650 0.000000 0.000000 
#    y 0.000000 1.731680 0.000000 
#    z 0.000000 0.000000 1.631740 
# 
# From -- ./inp_files/3784.got.cif
#   From: 2010.03.12/outbox.cif.g09.slc.cpg/sg31_2_cif.got.tgz:3784.got - 2010.04.14 01:42:59.
