data_PCOD8170448
_publ_section_title
;
Structure prediction by ZEFSAII (Michael W. Deem and Ramdas Pophale) SiO2 
 PCOD8170448
Probable space group: P B A 2
;
_chemical_formula_sum "Si O2"
_cell_formula_units_Z 28
_cell_length_a 12.721139
_cell_length_b 13.438282
_cell_length_c 8.702819
_cell_angle_alpha 90.000000
_cell_angle_beta 90.000000
_cell_angle_gamma 90.000000
_cell_volume 1487.749112
_symmetry_space_group_name_H-M "P B A 2"
_symmetry_group_IT_number 32
_symmetry_cell_setting 'orthorhombic'
loop_
_space_group_symop_operation_xyz
x,y,z
-x,-y,z
1/2-x,1/2+y,z
1/2+x,1/2-y,z
loop_
_atom_site_type_symbol
_atom_site_label
_atom_site_fract_x
_atom_site_fract_y
_atom_site_fract_z
Si Si1 0.250000 0.250000 0.325940
Si Si2 0.809191 0.886838 0.756718
Si Si3 0.618357 0.197197 0.601273
Si Si4 0.618357 0.802803 0.601273
Si Si5 0.379545 0.384344 0.097922
Si Si6 0.809191 0.113162 0.756717
Si Si7 0.620455 0.384345 0.097922
O O1 0.168299 0.311862 0.431641
O O2 0.331701 0.188137 0.431640
O O3 0.314173 0.327257 0.225145
O O4 0.185827 0.172743 0.225146
O O5 0.878662 0.813404 0.651630
O O6 0.685691 0.868811 0.721026
O O7 0.842213 0.000000 0.718869
O O8 0.828292 0.861663 0.933750
O O9 0.500000 0.156774 0.599745
O O10 0.685691 0.131189 0.721026
O O11 0.621338 0.686596 0.651629
O O12 0.500000 0.347187 0.097289
O O13 0.373461 0.500000 0.138295
O O14 0.328292 0.361663 0.933749
#
# Coordination Sequence:
#
# PCOD8170448 Si02
#       7
#     4   4   4   4   4   4   4
#     4  10  20  34  52  78 108 136 170 212 252 304
#     4   9  19  35  55  78 102 131 173 218 256 301
#     4  10  21  35  53  77 105 139 173 208 254 304
#     4  10  21  35  53  77 105 139 173 208 254 304
#     4  10  20  35  56  79 103 134 171 213 260 305
#     4   9  19  35  55  78 102 131 173 218 256 301
#     4  10  20  35  56  79 103 134 171 213 260 305
#
# _framework density 18.820377000000001
#
# number of rings (size 3 to 8) (size 9 to 14) (size 15 to 20)
#    0.000    2.571    0.000    3.429    0.000    6.857 
#    0.000    1.429    0.000    6.000    0.000    0.000 
#    0.000    0.000    0.000    0.000    0.000    0.000 
#
# Total GULP energy -347163.446349 kJ/mol
# GULP energy per Si atom -12398.694512 kJ/mol
# Density = 1.877754 g / cm^3
# Si number density = 18.820377 Si / 1000 Ang^3
#
#
#
# Elastic Constant Matrix: (Units=GPa)
#
#
# Indices 1 2 3 4 5 6 
#
# 1 155.0960 16.7939 74.2105 0.0000 0.0000 0.0000
# 2 16.7939 62.8677 46.4999 0.0000 0.0000 0.0000
# 3 74.2105 46.4999 136.7290 0.0000 0.0000 0.0000
# 4 0.0000 0.0000 0.0000 4.9910 0.0000 0.0000
# 5 0.0000 0.0000 0.0000 0.0000 21.3660 0.0000
# 6 0.0000 0.0000 0.0000 0.0000 0.0000 24.2356
#
#
#
# Elastic Compliance Matrix: (Units=1/GPa)
#
#
# Indices 1 2 3 4 5 6 
#
# 1 0.008826 0.001584 -0.005329 0.000000 0.000000 0.000000
# 2 0.001584 0.021537 -0.008184 0.000000 0.000000 0.000000
# 3 -0.005329 -0.008184 0.012989 0.000000 0.000000 0.000000
# 4 0.000000 0.000000 0.000000 0.200362 0.000000 0.000000
# 5 0.000000 0.000000 0.000000 0.000000 0.046803 0.000000
# 6 0.000000 0.000000 0.000000 0.000000 0.000000 0.041262
#
#
# Mechanical properties :
#
#
# Convention : Reuss Voigt Hill
#
# Bulk Modulus (GPa) = 51.29870 69.96682 60.63276
# Shear Modulus (GPa) = 13.80700 24.59775 19.20238
#
# Velocity S-wave (km/s) = 2.71148 3.61913 3.19767
# Velocity P-wave (km/s) = 6.09254 7.39736 6.77643
#
# Compressibility (1/GPa) = 0.01949367
#
# Stress axis : x y z
#
# Youngs Moduli (GPa) = 113.30241 46.43263 76.98601
#
# Poissons Ratio (x) = -0.07354 0.41026
# Poissons Ratio (y) = -0.17946 0.63005
# Poissons Ratio (z) = 0.60379 0.38001
#
# Static dielectric constant tensor:
#      x y z
#    x 3.503630 0.000000 0.000000 
#    y 0.000000 3.332250 0.000000 
#    z 0.000000 0.000000 3.501050 
# 
# 
# High freq. dielectric constant tensor:
#      x y z
#    x 1.733670 0.000000 0.000000 
#    y 0.000000 1.716920 0.000000 
#    z 0.000000 0.000000 1.737240 
# 
# From -- ./inp_files/3106.got.cif
#   From: 2010.03.12/outbox.cif.g09.slc.cpg/sg32_2_cif.got.tgz:3106.got - 2010.04.14 01:46:39.
