data_PCOD8170701
_publ_section_title
;
Structure prediction by ZEFSAII (Michael W. Deem and Ramdas Pophale) SiO2 
 PCOD8170701
Probable space group: P N A 21
;
_chemical_formula_sum "Si O2"
_cell_formula_units_Z 32
_cell_length_a 26.807877
_cell_length_b 12.080487
_cell_length_c 5.380382
_cell_angle_alpha 90.000000
_cell_angle_beta 90.000000
_cell_angle_gamma 90.000000
_cell_volume 1742.448599
_symmetry_space_group_name_H-M "P N A 21"
_symmetry_group_IT_number 33
_symmetry_cell_setting 'orthorhombic'
loop_
_space_group_symop_operation_xyz
x,y,z
-x,-y,1/2+z
1/2-x,1/2+y,1/2+z
1/2+x,1/2-y,z
loop_
_atom_site_type_symbol
_atom_site_label
_atom_site_fract_x
_atom_site_fract_y
_atom_site_fract_z
Si Si1 0.500213 0.429763 0.429400
Si Si2 0.393307 0.399667 0.385947
Si Si3 0.693258 0.691500 0.614753
Si Si4 0.290441 0.890343 0.767203
Si Si5 0.175541 0.287973 0.755482
Si Si6 0.678156 0.496858 0.260917
Si Si7 0.245993 0.615492 0.385053
Si Si8 0.603980 0.375796 0.580750
O O1 0.494992 0.515316 0.657875
O O2 0.449388 0.355386 0.438506
O O3 0.549204 0.353207 0.464429
O O4 0.362288 0.309308 0.228071
O O5 0.361862 0.422664 0.630676
O O6 0.399289 0.514787 0.243962
O O7 0.738551 0.677171 0.811380
O O8 0.703685 0.580240 0.454169
O O9 0.700567 0.808450 0.481611
O O10 0.319299 0.847323 0.521858
O O11 0.280905 0.021111 0.724043
O O12 0.321036 0.872043 0.022731
O O13 0.216778 0.190490 0.723076
O O14 0.120976 0.229720 0.744134
O O15 0.646907 0.394440 0.373802
O O16 0.721760 0.445783 0.096551
#
# Coordination Sequence:
#
# PCOD8170701 Si02
#       8
#     4   4   4   4   4   4   4   4
#     4  10  20  32  53  78 109 142 175 214 275 333
#     4  10  19  33  49  80 109 143 177 223 263 331
#     4  10  22  33  53  73 111 150 181 218 268 318
#     4  11  23  36  50  79 106 144 188 224 250 323
#     4  11  23  35  54  76 108 143 184 217 271 317
#     4  11  18  36  51  76 112 145 180 222 261 326
#     4  11  20  36  52  76 108 154 182 220 267 316
#     4  10  19  33  54  76 109 149 173 220 283 324
#
# _framework density 18.364961000000001
#
# number of rings (size 3 to 8) (size 9 to 14) (size 15 to 20)
#    0.000    1.500    3.750    3.750    0.000    2.000 
#    0.000    0.000    0.000    0.000    0.000    0.000 
#    3.750    0.000    0.000    0.000    0.000    0.000 
#
# Total GULP energy -396522.538378 kJ/mol
# GULP energy per Si atom -12391.329324 kJ/mol
# Density = 1.832316 g / cm^3
# Si number density = 18.364961 Si / 1000 Ang^3
#
#
#
# Elastic Constant Matrix: (Units=GPa)
#
#
# Indices 1 2 3 4 5 6 
#
# 1 110.9788 34.3617 29.7076 0.0000 0.0000 0.0000
# 2 34.3617 58.3242 14.4970 0.0000 0.0000 0.0000
# 3 29.7076 14.4970 79.2499 0.0000 0.0000 0.0000
# 4 0.0000 0.0000 0.0000 17.2860 0.0000 0.0000
# 5 0.0000 0.0000 0.0000 0.0000 25.2819 0.0000
# 6 0.0000 0.0000 0.0000 0.0000 0.0000 18.3031
#
#
#
# Elastic Compliance Matrix: (Units=1/GPa)
#
#
# Indices 1 2 3 4 5 6 
#
# 1 0.011791 -0.006127 -0.003299 0.000000 0.000000 0.000000
# 2 -0.006127 0.021146 -0.001572 0.000000 0.000000 0.000000
# 3 -0.003299 -0.001572 0.014143 0.000000 0.000000 0.000000
# 4 0.000000 0.000000 0.000000 0.057850 0.000000 0.000000
# 5 0.000000 0.000000 0.000000 0.000000 0.039554 0.000000
# 6 0.000000 0.000000 0.000000 0.000000 0.000000 0.054635
#
#
# Mechanical properties :
#
#
# Convention : Reuss Voigt Hill
#
# Bulk Modulus (GPa) = 39.86533 45.07616 42.47075
# Shear Modulus (GPa) = 21.78892 23.50665 22.64778
#
# Velocity S-wave (km/s) = 3.44821 3.58155 3.51551
# Velocity P-wave (km/s) = 6.13253 6.45765 6.29719
#
# Compressibility (1/GPa) = 0.02508445
#
# Stress axis : x y z
#
# Youngs Moduli (GPa) = 84.81193 47.29115 70.70870
#
# Poissons Ratio (x) = 0.28973 0.23328
# Poissons Ratio (y) = 0.51960 0.11112
# Poissons Ratio (z) = 0.27981 0.07432
#
# Static dielectric constant tensor:
#      x y z
#    x 3.732840 0.000000 0.000000 
#    y 0.000000 3.216510 0.000000 
#    z 0.000000 0.000000 3.516080 
# 
# 
# High freq. dielectric constant tensor:
#      x y z
#    x 1.698670 0.000000 0.000000 
#    y 0.000000 1.668170 0.000000 
#    z 0.000000 0.000000 1.724980 
# 
# From -- ./inp_files/2320.got.cif
#   From: 2010.03.12/outbox.cif.g09.slc.cpg/sg33_2_cif.got.tgz:2320.got - 2010.04.14 01:49:19.
