data_PCOD8170337
_publ_section_title
;
Structure prediction by ZEFSAII (Michael W. Deem and Ramdas Pophale) SiO2 
 PCOD8170337
Probable space group: P M N 21
;
_chemical_formula_sum "Si O2"
_cell_formula_units_Z 32
_cell_length_a 15.131831
_cell_length_b 9.279650
_cell_length_c 11.217042
_cell_angle_alpha 90.000000
_cell_angle_beta 90.000000
_cell_angle_gamma 90.000000
_cell_volume 1575.075675
_symmetry_space_group_name_H-M "P M N 21"
_symmetry_group_IT_number 31
_symmetry_cell_setting 'orthorhombic'
loop_
_space_group_symop_operation_xyz
x,y,z
1/2-x,-y,1/2+z
-x,y,z
1/2+x,-y,1/2+z
loop_
_atom_site_type_symbol
_atom_site_label
_atom_site_fract_x
_atom_site_fract_y
_atom_site_fract_z
Si Si1 0.899655 0.547621 0.961930
Si Si2 0.672432 0.863571 0.746761
Si Si3 0.258000 0.160089 0.828561
Si Si4 0.399117 0.790030 0.491167
Si Si5 0.826749 0.651989 0.717528
Si Si6 0.741307 0.632816 0.114565
Si Si7 0.400523 0.149138 0.024355
Si Si8 0.597978 0.827873 0.994607
O O1 0.882379 0.582177 0.823929
O O2 0.000000 0.591074 0.994117
O O3 0.883512 0.380069 0.986357
O O4 0.834617 0.639195 0.045871
O O5 0.623319 0.849837 0.621521
O O6 0.743945 0.739433 0.768061
O O7 0.719318 0.018912 0.752581
O O8 0.601473 0.848470 0.852010
O O9 0.252416 0.296928 0.743248
O O10 0.164585 0.133889 0.895115
O O11 0.332444 0.202061 0.924470
O O12 0.500000 0.830203 0.459156
O O13 0.791033 0.529867 0.629003
O O14 0.889494 0.758577 0.643621
O O15 0.668024 0.713118 0.037664
O O16 0.500000 0.167539 0.975029
O O17 0.381821 0.981762 0.056368
O O18 0.500000 0.773249 0.028687
#
# Coordination Sequence:
#
# PCOD8170337 Si02
#       8
#     4   4   4   4   4   4   4   4
#     4  11  24  42  65  98 133 171 221 272 324 388
#     4  11  22  40  70  92 126 170 216 267 327 385
#     4  11  24  41  66  97 130 169 212 265 327 392
#     4  11  23  44  68  95 130 174 219 271 329 387
#     4  12  22  41  67  91 129 171 214 264 326 383
#     4  12  24  40  64  94 132 173 209 263 328 386
#     4  10  22  42  67  93 127 167 213 268 322 378
#     4  10  23  42  65  96 127 165 218 270 321 387
#
# _framework density 20.316483000000002
#
# number of rings (size 3 to 8) (size 9 to 14) (size 15 to 20)
#    0.000    1.000    5.000    1.500    1.750    2.500 
#    0.000    2.500    0.000    0.000    0.000    0.000 
#    0.000    0.000    0.000    0.000    0.000    0.000 
#
# Total GULP energy -396947.886745 kJ/mol
# GULP energy per Si atom -12404.621461 kJ/mol
# Density = 2.027024 g / cm^3
# Si number density = 20.316483 Si / 1000 Ang^3
#
#
#
# Elastic Constant Matrix: (Units=GPa)
#
#
# Indices 1 2 3 4 5 6 
#
# 1 148.3922 46.3681 54.8725 0.0000 0.0000 0.0000
# 2 46.3681 95.4675 43.1734 0.0000 0.0000 0.0000
# 3 54.8725 43.1734 109.4363 0.0000 0.0000 0.0000
# 4 0.0000 0.0000 0.0000 38.8859 0.0000 0.0000
# 5 0.0000 0.0000 0.0000 0.0000 14.9760 0.0000
# 6 0.0000 0.0000 0.0000 0.0000 0.0000 31.3143
#
#
#
# Elastic Compliance Matrix: (Units=1/GPa)
#
#
# Indices 1 2 3 4 5 6 
#
# 1 0.008843 -0.002787 -0.003334 0.000000 0.000000 0.000000
# 2 -0.002787 0.013628 -0.003979 0.000000 0.000000 0.000000
# 3 -0.003334 -0.003979 0.012379 0.000000 0.000000 0.000000
# 4 0.000000 0.000000 0.000000 0.025716 0.000000 0.000000
# 5 0.000000 0.000000 0.000000 0.000000 0.066773 0.000000
# 6 0.000000 0.000000 0.000000 0.000000 0.000000 0.031934
#
#
# Mechanical properties :
#
#
# Convention : Reuss Voigt Hill
#
# Bulk Modulus (GPa) = 68.26193 71.34711 69.80452
# Shear Modulus (GPa) = 27.12125 30.96070 29.04098
#
# Velocity S-wave (km/s) = 3.65764 3.90798 3.78488
# Velocity P-wave (km/s) = 7.17705 7.45367 7.31667
#
# Compressibility (1/GPa) = 0.01464945
#
# Stress axis : x y z
#
# Youngs Moduli (GPa) = 113.08739 73.37980 80.78002
#
# Poissons Ratio (x) = 0.20451 0.26935
# Poissons Ratio (y) = 0.31517 0.32141
# Poissons Ratio (z) = 0.37707 0.29197
#
# Static dielectric constant tensor:
#      x y z
#    x 3.794560 0.000000 0.000000 
#    y 0.000000 3.680630 0.000000 
#    z 0.000000 0.000000 3.609180 
# 
# 
# High freq. dielectric constant tensor:
#      x y z
#    x 1.804490 0.000000 0.000000 
#    y 0.000000 1.793810 0.000000 
#    z 0.000000 0.000000 1.797170 
# 
# From -- ./inp_files/4284.got.cif
#   From: 2010.03.12/outbox.cif.g09.slc.cpg/sg31_3_cif.got.tgz:4284.got - 2010.04.14 01:42:59.
