data_PCOD8170608
_publ_section_title
;
Structure prediction by ZEFSAII (Michael W. Deem and Ramdas Pophale) SiO2 
 PCOD8170608
Probable space group: P B A 2
;
_chemical_formula_sum "Si O2"
_cell_formula_units_Z 20
_cell_length_a 9.166167
_cell_length_b 9.997739
_cell_length_c 9.862829
_cell_angle_alpha 90.000000
_cell_angle_beta 90.000000
_cell_angle_gamma 90.000000
_cell_volume 903.838973
_symmetry_space_group_name_H-M "P B A 2"
_symmetry_group_IT_number 32
_symmetry_cell_setting 'orthorhombic'
loop_
_space_group_symop_operation_xyz
x,y,z
-x,-y,z
1/2-x,1/2+y,z
1/2+x,1/2-y,z
loop_
_atom_site_type_symbol
_atom_site_label
_atom_site_fract_x
_atom_site_fract_y
_atom_site_fract_z
Si Si1 0.028035 0.654295 0.831820
Si Si2 0.434549 0.856311 0.530154
Si Si3 0.716250 0.266578 0.994693
Si Si4 0.107862 0.887224 0.444141
Si Si5 0.161241 0.981659 0.143402
O O1 0.983963 0.689622 0.678997
O O2 0.946767 0.749026 0.939890
O O3 0.000000 0.500000 0.861741
O O4 0.195732 0.689398 0.859901
O O5 0.257479 0.860011 0.526908
O O6 0.509261 0.747262 0.429871
O O7 0.500000 0.000000 0.490160
O O8 0.758397 0.124395 0.052580
O O9 0.736138 0.374188 0.116089
O O10 0.163026 0.941202 0.299919
O O11 0.000000 0.000000 0.510318
O O12 0.000000 0.000000 0.086917
#
# Coordination Sequence:
#
# PCOD8170608 Si02
#       5
#     4   4   4   4   4
#     4  11  24  43  68 103 135 179 230 282 347 407
#     4  11  25  46  72 101 141 188 237 289 349 417
#     4  12  23  44  68  99 140 177 226 287 341 415
#     4  11  26  47  69 107 140 185 235 290 353 419
#     4  11  26  42  69 104 138 181 232 280 352 414
#
# _framework density 22.127835999999999
#
# number of rings (size 3 to 8) (size 9 to 14) (size 15 to 20)
#    0.000    0.800    4.000    2.400    8.400    1.600 
#    3.600    0.000    0.000    0.000    0.000    0.000 
#    0.000    0.000    0.000    0.000    0.000    0.000 
#
# Total GULP energy -247925.415854 kJ/mol
# GULP energy per Si atom -12396.270793 kJ/mol
# Density = 2.207747 g / cm^3
# Si number density = 22.127836 Si / 1000 Ang^3
#
#
#
# Elastic Constant Matrix: (Units=GPa)
#
#
# Indices 1 2 3 4 5 6 
#
# 1 111.4971 25.9269 16.0822 0.0000 0.0000 0.0000
# 2 25.9269 123.3680 29.1449 0.0000 0.0000 0.0000
# 3 16.0822 29.1449 89.6610 0.0000 0.0000 0.0000
# 4 0.0000 0.0000 0.0000 28.9360 0.0000 0.0000
# 5 0.0000 0.0000 0.0000 0.0000 26.0299 0.0000
# 6 0.0000 0.0000 0.0000 0.0000 0.0000 32.5191
#
#
#
# Elastic Compliance Matrix: (Units=1/GPa)
#
#
# Indices 1 2 3 4 5 6 
#
# 1 0.009537 -0.001733 -0.001147 0.000000 0.000000 0.000000
# 2 -0.001733 0.009095 -0.002646 0.000000 0.000000 0.000000
# 3 -0.001147 -0.002646 0.012219 0.000000 0.000000 0.000000
# 4 0.000000 0.000000 0.000000 0.034559 0.000000 0.000000
# 5 0.000000 0.000000 0.000000 0.000000 0.038417 0.000000
# 6 0.000000 0.000000 0.000000 0.000000 0.000000 0.030751
#
#
# Mechanical properties :
#
#
# Convention : Reuss Voigt Hill
#
# Bulk Modulus (GPa) = 50.50735 51.87046 51.18890
# Shear Modulus (GPa) = 32.84487 34.38848 33.61667
#
# Velocity S-wave (km/s) = 3.85687 3.94646 3.90192
# Velocity P-wave (km/s) = 6.53519 6.65269 6.59420
#
# Compressibility (1/GPa) = 0.01979910
#
# Stress axis : x y z
#
# Youngs Moduli (GPa) = 104.85055 109.94947 81.84087
#
# Poissons Ratio (x) = 0.19058 0.09389
# Poissons Ratio (y) = 0.18174 0.21651
# Poissons Ratio (z) = 0.12029 0.29087
#
# Static dielectric constant tensor:
#      x y z
#    x 4.723090 0.000000 0.000000 
#    y 0.000000 4.231610 0.000000 
#    z 0.000000 0.000000 3.666990 
# 
# 
# High freq. dielectric constant tensor:
#      x y z
#    x 1.882180 0.000000 0.000000 
#    y 0.000000 1.888860 0.000000 
#    z 0.000000 0.000000 1.853770 
# 
# From -- ./inp_files/3628.got.cif
#   From: 2010.03.12/outbox.cif.g09.slc.cpg/sg32_2_cif.got.tgz:3628.got - 2010.04.14 01:46:39.
