data_PCOD8170949
_publ_section_title
;
Structure prediction by ZEFSAII (Michael W. Deem and Ramdas Pophale) SiO2 
 PCOD8170949
Probable space group: P N A 21
;
_chemical_formula_sum "Si O2"
_cell_formula_units_Z 28
_cell_length_a 13.871227
_cell_length_b 6.498635
_cell_length_c 14.575266
_cell_angle_alpha 90.000000
_cell_angle_beta 90.000000
_cell_angle_gamma 90.000000
_cell_volume 1313.873380
_symmetry_space_group_name_H-M "P N A 21"
_symmetry_group_IT_number 33
_symmetry_cell_setting 'orthorhombic'
loop_
_space_group_symop_operation_xyz
x,y,z
-x,-y,1/2+z
1/2-x,1/2+y,1/2+z
1/2+x,1/2-y,z
loop_
_atom_site_type_symbol
_atom_site_label
_atom_site_fract_x
_atom_site_fract_y
_atom_site_fract_z
Si Si1 0.001998 0.284109 0.926060
Si Si2 0.192919 0.368306 0.303296
Si Si3 0.924276 0.303411 0.718082
Si Si4 0.374853 0.565525 0.944761
Si Si5 0.252773 0.982769 0.207846
Si Si6 0.911355 0.596127 0.072591
Si Si7 0.713638 0.246305 0.881343
O O1 0.966209 0.296023 0.821175
O O2 0.974371 0.055751 0.958097
O O3 0.116517 0.288325 0.937750
O O4 0.954519 0.458338 0.990378
O O5 0.142275 0.494239 0.221655
O O6 0.251093 0.515892 0.375164
O O7 0.118305 0.226963 0.360735
O O8 0.261648 0.208820 0.251638
O O9 0.857741 0.102484 0.692917
O O10 0.005750 0.340043 0.643544
O O11 0.291878 0.396147 0.931067
O O12 0.362840 0.693998 0.037107
O O13 0.318641 0.011282 0.118150
O O14 0.304329 0.823524 0.276698
#
# Coordination Sequence:
#
# PCOD8170949 Si02
#       7
#     4   4   4   4   4   4   4
#     4  12  24  45  69 104 140 188 240 296 356 432
#     4  10  20  45  72  91 135 188 230 293 359 422
#     4  11  23  46  68 103 141 182 240 294 360 431
#     4  11  23  45  67  97 145 183 234 294 349 428
#     4  10  23  44  70 100 137 185 231 297 359 423
#     4  12  27  43  70 108 142 186 246 294 357 439
#     4  10  22  42  72  99 132 186 235 290 364 421
#
# _framework density 21.311035
#
# number of rings (size 3 to 8) (size 9 to 14) (size 15 to 20)
#    0.000    1.143    7.143    0.000    2.000    6.857 
#    5.143    0.000    0.000    0.000    0.000    0.000 
#    0.000    0.000    0.000    0.000    0.000    0.000 
#
# Total GULP energy -346897.625827 kJ/mol
# GULP energy per Si atom -12389.200922 kJ/mol
# Density = 2.126253 g / cm^3
# Si number density = 21.311035 Si / 1000 Ang^3
#
#
#
# Elastic Constant Matrix: (Units=GPa)
#
#
# Indices 1 2 3 4 5 6 
#
# 1 110.2241 53.4149 56.3167 0.0000 0.0000 0.0000
# 2 53.4149 144.6282 50.4238 0.0000 0.0000 0.0000
# 3 56.3167 50.4238 98.8484 0.0000 0.0000 0.0000
# 4 0.0000 0.0000 0.0000 28.4927 0.0000 0.0000
# 5 0.0000 0.0000 0.0000 0.0000 40.6933 0.0000
# 6 0.0000 0.0000 0.0000 0.0000 0.0000 22.1329
#
#
#
# Elastic Compliance Matrix: (Units=1/GPa)
#
#
# Indices 1 2 3 4 5 6 
#
# 1 0.013696 -0.002844 -0.006353 0.000000 0.000000 0.000000
# 2 -0.002844 0.009000 -0.002971 0.000000 0.000000 0.000000
# 3 -0.006353 -0.002971 0.015251 0.000000 0.000000 0.000000
# 4 0.000000 0.000000 0.000000 0.035097 0.000000 0.000000
# 5 0.000000 0.000000 0.000000 0.000000 0.024574 0.000000
# 6 0.000000 0.000000 0.000000 0.000000 0.000000 0.045182
#
#
# Mechanical properties :
#
#
# Convention : Reuss Voigt Hill
#
# Bulk Modulus (GPa) = 73.45729 74.89017 74.17373
# Shear Modulus (GPa) = 29.12524 31.16680 30.14602
#
# Velocity S-wave (km/s) = 3.70087 3.82838 3.76516
# Velocity P-wave (km/s) = 7.26676 7.39998 7.33368
#
# Compressibility (1/GPa) = 0.01361335
#
# Stress axis : x y z
#
# Youngs Moduli (GPa) = 73.01341 111.10677 65.56809
#
# Poissons Ratio (x) = 0.31594 0.41652
# Poissons Ratio (y) = 0.20762 0.19481
# Poissons Ratio (z) = 0.46382 0.33011
#
# Static dielectric constant tensor:
#      x y z
#    x 3.883710 0.000000 0.000000 
#    y 0.000000 4.144000 0.000000 
#    z 0.000000 0.000000 3.891050 
# 
# 
# High freq. dielectric constant tensor:
#      x y z
#    x 1.827540 0.000000 0.000000 
#    y 0.000000 1.849650 0.000000 
#    z 0.000000 0.000000 1.828310 
# 
# From -- ./inp_files/8112.got.cif
#   From: 2010.03.12/outbox.cif.g09.slc.cpg/sg33_5_cif.got.tgz:8112.got - 2010.04.14 01:49:19.
