data_PCOD8170570
_publ_section_title
;
Structure prediction by ZEFSAII (Michael W. Deem and Ramdas Pophale) SiO2 
 PCOD8170570
Probable space group: P B A 2
;
_chemical_formula_sum "Si O2"
_cell_formula_units_Z 26
_cell_length_a 16.655786
_cell_length_b 14.325139
_cell_length_c 5.028892
_cell_angle_alpha 90.000000
_cell_angle_beta 90.000000
_cell_angle_gamma 90.000000
_cell_volume 1199.875777
_symmetry_space_group_name_H-M "P B A 2"
_symmetry_group_IT_number 32
_symmetry_cell_setting 'orthorhombic'
loop_
_space_group_symop_operation_xyz
x,y,z
-x,-y,z
1/2-x,1/2+y,z
1/2+x,1/2-y,z
loop_
_atom_site_type_symbol
_atom_site_label
_atom_site_fract_x
_atom_site_fract_y
_atom_site_fract_z
Si Si1 0.325397 0.872325 0.273500
Si Si2 0.603750 0.216632 0.760227
Si Si3 0.237924 0.564444 0.255662
Si Si4 0.335369 0.264109 0.374125
Si Si5 0.500000 0.500000 0.814291
Si Si6 0.062561 0.803435 0.886240
Si Si7 0.162016 0.084499 0.729422
O O1 0.377674 0.862537 0.542718
O O2 0.234521 0.836495 0.303444
O O3 0.324010 0.981400 0.188048
O O4 0.370253 0.814557 0.050036
O O5 0.510205 0.241376 0.775155
O O6 0.657183 0.305237 0.668830
O O7 0.193513 0.658659 0.335466
O O8 0.279927 0.532074 0.527880
O O9 0.306055 0.573128 0.029390
O O10 0.366142 0.291183 0.669852
O O11 0.408707 0.268962 0.170398
O O12 0.464620 0.409209 0.964196
O O13 0.424130 0.539878 0.655580
#
# Coordination Sequence:
#
# PCOD8170570 Si02
#       7
#     4   4   4   4   2   4   4
#     4  12  23  41  66  92 126 170 218 262 324 390
#     4  11  22  42  62  91 129 168 205 265 334 380
#     4  12  24  40  67  93 129 169 227 262 325 385
#     4  12  23  43  64  97 129 170 220 272 322 390
#     4  10  24  40  68 100 132 166 220 264 370 392
#     4  11  25  41  66  94 134 167 212 277 330 393
#     4  11  21  41  62  96 128 169 203 280 325 407
#
# _framework density 21.668908999999999
#
# number of rings (size 3 to 8) (size 9 to 14) (size 15 to 20)
#    0.000    0.615    3.077    5.538    0.000    4.923 
#    0.000    4.615    0.000    0.000    0.000    0.000 
#    0.000    0.000    0.000    0.000    0.000    0.000 
#
# Total GULP energy -322243.333791 kJ/mol
# GULP energy per Si atom -12393.974377 kJ/mol
# Density = 2.161959 g / cm^3
# Si number density = 21.668909 Si / 1000 Ang^3
#
#
#
# Elastic Constant Matrix: (Units=GPa)
#
#
# Indices 1 2 3 4 5 6 
#
# 1 78.7304 42.5595 34.2500 0.0000 0.0000 0.0000
# 2 42.5595 110.7078 16.1512 0.0000 0.0000 0.0000
# 3 34.2500 16.1512 97.0328 0.0000 0.0000 0.0000
# 4 0.0000 0.0000 0.0000 20.2065 0.0000 0.0000
# 5 0.0000 0.0000 0.0000 0.0000 32.6304 0.0000
# 6 0.0000 0.0000 0.0000 0.0000 0.0000 27.7787
#
#
#
# Elastic Compliance Matrix: (Units=1/GPa)
#
#
# Indices 1 2 3 4 5 6 
#
# 1 0.018497 -0.006311 -0.005478 0.000000 0.000000 0.000000
# 2 -0.006311 0.011411 0.000328 0.000000 0.000000 0.000000
# 3 -0.005478 0.000328 0.012185 0.000000 0.000000 0.000000
# 4 0.000000 0.000000 0.000000 0.049489 0.000000 0.000000
# 5 0.000000 0.000000 0.000000 0.000000 0.030646 0.000000
# 6 0.000000 0.000000 0.000000 0.000000 0.000000 0.035999
#
#
# Mechanical properties :
#
#
# Convention : Reuss Voigt Hill
#
# Bulk Modulus (GPa) = 52.16501 52.48803 52.32652
# Shear Modulus (GPa) = 26.66110 29.02383 27.84246
#
# Velocity S-wave (km/s) = 3.51149 3.66378 3.58844
# Velocity P-wave (km/s) = 6.36920 6.49408 6.43194
#
# Compressibility (1/GPa) = 0.01916994
#
# Stress axis : x y z
#
# Youngs Moduli (GPa) = 54.06414 87.63332 82.06939
#
# Poissons Ratio (x) = 0.55309 0.44960
# Poissons Ratio (y) = 0.34122 -0.02695
# Poissons Ratio (z) = 0.29618 -0.02878
#
# Static dielectric constant tensor:
#      x y z
#    x 4.028780 0.000000 0.000000 
#    y 0.000000 4.067890 0.000000 
#    z 0.000000 0.000000 3.804450 
# 
# 
# High freq. dielectric constant tensor:
#      x y z
#    x 1.853630 0.000000 0.000000 
#    y 0.000000 1.858940 0.000000 
#    z 0.000000 0.000000 1.850770 
# 
# From -- ./inp_files/1225.got.cif
#   From: 2010.03.12/outbox.cif.g09.slc.cpg/sg32_1_cif.got.tgz:1225.got - 2010.04.14 01:46:39.
