data_PCOD8170048
_publ_section_title
;
Structure prediction by ZEFSAII (Michael W. Deem and Ramdas Pophale) SiO2 
 PCOD8170048
Probable space group: P M N 21
;
_chemical_formula_sum "Si O2"
_cell_formula_units_Z 32
_cell_length_a 9.067720
_cell_length_b 15.550391
_cell_length_c 12.223516
_cell_angle_alpha 90.000000
_cell_angle_beta 90.000000
_cell_angle_gamma 90.000000
_cell_volume 1723.596327
_symmetry_space_group_name_H-M "P M N 21"
_symmetry_group_IT_number 31
_symmetry_cell_setting 'orthorhombic'
loop_
_space_group_symop_operation_xyz
x,y,z
1/2-x,-y,1/2+z
-x,y,z
1/2+x,-y,1/2+z
loop_
_atom_site_type_symbol
_atom_site_label
_atom_site_fract_x
_atom_site_fract_y
_atom_site_fract_z
Si Si1 0.324808 0.750000 0.524630
Si Si2 0.324698 0.750000 0.774432
Si Si3 0.174448 0.084589 0.886838
Si Si4 0.675439 0.905315 0.927538
Si Si5 0.174448 0.415411 0.886838
Si Si6 0.325582 0.656266 0.159753
Si Si7 0.824561 0.405316 0.427538
Si Si8 0.825582 0.156266 0.659753
O O1 0.500000 0.750000 0.523426
O O2 0.264237 0.750000 0.649665
O O3 0.269139 0.835904 0.462122
O O4 0.269139 0.664096 0.462121
O O5 0.500000 0.750000 0.774944
O O6 0.268654 0.836096 0.837072
O O7 0.268654 0.663903 0.837072
O O8 0.221238 0.097863 0.761143
O O9 0.000000 0.073234 0.901085
O O10 0.256993 0.998372 0.915322
O O11 0.500000 0.911860 0.923595
O O12 0.736909 0.877408 0.045485
O O13 0.221237 0.402137 0.761143
O O14 0.256993 0.501628 0.915322
O O15 0.000000 0.426765 0.901085
O O16 0.500000 0.662225 0.151787
O O17 0.258547 0.750000 0.181808
O O18 0.263090 0.622592 0.045485
O O19 0.000000 0.411861 0.423594
O O20 0.000000 0.162225 0.651789
#
# Coordination Sequence:
#
# PCOD8170048 Si02
#       8
#     4   4   4   4   4   4   4   4
#     4   9  18  33  52  74 101 135 172 206 245 300
#     4   9  18  33  52  74 101 135 172 206 245 300
#     4  10  20  34  54  77 102 133 170 210 251 298
#     4  10  20  34  54  77 102 133 170 210 251 298
#     4  10  20  34  54  77 102 133 170 210 251 298
#     4   9  16  32  55  74  95 132 178 211 239 292
#     4  10  20  34  54  77 102 133 170 210 251 298
#     4   9  16  32  55  74  95 132 178 211 239 292
#
# _framework density 18.565829999999998
#
# number of rings (size 3 to 8) (size 9 to 14) (size 15 to 20)
#    0.000    2.500    2.500    0.000    3.500    0.000 
#    0.000    1.250    0.000    3.000    0.000    0.000 
#    0.000    0.000    0.000    0.000    0.000    0.000 
#
# Total GULP energy -396580.218116 kJ/mol
# GULP energy per Si atom -12393.131816 kJ/mol
# Density = 1.852357 g / cm^3
# Si number density = 18.565830 Si / 1000 Ang^3
#
#
#
# Elastic Constant Matrix: (Units=GPa)
#
#
# Indices 1 2 3 4 5 6 
#
# 1 12.1944 16.3660 10.9591 0.0000 0.0000 0.0000
# 2 16.3660 134.4857 46.0080 0.0000 0.0000 0.0000
# 3 10.9591 46.0080 142.2649 0.0000 0.0000 0.0000
# 4 0.0000 0.0000 0.0000 28.3825 0.0000 0.0000
# 5 0.0000 0.0000 0.0000 0.0000 8.8455 0.0000
# 6 0.0000 0.0000 0.0000 0.0000 0.0000 31.4843
#
#
#
# Elastic Compliance Matrix: (Units=1/GPa)
#
#
# Indices 1 2 3 4 5 6 
#
# 1 0.100244 -0.010746 -0.004247 0.000000 0.000000 0.000000
# 2 -0.010746 0.009513 -0.002249 0.000000 0.000000 0.000000
# 3 -0.004247 -0.002249 0.008083 0.000000 0.000000 0.000000
# 4 0.000000 0.000000 0.000000 0.035233 0.000000 0.000000
# 5 0.000000 0.000000 0.000000 0.000000 0.113052 0.000000
# 6 0.000000 0.000000 0.000000 0.000000 0.000000 0.031762
#
#
# Mechanical properties :
#
#
# Convention : Reuss Voigt Hill
#
# Bulk Modulus (GPa) = 11.99659 48.40123 30.19891
# Shear Modulus (GPa) = 13.88291 28.11659 20.99975
#
# Velocity S-wave (km/s) = 2.73750 3.89579 3.36683
# Velocity P-wave (km/s) = 4.05802 6.80903 5.60493
#
# Compressibility (1/GPa) = 0.08335701
#
# Stress axis : x y z
#
# Youngs Moduli (GPa) = 9.97568 105.12255 123.70928
#
# Poissons Ratio (x) = 1.12966 0.52537
# Poissons Ratio (y) = 0.10720 0.27817
# Poissons Ratio (z) = 0.04236 0.23638
#
# Static dielectric constant tensor:
#      x y z
#    x 2.808270 0.000000 0.000000 
#    y 0.000000 3.499430 0.000000 
#    z 0.000000 0.000000 4.020190 
# 
# 
# High freq. dielectric constant tensor:
#      x y z
#    x 1.656610 0.000000 0.000000 
#    y 0.000000 1.734670 0.000000 
#    z 0.000000 0.000000 1.742000 
# 
# From -- ./inp_files/3694.got.cif
#   From: 2010.03.12/outbox.cif.g09.slc.cpg/sg31_2_cif.got.tgz:3694.got - 2010.04.14 01:42:59.
