data_PCOD8170598
_publ_section_title
;
Structure prediction by ZEFSAII (Michael W. Deem and Ramdas Pophale) SiO2 
 PCOD8170598
Probable space group: P B A 2
;
_chemical_formula_sum "Si O2"
_cell_formula_units_Z 30
_cell_length_a 10.117139
_cell_length_b 16.618542
_cell_length_c 8.569676
_cell_angle_alpha 90.000000
_cell_angle_beta 90.000000
_cell_angle_gamma 90.000000
_cell_volume 1440.837617
_symmetry_space_group_name_H-M "P B A 2"
_symmetry_group_IT_number 32
_symmetry_cell_setting 'orthorhombic'
loop_
_space_group_symop_operation_xyz
x,y,z
-x,-y,z
1/2-x,1/2+y,z
1/2+x,1/2-y,z
loop_
_atom_site_type_symbol
_atom_site_label
_atom_site_fract_x
_atom_site_fract_y
_atom_site_fract_z
Si Si1 0.069415 0.580483 0.523850
Si Si2 0.111786 0.287568 0.589628
Si Si3 0.824196 0.096498 0.721924
Si Si4 0.674524 0.362927 0.376877
Si Si5 0.256402 0.178882 0.037028
Si Si6 0.985973 0.222390 0.883334
Si Si7 0.500000 0.500000 0.483995
Si Si8 0.136164 0.531145 0.864219
O O1 0.200200 0.586167 0.425514
O O2 0.101014 0.579753 0.707789
O O3 0.000000 0.500000 0.468091
O O4 0.968776 0.652110 0.477964
O O5 0.248820 0.328505 0.641896
O O6 0.142389 0.204464 0.504519
O O7 0.006979 0.274408 0.728637
O O8 0.934056 0.133563 0.837241
O O9 0.724152 0.046341 0.827478
O O10 0.886422 0.037611 0.593237
O O11 0.708754 0.320384 0.215135
O O12 0.555778 0.428423 0.373250
O O13 0.132920 0.215507 0.948107
O O14 0.385161 0.234464 0.004199
O O15 0.286646 0.088038 0.984176
O O16 0.000000 0.500000 0.942837
#
# Coordination Sequence:
#
# PCOD8170598 Si02
#       8
#     4   4   4   4   4   4   2   4
#     4  11  21  43  71  99 130 175 238 283 340 418
#     4  12  22  42  72 102 134 183 241 298 342 416
#     4  12  22  39  75 100 128 177 244 305 335 413
#     4  12  28  42  66 104 146 183 228 293 364 433
#     4  12  28  44  67 102 147 183 227 292 371 432
#     4  12  24  44  69 100 132 185 237 287 351 420
#     4  12  24  42  66 102 136 186 238 294 358 422
#     4  11  21  43  70 104 131 179 239 290 348 420
#
# _framework density 20.821221999999999
#
# number of rings (size 3 to 8) (size 9 to 14) (size 15 to 20)
#    0.000    0.267    8.000    2.400    1.867    1.600 
#    0.000    1.333    0.000    0.000    0.000    0.000 
#    0.000    0.000    0.000    0.000    0.000    0.000 
#
# Total GULP energy -372009.963291 kJ/mol
# GULP energy per Si atom -12400.332110 kJ/mol
# Density = 2.077383 g / cm^3
# Si number density = 20.821222 Si / 1000 Ang^3
#
#
#
# Elastic Constant Matrix: (Units=GPa)
#
#
# Indices 1 2 3 4 5 6 
#
# 1 118.2646 45.9373 19.0658 0.0000 0.0000 0.0000
# 2 45.9373 112.2955 28.7470 0.0000 0.0000 0.0000
# 3 19.0658 28.7470 50.8010 0.0000 0.0000 0.0000
# 4 0.0000 0.0000 0.0000 18.2550 0.0000 0.0000
# 5 0.0000 0.0000 0.0000 0.0000 21.9979 0.0000
# 6 0.0000 0.0000 0.0000 0.0000 0.0000 38.6568
#
#
#
# Elastic Compliance Matrix: (Units=1/GPa)
#
#
# Indices 1 2 3 4 5 6 
#
# 1 0.010179 -0.003726 -0.001712 0.000000 0.000000 0.000000
# 2 -0.003726 0.011777 -0.005266 0.000000 0.000000 0.000000
# 3 -0.001712 -0.005266 0.023307 0.000000 0.000000 0.000000
# 4 0.000000 0.000000 0.000000 0.054780 0.000000 0.000000
# 5 0.000000 0.000000 0.000000 0.000000 0.045459 0.000000
# 6 0.000000 0.000000 0.000000 0.000000 0.000000 0.025869
#
#
# Mechanical properties :
#
#
# Convention : Reuss Voigt Hill
#
# Bulk Modulus (GPa) = 41.91870 52.09571 47.00721
# Shear Modulus (GPa) = 24.90912 28.28933 26.59923
#
# Velocity S-wave (km/s) = 3.46256 3.69002 3.57810
# Velocity P-wave (km/s) = 6.01350 6.57494 6.30047
#
# Compressibility (1/GPa) = 0.02385570
#
# Stress axis : x y z
#
# Youngs Moduli (GPa) = 98.24412 84.90941 42.90526
#
# Poissons Ratio (x) = 0.31634 0.07345
# Poissons Ratio (y) = 0.36602 0.22595
# Poissons Ratio (z) = 0.16818 0.44715
#
# Static dielectric constant tensor:
#      x y z
#    x 4.035070 0.000000 0.000000 
#    y 0.000000 4.330120 0.000000 
#    z 0.000000 0.000000 3.632390 
# 
# 
# High freq. dielectric constant tensor:
#      x y z
#    x 1.839390 0.000000 0.000000 
#    y 0.000000 1.834640 0.000000 
#    z 0.000000 0.000000 1.774040 
# 
# From -- ./inp_files/2851.got.cif
#   From: 2010.03.12/outbox.cif.g09.slc.cpg/sg32_2_cif.got.tgz:2851.got - 2010.04.14 01:46:39.
