data_PCOD8171340
_publ_section_title
;
Structure prediction by ZEFSAII (Michael W. Deem and Ramdas Pophale) SiO2 
 PCOD8171340
Probable space group: P N A 21
;
_chemical_formula_sum "Si O2"
_cell_formula_units_Z 32
_cell_length_a 7.795400
_cell_length_b 14.600604
_cell_length_c 11.328565
_cell_angle_alpha 90.000000
_cell_angle_beta 90.000000
_cell_angle_gamma 90.000000
_cell_volume 1289.389495
_symmetry_space_group_name_H-M "P N A 21"
_symmetry_group_IT_number 33
_symmetry_cell_setting 'orthorhombic'
loop_
_space_group_symop_operation_xyz
x,y,z
-x,-y,1/2+z
1/2-x,1/2+y,1/2+z
1/2+x,1/2-y,z
loop_
_atom_site_type_symbol
_atom_site_label
_atom_site_fract_x
_atom_site_fract_y
_atom_site_fract_z
Si Si1 0.859307 0.050761 0.310590
Si Si2 0.025484 0.185767 0.147087
Si Si3 0.020269 0.729070 0.115367
Si Si4 0.975027 0.664614 0.856066
Si Si5 0.220825 0.035185 0.413573
Si Si6 0.674307 0.389472 0.656484
Si Si7 0.310418 0.201151 0.977512
Si Si8 0.880854 0.650110 0.339586
O O1 0.688868 0.097742 0.359388
O O2 0.926150 0.096753 0.190470
O O3 0.019947 0.058995 0.398179
O O4 0.816051 0.944748 0.279362
O O5 0.045727 0.263016 0.249528
O O6 0.205089 0.154137 0.085965
O O7 0.918701 0.219677 0.037652
O O8 0.215443 0.703904 0.144516
O O9 0.009864 0.838646 0.144882
O O10 0.915829 0.658562 0.200328
O O11 0.969462 0.718235 0.978683
O O12 0.153194 0.607169 0.845416
O O13 0.243738 0.042621 0.554143
O O14 0.255941 0.934260 0.365649
O O15 0.194984 0.251995 0.879899
O O16 0.440530 0.131320 0.912267
#
# Coordination Sequence:
#
# PCOD8171340 Si02
#       8
#     4   4   4   4   4   4   4   4
#     4  12  26  46  75 112 152 191 258 318 380 451
#     4  11  21  45  73 108 143 192 253 312 383 453
#     4  11  26  48  78 104 157 205 252 309 392 472
#     4  11  26  47  78 112 151 206 247 323 396 455
#     4  11  27  46  71 112 152 193 262 315 378 461
#     4  11  27  48  72 112 147 203 251 318 378 462
#     4  10  23  41  75  98 144 201 243 313 382 448
#     4  11  24  47  68 108 148 199 256 310 381 464
#
# _framework density 24.817948000000001
#
# number of rings (size 3 to 8) (size 9 to 14) (size 15 to 20)
#    0.000    1.000    1.250    3.750   10.500    0.000 
#   11.250    0.000    0.000    0.000    0.000    0.000 
#    0.000    0.000    0.000    0.000    0.000    0.000 
#
# Total GULP energy -396558.751809 kJ/mol
# GULP energy per Si atom -12392.460994 kJ/mol
# Density = 2.476146 g / cm^3
# Si number density = 24.817948 Si / 1000 Ang^3
#
#
#
# Elastic Constant Matrix: (Units=GPa)
#
#
# Indices 1 2 3 4 5 6 
#
# 1 97.9080 3.9857 10.8958 0.0000 0.0000 0.0000
# 2 3.9857 61.2118 -8.7480 0.0000 0.0000 0.0000
# 3 10.8958 -8.7480 78.6284 0.0000 0.0000 0.0000
# 4 0.0000 0.0000 0.0000 20.8519 0.0000 0.0000
# 5 0.0000 0.0000 0.0000 0.0000 34.1580 0.0000
# 6 0.0000 0.0000 0.0000 0.0000 0.0000 35.1789
#
#
#
# Elastic Compliance Matrix: (Units=1/GPa)
#
#
# Indices 1 2 3 4 5 6 
#
# 1 0.010422 -0.000899 -0.001544 0.000000 0.000000 0.000000
# 2 -0.000899 0.016678 0.001980 0.000000 0.000000 0.000000
# 3 -0.001544 0.001980 0.013152 0.000000 0.000000 0.000000
# 4 0.000000 0.000000 0.000000 0.047957 0.000000 0.000000
# 5 0.000000 0.000000 0.000000 0.000000 0.029276 0.000000
# 6 0.000000 0.000000 0.000000 0.000000 0.000000 0.028426
#
#
# Mechanical properties :
#
#
# Convention : Reuss Voigt Hill
#
# Bulk Modulus (GPa) = 25.42850 27.77948 26.60399
# Shear Modulus (GPa) = 31.26029 33.47874 32.36952
#
# Velocity S-wave (km/s) = 3.55291 3.67682 3.61540
# Velocity P-wave (km/s) = 5.20569 5.40768 5.30764
#
# Compressibility (1/GPa) = 0.03932595
#
# Stress axis : x y z
#
# Youngs Moduli (GPa) = 95.94958 59.95821 76.03202
#
# Poissons Ratio (x) = 0.05392 0.11742
# Poissons Ratio (y) = 0.08629 -0.15056
# Poissons Ratio (z) = 0.14817 -0.11873
#
# Static dielectric constant tensor:
#      x y z
#    x 4.980400 0.000000 0.000000 
#    y 0.000000 4.255770 0.000000 
#    z 0.000000 0.000000 4.482200 
# 
# 
# High freq. dielectric constant tensor:
#      x y z
#    x 2.003480 0.000000 0.000000 
#    y 0.000000 1.972200 0.000000 
#    z 0.000000 0.000000 1.996440 
# 
# From -- ./inp_files/5972.got.cif
#   From: 2010.03.12/outbox.cif.g09.slc.cpg/sg33_3_cif.got.tgz:5972.got - 2010.04.14 01:49:19.
