data_PCOD8171354
_publ_section_title
;
Structure prediction by ZEFSAII (Michael W. Deem and Ramdas Pophale) SiO2 
 PCOD8171354
Probable space group: P N A 21
;
_chemical_formula_sum "Si O2"
_cell_formula_units_Z 28
_cell_length_a 23.506997
_cell_length_b 5.024950
_cell_length_c 10.978754
_cell_angle_alpha 90.000000
_cell_angle_beta 90.000000
_cell_angle_gamma 90.000000
_cell_volume 1296.826721
_symmetry_space_group_name_H-M "P N A 21"
_symmetry_group_IT_number 33
_symmetry_cell_setting 'orthorhombic'
loop_
_space_group_symop_operation_xyz
x,y,z
-x,-y,1/2+z
1/2-x,1/2+y,1/2+z
1/2+x,1/2-y,z
loop_
_atom_site_type_symbol
_atom_site_label
_atom_site_fract_x
_atom_site_fract_y
_atom_site_fract_z
Si Si1 0.792725 0.634822 0.495940
Si Si2 0.097754 0.276623 0.524478
Si Si3 0.334395 0.280212 0.951267
Si Si4 0.638149 0.896123 0.193419
Si Si5 0.144988 0.863331 0.951496
Si Si6 0.549293 0.429766 0.774187
Si Si7 0.476758 0.919285 0.812237
O O1 0.724943 0.620546 0.507215
O O2 0.820042 0.613926 0.631353
O O3 0.821807 0.406024 0.410739
O O4 0.807701 0.912522 0.434983
O O5 0.140006 0.531644 0.528060
O O6 0.083675 0.176556 0.658862
O O7 0.040359 0.348590 0.451045
O O8 0.124482 0.031448 0.452906
O O9 0.327537 0.210082 0.809597
O O10 0.625428 0.665654 0.093242
O O11 0.578518 0.021449 0.232323
O O12 0.090782 0.936518 0.872175
O O13 0.506709 0.672264 0.743133
O O14 0.516462 0.177011 0.828323
#
# Coordination Sequence:
#
# PCOD8171354 Si02
#       7
#     4   4   4   4   4   4   4
#     4  10  23  42  71  99 133 179 220 283 341 411
#     4  11  26  45  65 105 138 178 233 293 337 427
#     4  11  23  46  70 102 134 181 229 281 361 401
#     4   9  25  43  70  99 137 171 235 282 330 435
#     4  10  24  44  66 107 129 176 228 279 336 409
#     4  12  26  45  69 100 141 183 227 296 342 416
#     4  11  25  43  69  98 136 190 226 280 359 405
#
# _framework density 21.591165
#
# number of rings (size 3 to 8) (size 9 to 14) (size 15 to 20)
#    0.857    0.571    0.000    4.286    8.000    1.143 
#    2.571    0.000    0.000    0.000    0.000    0.000 
#    0.000    0.000    0.000    0.000    0.000    0.000 
#
# Total GULP energy -347067.212883 kJ/mol
# GULP energy per Si atom -12395.257603 kJ/mol
# Density = 2.154202 g / cm^3
# Si number density = 21.591165 Si / 1000 Ang^3
#
#
#
# Elastic Constant Matrix: (Units=GPa)
#
#
# Indices 1 2 3 4 5 6 
#
# 1 120.4395 56.5002 64.0256 0.0000 0.0000 0.0000
# 2 56.5002 150.3433 33.0886 0.0000 0.0000 0.0000
# 3 64.0256 33.0886 87.4407 0.0000 0.0000 0.0000
# 4 0.0000 0.0000 0.0000 32.1606 0.0000 0.0000
# 5 0.0000 0.0000 0.0000 0.0000 18.8315 0.0000
# 6 0.0000 0.0000 0.0000 0.0000 0.0000 46.4506
#
#
#
# Elastic Compliance Matrix: (Units=1/GPa)
#
#
# Indices 1 2 3 4 5 6 
#
# 1 0.015151 -0.003548 -0.009751 0.000000 0.000000 0.000000
# 2 -0.003548 0.008086 -0.000462 0.000000 0.000000 0.000000
# 3 -0.009751 -0.000462 0.018751 0.000000 0.000000 0.000000
# 4 0.000000 0.000000 0.000000 0.031094 0.000000 0.000000
# 5 0.000000 0.000000 0.000000 0.000000 0.053103 0.000000
# 6 0.000000 0.000000 0.000000 0.000000 0.000000 0.021528
#
#
# Mechanical properties :
#
#
# Convention : Reuss Voigt Hill
#
# Bulk Modulus (GPa) = 69.12713 73.93915 71.53314
# Shear Modulus (GPa) = 27.76876 33.12914 30.44895
#
# Velocity S-wave (km/s) = 3.59014 3.92137 3.75940
# Velocity P-wave (km/s) = 7.01936 7.40421 7.21435
#
# Compressibility (1/GPa) = 0.01446610
#
# Stress axis : x y z
#
# Youngs Moduli (GPa) = 66.00213 123.66354 53.32947
#
# Poissons Ratio (x) = 0.43873 0.52003
# Poissons Ratio (y) = 0.23416 0.02465
# Poissons Ratio (z) = 0.64361 0.05717
#
# Static dielectric constant tensor:
#      x y z
#    x 3.912150 0.000000 0.000000 
#    y 0.000000 4.184290 0.000000 
#    z 0.000000 0.000000 3.701870 
# 
# 
# High freq. dielectric constant tensor:
#      x y z
#    x 1.849970 0.000000 0.000000 
#    y 0.000000 1.869090 0.000000 
#    z 0.000000 0.000000 1.830920 
# 
# From -- ./inp_files/7299.got.cif
#   From: 2010.03.12/outbox.cif.g09.slc.cpg/sg33_4_cif.got.tgz:7299.got - 2010.04.14 01:49:19.
