data_PCOD8171905
_publ_section_title
;
Structure prediction by ZEFSAII (Michael W. Deem and Ramdas Pophale) SiO2 
 PCOD8171905
Probable space group: P N N 2
;
_chemical_formula_sum "Si O2"
_cell_formula_units_Z 28
_cell_length_a 12.115055
_cell_length_b 7.831249
_cell_length_c 15.142830
_cell_angle_alpha 90.000000
_cell_angle_beta 90.000000
_cell_angle_gamma 90.000000
_cell_volume 1436.691326
_symmetry_space_group_name_H-M "P N N 2"
_symmetry_group_IT_number 34
_symmetry_cell_setting 'orthorhombic'
loop_
_space_group_symop_operation_xyz
x,y,z
-x,-y,z
1/2-x,1/2+y,1/2+z
1/2+x,1/2-y,1/2+z
loop_
_atom_site_type_symbol
_atom_site_label
_atom_site_fract_x
_atom_site_fract_y
_atom_site_fract_z
Si Si1 0.094807 0.370597 0.365410
Si Si2 0.772300 0.188750 0.187023
Si Si3 0.098638 0.122238 0.218429
Si Si4 0.435620 0.830730 0.071316
Si Si5 0.319873 0.545748 0.310297
Si Si6 0.000000 0.000000 0.668135
Si Si7 0.000000 0.000000 0.953463
Si Si8 0.018624 0.691995 0.085387
O O1 0.077879 0.192264 0.315940
O O2 0.078636 0.329958 0.466992
O O3 0.216970 0.429809 0.338146
O O4 0.000000 0.500000 0.332744
O O5 0.685968 0.178073 0.108895
O O6 0.725885 0.272198 0.277142
O O7 0.875996 0.298076 0.151041
O O8 0.792254 0.991504 0.213296
O O9 0.092701 0.269806 0.143211
O O10 0.000000 0.000000 0.189682
O O11 0.500535 0.664959 0.105304
O O12 0.500000 0.000000 0.103011
O O13 0.391352 0.471257 0.228699
O O14 0.397080 0.564564 0.395479
O O15 0.035029 0.833006 0.008892
O O16 0.000000 0.500000 0.047140
#
# Coordination Sequence:
#
# PCOD8171905 Si02
#       8
#     4   4   4   4   4   2   2   4
#     4  11  22  37  60  91 124 161 208 259 317 366
#     4  10  20  41  62  92 122 167 211 252 317 376
#     4  10  20  35  62  89 123 156 205 262 304 369
#     4  10  23  40  62  88 127 163 207 256 308 378
#     4  10  22  41  63  86 130 163 204 262 317 368
#     4   9  22  44  63  88 120 170 209 250 310 387
#     4  11  22  44  61  94 132 162 203 272 314 369
#     4  11  21  40  67  91 123 164 214 259 318 377
#
# _framework density 19.489225999999999
#
# number of rings (size 3 to 8) (size 9 to 14) (size 15 to 20)
#    0.000    1.714    2.143    3.857    3.000    0.000 
#    5.143    1.429    0.000    0.000    0.000    0.000 
#    0.000    0.000    0.000    0.000    0.000    0.000 
#
# Total GULP energy -347033.692749 kJ/mol
# GULP energy per Si atom -12394.060455 kJ/mol
# Density = 1.944487 g / cm^3
# Si number density = 19.489226 Si / 1000 Ang^3
#
#
#
# Elastic Constant Matrix: (Units=GPa)
#
#
# Indices 1 2 3 4 5 6 
#
# 1 92.1100 44.0615 40.6983 0.0000 0.0000 0.0000
# 2 44.0615 142.8668 62.8099 0.0000 0.0000 0.0000
# 3 40.6983 62.8099 101.2674 0.0000 0.0000 0.0000
# 4 0.0000 0.0000 0.0000 31.5035 0.0000 0.0000
# 5 0.0000 0.0000 0.0000 0.0000 12.6974 0.0000
# 6 0.0000 0.0000 0.0000 0.0000 0.0000 27.3003
#
#
#
# Elastic Compliance Matrix: (Units=1/GPa)
#
#
# Indices 1 2 3 4 5 6 
#
# 1 0.013823 -0.002503 -0.004002 0.000000 0.000000 0.000000
# 2 -0.002503 0.010077 -0.005244 0.000000 0.000000 0.000000
# 3 -0.004002 -0.005244 0.014736 0.000000 0.000000 0.000000
# 4 0.000000 0.000000 0.000000 0.031743 0.000000 0.000000
# 5 0.000000 0.000000 0.000000 0.000000 0.078756 0.000000
# 6 0.000000 0.000000 0.000000 0.000000 0.000000 0.036630
#
#
# Mechanical properties :
#
#
# Convention : Reuss Voigt Hill
#
# Bulk Modulus (GPa) = 66.06871 70.15374 68.11123
# Shear Modulus (GPa) = 23.33079 26.87854 25.10467
#
# Velocity S-wave (km/s) = 3.46368 3.71772 3.59295
# Velocity P-wave (km/s) = 7.06894 7.38261 7.22747
#
# Compressibility (1/GPa) = 0.01513576
#
# Stress axis : x y z
#
# Youngs Moduli (GPa) = 72.34557 99.23470 67.86107
#
# Poissons Ratio (x) = 0.24842 0.27161
# Poissons Ratio (y) = 0.18111 0.35587
# Poissons Ratio (z) = 0.28956 0.52040
#
# Static dielectric constant tensor:
#      x y z
#    x 3.788630 0.000000 0.000000 
#    y 0.000000 3.835670 0.000000 
#    z 0.000000 0.000000 3.562170 
# 
# 
# High freq. dielectric constant tensor:
#      x y z
#    x 1.762190 0.000000 0.000000 
#    y 0.000000 1.759570 0.000000 
#    z 0.000000 0.000000 1.761980 
# 
# From -- ./inp_files/6753.got.cif
#   From: 2010.03.12/outbox.cif.g09.slc.cpg/sg34_4_cif.got.tgz:6753.got - 2010.04.14 01:56:33.
