data_PCOD8171152
_publ_section_title
;
Structure prediction by ZEFSAII (Michael W. Deem and Ramdas Pophale) SiO2 
 PCOD8171152
Probable space group: P N A 21
;
_chemical_formula_sum "Si O2"
_cell_formula_units_Z 32
_cell_length_a 11.336663
_cell_length_b 21.124291
_cell_length_c 6.206250
_cell_angle_alpha 90.000000
_cell_angle_beta 90.000000
_cell_angle_gamma 90.000000
_cell_volume 1486.266346
_symmetry_space_group_name_H-M "P N A 21"
_symmetry_group_IT_number 33
_symmetry_cell_setting 'orthorhombic'
loop_
_space_group_symop_operation_xyz
x,y,z
-x,-y,1/2+z
1/2-x,1/2+y,1/2+z
1/2+x,1/2-y,z
loop_
_atom_site_type_symbol
_atom_site_label
_atom_site_fract_x
_atom_site_fract_y
_atom_site_fract_z
Si Si1 0.584675 0.324818 0.097870
Si Si2 0.089471 0.774164 0.939414
Si Si3 0.532772 0.212063 0.826216
Si Si4 0.686731 0.142793 0.486690
Si Si5 0.239254 0.086545 0.342345
Si Si6 0.040124 0.646480 0.721589
Si Si7 0.586796 0.424335 0.739555
Si Si8 0.847545 0.025632 0.568291
O O1 0.493452 0.320425 0.297829
O O2 0.703885 0.354258 0.190680
O O3 0.605273 0.255170 0.998134
O O4 0.541963 0.372785 0.911483
O O5 0.217845 0.804287 0.930535
O O6 0.098611 0.705060 0.842899
O O7 0.041932 0.762313 0.183000
O O8 0.620073 0.168439 0.694652
O O9 0.454021 0.162247 0.965568
O O10 0.595491 0.134418 0.289928
O O11 0.743433 0.075665 0.540361
O O12 0.381209 0.086389 0.303712
O O13 0.192540 0.100152 0.583903
O O14 0.183846 0.019892 0.268298
O O15 0.470779 0.439206 0.602792
O O16 0.640324 0.486519 0.849347
#
# Coordination Sequence:
#
# PCOD8171152 Si02
#       8
#     4   4   4   4   4   4   4   4
#     4  10  22  38  69 102 132 174 217 280 346 396
#     4  10  23  40  68  99 137 170 222 278 332 410
#     4  10  23  42  65 101 134 176 220 270 345 412
#     4  11  25  42  66  99 137 178 226 278 335 418
#     4  11  24  42  67  95 136 177 227 285 335 408
#     4  10  26  43  62  99 137 178 227 268 346 412
#     4  11  23  42  71 100 132 171 232 286 343 399
#     4  11  24  43  68  99 131 176 229 285 338 395
#
# _framework density 21.530460999999999
#
# number of rings (size 3 to 8) (size 9 to 14) (size 15 to 20)
#    0.000    1.500    1.250    2.250   10.500    6.000 
#    4.500    0.000    0.000    0.000    0.000    0.000 
#    0.000    0.000    0.000    0.000    0.000    0.000 
#
# Total GULP energy -396678.302062 kJ/mol
# GULP energy per Si atom -12396.196939 kJ/mol
# Density = 2.148146 g / cm^3
# Si number density = 21.530461 Si / 1000 Ang^3
#
#
#
# Elastic Constant Matrix: (Units=GPa)
#
#
# Indices 1 2 3 4 5 6 
#
# 1 119.5180 39.7445 51.6209 0.0000 0.0000 0.0000
# 2 39.7445 68.9524 33.2502 0.0000 0.0000 0.0000
# 3 51.6209 33.2502 124.2313 0.0000 0.0000 0.0000
# 4 0.0000 0.0000 0.0000 35.1486 0.0000 0.0000
# 5 0.0000 0.0000 0.0000 0.0000 25.4137 0.0000
# 6 0.0000 0.0000 0.0000 0.0000 0.0000 39.3578
#
#
#
# Elastic Compliance Matrix: (Units=1/GPa)
#
#
# Indices 1 2 3 4 5 6 
#
# 1 0.011511 -0.004970 -0.003453 0.000000 0.000000 0.000000
# 2 -0.004970 0.018798 -0.002966 0.000000 0.000000 0.000000
# 3 -0.003453 -0.002966 0.010278 0.000000 0.000000 0.000000
# 4 0.000000 0.000000 0.000000 0.028451 0.000000 0.000000
# 5 0.000000 0.000000 0.000000 0.000000 0.039349 0.000000
# 6 0.000000 0.000000 0.000000 0.000000 0.000000 0.025408
#
#
# Mechanical properties :
#
#
# Convention : Reuss Voigt Hill
#
# Bulk Modulus (GPa) = 56.15107 62.43698 59.29402
# Shear Modulus (GPa) = 30.76764 32.52308 31.64536
#
# Velocity S-wave (km/s) = 3.78435 3.89081 3.83795
# Velocity P-wave (km/s) = 6.72544 7.01761 6.87308
#
# Compressibility (1/GPa) = 0.01780910
#
# Stress axis : x y z
#
# Youngs Moduli (GPa) = 86.87360 53.19784 97.29423
#
# Poissons Ratio (x) = 0.26439 0.33594
# Poissons Ratio (y) = 0.43176 0.28858
# Poissons Ratio (z) = 0.29996 0.15779
#
# Static dielectric constant tensor:
#      x y z
#    x 3.764090 0.000000 0.000000 
#    y 0.000000 3.845610 0.000000 
#    z 0.000000 0.000000 4.222870 
# 
# 
# High freq. dielectric constant tensor:
#      x y z
#    x 1.834530 0.000000 0.000000 
#    y 0.000000 1.842580 0.000000 
#    z 0.000000 0.000000 1.857430 
# 
# From -- ./inp_files/1050.got.cif
#   From: 2010.03.12/outbox.cif.g09.slc.cpg/sg33_1_cif.got.tgz:1050.got - 2010.04.14 01:49:19.
