data_PCOD8171624
_publ_section_title
;
Structure prediction by ZEFSAII (Michael W. Deem and Ramdas Pophale) SiO2 
 PCOD8171624
Probable space group: P N A 21
;
_chemical_formula_sum "Si O2"
_cell_formula_units_Z 24
_cell_length_a 13.474614
_cell_length_b 7.801910
_cell_length_c 9.841082
_cell_angle_alpha 90.000000
_cell_angle_beta 90.000000
_cell_angle_gamma 90.000000
_cell_volume 1034.570569
_symmetry_space_group_name_H-M "P N A 21"
_symmetry_group_IT_number 33
_symmetry_cell_setting 'orthorhombic'
loop_
_space_group_symop_operation_xyz
x,y,z
-x,-y,1/2+z
1/2-x,1/2+y,1/2+z
1/2+x,1/2-y,z
loop_
_atom_site_type_symbol
_atom_site_label
_atom_site_fract_x
_atom_site_fract_y
_atom_site_fract_z
Si Si1 0.381773 0.473189 0.094370
Si Si2 0.652400 0.155821 0.516207
Si Si3 0.657468 0.490228 0.069413
Si Si4 0.977703 0.892393 0.345556
Si Si5 0.814582 0.658625 0.704564
Si Si6 0.049125 0.655696 0.139058
O O1 0.330637 0.658725 0.082737
O O2 0.466506 0.480186 0.213398
O O3 0.294473 0.341959 0.134094
O O4 0.432480 0.434549 0.948932
O O5 0.692224 0.145057 0.364183
O O6 0.537476 0.101916 0.532990
O O7 0.725363 0.022441 0.589729
O O8 0.632128 0.340160 0.176204
O O9 0.601102 0.669648 0.089311
O O10 0.627276 0.408545 0.923181
O O11 0.999419 0.701064 0.286320
O O12 0.877986 0.502858 0.643976
#
# Coordination Sequence:
#
# PCOD8171624 Si02
#       6
#     4   4   4   4   4   4
#     4  11  24  47  76 110 151 200 251 317 380 456
#     4  11  25  50  71 108 152 191 255 315 370 467
#     4  12  25  46  74 110 143 198 246 315 380 445
#     4  11  23  45  77 105 152 195 252 315 379 447
#     4  12  28  46  77 109 149 206 253 310 389 458
#     4  11  27  50  73 108 153 194 259 314 376 457
#
# _framework density 23.198032000000001
#
# number of rings (size 3 to 8) (size 9 to 14) (size 15 to 20)
#    0.000    0.667    6.667    1.000    4.667    0.000 
#    9.000    0.000    0.000    0.000    0.000    0.000 
#    0.000    0.000    0.000    0.000    0.000    0.000 
#
# Total GULP energy -297355.165611 kJ/mol
# GULP energy per Si atom -12389.798567 kJ/mol
# Density = 2.314523 g / cm^3
# Si number density = 23.198032 Si / 1000 Ang^3
#
#
#
# Elastic Constant Matrix: (Units=GPa)
#
#
# Indices 1 2 3 4 5 6 
#
# 1 147.3409 61.8247 50.7056 0.0000 0.0000 0.0000
# 2 61.8247 104.2750 36.8924 0.0000 0.0000 0.0000
# 3 50.7056 36.8924 104.2214 0.0000 0.0000 0.0000
# 4 0.0000 0.0000 0.0000 27.5478 0.0000 0.0000
# 5 0.0000 0.0000 0.0000 0.0000 36.6091 0.0000
# 6 0.0000 0.0000 0.0000 0.0000 0.0000 35.4221
#
#
#
# Elastic Compliance Matrix: (Units=1/GPa)
#
#
# Indices 1 2 3 4 5 6 
#
# 1 0.009846 -0.004736 -0.003114 0.000000 0.000000 0.000000
# 2 -0.004736 0.013241 -0.002383 0.000000 0.000000 0.000000
# 3 -0.003114 -0.002383 0.011953 0.000000 0.000000 0.000000
# 4 0.000000 0.000000 0.000000 0.036301 0.000000 0.000000
# 5 0.000000 0.000000 0.000000 0.000000 0.027316 0.000000
# 6 0.000000 0.000000 0.000000 0.000000 0.000000 0.028231
#
#
# Mechanical properties :
#
#
# Convention : Reuss Voigt Hill
#
# Bulk Modulus (GPa) = 68.61082 72.74251 70.67667
# Shear Modulus (GPa) = 32.84919 33.67677 33.26298
#
# Velocity S-wave (km/s) = 3.76710 3.81426 3.79076
# Velocity P-wave (km/s) = 6.96863 7.12905 7.04930
#
# Compressibility (1/GPa) = 0.01457496
#
# Stress axis : x y z
#
# Youngs Moduli (GPa) = 101.56695 75.52273 83.65849
#
# Poissons Ratio (x) = 0.35767 0.26049
# Poissons Ratio (y) = 0.48101 0.19936
# Poissons Ratio (z) = 0.31625 0.17997
#
# Static dielectric constant tensor:
#      x y z
#    x 4.490550 0.000000 0.000000 
#    y 0.000000 4.018510 0.000000 
#    z 0.000000 0.000000 4.284690 
# 
# 
# High freq. dielectric constant tensor:
#      x y z
#    x 1.929970 0.000000 0.000000 
#    y 0.000000 1.906160 0.000000 
#    z 0.000000 0.000000 1.917360 
# 
# From -- ./inp_files/4257.got.cif
#   From: 2010.03.12/outbox.cif.g09.slc.cpg/sg33_3_cif.got.tgz:4257.got - 2010.04.14 01:49:19.
