data_PCOD8171873
_publ_section_title
;
Structure prediction by ZEFSAII (Michael W. Deem and Ramdas Pophale) SiO2 
 PCOD8171873
Probable space group: P N N 2
;
_chemical_formula_sum "Si O2"
_cell_formula_units_Z 32
_cell_length_a 11.536330
_cell_length_b 18.326527
_cell_length_c 8.514105
_cell_angle_alpha 90.000000
_cell_angle_beta 90.000000
_cell_angle_gamma 90.000000
_cell_volume 1800.059429
_symmetry_space_group_name_H-M "P N N 2"
_symmetry_group_IT_number 34
_symmetry_cell_setting 'orthorhombic'
loop_
_space_group_symop_operation_xyz
x,y,z
-x,-y,z
1/2-x,1/2+y,1/2+z
1/2+x,1/2-y,1/2+z
loop_
_atom_site_type_symbol
_atom_site_label
_atom_site_fract_x
_atom_site_fract_y
_atom_site_fract_z
Si Si1 0.134030 0.271882 0.294560
Si Si2 0.731305 0.327817 0.293121
Si Si3 0.221711 0.133442 0.133076
Si Si4 0.559922 0.832448 0.578203
Si Si5 0.615918 0.702293 0.355743
Si Si6 0.950723 0.922728 0.913034
Si Si7 0.939760 0.722131 0.641649
Si Si8 0.958462 0.418015 0.776189
O O1 0.166755 0.188091 0.259367
O O2 0.252339 0.317924 0.312833
O O3 0.061478 0.271735 0.454673
O O4 0.060974 0.309187 0.156437
O O5 0.759352 0.318497 0.479340
O O6 0.847255 0.354922 0.209216
O O7 0.634300 0.392155 0.275537
O O8 0.678260 0.253105 0.221587
O O9 0.329050 0.090431 0.207098
O O10 0.122075 0.075747 0.077402
O O11 0.614008 0.765219 0.484980
O O12 0.539893 0.900708 0.462410
O O13 0.559106 0.631269 0.431625
O O14 0.550423 0.731984 0.201410
O O15 0.000000 0.000000 0.863542
O O16 0.953366 0.637393 0.689877
O O17 0.000000 0.500000 0.745975
#
# Coordination Sequence:
#
# PCOD8171873 Si02
#       8
#     4   4   4   4   4   4   4   4
#     4  12  20  35  65  89 116 153 203 258 304 356
#     4   9  19  37  63  87 113 157 199 255 300 350
#     4  10  19  36  62  84 115 158 198 249 308 348
#     4  11  20  38  59  88 118 155 207 249 305 357
#     4  10  20  36  59  88 114 151 203 251 292 352
#     4   9  20  38  59  84 121 155 191 246 292 366
#     4  10  19  36  62  87 115 151 205 248 299 358
#     4  11  23  40  55  83 131 163 193 254 308 368
#
# _framework density 17.777190999999998
#
# number of rings (size 3 to 8) (size 9 to 14) (size 15 to 20)
#    0.750    1.000    5.000    1.500    0.000    1.000 
#    2.250    1.250    0.000    1.500    0.000    0.000 
#    0.000    0.000    0.000    0.000    0.000    0.000 
#
# Total GULP energy -396629.632131 kJ/mol
# GULP energy per Si atom -12394.676004 kJ/mol
# Density = 1.773673 g / cm^3
# Si number density = 17.777191 Si / 1000 Ang^3
#
#
#
# Elastic Constant Matrix: (Units=GPa)
#
#
# Indices 1 2 3 4 5 6 
#
# 1 121.5540 41.7318 40.6730 0.0000 0.0000 0.0000
# 2 41.7318 109.9662 26.9761 0.0000 0.0000 0.0000
# 3 40.6730 26.9761 90.8394 0.0000 0.0000 0.0000
# 4 0.0000 0.0000 0.0000 13.5293 0.0000 0.0000
# 5 0.0000 0.0000 0.0000 0.0000 35.5396 0.0000
# 6 0.0000 0.0000 0.0000 0.0000 0.0000 19.8762
#
#
#
# Elastic Compliance Matrix: (Units=1/GPa)
#
#
# Indices 1 2 3 4 5 6 
#
# 1 0.010558 -0.003071 -0.003815 0.000000 0.000000 0.000000
# 2 -0.003071 0.010701 -0.001803 0.000000 0.000000 0.000000
# 3 -0.003815 -0.001803 0.013252 0.000000 0.000000 0.000000
# 4 0.000000 0.000000 0.000000 0.073913 0.000000 0.000000
# 5 0.000000 0.000000 0.000000 0.000000 0.028138 0.000000
# 6 0.000000 0.000000 0.000000 0.000000 0.000000 0.050311
#
#
# Mechanical properties :
#
#
# Convention : Reuss Voigt Hill
#
# Bulk Modulus (GPa) = 58.36629 60.12460 59.24544
# Shear Modulus (GPa) = 23.81378 27.98761 25.90070
#
# Velocity S-wave (km/s) = 3.66398 3.97212 3.82116
# Velocity P-wave (km/s) = 7.12763 7.41159 7.27099
#
# Compressibility (1/GPa) = 0.01713318
#
# Stress axis : x y z
#
# Youngs Moduli (GPa) = 94.71829 93.44646 75.45950
#
# Poissons Ratio (x) = 0.28694 0.28790
# Poissons Ratio (y) = 0.29085 0.13606
# Poissons Ratio (z) = 0.36137 0.16849
#
# Static dielectric constant tensor:
#      x y z
#    x 3.413880 0.000000 0.000000 
#    y 0.000000 2.985700 0.000000 
#    z 0.000000 0.000000 3.319460 
# 
# 
# High freq. dielectric constant tensor:
#      x y z
#    x 1.699520 0.000000 0.000000 
#    y 0.000000 1.652140 0.000000 
#    z 0.000000 0.000000 1.687220 
# 
# From -- ./inp_files/3450.got.cif
#   From: 2010.03.12/outbox.cif.g09.slc.cpg/sg34_2_cif.got.tgz:3450.got - 2010.04.14 01:56:33.
