data_PCOD8171650
_publ_section_title
;
Structure prediction by ZEFSAII (Michael W. Deem and Ramdas Pophale) SiO2 
 PCOD8171650
Probable space group: P N A 21
;
_chemical_formula_sum "Si O2"
_cell_formula_units_Z 32
_cell_length_a 25.880363
_cell_length_b 6.565030
_cell_length_c 8.650265
_cell_angle_alpha 90.000000
_cell_angle_beta 90.000000
_cell_angle_gamma 90.000000
_cell_volume 1469.726385
_symmetry_space_group_name_H-M "P N A 21"
_symmetry_group_IT_number 33
_symmetry_cell_setting 'orthorhombic'
loop_
_space_group_symop_operation_xyz
x,y,z
-x,-y,1/2+z
1/2-x,1/2+y,1/2+z
1/2+x,1/2-y,z
loop_
_atom_site_type_symbol
_atom_site_label
_atom_site_fract_x
_atom_site_fract_y
_atom_site_fract_z
Si Si1 0.359101 0.312725 0.073350
Si Si2 0.203647 0.106761 0.080884
Si Si3 0.925036 0.504636 0.241220
Si Si4 0.766063 0.058511 0.253881
Si Si5 0.611520 0.103670 0.070130
Si Si6 0.825993 0.282221 0.742919
Si Si7 0.017595 0.214709 0.237886
Si Si8 0.951491 0.898738 0.068517
O O1 0.322010 0.459479 0.174485
O O2 0.407997 0.441488 0.015053
O O3 0.377023 0.125088 0.178660
O O4 0.329112 0.219929 0.927952
O O5 0.243785 0.219583 0.198715
O O6 0.162221 0.270364 0.017521
O O7 0.171901 0.946903 0.182987
O O8 0.229363 0.980420 0.938896
O O9 0.918884 0.519424 0.424002
O O10 0.979522 0.401036 0.199273
O O11 0.923556 0.727132 0.168600
O O12 0.728129 0.883738 0.190624
O O13 0.573778 0.247062 0.167813
O O14 0.626492 0.911037 0.175668
O O15 0.995385 0.004534 0.171430
O O16 0.021169 0.196898 0.421208
#
# Coordination Sequence:
#
# PCOD8171650 Si02
#       8
#     4   4   4   4   4   4   4   4
#     4  11  24  43  66  98 129 175 227 274 342 407
#     4  11  25  42  68  95 131 176 223 277 343 405
#     4  11  24  42  68  95 134 179 220 280 336 405
#     4  11  24  44  63  99 129 175 225 277 342 413
#     4  11  24  43  65  99 135 174 227 279 341 410
#     4  11  25  43  67  96 133 174 221 284 340 405
#     4  11  24  42  66 100 134 175 228 276 341 407
#     4  11  24  41  67  96 133 178 223 283 341 406
#
# _framework density 21.772760000000002
#
# number of rings (size 3 to 8) (size 9 to 14) (size 15 to 20)
#    0.000    1.000    1.250    4.500    1.750   11.000 
#    0.000    0.000    0.000    0.000    0.000    0.000 
#    0.000    0.000    0.000    0.000    0.000    0.000 
#
# Total GULP energy -396920.916412 kJ/mol
# GULP energy per Si atom -12403.778638 kJ/mol
# Density = 2.172320 g / cm^3
# Si number density = 21.772760 Si / 1000 Ang^3
#
#
#
# Elastic Constant Matrix: (Units=GPa)
#
#
# Indices 1 2 3 4 5 6 
#
# 1 85.0307 27.3024 25.3593 0.0000 0.0000 0.0000
# 2 27.3024 96.1668 39.7447 0.0000 0.0000 0.0000
# 3 25.3593 39.7447 128.0709 0.0000 0.0000 0.0000
# 4 0.0000 0.0000 0.0000 27.5829 0.0000 0.0000
# 5 0.0000 0.0000 0.0000 0.0000 27.3301 0.0000
# 6 0.0000 0.0000 0.0000 0.0000 0.0000 29.6842
#
#
#
# Elastic Compliance Matrix: (Units=1/GPa)
#
#
# Indices 1 2 3 4 5 6 
#
# 1 0.013244 -0.003070 -0.001670 0.000000 0.000000 0.000000
# 2 -0.003070 0.012640 -0.003315 0.000000 0.000000 0.000000
# 3 -0.001670 -0.003315 0.009167 0.000000 0.000000 0.000000
# 4 0.000000 0.000000 0.000000 0.036254 0.000000 0.000000
# 5 0.000000 0.000000 0.000000 0.000000 0.036590 0.000000
# 6 0.000000 0.000000 0.000000 0.000000 0.000000 0.033688
#
#
# Mechanical properties :
#
#
# Convention : Reuss Voigt Hill
#
# Bulk Modulus (GPa) = 52.79066 54.89791 53.84429
# Shear Modulus (GPa) = 30.48648 31.37691 30.93170
#
# Velocity S-wave (km/s) = 3.74600 3.80031 3.77325
# Velocity P-wave (km/s) = 6.55811 6.67273 6.61567
#
# Compressibility (1/GPa) = 0.01894274
#
# Stress axis : x y z
#
# Youngs Moduli (GPa) = 75.50480 79.11294 109.08125
#
# Poissons Ratio (x) = 0.24288 0.18214
# Poissons Ratio (y) = 0.23180 0.36158
# Poissons Ratio (z) = 0.12607 0.26224
#
# Static dielectric constant tensor:
#      x y z
#    x 4.012950 0.000000 0.000000 
#    y 0.000000 4.212500 0.000000 
#    z 0.000000 0.000000 3.814400 
# 
# 
# High freq. dielectric constant tensor:
#      x y z
#    x 1.864760 0.000000 0.000000 
#    y 0.000000 1.859990 0.000000 
#    z 0.000000 0.000000 1.858270 
# 
# From -- ./inp_files/5361.got.cif
#   From: 2010.03.12/outbox.cif.g09.slc.cpg/sg33_3_cif.got.tgz:5361.got - 2010.04.14 01:49:19.
