data_PCOD8171596
_publ_section_title
;
Structure prediction by ZEFSAII (Michael W. Deem and Ramdas Pophale) SiO2 
 PCOD8171596
Probable space group: P N A 21
;
_chemical_formula_sum "Si O2"
_cell_formula_units_Z 28
_cell_length_a 9.220622
_cell_length_b 16.461553
_cell_length_c 9.026064
_cell_angle_alpha 90.000000
_cell_angle_beta 90.000000
_cell_angle_gamma 90.000000
_cell_volume 1370.027964
_symmetry_space_group_name_H-M "P N A 21"
_symmetry_group_IT_number 33
_symmetry_cell_setting 'orthorhombic'
loop_
_space_group_symop_operation_xyz
x,y,z
-x,-y,1/2+z
1/2-x,1/2+y,1/2+z
1/2+x,1/2-y,z
loop_
_atom_site_type_symbol
_atom_site_label
_atom_site_fract_x
_atom_site_fract_y
_atom_site_fract_z
Si Si1 0.084608 0.437013 0.517250
Si Si2 0.884114 0.439929 0.787845
Si Si3 0.207503 0.731103 0.360562
Si Si4 0.997705 0.166884 0.372303
Si Si5 0.218261 0.268896 0.525009
Si Si6 0.626914 0.498314 0.942690
Si Si7 0.519105 0.331340 0.029751
O O1 0.027298 0.492483 0.381811
O O2 0.109275 0.342386 0.481865
O O3 0.246523 0.472188 0.559663
O O4 0.953369 0.446120 0.628803
O O5 0.897688 0.347649 0.847873
O O6 0.711999 0.463738 0.795504
O O7 0.269678 0.757991 0.201469
O O8 0.337496 0.712797 0.472257
O O9 0.117310 0.804368 0.431373
O O10 0.150172 0.188757 0.450030
O O11 0.874723 0.217918 0.455343
O O12 0.996427 0.191972 0.200559
O O13 0.976659 0.070852 0.392875
O O14 0.530725 0.428692 0.016555
#
# Coordination Sequence:
#
# PCOD8171596 Si02
#       7
#     4   4   4   4   4   4   4
#     4   9  19  39  60  89 126 165 211 256 316 387
#     4   9  19  39  60  89 126 165 211 256 316 387
#     4  11  23  42  66  94 132 171 219 264 336 387
#     4  11  23  43  65  96 128 172 219 270 320 393
#     4  11  23  42  66  94 132 171 219 264 336 387
#     4   8  22  40  60  94 126 160 212 268 324 368
#     4  11  23  43  65  96 128 172 219 270 320 393
#
# _framework density 20.437539000000001
#
# number of rings (size 3 to 8) (size 9 to 14) (size 15 to 20)
#    0.857    1.143    0.000    3.429    0.000    5.714 
#   10.286    0.000    0.000    0.000    0.000    0.000 
#    0.000    0.000    0.000    0.000    0.000    0.000 
#
# Total GULP energy -346965.840788 kJ/mol
# GULP energy per Si atom -12391.637171 kJ/mol
# Density = 2.039102 g / cm^3
# Si number density = 20.437539 Si / 1000 Ang^3
#
#
#
# Elastic Constant Matrix: (Units=GPa)
#
#
# Indices 1 2 3 4 5 6 
#
# 1 50.0432 31.7994 20.6145 0.0000 0.0000 0.0000
# 2 31.7994 98.7788 14.3204 0.0000 0.0000 0.0000
# 3 20.6145 14.3204 79.6605 0.0000 0.0000 0.0000
# 4 0.0000 0.0000 0.0000 25.3763 0.0000 0.0000
# 5 0.0000 0.0000 0.0000 0.0000 36.7410 0.0000
# 6 0.0000 0.0000 0.0000 0.0000 0.0000 38.2889
#
#
#
# Elastic Compliance Matrix: (Units=1/GPa)
#
#
# Indices 1 2 3 4 5 6 
#
# 1 0.027394 -0.008000 -0.005651 0.000000 0.000000 0.000000
# 2 -0.008000 0.012731 -0.000218 0.000000 0.000000 0.000000
# 3 -0.005651 -0.000218 0.014055 0.000000 0.000000 0.000000
# 4 0.000000 0.000000 0.000000 0.039407 0.000000 0.000000
# 5 0.000000 0.000000 0.000000 0.000000 0.027218 0.000000
# 6 0.000000 0.000000 0.000000 0.000000 0.000000 0.026117
#
#
# Mechanical properties :
#
#
# Convention : Reuss Voigt Hill
#
# Bulk Modulus (GPa) = 37.81934 40.21679 39.01806
# Shear Modulus (GPa) = 27.25208 30.86446 29.05827
#
# Velocity S-wave (km/s) = 3.65558 3.89033 3.77478
# Velocity P-wave (km/s) = 6.03015 6.31666 6.17506
#
# Compressibility (1/GPa) = 0.02644150
#
# Stress axis : x y z
#
# Youngs Moduli (GPa) = 36.50469 78.55122 71.14970
#
# Poissons Ratio (x) = 0.62837 0.40206
# Poissons Ratio (y) = 0.29202 0.01554
# Poissons Ratio (z) = 0.20628 0.01716
#
# Static dielectric constant tensor:
#      x y z
#    x 3.563660 0.000000 0.000000 
#    y 0.000000 3.985810 0.000000 
#    z 0.000000 0.000000 3.498540 
# 
# 
# High freq. dielectric constant tensor:
#      x y z
#    x 1.792710 0.000000 0.000000 
#    y 0.000000 1.813320 0.000000 
#    z 0.000000 0.000000 1.780410 
# 
# From -- ./inp_files/3378.got.cif
#   From: 2010.03.12/outbox.cif.g09.slc.cpg/sg33_2_cif.got.tgz:3378.got - 2010.04.14 01:49:19.
