data_PCOD8171090
_publ_section_title
;
Structure prediction by ZEFSAII (Michael W. Deem and Ramdas Pophale) SiO2 
 PCOD8171090
Probable space group: P N A 21
;
_chemical_formula_sum "Si O2"
_cell_formula_units_Z 32
_cell_length_a 17.050128
_cell_length_b 6.084697
_cell_length_c 14.329429
_cell_angle_alpha 90.000000
_cell_angle_beta 90.000000
_cell_angle_gamma 90.000000
_cell_volume 1486.604644
_symmetry_space_group_name_H-M "P N A 21"
_symmetry_group_IT_number 33
_symmetry_cell_setting 'orthorhombic'
loop_
_space_group_symop_operation_xyz
x,y,z
-x,-y,1/2+z
1/2-x,1/2+y,1/2+z
1/2+x,1/2-y,z
loop_
_atom_site_type_symbol
_atom_site_label
_atom_site_fract_x
_atom_site_fract_y
_atom_site_fract_z
Si Si1 0.993894 0.028177 0.969380
Si Si2 0.644402 0.244826 0.547985
Si Si3 0.003151 0.262187 0.292994
Si Si4 0.295959 0.307937 0.760578
Si Si5 0.604362 0.905932 0.405872
Si Si6 0.347324 0.058996 0.216748
Si Si7 0.752532 0.569015 0.635004
Si Si8 0.392113 0.610622 0.627670
O O1 0.009022 0.938574 0.864962
O O2 0.961477 0.277582 0.965254
O O3 0.934078 0.870545 0.022010
O O4 0.073996 0.030712 0.028614
O O5 0.720366 0.405185 0.553747
O O6 0.660107 0.052005 0.472613
O O7 0.628395 0.139062 0.648688
O O8 0.065011 0.438863 0.329588
O O9 0.035631 0.181603 0.193617
O O10 0.919534 0.377215 0.281331
O O11 0.344376 0.283783 0.855986
O O12 0.223354 0.470223 0.782415
O O13 0.346954 0.410948 0.676747
O O14 0.269292 0.066191 0.729414
O O15 0.318271 0.264958 0.156153
O O16 0.831902 0.691705 0.604487
#
# Coordination Sequence:
#
# PCOD8171090 Si02
#       8
#     4   4   4   4   4   4   4   4
#     4  11  25  41  67 101 133 173 227 281 341 399
#     4  10  22  39  64  96 133 174 221 272 340 403
#     4  11  23  41  68  99 133 177 225 280 341 401
#     4  10  22  41  67  93 130 179 221 268 340 400
#     4  11  22  41  65  97 131 176 220 277 336 405
#     4  10  23  42  67  96 129 177 217 273 338 400
#     4  10  21  42  64  95 128 180 221 270 342 398
#     4  11  22  41  70  93 133 178 224 279 334 410
#
# _framework density 21.525561
#
# number of rings (size 3 to 8) (size 9 to 14) (size 15 to 20)
#    0.000    1.500    2.500    2.250    1.750    4.000 
#    0.000   16.250    0.000    0.000    0.000    0.000 
#    0.000    0.000    0.000    0.000    0.000    0.000 
#
# Total GULP energy -396888.738026 kJ/mol
# GULP energy per Si atom -12402.773063 kJ/mol
# Density = 2.147657 g / cm^3
# Si number density = 21.525561 Si / 1000 Ang^3
#
#
#
# Elastic Constant Matrix: (Units=GPa)
#
#
# Indices 1 2 3 4 5 6 
#
# 1 104.5526 31.8248 51.8589 0.0000 0.0000 0.0000
# 2 31.8248 96.3761 36.6762 0.0000 0.0000 0.0000
# 3 51.8589 36.6762 85.0512 0.0000 0.0000 0.0000
# 4 0.0000 0.0000 0.0000 35.2567 0.0000 0.0000
# 5 0.0000 0.0000 0.0000 0.0000 33.7130 0.0000
# 6 0.0000 0.0000 0.0000 0.0000 0.0000 33.2874
#
#
#
# Elastic Compliance Matrix: (Units=1/GPa)
#
#
# Indices 1 2 3 4 5 6 
#
# 1 0.013924 -0.001635 -0.007784 0.000000 0.000000 0.000000
# 2 -0.001635 0.012605 -0.004439 0.000000 0.000000 0.000000
# 3 -0.007784 -0.004439 0.018418 0.000000 0.000000 0.000000
# 4 0.000000 0.000000 0.000000 0.028363 0.000000 0.000000
# 5 0.000000 0.000000 0.000000 0.000000 0.029662 0.000000
# 6 0.000000 0.000000 0.000000 0.000000 0.000000 0.030041
#
#
# Mechanical properties :
#
#
# Convention : Reuss Voigt Hill
#
# Bulk Modulus (GPa) = 58.03811 58.52221 58.28016
# Shear Modulus (GPa) = 30.03478 31.49276 30.76377
#
# Velocity S-wave (km/s) = 3.73943 3.82912 3.78454
# Velocity P-wave (km/s) = 6.75762 6.84075 6.79931
#
# Compressibility (1/GPa) = 0.01723006
#
# Stress axis : x y z
#
# Youngs Moduli (GPa) = 71.82095 79.33281 54.29436
#
# Poissons Ratio (x) = 0.12974 0.42265
# Poissons Ratio (y) = 0.11745 0.24099
# Poissons Ratio (z) = 0.55909 0.35212
#
# Static dielectric constant tensor:
#      x y z
#    x 3.834280 0.000000 0.000000 
#    y 0.000000 4.106040 0.000000 
#    z 0.000000 0.000000 3.687550 
# 
# 
# High freq. dielectric constant tensor:
#      x y z
#    x 1.841780 0.000000 0.000000 
#    y 0.000000 1.862620 0.000000 
#    z 0.000000 0.000000 1.829300 
# 
# From -- ./inp_files/8223.got.cif
#   From: 2010.03.12/outbox.cif.g09.slc.cpg/sg33_5_cif.got.tgz:8223.got - 2010.04.14 01:49:19.
