data_PCOD8171201
_publ_section_title
;
Structure prediction by ZEFSAII (Michael W. Deem and Ramdas Pophale) SiO2 
 PCOD8171201
Probable space group: P N A 21
;
_chemical_formula_sum "Si O2"
_cell_formula_units_Z 32
_cell_length_a 13.884778
_cell_length_b 9.062356
_cell_length_c 11.268132
_cell_angle_alpha 90.000000
_cell_angle_beta 90.000000
_cell_angle_gamma 90.000000
_cell_volume 1417.855542
_symmetry_space_group_name_H-M "P N A 21"
_symmetry_group_IT_number 33
_symmetry_cell_setting 'orthorhombic'
loop_
_space_group_symop_operation_xyz
x,y,z
-x,-y,1/2+z
1/2-x,1/2+y,1/2+z
1/2+x,1/2-y,z
loop_
_atom_site_type_symbol
_atom_site_label
_atom_site_fract_x
_atom_site_fract_y
_atom_site_fract_z
Si Si1 0.209989 0.718997 0.434080
Si Si2 0.255293 0.503940 0.785184
Si Si3 0.175416 0.376113 0.106930
Si Si4 0.386295 0.748240 0.843796
Si Si5 0.314072 0.553476 0.233339
Si Si6 0.354267 0.828560 0.099695
Si Si7 0.969729 0.396383 0.052208
Si Si8 0.408278 0.245102 0.284313
O O1 0.261869 0.731782 0.564538
O O2 0.259209 0.601345 0.351124
O O3 0.099061 0.663843 0.446160
O O4 0.229387 0.884226 0.388248
O O5 0.356251 0.590763 0.786346
O O6 0.234329 0.420066 0.660378
O O7 0.170293 0.621045 0.818541
O O8 0.142188 0.365535 0.243870
O O9 0.244351 0.519321 0.119904
O O10 0.083540 0.397036 0.018714
O O11 0.500664 0.756217 0.874790
O O12 0.327754 0.781557 0.965322
O O13 0.380444 0.687327 0.182620
O O14 0.369258 0.410055 0.277346
O O15 0.445033 0.938148 0.094212
O O16 0.955843 0.281361 0.157140
#
# Coordination Sequence:
#
# PCOD8171201 Si02
#       8
#     4   4   4   4   4   4   4   4
#     4  11  23  41  69  95 136 178 220 288 343 415
#     4  10  22  43  66  97 135 178 228 280 343 414
#     4  11  22  41  68  95 132 184 221 278 351 404
#     4  11  22  40  69  97 132 179 224 284 344 405
#     4  11  22  45  66  98 136 180 229 285 352 412
#     4  10  23  43  66  95 137 176 226 286 337 419
#     4  10  22  41  64  95 133 176 227 279 332 415
#     4  10  22  42  64  94 137 171 227 280 336 412
#
# _framework density 22.569296000000001
#
# number of rings (size 3 to 8) (size 9 to 14) (size 15 to 20)
#    0.000    1.500    2.500    2.250    1.750    1.000 
#   11.250    0.000    0.000    0.000    0.000    0.000 
#    0.000    0.000    0.000    0.000    0.000    0.000 
#
# Total GULP energy -396423.761936 kJ/mol
# GULP energy per Si atom -12388.242560 kJ/mol
# Density = 2.251793 g / cm^3
# Si number density = 22.569296 Si / 1000 Ang^3
#
#
#
# Elastic Constant Matrix: (Units=GPa)
#
#
# Indices 1 2 3 4 5 6 
#
# 1 110.7144 47.1620 33.0543 0.0000 0.0000 0.0000
# 2 47.1620 138.8801 34.5829 0.0000 0.0000 0.0000
# 3 33.0543 34.5829 90.2676 0.0000 0.0000 0.0000
# 4 0.0000 0.0000 0.0000 40.2663 0.0000 0.0000
# 5 0.0000 0.0000 0.0000 0.0000 26.7528 0.0000
# 6 0.0000 0.0000 0.0000 0.0000 0.0000 19.3006
#
#
#
# Elastic Compliance Matrix: (Units=1/GPa)
#
#
# Indices 1 2 3 4 5 6 
#
# 1 0.011219 -0.003081 -0.002928 0.000000 0.000000 0.000000
# 2 -0.003081 0.008806 -0.002246 0.000000 0.000000 0.000000
# 3 -0.002928 -0.002246 0.013011 0.000000 0.000000 0.000000
# 4 0.000000 0.000000 0.000000 0.024835 0.000000 0.000000
# 5 0.000000 0.000000 0.000000 0.000000 0.037379 0.000000
# 6 0.000000 0.000000 0.000000 0.000000 0.000000 0.051812
#
#
# Mechanical properties :
#
#
# Convention : Reuss Voigt Hill
#
# Bulk Modulus (GPa) = 60.50710 63.27338 61.89024
# Shear Modulus (GPa) = 29.57217 32.26813 30.92015
#
# Velocity S-wave (km/s) = 3.62371 3.78529 3.70538
# Velocity P-wave (km/s) = 6.66154 6.87027 6.76671
#
# Compressibility (1/GPa) = 0.01652698
#
# Stress axis : x y z
#
# Youngs Moduli (GPa) = 89.13723 113.56181 76.86045
#
# Poissons Ratio (x) = 0.34985 0.22503
# Poissons Ratio (y) = 0.27460 0.17259
# Poissons Ratio (z) = 0.26098 0.25501
#
# Static dielectric constant tensor:
#      x y z
#    x 4.327820 0.000000 0.000000 
#    y 0.000000 4.182130 0.000000 
#    z 0.000000 0.000000 4.073180 
# 
# 
# High freq. dielectric constant tensor:
#      x y z
#    x 1.872080 0.000000 0.000000 
#    y 0.000000 1.900270 0.000000 
#    z 0.000000 0.000000 1.885980 
# 
# From -- ./inp_files/6815.got.cif
#   From: 2010.03.12/outbox.cif.g09.slc.cpg/sg33_4_cif.got.tgz:6815.got - 2010.04.14 01:49:19.
