data_PCOD8171081
_publ_section_title
;
Structure prediction by ZEFSAII (Michael W. Deem and Ramdas Pophale) SiO2 
 PCOD8171081
Probable space group: P N A 21
;
_chemical_formula_sum "Si O2"
_cell_formula_units_Z 20
_cell_length_a 8.304503
_cell_length_b 16.573285
_cell_length_c 5.873048
_cell_angle_alpha 90.000000
_cell_angle_beta 90.000000
_cell_angle_gamma 90.000000
_cell_volume 808.324599
_symmetry_space_group_name_H-M "P N A 21"
_symmetry_group_IT_number 33
_symmetry_cell_setting 'orthorhombic'
loop_
_space_group_symop_operation_xyz
x,y,z
-x,-y,1/2+z
1/2-x,1/2+y,1/2+z
1/2+x,1/2-y,z
loop_
_atom_site_type_symbol
_atom_site_label
_atom_site_fract_x
_atom_site_fract_y
_atom_site_fract_z
Si Si1 0.602459 0.355970 0.358450
Si Si2 0.698035 0.967022 0.618897
Si Si3 0.288270 0.279142 0.144840
Si Si4 0.813990 0.332021 0.750418
Si Si5 0.939363 0.611070 0.904408
O O1 0.633319 0.445756 0.252137
O O2 0.437331 0.321182 0.267512
O O3 0.757463 0.307559 0.257018
O O4 0.638536 0.346779 0.627219
O O5 0.665486 0.909036 0.407612
O O6 0.555560 0.957216 0.803203
O O7 0.701727 0.060338 0.535638
O O8 0.133661 0.335207 0.197880
O O9 0.312067 0.256255 0.877853
O O10 0.967500 0.330264 0.580351
#
# Coordination Sequence:
#
# PCOD8171081 Si02
#       5
#     4   4   4   4   4
#     4  10  23  42  64 102 136 177 240 286 355 414
#     4  10  21  41  67  98 135 187 236 285 354 433
#     4  11  24  43  68 102 139 184 240 290 353 427
#     4  10  22  44  70  96 143 183 232 301 341 427
#     4  11  22  42  71 100 139 191 240 286 367 421
#
# _framework density 24.742536000000001
#
# number of rings (size 3 to 8) (size 9 to 14) (size 15 to 20)
#    0.000    1.600    2.000    3.600    0.000    9.600 
#    3.600    2.000    0.000    0.000    0.000    0.000 
#    0.000    0.000    0.000    0.000    0.000    0.000 
#
# Total GULP energy -247764.872447 kJ/mol
# GULP energy per Si atom -12388.243622 kJ/mol
# Density = 2.468622 g / cm^3
# Si number density = 24.742536 Si / 1000 Ang^3
#
#
#
# Elastic Constant Matrix: (Units=GPa)
#
#
# Indices 1 2 3 4 5 6 
#
# 1 61.4221 8.5363 38.6084 0.0000 0.0000 0.0000
# 2 8.5363 81.9256 40.7551 0.0000 0.0000 0.0000
# 3 38.6084 40.7551 98.6100 0.0000 0.0000 0.0000
# 4 0.0000 0.0000 0.0000 45.5434 0.0000 0.0000
# 5 0.0000 0.0000 0.0000 0.0000 28.0453 0.0000
# 6 0.0000 0.0000 0.0000 0.0000 0.0000 33.1945
#
#
#
# Elastic Compliance Matrix: (Units=1/GPa)
#
#
# Indices 1 2 3 4 5 6 
#
# 1 0.021997 0.002508 -0.009649 0.000000 0.000000 0.000000
# 2 0.002508 0.015651 -0.007451 0.000000 0.000000 0.000000
# 3 -0.009649 -0.007451 0.016998 0.000000 0.000000 0.000000
# 4 0.000000 0.000000 0.000000 0.021957 0.000000 0.000000
# 5 0.000000 0.000000 0.000000 0.000000 0.035657 0.000000
# 6 0.000000 0.000000 0.000000 0.000000 0.000000 0.030125
#
#
# Mechanical properties :
#
#
# Convention : Reuss Voigt Hill
#
# Bulk Modulus (GPa) = 39.27186 46.41747 42.84467
# Shear Modulus (GPa) = 27.76897 31.62718 29.69807
#
# Velocity S-wave (km/s) = 3.35373 3.57914 3.46827
# Velocity P-wave (km/s) = 5.55908 5.99010 5.77861
#
# Compressibility (1/GPa) = 0.02546353
#
# Stress axis : x y z
#
# Youngs Moduli (GPa) = 45.45989 63.89257 58.82997
#
# Poissons Ratio (x) = -0.16025 0.56766
# Poissons Ratio (y) = -0.11402 0.43832
# Poissons Ratio (z) = 0.43865 0.47604
#
# Static dielectric constant tensor:
#      x y z
#    x 4.159950 0.000000 0.000000 
#    y 0.000000 4.417240 0.000000 
#    z 0.000000 0.000000 4.933350 
# 
# 
# High freq. dielectric constant tensor:
#      x y z
#    x 1.966970 0.000000 0.000000 
#    y 0.000000 1.970810 0.000000 
#    z 0.000000 0.000000 1.994160 
# 
# From -- ./inp_files/333.got.cif
#   From: 2010.03.12/outbox.cif.g09.slc.cpg/sg33_1_cif.got.tgz:333.got - 2010.04.14 01:49:19.
