data_PCOD8171616
_publ_section_title
;
Structure prediction by ZEFSAII (Michael W. Deem and Ramdas Pophale) SiO2 
 PCOD8171616
Probable space group: P N A 21
;
_chemical_formula_sum "Si O2"
_cell_formula_units_Z 24
_cell_length_a 27.802152
_cell_length_b 5.524541
_cell_length_c 6.821456
_cell_angle_alpha 90.000000
_cell_angle_beta 90.000000
_cell_angle_gamma 90.000000
_cell_volume 1047.735590
_symmetry_space_group_name_H-M "P N A 21"
_symmetry_group_IT_number 33
_symmetry_cell_setting 'orthorhombic'
loop_
_space_group_symop_operation_xyz
x,y,z
-x,-y,1/2+z
1/2-x,1/2+y,1/2+z
1/2+x,1/2-y,z
loop_
_atom_site_type_symbol
_atom_site_label
_atom_site_fract_x
_atom_site_fract_y
_atom_site_fract_z
Si Si1 0.454523 0.244722 0.933410
Si Si2 0.290257 0.467441 0.427078
Si Si3 0.046941 0.242383 0.671968
Si Si4 0.639994 0.793176 0.208341
Si Si5 0.802835 0.371200 0.090661
Si Si6 0.860684 0.644750 0.380321
O O1 0.501750 0.204209 0.807163
O O2 0.409906 0.307481 0.791666
O O3 0.461204 0.487196 0.062717
O O4 0.445784 0.987916 0.043869
O O5 0.337553 0.370632 0.538897
O O6 0.241845 0.445586 0.555416
O O7 0.280747 0.348177 0.215829
O O8 0.307454 0.738208 0.383871
O O9 0.093848 0.199011 0.808475
O O10 0.679971 0.798465 0.375738
O O11 0.628432 0.046331 0.098690
O O12 0.850543 0.454592 0.205667
#
# Coordination Sequence:
#
# PCOD8171616 Si02
#       6
#     4   4   4   4   4   4
#     4  12  27  47  75 106 147 190 241 305 365 441
#     4  11  25  39  71  97 145 186 244 299 358 436
#     4  12  27  47  75 106 147 188 245 299 371 437
#     4  11  25  43  70 101 142 188 241 300 368 427
#     4  11  23  45  63 106 138 191 241 299 363 429
#     4  11  25  43  70 100 143 185 244 300 363 436
#
# _framework density 22.906542999999999
#
# number of rings (size 3 to 8) (size 9 to 14) (size 15 to 20)
#    0.000    0.667    1.667    5.000    7.000    6.667 
#    0.000    0.000    0.000    0.000    0.000    0.000 
#    0.000    0.000    0.000    0.000    0.000    0.000 
#
# Total GULP energy -297344.957719 kJ/mol
# GULP energy per Si atom -12389.373238 kJ/mol
# Density = 2.285441 g / cm^3
# Si number density = 22.906543 Si / 1000 Ang^3
#
#
#
# Elastic Constant Matrix: (Units=GPa)
#
#
# Indices 1 2 3 4 5 6 
#
# 1 139.6184 8.4184 45.7250 0.0000 0.0000 0.0000
# 2 8.4184 86.8179 33.2653 0.0000 0.0000 0.0000
# 3 45.7250 33.2653 128.5071 0.0000 0.0000 0.0000
# 4 0.0000 0.0000 0.0000 25.9676 0.0000 0.0000
# 5 0.0000 0.0000 0.0000 0.0000 50.4658 0.0000
# 6 0.0000 0.0000 0.0000 0.0000 0.0000 32.9532
#
#
#
# Elastic Compliance Matrix: (Units=1/GPa)
#
#
# Indices 1 2 3 4 5 6 
#
# 1 0.008117 0.000355 -0.002980 0.000000 0.000000 0.000000
# 2 0.000355 0.012802 -0.003440 0.000000 0.000000 0.000000
# 3 -0.002980 -0.003440 0.009733 0.000000 0.000000 0.000000
# 4 0.000000 0.000000 0.000000 0.038510 0.000000 0.000000
# 5 0.000000 0.000000 0.000000 0.000000 0.019815 0.000000
# 6 0.000000 0.000000 0.000000 0.000000 0.000000 0.030346
#
#
# Mechanical properties :
#
#
# Convention : Reuss Voigt Hill
#
# Bulk Modulus (GPa) = 53.99346 58.86230 56.42788
# Shear Modulus (GPa) = 36.33009 39.71295 38.02152
#
# Velocity S-wave (km/s) = 3.98680 4.16828 4.07855
# Velocity P-wave (km/s) = 6.69441 6.99418 6.84594
#
# Compressibility (1/GPa) = 0.01852076
#
# Stress axis : x y z
#
# Youngs Moduli (GPa) = 123.19928 78.11212 102.74840
#
# Poissons Ratio (x) = -0.02771 0.30619
# Poissons Ratio (y) = -0.04370 0.35347
# Poissons Ratio (z) = 0.36713 0.26872
#
# Static dielectric constant tensor:
#      x y z
#    x 4.129800 0.000000 0.000000 
#    y 0.000000 4.062660 0.000000 
#    z 0.000000 0.000000 4.210010 
# 
# 
# High freq. dielectric constant tensor:
#      x y z
#    x 1.924380 0.000000 0.000000 
#    y 0.000000 1.893190 0.000000 
#    z 0.000000 0.000000 1.920890 
# 
# From -- ./inp_files/2365.got.cif
#   From: 2010.03.12/outbox.cif.g09.slc.cpg/sg33_2_cif.got.tgz:2365.got - 2010.04.14 01:49:19.
