data_PCOD8171041
_publ_section_title
;
Structure prediction by ZEFSAII (Michael W. Deem and Ramdas Pophale) SiO2 
 PCOD8171041
Probable space group: P N A 21
;
_chemical_formula_sum "Si O2"
_cell_formula_units_Z 20
_cell_length_a 9.668042
_cell_length_b 10.775163
_cell_length_c 7.611032
_cell_angle_alpha 90.000000
_cell_angle_beta 90.000000
_cell_angle_gamma 90.000000
_cell_volume 792.877192
_symmetry_space_group_name_H-M "P N A 21"
_symmetry_group_IT_number 33
_symmetry_cell_setting 'orthorhombic'
loop_
_space_group_symop_operation_xyz
x,y,z
-x,-y,1/2+z
1/2-x,1/2+y,1/2+z
1/2+x,1/2-y,z
loop_
_atom_site_type_symbol
_atom_site_label
_atom_site_fract_x
_atom_site_fract_y
_atom_site_fract_z
Si Si1 0.816822 0.977735 0.386720
Si Si2 0.259096 0.284417 0.013828
Si Si3 0.897030 0.051790 0.746298
Si Si4 0.336073 0.124539 0.306551
Si Si5 0.077397 0.498856 0.124460
O O1 0.816901 0.842272 0.471114
O O2 0.939919 0.982061 0.243412
O O3 0.848520 0.074941 0.544894
O O4 0.667636 0.996481 0.301092
O O5 0.328322 0.260938 0.211019
O O6 0.137788 0.385207 0.011582
O O7 0.371182 0.325960 0.867225
O O8 0.815965 0.934105 0.829890
O O9 0.420134 0.030654 0.175536
O O10 0.409983 0.122910 0.500011
#
# Coordination Sequence:
#
# PCOD8171041 Si02
#       5
#     4   4   4   4   4
#     4  11  23  41  65  92 126 168 213 264 318 378
#     4  10  22  40  64  94 126 164 208 264 320 382
#     4  10  21  40  64  92 126 164 210 261 314 378
#     4  10  21  40  64  92 126 164 210 261 314 378
#     4  11  23  41  65  92 126 168 213 264 318 378
#
# _framework density 25.224588000000001
#
# number of rings (size 3 to 8) (size 9 to 14) (size 15 to 20)
#    0.000    1.600    0.000    6.000    0.000    4.800 
#    0.000    4.000    0.000    0.000    0.000    0.000 
#    0.000    0.000    0.000    0.000    0.000    0.000 
#
# Total GULP energy -247861.811486 kJ/mol
# GULP energy per Si atom -12393.090574 kJ/mol
# Density = 2.516718 g / cm^3
# Si number density = 25.224588 Si / 1000 Ang^3
#
#
#
# Elastic Constant Matrix: (Units=GPa)
#
#
# Indices 1 2 3 4 5 6 
#
# 1 60.7203 6.8162 -13.3559 0.0000 0.0000 0.0000
# 2 6.8162 53.0637 21.4641 0.0000 0.0000 0.0000
# 3 -13.3559 21.4641 115.1404 0.0000 0.0000 0.0000
# 4 0.0000 0.0000 0.0000 39.3860 0.0000 0.0000
# 5 0.0000 0.0000 0.0000 0.0000 47.3422 0.0000
# 6 0.0000 0.0000 0.0000 0.0000 0.0000 24.3775
#
#
#
# Elastic Compliance Matrix: (Units=1/GPa)
#
#
# Indices 1 2 3 4 5 6 
#
# 1 0.017420 -0.003304 0.002637 0.000000 0.000000 0.000000
# 2 -0.003304 0.021009 -0.004300 0.000000 0.000000 0.000000
# 3 0.002637 -0.004300 0.009792 0.000000 0.000000 0.000000
# 4 0.000000 0.000000 0.000000 0.025390 0.000000 0.000000
# 5 0.000000 0.000000 0.000000 0.000000 0.021123 0.000000
# 6 0.000000 0.000000 0.000000 0.000000 0.000000 0.041021
#
#
# Mechanical properties :
#
#
# Convention : Reuss Voigt Hill
#
# Bulk Modulus (GPa) = 26.11873 28.75258 27.43565
# Shear Modulus (GPa) = 31.55536 36.48781 34.02158
#
# Velocity S-wave (km/s) = 3.54075 3.80744 3.67651
# Velocity P-wave (km/s) = 5.20508 5.54546 5.37796
#
# Compressibility (1/GPa) = 0.03828671
#
# Stress axis : x y z
#
# Youngs Moduli (GPa) = 57.40595 47.59883 102.11982
#
# Poissons Ratio (x) = 0.15727 -0.26925
# Poissons Ratio (y) = 0.18968 0.43908
# Poissons Ratio (z) = -0.15136 0.20466
#
# Static dielectric constant tensor:
#      x y z
#    x 4.321360 0.000000 0.000000 
#    y 0.000000 4.342810 0.000000 
#    z 0.000000 0.000000 4.998010 
# 
# 
# High freq. dielectric constant tensor:
#      x y z
#    x 2.006020 0.000000 0.000000 
#    y 0.000000 1.970540 0.000000 
#    z 0.000000 0.000000 2.018860 
# 
# From -- ./inp_files/3001.got.cif
#   From: 2010.03.12/outbox.cif.g09.slc.cpg/sg33_2_cif.got.tgz:3001.got - 2010.04.14 01:49:19.
