data_PCOD8171012
_publ_section_title
;
Structure prediction by ZEFSAII (Michael W. Deem and Ramdas Pophale) SiO2 
 PCOD8171012
Probable space group: P N A 21
;
_chemical_formula_sum "Si O2"
_cell_formula_units_Z 28
_cell_length_a 10.002391
_cell_length_b 18.513531
_cell_length_c 6.545240
_cell_angle_alpha 90.000000
_cell_angle_beta 90.000000
_cell_angle_gamma 90.000000
_cell_volume 1212.044767
_symmetry_space_group_name_H-M "P N A 21"
_symmetry_group_IT_number 33
_symmetry_cell_setting 'orthorhombic'
loop_
_space_group_symop_operation_xyz
x,y,z
-x,-y,1/2+z
1/2-x,1/2+y,1/2+z
1/2+x,1/2-y,z
loop_
_atom_site_type_symbol
_atom_site_label
_atom_site_fract_x
_atom_site_fract_y
_atom_site_fract_z
Si Si1 0.775724 0.378368 0.919690
Si Si2 0.009746 0.162830 0.119844
Si Si3 0.906020 0.237902 0.748599
Si Si4 0.795316 0.129493 0.435599
Si Si5 0.631930 0.925746 0.018019
Si Si6 0.470252 0.802662 0.885701
Si Si7 0.855629 0.511186 0.143127
O O1 0.834919 0.298286 0.889601
O O2 0.753420 0.408777 0.686714
O O3 0.648581 0.377811 0.072664
O O4 0.876411 0.436065 0.020909
O O5 0.914135 0.116717 0.270905
O O6 0.027901 0.241378 0.216439
O O7 0.949214 0.173383 0.895812
O O8 0.814661 0.199407 0.578953
O O9 0.031406 0.271054 0.620031
O O10 0.656434 0.148406 0.324016
O O11 0.772912 0.055114 0.558662
O O12 0.603822 0.853636 0.879440
O O13 0.491033 0.942690 0.130766
O O14 0.677516 0.992590 0.879234
#
# Coordination Sequence:
#
# PCOD8171012 Si02
#       7
#     4   4   4   4   4   4   4
#     4  11  23  39  65  97 128 176 224 280 342 408
#     4  11  22  39  62  95 131 174 221 258 341 412
#     4  10  21  39  63  95 126 171 223 277 336 400
#     4  10  23  40  61  93 135 174 214 277 338 410
#     4  10  21  39  66  96 130 163 226 290 339 391
#     4   9  20  38  63  93 131 163 216 282 332 398
#     4  11  22  42  64  95 129 171 226 286 346 395
#
# _framework density 23.101457
#
# number of rings (size 3 to 8) (size 9 to 14) (size 15 to 20)
#    0.000    1.714    1.429    2.571    0.000    5.714 
#    5.143    0.000    0.000    0.000    0.000    0.000 
#    0.000    0.000    0.000    0.000    0.000    0.000 
#
# Total GULP energy -346912.853854 kJ/mol
# GULP energy per Si atom -12389.744781 kJ/mol
# Density = 2.304888 g / cm^3
# Si number density = 23.101457 Si / 1000 Ang^3
#
#
#
# Elastic Constant Matrix: (Units=GPa)
#
#
# Indices 1 2 3 4 5 6 
#
# 1 87.3910 24.4704 43.0023 0.0000 0.0000 0.0000
# 2 24.4704 85.3651 38.4888 0.0000 0.0000 0.0000
# 3 43.0023 38.4888 84.3207 0.0000 0.0000 0.0000
# 4 0.0000 0.0000 0.0000 49.7533 0.0000 0.0000
# 5 0.0000 0.0000 0.0000 0.0000 39.0801 0.0000
# 6 0.0000 0.0000 0.0000 0.0000 0.0000 17.2075
#
#
#
# Elastic Compliance Matrix: (Units=1/GPa)
#
#
# Indices 1 2 3 4 5 6 
#
# 1 0.015358 -0.001097 -0.007331 0.000000 0.000000 0.000000
# 2 -0.001097 0.014828 -0.006209 0.000000 0.000000 0.000000
# 3 -0.007331 -0.006209 0.018433 0.000000 0.000000 0.000000
# 4 0.000000 0.000000 0.000000 0.020099 0.000000 0.000000
# 5 0.000000 0.000000 0.000000 0.000000 0.025588 0.000000
# 6 0.000000 0.000000 0.000000 0.000000 0.000000 0.058114
#
#
# Mechanical properties :
#
#
# Convention : Reuss Voigt Hill
#
# Bulk Modulus (GPa) = 51.69650 52.11111 51.90381
# Shear Modulus (GPa) = 26.57555 31.28254 28.92904
#
# Velocity S-wave (km/s) = 3.39541 3.68385 3.54257
# Velocity P-wave (km/s) = 6.14804 6.37972 6.26495
#
# Compressibility (1/GPa) = 0.01934367
#
# Stress axis : x y z
#
# Youngs Moduli (GPa) = 65.11476 67.43846 54.25161
#
# Poissons Ratio (x) = 0.07396 0.39774
# Poissons Ratio (y) = 0.07142 0.33686
# Poissons Ratio (z) = 0.47739 0.41874
#
# Static dielectric constant tensor:
#      x y z
#    x 3.783980 0.000000 0.000000 
#    y 0.000000 4.173540 0.000000 
#    z 0.000000 0.000000 4.294350 
# 
# 
# High freq. dielectric constant tensor:
#      x y z
#    x 1.874710 0.000000 0.000000 
#    y 0.000000 1.913340 0.000000 
#    z 0.000000 0.000000 1.922950 
# 
# From -- ./inp_files/943.got.cif
#   From: 2010.03.12/outbox.cif.g09.slc.cpg/sg33_1_cif.got.tgz:943.got - 2010.04.14 01:49:19.
