data_PCOD8171389
_publ_section_title
;
Structure prediction by ZEFSAII (Michael W. Deem and Ramdas Pophale) SiO2 
 PCOD8171389
Probable space group: P N A 21
;
_chemical_formula_sum "Si O2"
_cell_formula_units_Z 28
_cell_length_a 14.475595
_cell_length_b 7.422504
_cell_length_c 11.251359
_cell_angle_alpha 90.000000
_cell_angle_beta 90.000000
_cell_angle_gamma 90.000000
_cell_volume 1208.904088
_symmetry_space_group_name_H-M "P N A 21"
_symmetry_group_IT_number 33
_symmetry_cell_setting 'orthorhombic'
loop_
_space_group_symop_operation_xyz
x,y,z
-x,-y,1/2+z
1/2-x,1/2+y,1/2+z
1/2+x,1/2-y,z
loop_
_atom_site_type_symbol
_atom_site_label
_atom_site_fract_x
_atom_site_fract_y
_atom_site_fract_z
Si Si1 0.622744 0.340761 0.119500
Si Si2 0.044155 0.819276 0.000139
Si Si3 0.194205 0.541631 0.541112
Si Si4 0.992802 0.475850 0.132801
Si Si5 0.729025 0.828711 0.046950
Si Si6 0.877001 0.969281 0.868330
Si Si7 0.630618 0.881708 0.291278
O O1 0.567758 0.526458 0.096418
O O2 0.719140 0.322845 0.048488
O O3 0.648922 0.338591 0.259280
O O4 0.562075 0.172113 0.077655
O O5 0.984946 0.658281 0.056333
O O6 0.143083 0.731533 0.960449
O O7 0.982314 0.911884 0.899451
O O8 0.220725 0.349041 0.595190
O O9 0.171336 0.510813 0.402210
O O10 0.109070 0.612750 0.622726
O O11 0.028208 0.533656 0.264539
O O12 0.688413 0.919004 0.168620
O O13 0.802747 0.951156 0.975760
O O14 0.877225 0.175240 0.828366
#
# Coordination Sequence:
#
# PCOD8171389 Si02
#       7
#     4   4   4   4   4   4   4
#     4  11  25  47  69 108 149 189 256 302 369 455
#     4  10  23  45  65 104 143 187 241 304 364 433
#     4  11  23  48  70 109 145 195 251 303 377 440
#     4  11  23  46  71 102 146 190 252 297 365 451
#     4  10  23  46  66 106 145 187 247 309 363 448
#     4  12  22  46  74 102 156 187 243 319 364 441
#     4  11  25  46  73 107 148 193 248 306 372 452
#
# _framework density 23.161473000000001
#
# number of rings (size 3 to 8) (size 9 to 14) (size 15 to 20)
#    0.000    1.143    5.714    1.714    4.000    1.143 
#   15.429    0.000    0.000    0.000    0.000    0.000 
#    0.000    0.000    0.000    0.000    0.000    0.000 
#
# Total GULP energy -346920.555213 kJ/mol
# GULP energy per Si atom -12390.019829 kJ/mol
# Density = 2.310876 g / cm^3
# Si number density = 23.161473 Si / 1000 Ang^3
#
#
#
# Elastic Constant Matrix: (Units=GPa)
#
#
# Indices 1 2 3 4 5 6 
#
# 1 146.7155 30.1043 43.6031 0.0000 0.0000 0.0000
# 2 30.1043 68.4613 5.3728 0.0000 0.0000 0.0000
# 3 43.6031 5.3728 100.5885 0.0000 0.0000 0.0000
# 4 0.0000 0.0000 0.0000 34.9634 0.0000 0.0000
# 5 0.0000 0.0000 0.0000 0.0000 41.9015 0.0000
# 6 0.0000 0.0000 0.0000 0.0000 0.0000 31.6344
#
#
#
# Elastic Compliance Matrix: (Units=1/GPa)
#
#
# Indices 1 2 3 4 5 6 
#
# 1 0.008584 -0.003497 -0.003534 0.000000 0.000000 0.000000
# 2 -0.003497 0.016093 0.000656 0.000000 0.000000 0.000000
# 3 -0.003534 0.000656 0.011438 0.000000 0.000000 0.000000
# 4 0.000000 0.000000 0.000000 0.028601 0.000000 0.000000
# 5 0.000000 0.000000 0.000000 0.000000 0.023865 0.000000
# 6 0.000000 0.000000 0.000000 0.000000 0.000000 0.031611
#
#
# Mechanical properties :
#
#
# Convention : Reuss Voigt Hill
#
# Bulk Modulus (GPa) = 42.79827 52.65842 47.72834
# Shear Modulus (GPa) = 35.52863 37.47888 36.50375
#
# Velocity S-wave (km/s) = 3.92082 4.02700 3.97426
# Velocity P-wave (km/s) = 6.24623 6.66385 6.45842
#
# Compressibility (1/GPa) = 0.02336543
#
# Stress axis : x y z
#
# Youngs Moduli (GPa) = 116.49842 62.13854 87.42482
#
# Poissons Ratio (x) = 0.21731 0.30897
# Poissons Ratio (y) = 0.40741 -0.05738
# Poissons Ratio (z) = 0.41172 -0.04079
#
# Static dielectric constant tensor:
#      x y z
#    x 4.418270 0.000000 0.000000 
#    y 0.000000 4.231670 0.000000 
#    z 0.000000 0.000000 4.095990 
# 
# 
# High freq. dielectric constant tensor:
#      x y z
#    x 1.923020 0.000000 0.000000 
#    y 0.000000 1.929940 0.000000 
#    z 0.000000 0.000000 1.887390 
# 
# From -- ./inp_files/6753.got.cif
#   From: 2010.03.12/outbox.cif.g09.slc.cpg/sg33_4_cif.got.tgz:6753.got - 2010.04.14 01:49:19.
