data_PCOD8171779
_publ_section_title
;
Structure prediction by ZEFSAII (Michael W. Deem and Ramdas Pophale) SiO2 
 PCOD8171779
Probable space group: P N A 21
;
_chemical_formula_sum "Si O2"
_cell_formula_units_Z 24
_cell_length_a 18.221620
_cell_length_b 9.277440
_cell_length_c 5.524779
_cell_angle_alpha 90.000000
_cell_angle_beta 90.000000
_cell_angle_gamma 90.000000
_cell_volume 933.963814
_symmetry_space_group_name_H-M "P N A 21"
_symmetry_group_IT_number 33
_symmetry_cell_setting 'orthorhombic'
loop_
_space_group_symop_operation_xyz
x,y,z
-x,-y,1/2+z
1/2-x,1/2+y,1/2+z
1/2+x,1/2-y,z
loop_
_atom_site_type_symbol
_atom_site_label
_atom_site_fract_x
_atom_site_fract_y
_atom_site_fract_z
Si Si1 0.880516 0.529893 0.552000
Si Si2 0.626761 0.763758 0.753221
Si Si3 0.475620 0.151289 0.876511
Si Si4 0.757288 0.724354 0.413357
Si Si5 0.537358 0.542482 0.231254
Si Si6 0.316568 0.478454 0.554303
O O1 0.843717 0.390300 0.426433
O O2 0.922876 0.481905 0.795283
O O3 0.813178 0.640508 0.595214
O O4 0.939623 0.603956 0.372230
O O5 0.546196 0.801639 0.650185
O O6 0.677773 0.746005 0.520433
O O7 0.628847 0.610080 0.879774
O O8 0.463489 0.282926 0.689214
O O9 0.747145 0.627606 0.167296
O O10 0.786056 0.889513 0.392426
O O11 0.504098 0.522872 0.499703
O O12 0.620883 0.475569 0.250202
#
# Coordination Sequence:
#
# PCOD8171779 Si02
#       6
#     4   4   4   4   4   4
#     4  12  26  48  79 113 155 214 267 331 408 491
#     4  12  25  49  77 107 161 205 262 340 399 487
#     4  12  26  48  80 113 157 209 273 332 404 484
#     4  12  28  49  77 117 153 219 260 332 414 506
#     4  12  27  49  79 116 161 210 269 341 406 479
#     4  12  28  49  78 110 163 203 269 330 415 485
#
# _framework density 25.696925
#
# number of rings (size 3 to 8) (size 9 to 14) (size 15 to 20)
#    0.000    0.000    6.667    2.000    4.667    1.333 
#    3.000    0.000    0.000    0.000    0.000    0.000 
#    0.000    0.000    0.000    0.000    0.000    0.000 
#
# Total GULP energy -297364.523753 kJ/mol
# GULP energy per Si atom -12390.188490 kJ/mol
# Density = 2.563844 g / cm^3
# Si number density = 25.696925 Si / 1000 Ang^3
#
#
#
# Elastic Constant Matrix: (Units=GPa)
#
#
# Indices 1 2 3 4 5 6 
#
# 1 82.9186 34.6262 11.7765 0.0000 0.0000 0.0000
# 2 34.6262 139.9207 30.7085 0.0000 0.0000 0.0000
# 3 11.7765 30.7085 78.9703 0.0000 0.0000 0.0000
# 4 0.0000 0.0000 0.0000 45.9797 0.0000 0.0000
# 5 0.0000 0.0000 0.0000 0.0000 22.4932 0.0000
# 6 0.0000 0.0000 0.0000 0.0000 0.0000 47.1512
#
#
#
# Elastic Compliance Matrix: (Units=1/GPa)
#
#
# Indices 1 2 3 4 5 6 
#
# 1 0.013494 -0.003168 -0.000780 0.000000 0.000000 0.000000
# 2 -0.003168 0.008558 -0.002855 0.000000 0.000000 0.000000
# 3 -0.000780 -0.002855 0.013890 0.000000 0.000000 0.000000
# 4 0.000000 0.000000 0.000000 0.021749 0.000000 0.000000
# 5 0.000000 0.000000 0.000000 0.000000 0.044458 0.000000
# 6 0.000000 0.000000 0.000000 0.000000 0.000000 0.021208
#
#
# Mechanical properties :
#
#
# Convention : Reuss Voigt Hill
#
# Bulk Modulus (GPa) = 44.77541 50.67025 47.72283
# Shear Modulus (GPa) = 34.62415 38.10470 36.36443
#
# Velocity S-wave (km/s) = 3.67468 3.85496 3.76590
# Velocity P-wave (km/s) = 5.95539 6.29090 6.12544
#
# Compressibility (1/GPa) = 0.02233369
#
# Stress axis : x y z
#
# Youngs Moduli (GPa) = 74.10808 116.85582 71.99600
#
# Poissons Ratio (x) = 0.37021 0.05618
# Poissons Ratio (y) = 0.23478 0.20557
# Poissons Ratio (z) = 0.05783 0.33365
#
# Static dielectric constant tensor:
#      x y z
#    x 4.905880 0.000000 0.000000 
#    y 0.000000 5.027710 0.000000 
#    z 0.000000 0.000000 4.265950 
# 
# 
# High freq. dielectric constant tensor:
#      x y z
#    x 2.033260 0.000000 0.000000 
#    y 0.000000 2.040050 0.000000 
#    z 0.000000 0.000000 2.005940 
# 
# From -- ./inp_files/1658.got.cif
#   From: 2010.03.12/outbox.cif.g09.slc.cpg/sg33_1_cif.got.tgz:1658.got - 2010.04.14 01:49:19.
