data_PCOD8171398
_publ_section_title
;
Structure prediction by ZEFSAII (Michael W. Deem and Ramdas Pophale) SiO2 
 PCOD8171398
Probable space group: P N A 21
;
_chemical_formula_sum "Si O2"
_cell_formula_units_Z 24
_cell_length_a 11.563978
_cell_length_b 11.225495
_cell_length_c 8.537230
_cell_angle_alpha 90.000000
_cell_angle_beta 90.000000
_cell_angle_gamma 90.000000
_cell_volume 1108.229584
_symmetry_space_group_name_H-M "P N A 21"
_symmetry_group_IT_number 33
_symmetry_cell_setting 'orthorhombic'
loop_
_space_group_symop_operation_xyz
x,y,z
-x,-y,1/2+z
1/2-x,1/2+y,1/2+z
1/2+x,1/2-y,z
loop_
_atom_site_type_symbol
_atom_site_label
_atom_site_fract_x
_atom_site_fract_y
_atom_site_fract_z
Si Si1 0.564282 0.613504 0.102770
Si Si2 0.405922 0.141195 0.722251
Si Si3 0.917532 0.519454 0.007134
Si Si4 0.807110 0.975781 0.091692
Si Si5 0.261086 0.559700 0.752270
Si Si6 0.230415 0.828278 0.832080
O O1 0.570457 0.717321 0.234233
O O2 0.432966 0.580444 0.068689
O O3 0.630312 0.494230 0.156762
O O4 0.621007 0.672089 0.948229
O O5 0.449307 0.085814 0.886076
O O6 0.269421 0.117422 0.693313
O O7 0.468528 0.083338 0.571296
O O8 0.840027 0.615498 0.918207
O O9 0.855466 0.464822 0.158479
O O10 0.809995 0.101066 0.179167
O O11 0.753544 0.002155 0.921616
O O12 0.273706 0.700238 0.776569
#
# Coordination Sequence:
#
# PCOD8171398 Si02
#       6
#     4   4   4   4   4   4
#     4  11  24  42  70 102 139 182 229 299 349 419
#     4  11  23  43  67  99 137 184 233 294 349 424
#     4  10  24  43  67 100 132 185 238 280 365 418
#     4  11  23  43  67  99 135 185 234 283 359 414
#     4  11  23  44  68  99 136 181 229 296 353 420
#     4  10  23  45  69  99 141 179 233 292 353 423
#
# _framework density 21.656164
#
# number of rings (size 3 to 8) (size 9 to 14) (size 15 to 20)
#    0.000    1.333    1.667    3.000    4.667    0.000 
#    3.000    3.333    0.000    0.000    0.000    0.000 
#    0.000    0.000    0.000    0.000    0.000    0.000 
#
# Total GULP energy -297665.644263 kJ/mol
# GULP energy per Si atom -12402.735178 kJ/mol
# Density = 2.160687 g / cm^3
# Si number density = 21.656164 Si / 1000 Ang^3
#
#
#
# Elastic Constant Matrix: (Units=GPa)
#
#
# Indices 1 2 3 4 5 6 
#
# 1 98.8332 48.8879 32.8497 0.0000 0.0000 0.0000
# 2 48.8879 151.9244 67.7707 0.0000 0.0000 0.0000
# 3 32.8497 67.7707 103.1640 0.0000 0.0000 0.0000
# 4 0.0000 0.0000 0.0000 37.0607 0.0000 0.0000
# 5 0.0000 0.0000 0.0000 0.0000 26.3454 0.0000
# 6 0.0000 0.0000 0.0000 0.0000 0.0000 24.1604
#
#
#
# Elastic Compliance Matrix: (Units=1/GPa)
#
#
# Indices 1 2 3 4 5 6 
#
# 1 0.012281 -0.003122 -0.001859 0.000000 0.000000 0.000000
# 2 -0.003122 0.010104 -0.005644 0.000000 0.000000 0.000000
# 3 -0.001859 -0.005644 0.013993 0.000000 0.000000 0.000000
# 4 0.000000 0.000000 0.000000 0.026983 0.000000 0.000000
# 5 0.000000 0.000000 0.000000 0.000000 0.037957 0.000000
# 6 0.000000 0.000000 0.000000 0.000000 0.000000 0.041390
#
#
# Mechanical properties :
#
#
# Convention : Reuss Voigt Hill
#
# Bulk Modulus (GPa) = 66.10578 72.54870 69.32724
# Shear Modulus (GPa) = 29.58566 31.14085 30.36325
#
# Velocity S-wave (km/s) = 3.70016 3.79617 3.74847
# Velocity P-wave (km/s) = 6.98902 7.26550 7.12860
#
# Compressibility (1/GPa) = 0.01512727
#
# Stress axis : x y z
#
# Youngs Moduli (GPa) = 81.42983 98.96583 71.46563
#
# Poissons Ratio (x) = 0.30901 0.13287
# Poissons Ratio (y) = 0.25426 0.40333
# Poissons Ratio (z) = 0.15140 0.55853
#
# Static dielectric constant tensor:
#      x y z
#    x 3.843850 0.000000 0.000000 
#    y 0.000000 3.839150 0.000000 
#    z 0.000000 0.000000 4.098630 
# 
# 
# High freq. dielectric constant tensor:
#      x y z
#    x 1.854050 0.000000 0.000000 
#    y 0.000000 1.848850 0.000000 
#    z 0.000000 0.000000 1.857480 
# 
# From -- ./inp_files/3775.got.cif
#   From: 2010.03.12/outbox.cif.g09.slc.cpg/sg33_2_cif.got.tgz:3775.got - 2010.04.14 01:49:19.
