data_PCOD8171664
_publ_section_title
;
Structure prediction by ZEFSAII (Michael W. Deem and Ramdas Pophale) SiO2 
 PCOD8171664
Probable space group: P N A 21
;
_chemical_formula_sum "Si O2"
_cell_formula_units_Z 28
_cell_length_a 9.111651
_cell_length_b 11.194450
_cell_length_c 12.265958
_cell_angle_alpha 90.000000
_cell_angle_beta 90.000000
_cell_angle_gamma 90.000000
_cell_volume 1251.126754
_symmetry_space_group_name_H-M "P N A 21"
_symmetry_group_IT_number 33
_symmetry_cell_setting 'orthorhombic'
loop_
_space_group_symop_operation_xyz
x,y,z
-x,-y,1/2+z
1/2-x,1/2+y,1/2+z
1/2+x,1/2-y,z
loop_
_atom_site_type_symbol
_atom_site_label
_atom_site_fract_x
_atom_site_fract_y
_atom_site_fract_z
Si Si1 0.338532 0.526831 0.440340
Si Si2 0.475905 0.962490 0.236274
Si Si3 0.948673 0.617236 0.928364
Si Si4 0.104918 0.120163 0.390912
Si Si5 0.796609 0.398295 0.584949
Si Si6 0.337512 0.495776 0.676237
Si Si7 0.074452 0.194404 0.749935
O O1 0.170551 0.485882 0.447707
O O2 0.434886 0.415795 0.397311
O O3 0.391323 0.557032 0.563723
O O4 0.359142 0.640046 0.361756
O O5 0.628239 0.993400 0.169444
O O6 0.332608 0.959838 0.159523
O O7 0.485523 0.825446 0.279967
O O8 0.454432 0.061763 0.330011
O O9 0.866788 0.739209 0.899765
O O10 0.055469 0.655042 0.028780
O O11 0.195608 0.049863 0.487067
O O12 0.161521 0.091071 0.271741
O O13 0.700459 0.304695 0.655699
O O14 0.436938 0.382151 0.706865
#
# Coordination Sequence:
#
# PCOD8171664 Si02
#       7
#     4   4   4   4   4   4   4
#     4  11  24  44  67  96 135 178 220 272 337 403
#     4  12  25  42  68 102 135 174 226 275 332 397
#     4  12  25  42  68 102 135 174 226 275 332 397
#     4  11  25  43  68 101 132 175 225 274 338 398
#     4  12  22  42  70 102 130 168 226 282 320 390
#     4  11  24  44  67  96 135 178 220 272 337 403
#     4  11  25  43  68 101 132 175 225 274 338 398
#
# _framework density 22.379828
#
# number of rings (size 3 to 8) (size 9 to 14) (size 15 to 20)
#    0.000    0.571    5.714    2.571    4.000    0.000 
#    2.571    0.000    0.000    0.000    0.000    0.000 
#    0.000    0.000    0.000    0.000    0.000    0.000 
#
# Total GULP energy -346892.211492 kJ/mol
# GULP energy per Si atom -12389.007553 kJ/mol
# Density = 2.232889 g / cm^3
# Si number density = 22.379828 Si / 1000 Ang^3
#
#
#
# Elastic Constant Matrix: (Units=GPa)
#
#
# Indices 1 2 3 4 5 6 
#
# 1 107.5663 12.2285 25.9053 0.0000 0.0000 0.0000
# 2 12.2285 63.4111 44.1750 0.0000 0.0000 0.0000
# 3 25.9053 44.1750 139.4015 0.0000 0.0000 0.0000
# 4 0.0000 0.0000 0.0000 14.7767 0.0000 0.0000
# 5 0.0000 0.0000 0.0000 0.0000 40.0276 0.0000
# 6 0.0000 0.0000 0.0000 0.0000 0.0000 22.0378
#
#
#
# Elastic Compliance Matrix: (Units=1/GPa)
#
#
# Indices 1 2 3 4 5 6 
#
# 1 0.009763 -0.000794 -0.001563 0.000000 0.000000 0.000000
# 2 -0.000794 0.020302 -0.006286 0.000000 0.000000 0.000000
# 3 -0.001563 -0.006286 0.009456 0.000000 0.000000 0.000000
# 4 0.000000 0.000000 0.000000 0.067674 0.000000 0.000000
# 5 0.000000 0.000000 0.000000 0.000000 0.024983 0.000000
# 6 0.000000 0.000000 0.000000 0.000000 0.000000 0.045377
#
#
# Mechanical properties :
#
#
# Convention : Reuss Voigt Hill
#
# Bulk Modulus (GPa) = 44.97260 52.77739 48.87499
# Shear Modulus (GPa) = 24.72153 30.57308 27.64731
#
# Velocity S-wave (km/s) = 3.32721 3.70009 3.51859
# Velocity P-wave (km/s) = 5.90756 6.47209 6.19626
#
# Compressibility (1/GPa) = 0.02223576
#
# Stress axis : x y z
#
# Youngs Moduli (GPa) = 102.42528 49.25526 105.75404
#
# Poissons Ratio (x) = 0.03912 0.16526
# Poissons Ratio (y) = 0.08134 0.66478
# Poissons Ratio (z) = 0.16006 0.30962
#
# Static dielectric constant tensor:
#      x y z
#    x 4.289530 0.000000 0.000000 
#    y 0.000000 3.444270 0.000000 
#    z 0.000000 0.000000 4.357750 
# 
# 
# High freq. dielectric constant tensor:
#      x y z
#    x 1.909820 0.000000 0.000000 
#    y 0.000000 1.825780 0.000000 
#    z 0.000000 0.000000 1.899320 
# 
# From -- ./inp_files/5844.got.cif
#   From: 2010.03.12/outbox.cif.g09.slc.cpg/sg33_3_cif.got.tgz:5844.got - 2010.04.14 01:49:19.
