data_PCOD8171346
_publ_section_title
;
Structure prediction by ZEFSAII (Michael W. Deem and Ramdas Pophale) SiO2 
 PCOD8171346
Probable space group: P N A 21
;
_chemical_formula_sum "Si O2"
_cell_formula_units_Z 32
_cell_length_a 9.513348
_cell_length_b 7.617068
_cell_length_c 21.712682
_cell_angle_alpha 90.000000
_cell_angle_beta 90.000000
_cell_angle_gamma 90.000000
_cell_volume 1573.383850
_symmetry_space_group_name_H-M "P N A 21"
_symmetry_group_IT_number 33
_symmetry_cell_setting 'orthorhombic'
loop_
_space_group_symop_operation_xyz
x,y,z
-x,-y,1/2+z
1/2-x,1/2+y,1/2+z
1/2+x,1/2-y,z
loop_
_atom_site_type_symbol
_atom_site_label
_atom_site_fract_x
_atom_site_fract_y
_atom_site_fract_z
Si Si1 0.449847 0.052782 0.911250
Si Si2 0.279509 0.403428 0.911045
Si Si3 0.898849 0.248411 0.574979
Si Si4 0.268954 0.395732 0.772030
Si Si5 0.852758 0.776538 0.990919
Si Si6 0.046626 0.570042 0.271772
Si Si7 0.534336 0.095087 0.146382
Si Si8 0.789108 0.925657 0.650324
O O1 0.349331 0.216702 0.927337
O O2 0.612267 0.103787 0.924192
O O3 0.425255 0.994413 0.840155
O O4 0.404273 0.892435 0.953558
O O5 0.311686 0.455762 0.840370
O O6 0.360465 0.550060 0.949714
O O7 0.806478 0.252622 0.513049
O O8 0.898323 0.434228 0.609505
O O9 0.054379 0.197730 0.552270
O O10 0.841161 0.105920 0.621681
O O11 0.346576 0.220089 0.752276
O O12 0.301326 0.553167 0.724387
O O13 0.106266 0.342227 0.769466
O O14 0.058370 0.420143 0.220022
O O15 0.370365 0.112951 0.129874
O O16 0.614025 0.269840 0.125117
#
# Coordination Sequence:
#
# PCOD8171346 Si02
#       8
#     4   4   4   4   4   4   4   4
#     4  10  23  42  66  98 129 169 214 264 321 379
#     4  10  23  42  66  97 130 168 213 266 321 380
#     4  12  26  46  64  91 133 176 215 261 316 382
#     4   9  19  39  65  95 130 164 207 265 325 378
#     4  12  26  44  66  91 133 176 215 259 314 390
#     4   9  19  39  65  95 132 162 208 266 322 379
#     4  11  25  42  66  98 128 170 215 266 321 382
#     4  11  25  42  66  97 129 169 215 265 324 382
#
# _framework density 20.338329999999999
#
# number of rings (size 3 to 8) (size 9 to 14) (size 15 to 20)
#    0.000    1.500    3.750    0.000    5.250    3.000 
#    0.000    0.000    0.000    0.000    0.000    0.000 
#    0.000    0.000    0.000    0.000    0.000    0.000 
#
# Total GULP energy -396844.450564 kJ/mol
# GULP energy per Si atom -12401.389080 kJ/mol
# Density = 2.029204 g / cm^3
# Si number density = 20.338330 Si / 1000 Ang^3
#
#
#
# Elastic Constant Matrix: (Units=GPa)
#
#
# Indices 1 2 3 4 5 6 
#
# 1 89.1678 51.1551 32.6149 0.0000 0.0000 0.0000
# 2 51.1551 96.5793 39.7206 0.0000 0.0000 0.0000
# 3 32.6149 39.7206 79.0033 0.0000 0.0000 0.0000
# 4 0.0000 0.0000 0.0000 28.2745 0.0000 0.0000
# 5 0.0000 0.0000 0.0000 0.0000 34.1782 0.0000
# 6 0.0000 0.0000 0.0000 0.0000 0.0000 36.3277
#
#
#
# Elastic Compliance Matrix: (Units=1/GPa)
#
#
# Indices 1 2 3 4 5 6 
#
# 1 0.016685 -0.007570 -0.003082 0.000000 0.000000 0.000000
# 2 -0.007570 0.016488 -0.005164 0.000000 0.000000 0.000000
# 3 -0.003082 -0.005164 0.016527 0.000000 0.000000 0.000000
# 4 0.000000 0.000000 0.000000 0.035368 0.000000 0.000000
# 5 0.000000 0.000000 0.000000 0.000000 0.029258 0.000000
# 6 0.000000 0.000000 0.000000 0.000000 0.000000 0.027527
#
#
# Mechanical properties :
#
#
# Convention : Reuss Voigt Hill
#
# Bulk Modulus (GPa) = 55.35158 56.85908 56.10533
# Shear Modulus (GPa) = 27.85395 29.17339 28.51367
#
# Velocity S-wave (km/s) = 3.70473 3.79146 3.74835
# Velocity P-wave (km/s) = 6.75089 6.86908 6.81024
#
# Compressibility (1/GPa) = 0.01806633
#
# Stress axis : x y z
#
# Youngs Moduli (GPa) = 59.93412 60.65106 60.50841
#
# Poissons Ratio (x) = 0.45912 0.18649
# Poissons Ratio (y) = 0.45370 0.31249
# Poissons Ratio (z) = 0.18472 0.31323
#
# Static dielectric constant tensor:
#      x y z
#    x 3.841780 0.000000 0.000000 
#    y 0.000000 3.427430 0.000000 
#    z 0.000000 0.000000 3.855150 
# 
# 
# High freq. dielectric constant tensor:
#      x y z
#    x 1.805590 0.000000 0.000000 
#    y 0.000000 1.781080 0.000000 
#    z 0.000000 0.000000 1.805740 
# 
# From -- ./inp_files/8953.got.cif
#   From: 2010.03.12/outbox.cif.g09.slc.cpg/sg33_5_cif.got.tgz:8953.got - 2010.04.14 01:49:19.
