data_PCOD8171890
_publ_section_title
;
Structure prediction by ZEFSAII (Michael W. Deem and Ramdas Pophale) SiO2 
 PCOD8171890
Probable space group: P N N 2
;
_chemical_formula_sum "Si O2"
_cell_formula_units_Z 30
_cell_length_a 7.965065
_cell_length_b 21.303540
_cell_length_c 8.061466
_cell_angle_alpha 90.000000
_cell_angle_beta 90.000000
_cell_angle_gamma 90.000000
_cell_volume 1367.902448
_symmetry_space_group_name_H-M "P N N 2"
_symmetry_group_IT_number 34
_symmetry_cell_setting 'orthorhombic'
loop_
_space_group_symop_operation_xyz
x,y,z
-x,-y,z
1/2-x,1/2+y,1/2+z
1/2+x,1/2-y,1/2+z
loop_
_atom_site_type_symbol
_atom_site_label
_atom_site_fract_x
_atom_site_fract_y
_atom_site_fract_z
Si Si1 0.157587 0.040852 0.270690
Si Si2 0.011641 0.067583 0.928065
Si Si3 0.297605 0.813439 0.371819
Si Si4 0.818150 0.702443 0.235511
Si Si5 0.085155 0.173358 0.383062
Si Si6 0.149471 0.382481 0.537706
Si Si7 0.500000 0.000000 0.167521
Si Si8 0.924691 0.810151 0.747647
O O1 0.177718 0.107531 0.358820
O O2 0.335599 0.004572 0.287299
O O3 0.137331 0.053660 0.076632
O O4 0.000000 0.000000 0.341487
O O5 0.097331 0.118289 0.808250
O O6 0.838729 0.093022 0.008737
O O7 0.000000 0.000000 0.831767
O O8 0.372756 0.827345 0.556943
O O9 0.312753 0.737950 0.354099
O O10 0.111221 0.839536 0.376892
O O11 0.382569 0.846905 0.214074
O O12 0.876249 0.774752 0.244006
O O13 0.902187 0.661911 0.383391
O O14 0.619469 0.706831 0.259016
O O15 0.144060 0.197855 0.561791
O O16 0.021515 0.440487 0.545516
#
# Coordination Sequence:
#
# PCOD8171890 Si02
#       8
#     4   4   4   4   4   4   2   4
#     4  11  22  41  66  94 132 175 224 271 334 396
#     4  10  19  41  64  87 129 178 217 268 334 389
#     4  11  22  40  64  92 135 171 215 278 338 387
#     4  10  24  39  62  98 131 170 220 274 332 399
#     4  11  22  40  62  96 130 172 220 273 336 400
#     4  11  22  43  64  95 134 170 223 272 327 401
#     4  12  24  40  74  98 128 184 226 272 328 408
#     4  10  23  38  64  96 127 175 222 273 336 398
#
# _framework density 21.931387999999998
#
# number of rings (size 3 to 8) (size 9 to 14) (size 15 to 20)
#    0.000    1.333    5.333    0.800    3.733    1.600 
#    0.000    2.000    0.000    0.000    0.000    0.000 
#    0.000    0.000    0.000    0.000    0.000    0.000 
#
# Total GULP energy -371825.038344 kJ/mol
# GULP energy per Si atom -12394.167945 kJ/mol
# Density = 2.188147 g / cm^3
# Si number density = 21.931388 Si / 1000 Ang^3
#
#
#
# Elastic Constant Matrix: (Units=GPa)
#
#
# Indices 1 2 3 4 5 6 
#
# 1 63.7881 25.2958 13.7241 0.0000 0.0000 0.0000
# 2 25.2958 140.2467 46.7041 0.0000 0.0000 0.0000
# 3 13.7241 46.7041 122.2302 0.0000 0.0000 0.0000
# 4 0.0000 0.0000 0.0000 35.1798 0.0000 0.0000
# 5 0.0000 0.0000 0.0000 0.0000 14.8882 0.0000
# 6 0.0000 0.0000 0.0000 0.0000 0.0000 36.2278
#
#
#
# Elastic Compliance Matrix: (Units=1/GPa)
#
#
# Indices 1 2 3 4 5 6 
#
# 1 0.016960 -0.002778 -0.000843 0.000000 0.000000 0.000000
# 2 -0.002778 0.008625 -0.002984 0.000000 0.000000 0.000000
# 3 -0.000843 -0.002984 0.009416 0.000000 0.000000 0.000000
# 4 0.000000 0.000000 0.000000 0.028425 0.000000 0.000000
# 5 0.000000 0.000000 0.000000 0.000000 0.067167 0.000000
# 6 0.000000 0.000000 0.000000 0.000000 0.000000 0.027603
#
#
# Mechanical properties :
#
#
# Convention : Reuss Voigt Hill
#
# Bulk Modulus (GPa) = 45.88936 55.30147 50.59541
# Shear Modulus (GPa) = 27.98452 33.29522 30.63987
#
# Velocity S-wave (km/s) = 3.57599 3.90058 3.74181
# Velocity P-wave (km/s) = 6.16602 6.74955 6.46437
#
# Compressibility (1/GPa) = 0.02179154
#
# Stress axis : x y z
#
# Youngs Moduli (GPa) = 58.96224 115.94171 106.20268
#
# Poissons Ratio (x) = 0.32213 0.08949
# Poissons Ratio (y) = 0.16382 0.31687
# Poissons Ratio (z) = 0.04969 0.34593
#
# Static dielectric constant tensor:
#      x y z
#    x 3.704290 0.000000 0.000000 
#    y 0.000000 4.312240 0.000000 
#    z 0.000000 0.000000 3.983250 
# 
# 
# High freq. dielectric constant tensor:
#      x y z
#    x 1.841660 0.000000 0.000000 
#    y 0.000000 1.876470 0.000000 
#    z 0.000000 0.000000 1.847480 
# 
# From -- ./inp_files/2867.got.cif
#   From: 2010.03.12/outbox.cif.g09.slc.cpg/sg34_2_cif.got.tgz:2867.got - 2010.04.14 01:56:33.
