data_PCOD8171807
_publ_section_title
;
Structure prediction by ZEFSAII (Michael W. Deem and Ramdas Pophale) SiO2 
 PCOD8171807
Probable space group: P N A 21
;
_chemical_formula_sum "Si O2"
_cell_formula_units_Z 24
_cell_length_a 12.456446
_cell_length_b 8.694581
_cell_length_c 9.670861
_cell_angle_alpha 90.000000
_cell_angle_beta 90.000000
_cell_angle_gamma 90.000000
_cell_volume 1047.388856
_symmetry_space_group_name_H-M "P N A 21"
_symmetry_group_IT_number 33
_symmetry_cell_setting 'orthorhombic'
loop_
_space_group_symop_operation_xyz
x,y,z
-x,-y,1/2+z
1/2-x,1/2+y,1/2+z
1/2+x,1/2-y,z
loop_
_atom_site_type_symbol
_atom_site_label
_atom_site_fract_x
_atom_site_fract_y
_atom_site_fract_z
Si Si1 0.534940 0.848808 0.305880
Si Si2 0.865305 0.844785 0.664848
Si Si3 0.701836 0.333836 0.463028
Si Si4 0.095701 0.480273 0.058583
Si Si5 0.938197 0.954048 0.201852
Si Si6 0.248853 0.510421 0.408342
O O1 0.512097 0.931827 0.158752
O O2 0.508118 0.669130 0.289331
O O3 0.659099 0.873553 0.347864
O O4 0.458209 0.921568 0.419925
O O5 0.815444 0.899717 0.809627
O O6 0.858943 0.660675 0.649700
O O7 0.796142 0.914784 0.544042
O O8 0.988696 0.901004 0.659613
O O9 0.811875 0.399245 0.522506
O O10 0.602746 0.380701 0.559453
O O11 0.700579 0.150398 0.455967
O O12 0.840137 0.015078 0.293565
#
# Coordination Sequence:
#
# PCOD8171807 Si02
#       6
#     4   4   4   4   4   4
#     4  12  27  49  75 112 155 197 257 313 385 450
#     4  12  28  47  77 111 146 199 251 318 373 456
#     4  12  27  50  77 111 152 199 257 312 381 457
#     4  12  28  48  77 111 149 201 253 316 381 450
#     4  12  27  50  76 109 154 204 254 312 384 450
#     4  12  27  50  74 112 154 200 252 309 386 451
#
# _framework density 22.914127000000001
#
# number of rings (size 3 to 8) (size 9 to 14) (size 15 to 20)
#    0.000    0.000    5.000    3.000    9.333    0.000 
#    0.000    0.000    0.000    0.000    0.000    0.000 
#    0.000    0.000    0.000    0.000    0.000    0.000 
#
# Total GULP energy -297745.450856 kJ/mol
# GULP energy per Si atom -12406.060452 kJ/mol
# Density = 2.286197 g / cm^3
# Si number density = 22.914127 Si / 1000 Ang^3
#
#
#
# Elastic Constant Matrix: (Units=GPa)
#
#
# Indices 1 2 3 4 5 6 
#
# 1 77.9761 13.5875 25.9954 0.0000 0.0000 0.0000
# 2 13.5875 49.0022 22.2997 0.0000 0.0000 0.0000
# 3 25.9954 22.2997 116.7327 0.0000 0.0000 0.0000
# 4 0.0000 0.0000 0.0000 17.9726 0.0000 0.0000
# 5 0.0000 0.0000 0.0000 0.0000 45.4320 0.0000
# 6 0.0000 0.0000 0.0000 0.0000 0.0000 37.7114
#
#
#
# Elastic Compliance Matrix: (Units=1/GPa)
#
#
# Indices 1 2 3 4 5 6 
#
# 1 0.014179 -0.002732 -0.002636 0.000000 0.000000 0.000000
# 2 -0.002732 0.022877 -0.003762 0.000000 0.000000 0.000000
# 3 -0.002636 -0.003762 0.009872 0.000000 0.000000 0.000000
# 4 0.000000 0.000000 0.000000 0.055640 0.000000 0.000000
# 5 0.000000 0.000000 0.000000 0.000000 0.022011 0.000000
# 6 0.000000 0.000000 0.000000 0.000000 0.000000 0.026517
#
#
# Mechanical properties :
#
#
# Convention : Reuss Voigt Hill
#
# Bulk Modulus (GPa) = 34.88111 40.83067 37.85589
# Shear Modulus (GPa) = 27.94672 32.34510 30.14591
#
# Velocity S-wave (km/s) = 3.49611 3.76117 3.63106
# Velocity P-wave (km/s) = 5.61717 6.05967 5.84261
#
# Compressibility (1/GPa) = 0.02866882
#
# Stress axis : x y z
#
# Youngs Moduli (GPa) = 70.52580 43.71256 101.29533
#
# Poissons Ratio (x) = 0.11943 0.26698
# Poissons Ratio (y) = 0.19269 0.38105
# Poissons Ratio (z) = 0.18588 0.16444
#
# Static dielectric constant tensor:
#      x y z
#    x 4.129500 0.000000 0.000000 
#    y 0.000000 4.277190 0.000000 
#    z 0.000000 0.000000 4.539990 
# 
# 
# High freq. dielectric constant tensor:
#      x y z
#    x 1.903010 0.000000 0.000000 
#    y 0.000000 1.908070 0.000000 
#    z 0.000000 0.000000 1.936650 
# 
# From -- ./inp_files/3717.got.cif
#   From: 2010.03.12/outbox.cif.g09.slc.cpg/sg33_2_cif.got.tgz:3717.got - 2010.04.14 01:49:19.
