data_PCOD8171396
_publ_section_title
;
Structure prediction by ZEFSAII (Michael W. Deem and Ramdas Pophale) SiO2 
 PCOD8171396
Probable space group: P N A 21
;
_chemical_formula_sum "Si O2"
_cell_formula_units_Z 20
_cell_length_a 8.888337
_cell_length_b 7.441966
_cell_length_c 11.351117
_cell_angle_alpha 90.000000
_cell_angle_beta 90.000000
_cell_angle_gamma 90.000000
_cell_volume 750.838951
_symmetry_space_group_name_H-M "P N A 21"
_symmetry_group_IT_number 33
_symmetry_cell_setting 'orthorhombic'
loop_
_space_group_symop_operation_xyz
x,y,z
-x,-y,1/2+z
1/2-x,1/2+y,1/2+z
1/2+x,1/2-y,z
loop_
_atom_site_type_symbol
_atom_site_label
_atom_site_fract_x
_atom_site_fract_y
_atom_site_fract_z
Si Si1 0.071672 0.076497 0.309120
Si Si2 0.743346 0.210138 0.903083
Si Si3 0.729981 0.078463 0.327710
Si Si4 0.231541 0.375784 0.646772
Si Si5 0.907816 0.458148 0.587458
O O1 0.899131 0.121459 0.286083
O O2 0.151945 0.242042 0.376808
O O3 0.097916 0.900843 0.393313
O O4 0.156394 0.040741 0.183107
O O5 0.769464 0.422891 0.930230
O O6 0.671268 0.213943 0.770029
O O7 0.135469 0.388926 0.994038
O O8 0.628924 0.022371 0.217885
O O9 0.086725 0.438357 0.574120
O O10 0.324790 0.233568 0.565907
#
# Coordination Sequence:
#
# PCOD8171396 Si02
#       5
#     4   4   4   4   4
#     4  10  23  45  69 102 146 198 230 320 368 427
#     4   9  24  43  71 106 146 190 247 302 379 439
#     4  11  23  45  73 100 151 189 253 304 371 448
#     4   9  21  42  71 104 149 185 245 308 359 447
#     4  11  21  45  74 108 146 200 245 308 381 443
#
# _framework density 26.636869999999998
#
# number of rings (size 3 to 8) (size 9 to 14) (size 15 to 20)
#    1.200    0.800    0.000    3.600    0.000    1.600 
#   10.800    0.000    0.000    0.000    0.000    0.000 
#    0.000    0.000    0.000    0.000    0.000    0.000 
#
# Total GULP energy -247854.767280 kJ/mol
# GULP energy per Si atom -12392.738364 kJ/mol
# Density = 2.657624 g / cm^3
# Si number density = 26.636870 Si / 1000 Ang^3
#
#
#
# Elastic Constant Matrix: (Units=GPa)
#
#
# Indices 1 2 3 4 5 6 
#
# 1 155.9073 62.9473 14.5721 0.0000 0.0000 0.0000
# 2 62.9473 195.6003 14.1807 0.0000 0.0000 0.0000
# 3 14.5721 14.1807 58.0483 0.0000 0.0000 0.0000
# 4 0.0000 0.0000 0.0000 40.0176 0.0000 0.0000
# 5 0.0000 0.0000 0.0000 0.0000 25.2935 0.0000
# 6 0.0000 0.0000 0.0000 0.0000 0.0000 29.4643
#
#
#
# Elastic Compliance Matrix: (Units=1/GPa)
#
#
# Indices 1 2 3 4 5 6 
#
# 1 0.007469 -0.002308 -0.001311 0.000000 0.000000 0.000000
# 2 -0.002308 0.005918 -0.000866 0.000000 0.000000 0.000000
# 3 -0.001311 -0.000866 0.017768 0.000000 0.000000 0.000000
# 4 0.000000 0.000000 0.000000 0.024989 0.000000 0.000000
# 5 0.000000 0.000000 0.000000 0.000000 0.039536 0.000000
# 6 0.000000 0.000000 0.000000 0.000000 0.000000 0.033939
#
#
# Mechanical properties :
#
#
# Convention : Reuss Voigt Hill
#
# Bulk Modulus (GPa) = 45.07913 65.88401 55.48157
# Shear Modulus (GPa) = 34.25020 40.14548 37.19784
#
# Velocity S-wave (km/s) = 3.58972 3.88640 3.74100
# Velocity P-wave (km/s) = 5.84310 6.70273 6.28762
#
# Compressibility (1/GPa) = 0.02218322
#
# Stress axis : x y z
#
# Youngs Moduli (GPa) = 133.89311 168.97098 56.28176
#
# Poissons Ratio (x) = 0.39007 0.07378
# Poissons Ratio (y) = 0.30909 0.04875
# Poissons Ratio (z) = 0.17553 0.14637
#
# Static dielectric constant tensor:
#      x y z
#    x 4.420010 0.000000 0.000000 
#    y 0.000000 5.439080 0.000000 
#    z 0.000000 0.000000 4.320400 
# 
# 
# High freq. dielectric constant tensor:
#      x y z
#    x 2.061270 0.000000 0.000000 
#    y 0.000000 2.083190 0.000000 
#    z 0.000000 0.000000 2.052060 
# 
# From -- ./inp_files/7515.got.cif
#   From: 2010.03.12/outbox.cif.g09.slc.cpg/sg33_4_cif.got.tgz:7515.got - 2010.04.14 01:49:19.
