data_PCOD8171466
_publ_section_title
;
Structure prediction by ZEFSAII (Michael W. Deem and Ramdas Pophale) SiO2 
 PCOD8171466
Probable space group: P N A 21
;
_chemical_formula_sum "Si O2"
_cell_formula_units_Z 28
_cell_length_a 11.372233
_cell_length_b 11.699063
_cell_length_c 9.288925
_cell_angle_alpha 90.000000
_cell_angle_beta 90.000000
_cell_angle_gamma 90.000000
_cell_volume 1235.840106
_symmetry_space_group_name_H-M "P N A 21"
_symmetry_group_IT_number 33
_symmetry_cell_setting 'orthorhombic'
loop_
_space_group_symop_operation_xyz
x,y,z
-x,-y,1/2+z
1/2-x,1/2+y,1/2+z
1/2+x,1/2-y,z
loop_
_atom_site_type_symbol
_atom_site_label
_atom_site_fract_x
_atom_site_fract_y
_atom_site_fract_z
Si Si1 0.865705 0.962431 0.529500
Si Si2 0.682612 0.848569 0.712918
Si Si3 0.538853 0.598125 0.280131
Si Si4 0.209744 0.419726 0.874261
Si Si5 0.289628 0.850783 0.890368
Si Si6 0.055706 0.315965 0.641012
Si Si7 0.940346 0.559840 0.646428
O O1 0.951813 0.995535 0.662711
O O2 0.789936 0.074703 0.496194
O O3 0.777652 0.863060 0.584382
O O4 0.929052 0.921888 0.384957
O O5 0.707515 0.730821 0.795091
O O6 0.550683 0.851789 0.647590
O O7 0.690815 0.949805 0.828139
O O8 0.651888 0.606116 0.383834
O O9 0.528219 0.714233 0.189731
O O10 0.154923 0.333548 0.760040
O O11 0.148445 0.396840 0.025281
O O12 0.368579 0.935697 0.794641
O O13 0.380314 0.780369 0.991648
O O14 0.980105 0.430576 0.618420
#
# Coordination Sequence:
#
# PCOD8171466 Si02
#       7
#     4   4   4   4   4   4   4
#     4  11  27  50  67 115 143 187 249 301 361 451
#     4  10  25  46  73 103 146 182 246 295 363 437
#     4  11  27  46  74 100 152 188 239 298 372 423
#     4  10  24  46  65 106 142 180 243 297 349 438
#     4  12  26  45  76 106 144 196 237 299 373 424
#     4  11  24  46  73 100 142 197 236 297 360 429
#     4  11  25  45  74 108 141 184 246 303 348 440
#
# _framework density 22.656652000000001
#
# number of rings (size 3 to 8) (size 9 to 14) (size 15 to 20)
#    0.000    1.143    4.286    1.714   12.000    2.286 
#    0.000    0.000    0.000    0.000    0.000    0.000 
#    0.000    0.000    0.000    0.000    0.000    0.000 
#
# Total GULP energy -347281.695053 kJ/mol
# GULP energy per Si atom -12402.917680 kJ/mol
# Density = 2.260508 g / cm^3
# Si number density = 22.656652 Si / 1000 Ang^3
#
#
#
# Elastic Constant Matrix: (Units=GPa)
#
#
# Indices 1 2 3 4 5 6 
#
# 1 95.0152 14.5481 48.6067 0.0000 0.0000 0.0000
# 2 14.5481 44.8060 13.1349 0.0000 0.0000 0.0000
# 3 48.6067 13.1349 127.9828 0.0000 0.0000 0.0000
# 4 0.0000 0.0000 0.0000 30.4386 0.0000 0.0000
# 5 0.0000 0.0000 0.0000 0.0000 53.2412 0.0000
# 6 0.0000 0.0000 0.0000 0.0000 0.0000 23.1308
#
#
#
# Elastic Compliance Matrix: (Units=1/GPa)
#
#
# Indices 1 2 3 4 5 6 
#
# 1 0.013431 -0.002955 -0.004798 0.000000 0.000000 0.000000
# 2 -0.002955 0.023661 -0.001306 0.000000 0.000000 0.000000
# 3 -0.004798 -0.001306 0.009770 0.000000 0.000000 0.000000
# 4 0.000000 0.000000 0.000000 0.032853 0.000000 0.000000
# 5 0.000000 0.000000 0.000000 0.000000 0.018782 0.000000
# 6 0.000000 0.000000 0.000000 0.000000 0.000000 0.043232
#
#
# Mechanical properties :
#
#
# Convention : Reuss Voigt Hill
#
# Bulk Modulus (GPa) = 34.78914 46.70929 40.74922
# Shear Modulus (GPa) = 29.51094 34.12974 31.82034
#
# Velocity S-wave (km/s) = 3.61297 3.88543 3.75168
# Velocity P-wave (km/s) = 5.72652 6.38668 6.06559
#
# Compressibility (1/GPa) = 0.02874460
#
# Stress axis : x y z
#
# Youngs Moduli (GPa) = 74.45193 42.26422 102.35610
#
# Poissons Ratio (x) = 0.12487 0.49110
# Poissons Ratio (y) = 0.21997 0.13370
# Poissons Ratio (z) = 0.35722 0.05520
#
# Static dielectric constant tensor:
#      x y z
#    x 4.303410 0.000000 0.000000 
#    y 0.000000 3.795410 0.000000 
#    z 0.000000 0.000000 4.183720 
# 
# 
# High freq. dielectric constant tensor:
#      x y z
#    x 1.902050 0.000000 0.000000 
#    y 0.000000 1.874600 0.000000 
#    z 0.000000 0.000000 1.907150 
# 
# From -- ./inp_files/3861.got.cif
#   From: 2010.03.12/outbox.cif.g09.slc.cpg/sg33_2_cif.got.tgz:3861.got - 2010.04.14 01:49:19.
