data_PCOD8171121
_publ_section_title
;
Structure prediction by ZEFSAII (Michael W. Deem and Ramdas Pophale) SiO2 
 PCOD8171121
Probable space group: P N A 21
;
_chemical_formula_sum "Si O2"
_cell_formula_units_Z 24
_cell_length_a 12.688497
_cell_length_b 6.300192
_cell_length_c 13.184609
_cell_angle_alpha 90.000000
_cell_angle_beta 90.000000
_cell_angle_gamma 90.000000
_cell_volume 1053.977212
_symmetry_space_group_name_H-M "P N A 21"
_symmetry_group_IT_number 33
_symmetry_cell_setting 'orthorhombic'
loop_
_space_group_symop_operation_xyz
x,y,z
-x,-y,1/2+z
1/2-x,1/2+y,1/2+z
1/2+x,1/2-y,z
loop_
_atom_site_type_symbol
_atom_site_label
_atom_site_fract_x
_atom_site_fract_y
_atom_site_fract_z
Si Si1 0.517969 0.224035 0.839030
Si Si2 0.992743 0.599815 0.670388
Si Si3 0.418745 0.276174 0.535963
Si Si4 0.594780 0.629525 0.518309
Si Si5 0.790158 0.515985 0.405162
Si Si6 0.630152 0.481400 0.223417
O O1 0.433056 0.201968 0.929144
O O2 0.635286 0.225834 0.889124
O O3 0.480315 0.420253 0.768825
O O4 0.527079 0.007462 0.774586
O O5 0.084114 0.757737 0.627586
O O6 0.968693 0.434269 0.582835
O O7 0.889084 0.738254 0.693853
O O8 0.512153 0.435361 0.503224
O O9 0.343063 0.385958 0.621053
O O10 0.354099 0.198609 0.436478
O O11 0.714238 0.556549 0.501712
O O12 0.725645 0.485494 0.301667
#
# Coordination Sequence:
#
# PCOD8171121 Si02
#       6
#     4   4   4   4   4   4
#     4  10  22  41  64  97 130 165 218 267 321 385
#     4  10  21  44  69  90 138 171 208 279 328 378
#     4  10  22  44  65  95 137 171 220 271 323 392
#     4  10  23  44  65  94 133 169 219 273 319 390
#     4  11  23  41  70  96 126 181 218 263 340 387
#     4   9  23  42  63 100 136 165 221 275 319 394
#
# _framework density 22.770890999999999
#
# number of rings (size 3 to 8) (size 9 to 14) (size 15 to 20)
#    0.000    2.000    1.667    0.000    4.667    5.333 
#   12.000    0.000    0.000    0.000    0.000    0.000 
#    0.000    0.000    0.000    0.000    0.000    0.000 
#
# Total GULP energy -297367.604130 kJ/mol
# GULP energy per Si atom -12390.316839 kJ/mol
# Density = 2.271906 g / cm^3
# Si number density = 22.770891 Si / 1000 Ang^3
#
#
#
# Elastic Constant Matrix: (Units=GPa)
#
#
# Indices 1 2 3 4 5 6 
#
# 1 95.7793 39.9546 30.1371 0.0000 0.0000 0.0000
# 2 39.9546 90.8244 37.2292 0.0000 0.0000 0.0000
# 3 30.1371 37.2292 88.2869 0.0000 0.0000 0.0000
# 4 0.0000 0.0000 0.0000 36.7058 0.0000 0.0000
# 5 0.0000 0.0000 0.0000 0.0000 45.0063 0.0000
# 6 0.0000 0.0000 0.0000 0.0000 0.0000 16.0823
#
#
#
# Elastic Compliance Matrix: (Units=1/GPa)
#
#
# Indices 1 2 3 4 5 6 
#
# 1 0.013226 -0.004797 -0.002492 0.000000 0.000000 0.000000
# 2 -0.004797 0.015051 -0.004709 0.000000 0.000000 0.000000
# 3 -0.002492 -0.004709 0.014163 0.000000 0.000000 0.000000
# 4 0.000000 0.000000 0.000000 0.027244 0.000000 0.000000
# 5 0.000000 0.000000 0.000000 0.000000 0.022219 0.000000
# 6 0.000000 0.000000 0.000000 0.000000 0.000000 0.062180
#
#
# Mechanical properties :
#
#
# Convention : Reuss Voigt Hill
#
# Bulk Modulus (GPa) = 54.21889 54.39250 54.30569
# Shear Modulus (GPa) = 27.14055 30.73019 28.93537
#
# Velocity S-wave (km/s) = 3.45613 3.67759 3.56858
# Velocity P-wave (km/s) = 6.30783 6.47855 6.39376
#
# Compressibility (1/GPa) = 0.01844376
#
# Stress axis : x y z
#
# Youngs Moduli (GPa) = 75.61027 66.44201 70.60556
#
# Poissons Ratio (x) = 0.31870 0.17595
# Poissons Ratio (y) = 0.36268 0.33250
# Poissons Ratio (z) = 0.18842 0.31289
#
# Static dielectric constant tensor:
#      x y z
#    x 3.881520 0.000000 0.000000 
#    y 0.000000 4.097990 0.000000 
#    z 0.000000 0.000000 4.363580 
# 
# 
# High freq. dielectric constant tensor:
#      x y z
#    x 1.871300 0.000000 0.000000 
#    y 0.000000 1.890780 0.000000 
#    z 0.000000 0.000000 1.920960 
# 
# From -- ./inp_files/7840.got.cif
#   From: 2010.03.12/outbox.cif.g09.slc.cpg/sg33_4_cif.got.tgz:7840.got - 2010.04.14 01:49:19.
