data_PCOD8171988
_publ_section_title
;
Structure prediction by ZEFSAII (Michael W. Deem and Ramdas Pophale) SiO2 
 PCOD8171988
Probable space group: P N N 2
;
_chemical_formula_sum "Si O2"
_cell_formula_units_Z 24
_cell_length_a 26.790740
_cell_length_b 5.156409
_cell_length_c 7.785476
_cell_angle_alpha 90.000000
_cell_angle_beta 90.000000
_cell_angle_gamma 90.000000
_cell_volume 1075.516897
_symmetry_space_group_name_H-M "P N N 2"
_symmetry_group_IT_number 34
_symmetry_cell_setting 'orthorhombic'
loop_
_space_group_symop_operation_xyz
x,y,z
-x,-y,z
1/2-x,1/2+y,1/2+z
1/2+x,1/2-y,1/2+z
loop_
_atom_site_type_symbol
_atom_site_label
_atom_site_fract_x
_atom_site_fract_y
_atom_site_fract_z
Si Si1 0.405270 0.173145 0.481030
Si Si2 0.092790 0.892337 0.331932
Si Si3 0.000000 0.500000 0.765622
Si Si4 0.000000 0.000000 0.556097
Si Si5 0.141854 0.394850 0.267606
Si Si6 0.199850 0.809771 0.850184
Si Si7 0.766905 0.679996 0.054263
O O1 0.420655 0.382157 0.628250
O O2 0.360346 0.289088 0.364835
O O3 0.453503 0.103546 0.373042
O O4 0.385428 0.916631 0.580329
O O5 0.043014 0.875702 0.441110
O O6 0.129874 0.653276 0.378546
O O7 0.121549 0.155084 0.376222
O O8 0.980209 0.751640 0.662044
O O9 0.199868 0.362592 0.227189
O O10 0.212330 0.821561 0.645775
O O11 0.227474 0.556600 0.924527
O O12 0.219445 0.055157 0.958566
#
# Coordination Sequence:
#
# PCOD8171988 Si02
#       7
#     4   4   2   2   4   4   4
#     4   9  24  42  70  90 128 181 229 253 325 407
#     4  10  21  41  70  84 124 174 228 252 309 414
#     4  12  28  42  64 100 144 160 214 296 344 374
#     4  12  28  42  60 102 136 160 216 286 348 364
#     4   9  19  38  69  90 114 170 232 252 299 403
#     4  11  23  43  67 101 132 174 223 276 328 406
#     4  11  21  42  66  99 135 166 222 275 330 396
#
# _framework density 22.314851000000001
#
# number of rings (size 3 to 8) (size 9 to 14) (size 15 to 20)
#    1.000    0.667    1.667    2.000    4.667    0.000 
#    9.000    0.000    0.000    0.000    0.000    0.000 
#    0.000    0.000    0.000    0.000    0.000    0.000 
#
# Total GULP energy -297382.080023 kJ/mol
# GULP energy per Si atom -12390.920001 kJ/mol
# Density = 2.226406 g / cm^3
# Si number density = 22.314851 Si / 1000 Ang^3
#
#
#
# Elastic Constant Matrix: (Units=GPa)
#
#
# Indices 1 2 3 4 5 6 
#
# 1 79.5667 22.3029 37.0521 0.0000 0.0000 0.0000
# 2 22.3029 158.1926 18.4722 0.0000 0.0000 0.0000
# 3 37.0521 18.4722 46.6724 0.0000 0.0000 0.0000
# 4 0.0000 0.0000 0.0000 24.8257 0.0000 0.0000
# 5 0.0000 0.0000 0.0000 0.0000 25.4339 0.0000
# 6 0.0000 0.0000 0.0000 0.0000 0.0000 28.9002
#
#
#
# Elastic Compliance Matrix: (Units=1/GPa)
#
#
# Indices 1 2 3 4 5 6 
#
# 1 0.020094 -0.001017 -0.015550 0.000000 0.000000 0.000000
# 2 -0.001017 0.006679 -0.001836 0.000000 0.000000 0.000000
# 3 -0.015550 -0.001836 0.034497 0.000000 0.000000 0.000000
# 4 0.000000 0.000000 0.000000 0.040281 0.000000 0.000000
# 5 0.000000 0.000000 0.000000 0.000000 0.039318 0.000000
# 6 0.000000 0.000000 0.000000 0.000000 0.000000 0.034602
#
#
# Mechanical properties :
#
#
# Convention : Reuss Voigt Hill
#
# Bulk Modulus (GPa) = 40.87517 48.89845 44.88681
# Shear Modulus (GPa) = 22.68276 29.60559 26.14418
#
# Velocity S-wave (km/s) = 3.19170 3.64637 3.42658
# Velocity P-wave (km/s) = 5.65153 6.29989 5.98450
#
# Compressibility (1/GPa) = 0.02446473
#
# Stress axis : x y z
#
# Youngs Moduli (GPa) = 49.76534 149.71822 28.98792
#
# Poissons Ratio (x) = 0.15230 0.45075
# Poissons Ratio (y) = 0.05062 0.05322
# Poissons Ratio (z) = 0.77384 0.27487
#
# Static dielectric constant tensor:
#      x y z
#    x 3.898670 0.000000 0.000000 
#    y 0.000000 4.165810 0.000000 
#    z 0.000000 0.000000 3.710170 
# 
# 
# High freq. dielectric constant tensor:
#      x y z
#    x 1.874440 0.000000 0.000000 
#    y 0.000000 1.891010 0.000000 
#    z 0.000000 0.000000 1.859040 
# 
# From -- ./inp_files/4059.got.cif
#   From: 2010.03.12/outbox.cif.g09.slc.cpg/sg34_3_cif.got.tgz:4059.got - 2010.04.14 01:56:33.
