data_PCOD8171275
_publ_section_title
;
Structure prediction by ZEFSAII (Michael W. Deem and Ramdas Pophale) SiO2 
 PCOD8171275
Probable space group: P N A 21
;
_chemical_formula_sum "Si O2"
_cell_formula_units_Z 32
_cell_length_a 5.331179
_cell_length_b 30.178582
_cell_length_c 8.788648
_cell_angle_alpha 90.000000
_cell_angle_beta 90.000000
_cell_angle_gamma 90.000000
_cell_volume 1413.982925
_symmetry_space_group_name_H-M "P N A 21"
_symmetry_group_IT_number 33
_symmetry_cell_setting 'orthorhombic'
loop_
_space_group_symop_operation_xyz
x,y,z
-x,-y,1/2+z
1/2-x,1/2+y,1/2+z
1/2+x,1/2-y,z
loop_
_atom_site_type_symbol
_atom_site_label
_atom_site_fract_x
_atom_site_fract_y
_atom_site_fract_z
Si Si1 0.651176 0.043286 0.109090
Si Si2 0.383829 0.131285 0.764782
Si Si3 0.130354 0.631539 0.620503
Si Si4 0.715953 0.007160 0.794209
Si Si5 0.969522 0.921719 0.814138
Si Si6 0.111176 0.913101 0.140766
Si Si7 0.037259 0.722792 0.762318
Si Si8 0.036704 0.723401 0.114672
O O1 0.549157 0.091100 0.163528
O O2 0.926807 0.046283 0.178770
O O3 0.513200 0.001087 0.180422
O O4 0.635545 0.040157 0.928798
O O5 0.639869 0.106280 0.720299
O O6 0.424424 0.181951 0.722325
O O7 0.143550 0.112998 0.675722
O O8 0.310097 0.129112 0.942099
O O9 0.369959 0.622931 0.731841
O O10 0.010949 0.678612 0.661872
O O11 0.919332 0.035872 0.696785
O O12 0.777495 0.959668 0.873354
O O13 0.145686 0.909348 0.956872
O O14 0.295654 0.747689 0.720104
O O15 0.042228 0.709047 0.938574
O O16 0.263815 0.756725 0.152312
#
# Coordination Sequence:
#
# PCOD8171275 Si02
#       8
#     4   4   4   4   4   4   4   4
#     4  11  24  43  67 100 141 186 241 299 353 427
#     4  12  27  45  70 104 142 183 227 295 356 427
#     4  11  26  44  69 105 142 184 235 297 357 424
#     4  11  24  42  67  97 141 188 244 292 366 413
#     4  11  26  41  71  97 138 191 243 298 349 434
#     4  12  27  44  70 101 140 186 238 291 355 421
#     4  10  24  43  72 102 138 182 230 286 349 430
#     4  10  22  44  70 100 136 178 228 284 351 430
#
# _framework density 22.631105999999999
#
# number of rings (size 3 to 8) (size 9 to 14) (size 15 to 20)
#    0.000    1.000    1.250    3.750   10.500    4.000 
#    0.000    0.000    0.000    0.000    0.000    0.000 
#    0.000    0.000    0.000    0.000    0.000    0.000 
#
# Total GULP energy -396573.807109 kJ/mol
# GULP energy per Si atom -12392.931472 kJ/mol
# Density = 2.257960 g / cm^3
# Si number density = 22.631106 Si / 1000 Ang^3
#
#
#
# Elastic Constant Matrix: (Units=GPa)
#
#
# Indices 1 2 3 4 5 6 
#
# 1 94.2598 21.2767 25.6049 0.0000 0.0000 0.0000
# 2 21.2767 105.3653 46.0418 0.0000 0.0000 0.0000
# 3 25.6049 46.0418 136.1429 0.0000 0.0000 0.0000
# 4 0.0000 0.0000 0.0000 43.5011 0.0000 0.0000
# 5 0.0000 0.0000 0.0000 0.0000 28.8618 0.0000
# 6 0.0000 0.0000 0.0000 0.0000 0.0000 33.2556
#
#
#
# Elastic Compliance Matrix: (Units=1/GPa)
#
#
# Indices 1 2 3 4 5 6 
#
# 1 0.011406 -0.001603 -0.001603 0.000000 0.000000 0.000000
# 2 -0.001603 0.011362 -0.003541 0.000000 0.000000 0.000000
# 3 -0.001603 -0.003541 0.008844 0.000000 0.000000 0.000000
# 4 0.000000 0.000000 0.000000 0.022988 0.000000 0.000000
# 5 0.000000 0.000000 0.000000 0.000000 0.034648 0.000000
# 6 0.000000 0.000000 0.000000 0.000000 0.000000 0.030070
#
#
# Mechanical properties :
#
#
# Convention : Reuss Voigt Hill
#
# Bulk Modulus (GPa) = 55.19236 57.95719 56.57478
# Shear Modulus (GPa) = 36.00971 37.31335 36.66153
#
# Velocity S-wave (km/s) = 3.99326 4.06490 4.02924
# Velocity P-wave (km/s) = 6.76035 6.90626 6.83369
#
# Compressibility (1/GPa) = 0.01811845
#
# Stress axis : x y z
#
# Youngs Moduli (GPa) = 87.67129 88.01465 113.06786
#
# Poissons Ratio (x) = 0.14107 0.18127
# Poissons Ratio (y) = 0.14051 0.40037
# Poissons Ratio (z) = 0.14055 0.31166
#
# Static dielectric constant tensor:
#      x y z
#    x 4.091400 0.000000 0.000000 
#    y 0.000000 4.038080 0.000000 
#    z 0.000000 0.000000 4.060570 
# 
# 
# High freq. dielectric constant tensor:
#      x y z
#    x 1.888610 0.000000 0.000000 
#    y 0.000000 1.903010 0.000000 
#    z 0.000000 0.000000 1.899480 
# 
# From -- ./inp_files/2859.got.cif
#   From: 2010.03.12/outbox.cif.g09.slc.cpg/sg33_2_cif.got.tgz:2859.got - 2010.04.14 01:49:19.
