data_PCOD8171628
_publ_section_title
;
Structure prediction by ZEFSAII (Michael W. Deem and Ramdas Pophale) SiO2 
 PCOD8171628
Probable space group: P N A 21
;
_chemical_formula_sum "Si O2"
_cell_formula_units_Z 24
_cell_length_a 12.191919
_cell_length_b 16.782872
_cell_length_c 5.092888
_cell_angle_alpha 90.000000
_cell_angle_beta 90.000000
_cell_angle_gamma 90.000000
_cell_volume 1042.083397
_symmetry_space_group_name_H-M "P N A 21"
_symmetry_group_IT_number 33
_symmetry_cell_setting 'orthorhombic'
loop_
_space_group_symop_operation_xyz
x,y,z
-x,-y,1/2+z
1/2-x,1/2+y,1/2+z
1/2+x,1/2-y,z
loop_
_atom_site_type_symbol
_atom_site_label
_atom_site_fract_x
_atom_site_fract_y
_atom_site_fract_z
Si Si1 0.835559 0.324492 0.172760
Si Si2 0.020045 0.447326 0.237016
Si Si3 0.826857 0.221510 0.676777
Si Si4 0.837971 0.952365 0.679788
Si Si5 0.244140 0.407223 0.991568
Si Si6 0.932860 0.092592 0.376708
O O1 0.941101 0.372107 0.274910
O O2 0.792865 0.270958 0.417119
O O3 0.737929 0.381748 0.074067
O O4 0.869648 0.276556 0.912868
O O5 0.025012 0.497408 0.503744
O O6 0.141447 0.413574 0.185013
O O7 0.922982 0.158065 0.606632
O O8 0.725796 0.164314 0.777899
O O9 0.938812 0.912201 0.829078
O O10 0.887293 0.004779 0.445657
O O11 0.760940 0.006209 0.864669
O O12 0.356263 0.379528 0.136604
#
# Coordination Sequence:
#
# PCOD8171628 Si02
#       6
#     4   4   4   4   4   4
#     4  12  26  47  69 107 140 191 235 290 344 433
#     4  12  26  45  74 104 138 185 242 296 341 417
#     4  11  27  47  66 105 152 181 234 284 370 416
#     4  11  24  41  78 102 140 179 252 285 349 414
#     4  11  24  48  70 103 143 186 233 295 355 414
#     4  11  23  46  71 109 137 190 228 306 349 420
#
# _framework density 23.030788000000001
#
# number of rings (size 3 to 8) (size 9 to 14) (size 15 to 20)
#    0.000    0.667    5.000    2.000    4.667    2.667 
#    0.000    0.000    0.000    0.000    0.000    0.000 
#    0.000    0.000    0.000    0.000    0.000    0.000 
#
# Total GULP energy -297580.510659 kJ/mol
# GULP energy per Si atom -12399.187944 kJ/mol
# Density = 2.297837 g / cm^3
# Si number density = 23.030788 Si / 1000 Ang^3
#
#
#
# Elastic Constant Matrix: (Units=GPa)
#
#
# Indices 1 2 3 4 5 6 
#
# 1 84.5657 37.8481 -1.2365 0.0000 0.0000 0.0000
# 2 37.8481 129.6508 42.7228 0.0000 0.0000 0.0000
# 3 -1.2365 42.7228 92.7926 0.0000 0.0000 0.0000
# 4 0.0000 0.0000 0.0000 44.6533 0.0000 0.0000
# 5 0.0000 0.0000 0.0000 0.0000 31.1923 0.0000
# 6 0.0000 0.0000 0.0000 0.0000 0.0000 12.4115
#
#
#
# Elastic Compliance Matrix: (Units=1/GPa)
#
#
# Indices 1 2 3 4 5 6 
#
# 1 0.014059 -0.004911 0.002448 0.000000 0.000000 0.000000
# 2 -0.004911 0.010808 -0.005042 0.000000 0.000000 0.000000
# 3 0.002448 -0.005042 0.013131 0.000000 0.000000 0.000000
# 4 0.000000 0.000000 0.000000 0.022395 0.000000 0.000000
# 5 0.000000 0.000000 0.000000 0.000000 0.032059 0.000000
# 6 0.000000 0.000000 0.000000 0.000000 0.000000 0.080570
#
#
# Mechanical properties :
#
#
# Convention : Reuss Voigt Hill
#
# Bulk Modulus (GPa) = 43.49875 51.74200 47.62038
# Shear Modulus (GPa) = 25.55026 32.82974 29.19000
#
# Velocity S-wave (km/s) = 3.33437 3.77964 3.56397
# Velocity P-wave (km/s) = 5.80967 6.44692 6.13657
#
# Compressibility (1/GPa) = 0.02298916
#
# Stress axis : x y z
#
# Youngs Moduli (GPa) = 71.12967 92.52473 76.15844
#
# Poissons Ratio (x) = 0.45438 -0.18646
# Poissons Ratio (y) = 0.34931 0.38395
# Poissons Ratio (z) = -0.17415 0.46647
#
# Static dielectric constant tensor:
#      x y z
#    x 3.866580 0.000000 0.000000 
#    y 0.000000 4.473550 0.000000 
#    z 0.000000 0.000000 4.239060 
# 
# 
# High freq. dielectric constant tensor:
#      x y z
#    x 1.889230 0.000000 0.000000 
#    y 0.000000 1.927400 0.000000 
#    z 0.000000 0.000000 1.917620 
# 
# From -- ./inp_files/827.got.cif
#   From: 2010.03.12/outbox.cif.g09.slc.cpg/sg33_1_cif.got.tgz:827.got - 2010.04.14 01:49:19.
