data_PCOD8171776
_publ_section_title
;
Structure prediction by ZEFSAII (Michael W. Deem and Ramdas Pophale) SiO2 
 PCOD8171776
Probable space group: P N A 21
;
_chemical_formula_sum "Si O2"
_cell_formula_units_Z 28
_cell_length_a 10.773609
_cell_length_b 16.581466
_cell_length_c 6.869028
_cell_angle_alpha 90.000000
_cell_angle_beta 90.000000
_cell_angle_gamma 90.000000
_cell_volume 1227.098489
_symmetry_space_group_name_H-M "P N A 21"
_symmetry_group_IT_number 33
_symmetry_cell_setting 'orthorhombic'
loop_
_space_group_symop_operation_xyz
x,y,z
-x,-y,1/2+z
1/2-x,1/2+y,1/2+z
1/2+x,1/2-y,z
loop_
_atom_site_type_symbol
_atom_site_label
_atom_site_fract_x
_atom_site_fract_y
_atom_site_fract_z
Si Si1 0.988106 0.886309 0.469260
Si Si2 0.861261 0.974584 0.795974
Si Si3 0.781671 0.868304 0.158388
Si Si4 0.653478 0.057694 0.577647
Si Si5 0.448086 0.231274 0.162248
Si Si6 0.044345 0.586853 0.377267
Si Si7 0.201154 0.276106 0.399416
O O1 0.964912 0.922343 0.684626
O O2 0.862367 0.884955 0.347847
O O3 0.044562 0.797262 0.490929
O O4 0.088530 0.938750 0.357436
O O5 0.754883 0.992332 0.640252
O O6 0.816163 0.926305 0.981657
O O7 0.640948 0.885851 0.213457
O O8 0.798521 0.775527 0.097146
O O9 0.587755 0.093952 0.769341
O O10 0.714837 0.129704 0.452137
O O11 0.560481 0.006514 0.440839
O O12 0.318277 0.245321 0.273560
O O13 0.569407 0.240103 0.296564
O O14 0.449430 0.143160 0.067026
#
# Coordination Sequence:
#
# PCOD8171776 Si02
#       7
#     4   4   4   4   4   4   4
#     4  12  26  45  76 108 148 192 246 309 372 441
#     4  12  26  45  73 112 145 190 250 309 371 446
#     4  12  25  48  74 105 153 192 241 311 377 436
#     4  12  27  45  76 106 148 196 252 308 377 455
#     4  12  28  49  76 111 154 199 252 311 375 455
#     4  12  26  49  73 108 152 196 251 312 383 451
#     4  12  28  47  76 110 152 199 252 306 379 450
#
# _framework density 22.818054
#
# number of rings (size 3 to 8) (size 9 to 14) (size 15 to 20)
#    0.000    0.000    4.286    5.143   10.000    0.000 
#    0.000    0.000    0.000    0.000    0.000    0.000 
#    0.000    0.000    0.000    0.000    0.000    0.000 
#
# Total GULP energy -347370.771168 kJ/mol
# GULP energy per Si atom -12406.098970 kJ/mol
# Density = 2.276612 g / cm^3
# Si number density = 22.818054 Si / 1000 Ang^3
#
#
#
# Elastic Constant Matrix: (Units=GPa)
#
#
# Indices 1 2 3 4 5 6 
#
# 1 99.0165 17.8173 27.6833 0.0000 0.0000 0.0000
# 2 17.8173 132.2687 37.2443 0.0000 0.0000 0.0000
# 3 27.6833 37.2443 91.1894 0.0000 0.0000 0.0000
# 4 0.0000 0.0000 0.0000 55.5300 0.0000 0.0000
# 5 0.0000 0.0000 0.0000 0.0000 48.8843 0.0000
# 6 0.0000 0.0000 0.0000 0.0000 0.0000 34.5298
#
#
#
# Elastic Compliance Matrix: (Units=1/GPa)
#
#
# Indices 1 2 3 4 5 6 
#
# 1 0.011080 -0.000616 -0.003112 0.000000 0.000000 0.000000
# 2 -0.000616 0.008577 -0.003316 0.000000 0.000000 0.000000
# 3 -0.003112 -0.003316 0.013265 0.000000 0.000000 0.000000
# 4 0.000000 0.000000 0.000000 0.018008 0.000000 0.000000
# 5 0.000000 0.000000 0.000000 0.000000 0.020456 0.000000
# 6 0.000000 0.000000 0.000000 0.000000 0.000000 0.028961
#
#
# Mechanical properties :
#
#
# Convention : Reuss Voigt Hill
#
# Bulk Modulus (GPa) = 53.09557 54.21828 53.65693
# Shear Modulus (GPa) = 41.41996 43.77080 42.59538
#
# Velocity S-wave (km/s) = 4.26517 4.38454 4.32527
# Velocity P-wave (km/s) = 6.89748 7.03171 6.96492
#
# Compressibility (1/GPa) = 0.01883396
#
# Stress axis : x y z
#
# Youngs Moduli (GPa) = 90.25026 116.58929 75.38455
#
# Poissons Ratio (x) = 0.07185 0.23460
# Poissons Ratio (y) = 0.05562 0.24998
# Poissons Ratio (z) = 0.28086 0.38662
#
# Static dielectric constant tensor:
#      x y z
#    x 4.115160 0.000000 0.000000 
#    y 0.000000 4.300820 0.000000 
#    z 0.000000 0.000000 4.137760 
# 
# 
# High freq. dielectric constant tensor:
#      x y z
#    x 1.904720 0.000000 0.000000 
#    y 0.000000 1.918630 0.000000 
#    z 0.000000 0.000000 1.907910 
# 
# From -- ./inp_files/933.got.cif
#   From: 2010.03.12/outbox.cif.g09.slc.cpg/sg33_1_cif.got.tgz:933.got - 2010.04.14 01:49:19.
