data_PCOD8171808
_publ_section_title
;
Structure prediction by ZEFSAII (Michael W. Deem and Ramdas Pophale) SiO2 
 PCOD8171808
Probable space group: P N A 21
;
_chemical_formula_sum "Si O2"
_cell_formula_units_Z 20
_cell_length_a 11.431453
_cell_length_b 4.850459
_cell_length_c 13.452636
_cell_angle_alpha 90.000000
_cell_angle_beta 90.000000
_cell_angle_gamma 90.000000
_cell_volume 745.918991
_symmetry_space_group_name_H-M "P N A 21"
_symmetry_group_IT_number 33
_symmetry_cell_setting 'orthorhombic'
loop_
_space_group_symop_operation_xyz
x,y,z
-x,-y,1/2+z
1/2-x,1/2+y,1/2+z
1/2+x,1/2-y,z
loop_
_atom_site_type_symbol
_atom_site_label
_atom_site_fract_x
_atom_site_fract_y
_atom_site_fract_z
Si Si1 0.946564 0.760964 0.227450
Si Si2 0.805843 0.712636 0.958706
Si Si3 0.292951 0.237415 0.243405
Si Si4 0.459995 0.281558 0.943196
Si Si5 0.626327 0.014109 0.091058
O O1 0.828339 0.579169 0.228457
O O2 0.018284 0.712030 0.328153
O O3 0.024869 0.681702 0.133474
O O4 0.904844 0.075628 0.212646
O O5 0.731807 0.707831 0.858418
O O6 0.851021 0.404131 0.981909
O O7 0.922290 0.901154 0.951585
O O8 0.725476 0.813791 0.048224
O O9 0.178370 0.295858 0.178379
O O10 0.576403 0.220545 0.006712
#
# Coordination Sequence:
#
# PCOD8171808 Si02
#       5
#     4   4   4   4   4
#     4  12  27  49  77 111 152 200 256 315 383 460
#     4  12  27  50  76 112 153 200 256 317 383 456
#     4  12  27  50  76 112 153 200 256 317 383 456
#     4  12  27  49  77 111 152 200 256 315 383 460
#     4  12  28  48  82 110 158 204 256 320 388 460
#
# _framework density 26.812563999999998
#
# number of rings (size 3 to 8) (size 9 to 14) (size 15 to 20)
#    0.000    0.000    4.000    4.800    0.000    3.200 
#    0.000    0.000    0.000    0.000    0.000    0.000 
#    0.000    0.000    0.000    0.000    0.000    0.000 
#
# Total GULP energy -248287.485040 kJ/mol
# GULP energy per Si atom -12414.374252 kJ/mol
# Density = 2.675154 g / cm^3
# Si number density = 26.812564 Si / 1000 Ang^3
#
#
#
# Elastic Constant Matrix: (Units=GPa)
#
#
# Indices 1 2 3 4 5 6 
#
# 1 66.0600 3.2280 2.0542 0.0000 0.0000 0.0000
# 2 3.2280 79.1024 -6.4329 0.0000 0.0000 0.0000
# 3 2.0542 -6.4329 104.2763 0.0000 0.0000 0.0000
# 4 0.0000 0.0000 0.0000 32.1018 0.0000 0.0000
# 5 0.0000 0.0000 0.0000 0.0000 46.4436 0.0000
# 6 0.0000 0.0000 0.0000 0.0000 0.0000 27.5660
#
#
#
# Elastic Compliance Matrix: (Units=1/GPa)
#
#
# Indices 1 2 3 4 5 6 
#
# 1 0.015180 -0.000647 -0.000339 0.000000 0.000000 0.000000
# 2 -0.000647 0.012733 0.000798 0.000000 0.000000 0.000000
# 3 -0.000339 0.000798 0.009646 0.000000 0.000000 0.000000
# 4 0.000000 0.000000 0.000000 0.031151 0.000000 0.000000
# 5 0.000000 0.000000 0.000000 0.000000 0.021532 0.000000
# 6 0.000000 0.000000 0.000000 0.000000 0.000000 0.036277
#
#
# Mechanical properties :
#
#
# Convention : Reuss Voigt Hill
#
# Bulk Modulus (GPa) = 26.89367 27.45971 27.17669
# Shear Modulus (GPa) = 35.89690 37.92823 36.91257
#
# Velocity S-wave (km/s) = 3.66294 3.76516 3.71440
# Velocity P-wave (km/s) = 5.28598 5.40051 5.34355
#
# Compressibility (1/GPa) = 0.03718348
#
# Stress axis : x y z
#
# Youngs Moduli (GPa) = 65.87651 78.53511 103.67177
#
# Poissons Ratio (x) = 0.05081 0.03514
# Poissons Ratio (y) = 0.04262 -0.08276
# Poissons Ratio (z) = 0.02233 -0.06269
#
# Static dielectric constant tensor:
#      x y z
#    x 4.751620 0.000000 0.000000 
#    y 0.000000 4.730310 0.000000 
#    z 0.000000 0.000000 4.980030 
# 
# 
# High freq. dielectric constant tensor:
#      x y z
#    x 2.082870 0.000000 0.000000 
#    y 0.000000 2.080000 0.000000 
#    z 0.000000 0.000000 2.097810 
# 
# From -- ./inp_files/7802.got.cif
#   From: 2010.03.12/outbox.cif.g09.slc.cpg/sg33_4_cif.got.tgz:7802.got - 2010.04.14 01:49:19.
