data_PCOD8171145
_publ_section_title
;
Structure prediction by ZEFSAII (Michael W. Deem and Ramdas Pophale) SiO2 
 PCOD8171145
Probable space group: P N A 21
;
_chemical_formula_sum "Si O2"
_cell_formula_units_Z 32
_cell_length_a 12.512183
_cell_length_b 15.856367
_cell_length_c 8.258441
_cell_angle_alpha 90.000000
_cell_angle_beta 90.000000
_cell_angle_gamma 90.000000
_cell_volume 1638.456242
_symmetry_space_group_name_H-M "P N A 21"
_symmetry_group_IT_number 33
_symmetry_cell_setting 'orthorhombic'
loop_
_space_group_symop_operation_xyz
x,y,z
-x,-y,1/2+z
1/2-x,1/2+y,1/2+z
1/2+x,1/2-y,z
loop_
_atom_site_type_symbol
_atom_site_label
_atom_site_fract_x
_atom_site_fract_y
_atom_site_fract_z
Si Si1 0.600697 0.448612 0.853690
Si Si2 0.308235 0.664648 0.776909
Si Si3 0.770357 0.819494 0.144068
Si Si4 0.791430 0.480820 0.066344
Si Si5 0.585242 0.849163 0.376078
Si Si6 0.299016 0.296993 0.062033
Si Si7 0.016227 0.900603 0.669692
Si Si8 0.159093 0.354231 0.773239
O O1 0.643672 0.375265 0.738746
O O2 0.524999 0.507134 0.746512
O O3 0.697211 0.501274 0.937365
O O4 0.527035 0.404342 0.987174
O O5 0.256210 0.584560 0.692841
O O6 0.283807 0.750090 0.679524
O O7 0.436544 0.655159 0.779283
O O8 0.262803 0.662665 0.955851
O O9 0.653077 0.840939 0.211397
O O10 0.807148 0.723428 0.161871
O O11 0.828917 0.562819 0.163255
O O12 0.889824 0.436990 0.970354
O O13 0.619046 0.769981 0.485575
O O14 0.461542 0.846399 0.334209
O O15 0.366826 0.360119 0.172029
O O16 0.235632 0.352903 0.930244
#
# Coordination Sequence:
#
# PCOD8171145 Si02
#       8
#     4   4   4   4   4   4   4   4
#     4  10  22  38  60  89 123 157 203 255 306 364
#     4  10  22  41  58  91 126 155 201 262 304 363
#     4  10  22  39  62  88 125 153 207 262 301 360
#     4   9  22  40  59  84 126 157 204 251 306 368
#     4   9  20  43  58  84 123 163 198 254 310 360
#     4  10  22  38  63  86 122 161 201 250 305 369
#     4  11  22  38  64  88 121 162 201 250 313 363
#     4  11  22  39  64  88 118 168 205 248 311 375
#
# _framework density 19.53058
#
# number of rings (size 3 to 8) (size 9 to 14) (size 15 to 20)
#    0.000    2.000    0.000    4.500    7.000    2.000 
#    4.500    1.250    0.000    0.000    0.000    0.000 
#    0.000    0.000    0.000    0.000    0.000    0.000 
#
# Total GULP energy -396799.818527 kJ/mol
# GULP energy per Si atom -12399.994329 kJ/mol
# Density = 1.948613 g / cm^3
# Si number density = 19.530580 Si / 1000 Ang^3
#
#
#
# Elastic Constant Matrix: (Units=GPa)
#
#
# Indices 1 2 3 4 5 6 
#
# 1 105.1232 41.1741 22.6581 0.0000 0.0000 0.0000
# 2 41.1741 89.5829 34.2303 0.0000 0.0000 0.0000
# 3 22.6581 34.2303 98.8173 0.0000 0.0000 0.0000
# 4 0.0000 0.0000 0.0000 -18.8662 0.0000 0.0000
# 5 0.0000 0.0000 0.0000 0.0000 24.2622 0.0000
# 6 0.0000 0.0000 0.0000 0.0000 0.0000 28.6954
#
#
#
# Elastic Compliance Matrix: (Units=1/GPa)
#
#
# Indices 1 2 3 4 5 6 
#
# 1 0.011677 -0.005007 -0.000943 0.000000 0.000000 0.000000
# 2 -0.005007 0.015012 -0.004052 0.000000 0.000000 0.000000
# 3 -0.000943 -0.004052 0.011740 0.000000 0.000000 0.000000
# 4 0.000000 0.000000 0.000000 -0.053005 0.000000 0.000000
# 5 0.000000 0.000000 0.000000 0.000000 0.041216 0.000000
# 6 0.000000 0.000000 0.000000 0.000000 0.000000 0.034849
#
#
# Mechanical properties :
#
#
# Convention : Reuss Voigt Hill
#
# Bulk Modulus (GPa) = 54.27444 54.40537 54.33990
# Shear Modulus (GPa) = 57.05489 19.84901 38.45195
#
# Velocity S-wave (km/s) = 5.41078 3.19141 4.44194
# Velocity P-wave (km/s) = 8.17833 6.44183 7.36146
#
# Compressibility (1/GPa) = 0.01842488
#
# Stress axis : x y z
#
# Youngs Moduli (GPa) = 85.63948 66.61170 85.18125
#
# Poissons Ratio (x) = 0.33349 0.08034
# Poissons Ratio (y) = 0.42876 0.34518
# Poissons Ratio (z) = 0.08077 0.26993
#
# Static dielectric constant tensor:
#      x y z
#    x 3.620390 0.000000 0.000000 
#    y 0.000000 3.555390 0.000000 
#    z 0.000000 0.000000 3.607400 
# 
# 
# High freq. dielectric constant tensor:
#      x y z
#    x 1.762310 0.000000 0.000000 
#    y 0.000000 1.759170 0.000000 
#    z 0.000000 0.000000 1.765270 
# 
# From -- ./inp_files/3924.got.cif
#   From: 2010.03.12/outbox.cif.g09.slc.cpg/sg33_2_cif.got.tgz:3924.got - 2010.04.14 01:49:19.
