data_PCOD8171725
_publ_section_title
;
Structure prediction by ZEFSAII (Michael W. Deem and Ramdas Pophale) SiO2 
 PCOD8171725
Probable space group: P N A 21
;
_chemical_formula_sum "Si O2"
_cell_formula_units_Z 16
_cell_length_a 10.055096
_cell_length_b 13.031447
_cell_length_c 4.934566
_cell_angle_alpha 90.000000
_cell_angle_beta 90.000000
_cell_angle_gamma 90.000000
_cell_volume 646.588276
_symmetry_space_group_name_H-M "P N A 21"
_symmetry_group_IT_number 33
_symmetry_cell_setting 'orthorhombic'
loop_
_space_group_symop_operation_xyz
x,y,z
-x,-y,1/2+z
1/2-x,1/2+y,1/2+z
1/2+x,1/2-y,z
loop_
_atom_site_type_symbol
_atom_site_label
_atom_site_fract_x
_atom_site_fract_y
_atom_site_fract_z
Si Si1 0.263844 0.200915 0.163090
Si Si2 0.173210 0.405628 0.946285
Si Si3 0.914448 0.982274 0.701425
Si Si4 0.910935 0.379194 0.651395
O O1 0.385569 0.181647 0.371196
O O2 0.136714 0.133280 0.250780
O O3 0.221789 0.319395 0.157366
O O4 0.307632 0.164425 0.867293
O O5 0.296703 0.438357 0.761394
O O6 0.061635 0.359784 0.745148
O O7 0.112957 0.498806 0.120955
O O8 0.958789 0.998349 0.392294
#
# Coordination Sequence:
#
# PCOD8171725 Si02
#       4
#     4   4   4   4
#     4  11  27  48  76 113 145 199 253 306 383 446
#     4  11  26  52  78 106 159 193 253 321 365 464
#     4  11  25  47  73 108 151 187 242 308 371 444
#     4  11  26  49  77 113 143 203 256 303 383 444
#
# _framework density 24.745266999999998
#
# number of rings (size 3 to 8) (size 9 to 14) (size 15 to 20)
#    0.000    1.000    0.000    6.000    3.500   12.000 
#    9.000    0.000    0.000    0.000    0.000    0.000 
#    0.000    0.000    0.000    0.000    0.000    0.000 
#
# Total GULP energy -198551.588528 kJ/mol
# GULP energy per Si atom -12409.474283 kJ/mol
# Density = 2.468895 g / cm^3
# Si number density = 24.745267 Si / 1000 Ang^3
#
#
#
# Elastic Constant Matrix: (Units=GPa)
#
#
# Indices 1 2 3 4 5 6 
#
# 1 114.4318 48.2907 12.7507 0.0000 0.0000 0.0000
# 2 48.2907 152.7099 44.8048 0.0000 0.0000 0.0000
# 3 12.7507 44.8048 94.0952 0.0000 0.0000 0.0000
# 4 0.0000 0.0000 0.0000 38.8997 0.0000 0.0000
# 5 0.0000 0.0000 0.0000 0.0000 51.5333 0.0000
# 6 0.0000 0.0000 0.0000 0.0000 0.0000 18.9240
#
#
#
# Elastic Compliance Matrix: (Units=1/GPa)
#
#
# Indices 1 2 3 4 5 6 
#
# 1 0.010087 -0.003242 0.000177 0.000000 0.000000 0.000000
# 2 -0.003242 0.008654 -0.003681 0.000000 0.000000 0.000000
# 3 0.000177 -0.003681 0.012356 0.000000 0.000000 0.000000
# 4 0.000000 0.000000 0.000000 0.025707 0.000000 0.000000
# 5 0.000000 0.000000 0.000000 0.000000 0.019405 0.000000
# 6 0.000000 0.000000 0.000000 0.000000 0.000000 0.052843
#
#
# Mechanical properties :
#
#
# Convention : Reuss Voigt Hill
#
# Bulk Modulus (GPa) = 56.80297 63.65879 60.23088
# Shear Modulus (GPa) = 33.68984 38.89745 36.29364
#
# Velocity S-wave (km/s) = 3.69381 3.96904 3.83389
# Velocity P-wave (km/s) = 6.41851 6.84002 6.63261
#
# Compressibility (1/GPa) = 0.01760471
#
# Stress axis : x y z
#
# Youngs Moduli (GPa) = 99.13623 115.55993 80.92925
#
# Poissons Ratio (x) = 0.37460 -0.01430
# Poissons Ratio (y) = 0.32136 0.29792
# Poissons Ratio (z) = -0.01751 0.42540
#
# Static dielectric constant tensor:
#      x y z
#    x 4.434230 0.000000 0.000000 
#    y 0.000000 4.469850 0.000000 
#    z 0.000000 0.000000 4.410980 
# 
# 
# High freq. dielectric constant tensor:
#      x y z
#    x 1.994090 0.000000 0.000000 
#    y 0.000000 1.980770 0.000000 
#    z 0.000000 0.000000 1.991210 
# 
# From -- ./inp_files/286.got.cif
#   From: 2010.03.12/outbox.cif.g09.slc.cpg/sg33_1_cif.got.tgz:286.got - 2010.04.14 01:49:19.
