data_PCOD8171264
_publ_section_title
;
Structure prediction by ZEFSAII (Michael W. Deem and Ramdas Pophale) SiO2 
 PCOD8171264
Probable space group: P N A 21
;
_chemical_formula_sum "Si O2"
_cell_formula_units_Z 32
_cell_length_a 15.907706
_cell_length_b 6.998977
_cell_length_c 13.357189
_cell_angle_alpha 90.000000
_cell_angle_beta 90.000000
_cell_angle_gamma 90.000000
_cell_volume 1487.158280
_symmetry_space_group_name_H-M "P N A 21"
_symmetry_group_IT_number 33
_symmetry_cell_setting 'orthorhombic'
loop_
_space_group_symop_operation_xyz
x,y,z
-x,-y,1/2+z
1/2-x,1/2+y,1/2+z
1/2+x,1/2-y,z
loop_
_atom_site_type_symbol
_atom_site_label
_atom_site_fract_x
_atom_site_fract_y
_atom_site_fract_z
Si Si1 0.567666 0.401365 0.665120
Si Si2 0.750000 0.177730 0.994847
Si Si3 0.750000 0.970913 0.201122
Si Si4 0.000000 0.250000 0.279990
Si Si5 0.067666 0.598636 0.165120
Si Si6 0.250000 0.399803 0.424863
Si Si7 0.388428 0.598284 0.947617
Si Si8 0.111572 0.598285 0.947617
O O1 0.664949 0.342304 0.690103
O O2 0.555362 0.611696 0.711274
O O3 0.500000 0.250000 0.709050
O O4 0.553201 0.415865 0.545852
O O5 0.750000 0.127081 0.112294
O O6 0.750000 0.402543 0.983497
O O7 0.831599 0.091371 0.939342
O O8 0.668401 0.091371 0.939342
O O9 0.664949 0.842303 0.190103
O O10 0.750000 0.079363 0.305752
O O11 0.943867 0.388805 0.348467
O O12 0.055362 0.388305 0.211274
O O13 0.056133 0.111196 0.348467
O O14 0.053201 0.584135 0.045852
O O15 0.167870 0.287275 0.459570
O O16 0.332131 0.287275 0.459570
#
# Coordination Sequence:
#
# PCOD8171264 Si02
#       8
#     4   4   4   4   4   4   4   4
#     4  11  25  45  69 102 137 183 230 284 345 412
#     4   9  23  41  69  96 129 182 225 283 347 402
#     4  10  22  44  64 100 136 170 240 272 338 418
#     4  12  24  42  64  96 140 174 222 292 334 408
#     4  11  25  45  69 102 137 183 230 284 345 412
#     4  11  21  45  73  94 137 184 221 291 345 402
#     4  10  23  45  64 100 137 172 237 282 335 417
#     4  10  23  45  64 100 137 172 237 282 335 417
#
# _framework density 21.517547
#
# number of rings (size 3 to 8) (size 9 to 14) (size 15 to 20)
#    0.000    1.500    3.750    0.750    3.500    4.000 
#    2.250    3.750    0.000    0.000    0.000    0.000 
#    0.000    0.000    0.000    0.000    0.000    0.000 
#
# Total GULP energy -396799.584481 kJ/mol
# GULP energy per Si atom -12399.987015 kJ/mol
# Density = 2.146857 g / cm^3
# Si number density = 21.517547 Si / 1000 Ang^3
#
#
#
# Elastic Constant Matrix: (Units=GPa)
#
#
# Indices 1 2 3 4 5 6 
#
# 1 123.9717 34.0618 33.4187 0.0000 0.0000 0.0000
# 2 34.0618 85.7525 31.6730 0.0000 0.0000 0.0000
# 3 33.4187 31.6730 132.1454 0.0000 0.0000 0.0000
# 4 0.0000 0.0000 0.0000 29.9449 0.0000 0.0000
# 5 0.0000 0.0000 0.0000 0.0000 -20.4447 0.0000
# 6 0.0000 0.0000 0.0000 0.0000 0.0000 12.1160
#
#
#
# Elastic Compliance Matrix: (Units=1/GPa)
#
#
# Indices 1 2 3 4 5 6 
#
# 1 0.009360 -0.003120 -0.001619 0.000000 0.000000 0.000000
# 2 -0.003120 0.013834 -0.002527 0.000000 0.000000 0.000000
# 3 -0.001619 -0.002527 0.008583 0.000000 0.000000 0.000000
# 4 0.000000 0.000000 0.000000 0.033395 0.000000 0.000000
# 5 0.000000 0.000000 0.000000 0.000000 -0.048912 0.000000
# 6 0.000000 0.000000 0.000000 0.000000 0.000000 0.082536
#
#
# Mechanical properties :
#
#
# Convention : Reuss Voigt Hill
#
# Bulk Modulus (GPa) = 57.98872 60.01963 59.00418
# Shear Modulus (GPa) = 41.99044 20.50429 31.24737
#
# Velocity S-wave (km/s) = 4.42232 3.09027 3.81488
# Velocity P-wave (km/s) = 7.28587 6.37863 6.84729
#
# Compressibility (1/GPa) = 0.01724473
#
# Stress axis : x y z
#
# Youngs Moduli (GPa) = 106.83692 72.28582 116.51523
#
# Poissons Ratio (x) = 0.22552 0.18868
# Poissons Ratio (y) = 0.33331 0.29441
# Poissons Ratio (z) = 0.17300 0.18265
#
# Static dielectric constant tensor:
#      x y z
#    x 9.935440 0.000000 0.000000 
#    y 0.000000 3.530200 0.000000 
#    z 0.000000 0.000000 3.923070 
# 
# 
# High freq. dielectric constant tensor:
#      x y z
#    x 1.856970 0.000000 0.000000 
#    y 0.000000 1.818460 0.000000 
#    z 0.000000 0.000000 1.853540 
# 
# From -- ./inp_files/8248.got.cif
#   From: 2010.03.12/outbox.cif.g09.slc.cpg/sg33_5_cif.got.tgz:8248.got - 2010.04.14 01:49:19.
