data_PCOD8171703
_publ_section_title
;
Structure prediction by ZEFSAII (Michael W. Deem and Ramdas Pophale) SiO2 
 PCOD8171703
Probable space group: P N A 21
;
_chemical_formula_sum "Si O2"
_cell_formula_units_Z 20
_cell_length_a 9.169390
_cell_length_b 7.045041
_cell_length_c 10.983290
_cell_angle_alpha 90.000000
_cell_angle_beta 90.000000
_cell_angle_gamma 90.000000
_cell_volume 709.506569
_symmetry_space_group_name_H-M "P N A 21"
_symmetry_group_IT_number 33
_symmetry_cell_setting 'orthorhombic'
loop_
_space_group_symop_operation_xyz
x,y,z
-x,-y,1/2+z
1/2-x,1/2+y,1/2+z
1/2+x,1/2-y,z
loop_
_atom_site_type_symbol
_atom_site_label
_atom_site_fract_x
_atom_site_fract_y
_atom_site_fract_z
Si Si1 0.097272 0.883102 0.758040
Si Si2 0.972194 0.708869 0.305108
Si Si3 0.362486 0.789720 0.919268
Si Si4 0.784641 0.119467 0.963861
Si Si5 0.509735 0.082476 0.103636
O O1 0.217961 0.882544 0.862276
O O2 0.110859 0.758768 0.630731
O O3 0.960269 0.764042 0.805058
O O4 0.049152 0.096882 0.729754
O O5 0.813695 0.627640 0.341177
O O6 0.044984 0.550150 0.221023
O O7 0.072743 0.748544 0.427682
O O8 0.329644 0.597366 0.993193
O O9 0.441077 0.943090 0.002905
O O10 0.668012 0.171096 0.071299
#
# Coordination Sequence:
#
# PCOD8171703 Si02
#       5
#     4   4   4   4   4
#     4  11  27  48  78 114 159 215 266 332 397 483
#     4  11  28  51  77 115 165 202 276 331 398 487
#     4  11  24  50  75 114 165 204 275 332 388 486
#     4  11  27  51  79 116 159 213 263 343 392 481
#     4  12  26  50  83 113 162 216 266 326 417 469
#
# _framework density 28.188600999999998
#
# number of rings (size 3 to 8) (size 9 to 14) (size 15 to 20)
#    0.000    0.800    4.000    0.000    8.400    4.800 
#    0.000    0.000    0.000    0.000    0.000    0.000 
#    0.000    0.000    0.000    0.000    0.000    0.000 
#
# Total GULP energy -247889.028562 kJ/mol
# GULP energy per Si atom -12394.451428 kJ/mol
# Density = 2.812444 g / cm^3
# Si number density = 28.188601 Si / 1000 Ang^3
#
#
#
# Elastic Constant Matrix: (Units=GPa)
#
#
# Indices 1 2 3 4 5 6 
#
# 1 149.6221 53.1931 10.6648 0.0000 0.0000 0.0000
# 2 53.1931 209.9169 31.5874 0.0000 0.0000 0.0000
# 3 10.6648 31.5874 85.8132 0.0000 0.0000 0.0000
# 4 0.0000 0.0000 0.0000 10.6980 0.0000 0.0000
# 5 0.0000 0.0000 0.0000 0.0000 34.3862 0.0000
# 6 0.0000 0.0000 0.0000 0.0000 0.0000 53.8905
#
#
#
# Elastic Compliance Matrix: (Units=1/GPa)
#
#
# Indices 1 2 3 4 5 6 
#
# 1 0.007350 -0.001826 -0.000241 0.000000 0.000000 0.000000
# 2 -0.001826 0.005497 -0.001796 0.000000 0.000000 0.000000
# 3 -0.000241 -0.001796 0.012344 0.000000 0.000000 0.000000
# 4 0.000000 0.000000 0.000000 0.093476 0.000000 0.000000
# 5 0.000000 0.000000 0.000000 0.000000 0.029081 0.000000
# 6 0.000000 0.000000 0.000000 0.000000 0.000000 0.018556
#
#
# Mechanical properties :
#
#
# Convention : Reuss Voigt Hill
#
# Bulk Modulus (GPa) = 57.26197 70.69364 63.97780
# Shear Modulus (GPa) = 27.80044 43.12205 35.46124
#
# Velocity S-wave (km/s) = 3.14384 3.91547 3.55068
# Velocity P-wave (km/s) = 5.79105 6.75089 6.28930
#
# Compressibility (1/GPa) = 0.01746360
#
# Stress axis : x y z
#
# Youngs Moduli (GPa) = 136.05561 181.92196 81.00802
#
# Poissons Ratio (x) = 0.33222 0.01954
# Poissons Ratio (y) = 0.24846 0.14552
# Poissons Ratio (z) = 0.03282 0.32681
#
# Static dielectric constant tensor:
#      x y z
#    x 5.557990 0.000000 0.000000 
#    y 0.000000 5.590900 0.000000 
#    z 0.000000 0.000000 5.477340 
# 
# 
# High freq. dielectric constant tensor:
#      x y z
#    x 2.156690 0.000000 0.000000 
#    y 0.000000 2.170100 0.000000 
#    z 0.000000 0.000000 2.172310 
# 
# From -- ./inp_files/5715.got.cif
#   From: 2010.03.12/outbox.cif.g09.slc.cpg/sg33_3_cif.got.tgz:5715.got - 2010.04.14 01:49:19.
