data_PCOD8171506
_publ_section_title
;
Structure prediction by ZEFSAII (Michael W. Deem and Ramdas Pophale) SiO2 
 PCOD8171506
Probable space group: P N A 21
;
_chemical_formula_sum "Si O2"
_cell_formula_units_Z 28
_cell_length_a 13.686412
_cell_length_b 7.691685
_cell_length_c 11.973459
_cell_angle_alpha 90.000000
_cell_angle_beta 90.000000
_cell_angle_gamma 90.000000
_cell_volume 1260.464826
_symmetry_space_group_name_H-M "P N A 21"
_symmetry_group_IT_number 33
_symmetry_cell_setting 'orthorhombic'
loop_
_space_group_symop_operation_xyz
x,y,z
-x,-y,1/2+z
1/2-x,1/2+y,1/2+z
1/2+x,1/2-y,z
loop_
_atom_site_type_symbol
_atom_site_label
_atom_site_fract_x
_atom_site_fract_y
_atom_site_fract_z
Si Si1 0.888952 0.505106 0.412800
Si Si2 0.196729 0.483269 0.380736
Si Si3 0.031456 0.698613 0.272180
Si Si4 0.502560 0.530749 0.652410
Si Si5 0.679957 0.760810 0.732485
Si Si6 0.541931 0.195057 0.539253
Si Si7 0.816662 0.803482 0.538892
O O1 0.960459 0.662402 0.376022
O O2 0.832591 0.432039 0.306793
O O3 0.819931 0.599922 0.502754
O O4 0.946875 0.341532 0.463708
O O5 0.235963 0.349874 0.290716
O O6 0.136513 0.384217 0.478596
O O7 0.291693 0.575823 0.432906
O O8 0.135317 0.619641 0.307029
O O9 0.042777 0.905413 0.249396
O O10 0.983017 0.608005 0.160801
O O11 0.579740 0.658214 0.709877
O O12 0.552681 0.404397 0.558295
O O13 0.416890 0.642948 0.598275
O O14 0.722266 0.826169 0.616005
#
# Coordination Sequence:
#
# PCOD8171506 Si02
#       7
#     4   4   4   4   4   4   4
#     4  11  24  42  71 100 142 188 237 286 363 414
#     4  11  24  44  71 106 144 188 241 292 363 426
#     4   9  22  44  72  97 143 186 239 294 352 426
#     4  10  26  46  70  92 148 188 234 294 364 404
#     4  12  28  44  72 107 143 185 247 294 358 435
#     4   9  22  44  72  97 143 186 239 294 352 426
#     4  12  28  44  72 107 143 185 247 294 358 435
#
# _framework density 22.214027000000002
#
# number of rings (size 3 to 8) (size 9 to 14) (size 15 to 20)
#    0.857    0.571    0.000    3.429   14.000    1.143 
#    0.000    0.000    0.000    0.000    0.000    0.000 
#    0.000    0.000    0.000    0.000    0.000    0.000 
#
# Total GULP energy -347052.949576 kJ/mol
# GULP energy per Si atom -12394.748199 kJ/mol
# Density = 2.216347 g / cm^3
# Si number density = 22.214027 Si / 1000 Ang^3
#
#
#
# Elastic Constant Matrix: (Units=GPa)
#
#
# Indices 1 2 3 4 5 6 
#
# 1 92.0605 35.9379 27.2358 0.0000 0.0000 0.0000
# 2 35.9379 102.7542 27.0654 0.0000 0.0000 0.0000
# 3 27.2358 27.0654 78.2569 0.0000 0.0000 0.0000
# 4 0.0000 0.0000 0.0000 51.5977 0.0000 0.0000
# 5 0.0000 0.0000 0.0000 0.0000 44.4583 0.0000
# 6 0.0000 0.0000 0.0000 0.0000 0.0000 25.1326
#
#
#
# Elastic Compliance Matrix: (Units=1/GPa)
#
#
# Indices 1 2 3 4 5 6 
#
# 1 0.013324 -0.003783 -0.003329 0.000000 0.000000 0.000000
# 2 -0.003783 0.011782 -0.002758 0.000000 0.000000 0.000000
# 3 -0.003329 -0.002758 0.014891 0.000000 0.000000 0.000000
# 4 0.000000 0.000000 0.000000 0.019381 0.000000 0.000000
# 5 0.000000 0.000000 0.000000 0.000000 0.022493 0.000000
# 6 0.000000 0.000000 0.000000 0.000000 0.000000 0.039789
#
#
# Mechanical properties :
#
#
# Convention : Reuss Voigt Hill
#
# Bulk Modulus (GPa) = 49.36696 50.39441 49.88068
# Shear Modulus (GPa) = 33.74927 36.42656 35.08792
#
# Velocity S-wave (km/s) = 3.90202 4.05384 3.97865
# Velocity P-wave (km/s) = 6.52477 6.68181 6.60375
#
# Compressibility (1/GPa) = 0.02025646
#
# Stress axis : x y z
#
# Youngs Moduli (GPa) = 75.05197 84.87809 67.15561
#
# Poissons Ratio (x) = 0.32112 0.22354
# Poissons Ratio (y) = 0.28394 0.18522
# Poissons Ratio (z) = 0.24983 0.23410
#
# Static dielectric constant tensor:
#      x y z
#    x 3.758860 0.000000 0.000000 
#    y 0.000000 3.794810 0.000000 
#    z 0.000000 0.000000 4.101150 
# 
# 
# High freq. dielectric constant tensor:
#      x y z
#    x 1.866370 0.000000 0.000000 
#    y 0.000000 1.868060 0.000000 
#    z 0.000000 0.000000 1.887920 
# 
# From -- ./inp_files/6359.got.cif
#   From: 2010.03.12/outbox.cif.g09.slc.cpg/sg33_4_cif.got.tgz:6359.got - 2010.04.14 01:49:19.
