data_PCOD8171245
_publ_section_title
;
Structure prediction by ZEFSAII (Michael W. Deem and Ramdas Pophale) SiO2 
 PCOD8171245
Probable space group: P N A 21
;
_chemical_formula_sum "Si O2"
_cell_formula_units_Z 32
_cell_length_a 13.140535
_cell_length_b 6.546270
_cell_length_c 16.942830
_cell_angle_alpha 90.000000
_cell_angle_beta 90.000000
_cell_angle_gamma 90.000000
_cell_volume 1457.447482
_symmetry_space_group_name_H-M "P N A 21"
_symmetry_group_IT_number 33
_symmetry_cell_setting 'orthorhombic'
loop_
_space_group_symop_operation_xyz
x,y,z
-x,-y,1/2+z
1/2-x,1/2+y,1/2+z
1/2+x,1/2-y,z
loop_
_atom_site_type_symbol
_atom_site_label
_atom_site_fract_x
_atom_site_fract_y
_atom_site_fract_z
Si Si1 0.938134 0.001782 0.689310
Si Si2 0.761126 0.302143 0.689429
Si Si3 0.845476 0.884970 0.928374
Si Si4 0.930139 0.726171 0.089309
Si Si5 0.490523 0.315582 0.845372
Si Si6 0.685797 0.985100 0.345505
Si Si7 0.405018 0.894762 0.604256
Si Si8 0.818240 0.716076 0.443436
O O1 0.828066 0.100883 0.705714
O O2 0.007565 0.053040 0.765531
O O3 0.990856 0.094361 0.610959
O O4 0.925773 0.759510 0.676762
O O5 0.654689 0.219245 0.657272
O O6 0.743638 0.430161 0.770185
O O7 0.816241 0.448200 0.626300
O O8 0.935690 0.041315 0.909513
O O9 0.737870 0.998062 0.938491
O O10 0.829840 0.726477 0.856360
O O11 0.877089 0.763181 0.006099
O O12 0.989710 0.511089 0.085027
O O13 0.596022 0.229011 0.876812
O O14 0.423157 0.116065 0.827816
O O15 0.737832 0.896995 0.425739
O O16 0.367635 0.761183 0.529660
#
# Coordination Sequence:
#
# PCOD8171245 Si02
#       8
#     4   4   4   4   4   4   4   4
#     4  10  23  41  66  92 130 177 217 275 329 385
#     4  10  22  43  62  95 133 168 225 277 322 400
#     4  11  23  41  67  97 132 179 216 277 342 392
#     4  11  23  40  63  97 133 166 220 277 328 396
#     4  10  22  43  63  95 134 171 228 274 322 404
#     4  10  23  40  66  93 132 176 220 274 332 393
#     4  11  23  40  66  95 127 177 221 270 342 395
#     4  11  23  40  65  98 133 170 223 272 331 403
#
# _framework density 21.956192000000001
#
# number of rings (size 3 to 8) (size 9 to 14) (size 15 to 20)
#    0.000    1.500    1.250    3.000    1.750    4.000 
#    0.000    8.750    0.000    0.000    0.000    0.000 
#    0.000    0.000    0.000    0.000    0.000    0.000 
#
# Total GULP energy -396880.409050 kJ/mol
# GULP energy per Si atom -12402.512783 kJ/mol
# Density = 2.190622 g / cm^3
# Si number density = 21.956192 Si / 1000 Ang^3
#
#
#
# Elastic Constant Matrix: (Units=GPa)
#
#
# Indices 1 2 3 4 5 6 
#
# 1 94.0070 34.8892 28.3759 0.0000 0.0000 0.0000
# 2 34.8892 88.7074 25.2402 0.0000 0.0000 0.0000
# 3 28.3759 25.2402 96.9844 0.0000 0.0000 0.0000
# 4 0.0000 0.0000 0.0000 36.3364 0.0000 0.0000
# 5 0.0000 0.0000 0.0000 0.0000 40.9543 0.0000
# 6 0.0000 0.0000 0.0000 0.0000 0.0000 25.1150
#
#
#
# Elastic Compliance Matrix: (Units=1/GPa)
#
#
# Indices 1 2 3 4 5 6 
#
# 1 0.013073 -0.004377 -0.002686 0.000000 0.000000 0.000000
# 2 -0.004377 0.013640 -0.002269 0.000000 0.000000 0.000000
# 3 -0.002686 -0.002269 0.011687 0.000000 0.000000 0.000000
# 4 0.000000 0.000000 0.000000 0.027521 0.000000 0.000000
# 5 0.000000 0.000000 0.000000 0.000000 0.024417 0.000000
# 6 0.000000 0.000000 0.000000 0.000000 0.000000 0.039817
#
#
# Mechanical properties :
#
#
# Convention : Reuss Voigt Hill
#
# Bulk Modulus (GPa) = 50.66902 50.74549 50.70725
# Shear Modulus (GPa) = 32.17536 33.22737 32.70137
#
# Velocity S-wave (km/s) = 3.83225 3.89440 3.86345
# Velocity P-wave (km/s) = 6.53521 6.58666 6.56099
#
# Compressibility (1/GPa) = 0.01973593
#
# Stress axis : x y z
#
# Youngs Moduli (GPa) = 76.49471 73.31191 85.56330
#
# Poissons Ratio (x) = 0.32092 0.22979
# Poissons Ratio (y) = 0.33485 0.19415
# Poissons Ratio (z) = 0.20544 0.16635
#
# Static dielectric constant tensor:
#      x y z
#    x 3.878160 0.000000 0.000000 
#    y 0.000000 3.754200 0.000000 
#    z 0.000000 0.000000 3.941190 
# 
# 
# High freq. dielectric constant tensor:
#      x y z
#    x 1.863780 0.000000 0.000000 
#    y 0.000000 1.853730 0.000000 
#    z 0.000000 0.000000 1.871360 
# 
# From -- ./inp_files/8763.got.cif
#   From: 2010.03.12/outbox.cif.g09.slc.cpg/sg33_5_cif.got.tgz:8763.got - 2010.04.14 01:49:19.
