data_PCOD8171589
_publ_section_title
;
Structure prediction by ZEFSAII (Michael W. Deem and Ramdas Pophale) SiO2 
 PCOD8171589
Probable space group: P N A 21
;
_chemical_formula_sum "Si O2"
_cell_formula_units_Z 28
_cell_length_a 10.130241
_cell_length_b 6.561618
_cell_length_c 19.040099
_cell_angle_alpha 90.000000
_cell_angle_beta 90.000000
_cell_angle_gamma 90.000000
_cell_volume 1265.610074
_symmetry_space_group_name_H-M "P N A 21"
_symmetry_group_IT_number 33
_symmetry_cell_setting 'orthorhombic'
loop_
_space_group_symop_operation_xyz
x,y,z
-x,-y,1/2+z
1/2-x,1/2+y,1/2+z
1/2+x,1/2-y,z
loop_
_atom_site_type_symbol
_atom_site_label
_atom_site_fract_x
_atom_site_fract_y
_atom_site_fract_z
Si Si1 0.762827 0.861184 0.519110
Si Si2 0.426033 0.536078 0.234522
Si Si3 0.768689 0.600682 0.393509
Si Si4 0.482203 0.164829 0.335849
Si Si5 0.854530 0.331763 0.776743
Si Si6 0.034782 0.916403 0.580273
Si Si7 0.621243 0.262461 0.476138
O O1 0.825330 0.770406 0.446935
O O2 0.634569 0.738744 0.543583
O O3 0.881954 0.847261 0.574919
O O4 0.714268 0.088269 0.506405
O O5 0.439986 0.375813 0.298996
O O6 0.287869 0.655410 0.240244
O O7 0.542425 0.703861 0.230061
O O8 0.427379 0.417127 0.161579
O O9 0.652473 0.709871 0.350222
O O10 0.718875 0.415161 0.438706
O O11 0.871309 0.512331 0.336410
O O12 0.515778 0.193167 0.417965
O O13 0.601232 0.065238 0.291299
O O14 0.046401 0.135534 0.542043
#
# Coordination Sequence:
#
# PCOD8171589 Si02
#       7
#     4   4   4   4   4   4   4
#     4  11  25  47  73 105 147 186 247 304 360 429
#     4  12  30  48  72 106 147 198 242 300 369 442
#     4  11  23  41  71 113 133 184 235 303 357 425
#     4  12  24  43  75 105 147 184 243 299 369 423
#     4  12  26  46  72 105 146 183 243 304 362 434
#     4  11  29  46  72 103 147 193 244 292 367 441
#     4  11  23  43  73 105 143 186 240 300 362 420
#
# _framework density 22.123716000000002
#
# number of rings (size 3 to 8) (size 9 to 14) (size 15 to 20)
#    0.000    0.571    4.286    2.571    8.000    2.286 
#    0.000    0.000    0.000    0.000    0.000    0.000 
#    0.000    0.000    0.000    0.000    0.000    0.000 
#
# Total GULP energy -347220.420522 kJ/mol
# GULP energy per Si atom -12400.729304 kJ/mol
# Density = 2.207336 g / cm^3
# Si number density = 22.123716 Si / 1000 Ang^3
#
#
#
# Elastic Constant Matrix: (Units=GPa)
#
#
# Indices 1 2 3 4 5 6 
#
# 1 121.2214 40.2838 19.9663 0.0000 0.0000 0.0000
# 2 40.2838 89.3764 12.1347 0.0000 0.0000 0.0000
# 3 19.9663 12.1347 77.1507 0.0000 0.0000 0.0000
# 4 0.0000 0.0000 0.0000 23.3871 0.0000 0.0000
# 5 0.0000 0.0000 0.0000 0.0000 26.2296 0.0000
# 6 0.0000 0.0000 0.0000 0.0000 0.0000 33.3602
#
#
#
# Elastic Compliance Matrix: (Units=1/GPa)
#
#
# Indices 1 2 3 4 5 6 
#
# 1 0.009972 -0.004235 -0.001915 0.000000 0.000000 0.000000
# 2 -0.004235 0.013231 -0.000985 0.000000 0.000000 0.000000
# 3 -0.001915 -0.000985 0.013612 0.000000 0.000000 0.000000
# 4 0.000000 0.000000 0.000000 0.042759 0.000000 0.000000
# 5 0.000000 0.000000 0.000000 0.000000 0.038125 0.000000
# 6 0.000000 0.000000 0.000000 0.000000 0.000000 0.029976
#
#
# Mechanical properties :
#
#
# Convention : Reuss Voigt Hill
#
# Bulk Modulus (GPa) = 44.35330 48.05756 46.20543
# Shear Modulus (GPa) = 29.50573 30.95297 30.22935
#
# Velocity S-wave (km/s) = 3.65591 3.74449 3.70046
# Velocity P-wave (km/s) = 6.15729 6.36116 6.26005
#
# Compressibility (1/GPa) = 0.02254624
#
# Stress axis : x y z
#
# Youngs Moduli (GPa) = 100.28126 75.58003 73.46408
#
# Poissons Ratio (x) = 0.32005 0.14066
# Poissons Ratio (y) = 0.42465 0.07237
# Poissons Ratio (z) = 0.19200 0.07446
#
# Static dielectric constant tensor:
#      x y z
#    x 3.974380 0.000000 0.000000 
#    y 0.000000 4.158400 0.000000 
#    z 0.000000 0.000000 3.919730 
# 
# 
# High freq. dielectric constant tensor:
#      x y z
#    x 1.878780 0.000000 0.000000 
#    y 0.000000 1.883640 0.000000 
#    z 0.000000 0.000000 1.858500 
# 
# From -- ./inp_files/8655.got.cif
#   From: 2010.03.12/outbox.cif.g09.slc.cpg/sg33_5_cif.got.tgz:8655.got - 2010.04.14 01:49:19.
