data_PCOD8171337
_publ_section_title
;
Structure prediction by ZEFSAII (Michael W. Deem and Ramdas Pophale) SiO2 
 PCOD8171337
Probable space group: P N A 21
;
_chemical_formula_sum "Si O2"
_cell_formula_units_Z 16
_cell_length_a 20.174816
_cell_length_b 6.808697
_cell_length_c 5.086583
_cell_angle_alpha 90.000000
_cell_angle_beta 90.000000
_cell_angle_gamma 90.000000
_cell_volume 698.714451
_symmetry_space_group_name_H-M "P N A 21"
_symmetry_group_IT_number 33
_symmetry_cell_setting 'orthorhombic'
loop_
_space_group_symop_operation_xyz
x,y,z
-x,-y,1/2+z
1/2-x,1/2+y,1/2+z
1/2+x,1/2-y,z
loop_
_atom_site_type_symbol
_atom_site_label
_atom_site_fract_x
_atom_site_fract_y
_atom_site_fract_z
Si Si1 0.343498 0.773607 0.438700
Si Si2 0.958520 0.016255 0.424490
Si Si3 0.141597 0.677376 0.735964
Si Si4 0.786431 0.387079 0.726611
O O1 0.404256 0.639246 0.526840
O O2 0.291319 0.633257 0.286930
O O3 0.371807 0.942389 0.245010
O O4 0.307788 0.883263 0.687052
O O5 0.926253 0.209316 0.293895
O O6 0.998320 0.076896 0.686917
O O7 0.170714 0.724357 0.449847
O O8 0.196489 0.731801 0.959210
#
# Coordination Sequence:
#
# PCOD8171337 Si02
#       4
#     4   4   4   4
#     4  10  26  42  72 101 142 174 229 290 351 417
#     4  12  28  45  70  98 140 192 239 276 338 417
#     4  10  25  44  67 102 137 177 226 288 340 416
#     4  10  23  41  73 101 137 169 224 288 367 394
#
# _framework density 22.899198999999999
#
# number of rings (size 3 to 8) (size 9 to 14) (size 15 to 20)
#    1.500    0.000    0.000    3.000   10.500    2.000 
#    0.000    0.000    0.000    0.000    0.000    0.000 
#    0.000    0.000    0.000    0.000    0.000    0.000 
#
# Total GULP energy -198259.807431 kJ/mol
# GULP energy per Si atom -12391.237964 kJ/mol
# Density = 2.284708 g / cm^3
# Si number density = 22.899199 Si / 1000 Ang^3
#
#
#
# Elastic Constant Matrix: (Units=GPa)
#
#
# Indices 1 2 3 4 5 6 
#
# 1 120.4020 59.5488 35.6033 0.0000 0.0000 0.0000
# 2 59.5488 102.9930 27.5888 0.0000 0.0000 0.0000
# 3 35.6033 27.5888 130.5959 0.0000 0.0000 0.0000
# 4 0.0000 0.0000 0.0000 28.1367 0.0000 0.0000
# 5 0.0000 0.0000 0.0000 0.0000 33.4465 0.0000
# 6 0.0000 0.0000 0.0000 0.0000 0.0000 33.2381
#
#
#
# Elastic Compliance Matrix: (Units=1/GPa)
#
#
# Indices 1 2 3 4 5 6 
#
# 1 0.012072 -0.006464 -0.001926 0.000000 0.000000 0.000000
# 2 -0.006464 0.013753 -0.001143 0.000000 0.000000 0.000000
# 3 -0.001926 -0.001143 0.008424 0.000000 0.000000 0.000000
# 4 0.000000 0.000000 0.000000 0.035541 0.000000 0.000000
# 5 0.000000 0.000000 0.000000 0.000000 0.029898 0.000000
# 6 0.000000 0.000000 0.000000 0.000000 0.000000 0.030086
#
#
# Mechanical properties :
#
#
# Convention : Reuss Voigt Hill
#
# Bulk Modulus (GPa) = 65.86217 66.60809 66.23513
# Shear Modulus (GPa) = 32.48863 34.38093 33.43478
#
# Velocity S-wave (km/s) = 3.77074 3.87900 3.82525
# Velocity P-wave (km/s) = 6.91247 7.01519 6.96401
#
# Compressibility (1/GPa) = 0.01518322
#
# Stress axis : x y z
#
# Youngs Moduli (GPa) = 82.83731 72.71158 118.71359
#
# Poissons Ratio (x) = 0.47000 0.22859
# Poissons Ratio (y) = 0.53546 0.13571
# Poissons Ratio (z) = 0.15950 0.08312
#
# Static dielectric constant tensor:
#      x y z
#    x 3.860140 0.000000 0.000000 
#    y 0.000000 3.882770 0.000000 
#    z 0.000000 0.000000 3.956270 
# 
# 
# High freq. dielectric constant tensor:
#      x y z
#    x 1.891590 0.000000 0.000000 
#    y 0.000000 1.895800 0.000000 
#    z 0.000000 0.000000 1.904290 
# 
# From -- ./inp_files/1587.got.cif
#   From: 2010.03.12/outbox.cif.g09.slc.cpg/sg33_1_cif.got.tgz:1587.got - 2010.04.14 01:49:19.
