data_PCOD8171566
_publ_section_title
;
Structure prediction by ZEFSAII (Michael W. Deem and Ramdas Pophale) SiO2 
 PCOD8171566
Probable space group: P N A 21
;
_chemical_formula_sum "Si O2"
_cell_formula_units_Z 24
_cell_length_a 16.368244
_cell_length_b 11.499364
_cell_length_c 5.127788
_cell_angle_alpha 90.000000
_cell_angle_beta 90.000000
_cell_angle_gamma 90.000000
_cell_volume 965.174798
_symmetry_space_group_name_H-M "P N A 21"
_symmetry_group_IT_number 33
_symmetry_cell_setting 'orthorhombic'
loop_
_space_group_symop_operation_xyz
x,y,z
-x,-y,1/2+z
1/2-x,1/2+y,1/2+z
1/2+x,1/2-y,z
loop_
_atom_site_type_symbol
_atom_site_label
_atom_site_fract_x
_atom_site_fract_y
_atom_site_fract_z
Si Si1 0.497849 0.361544 0.184810
Si Si2 0.368451 0.467291 0.486096
Si Si3 0.884630 0.253786 0.814251
Si Si4 0.786042 0.810139 0.487485
Si Si5 0.880049 0.726597 0.980543
Si Si6 0.051170 0.504986 0.294557
O O1 0.414213 0.434153 0.220620
O O2 0.568907 0.452955 0.144689
O O3 0.528541 0.283578 0.433859
O O4 0.471520 0.279738 0.945635
O O5 0.350351 0.343976 0.618863
O O6 0.289413 0.548655 0.438150
O O7 0.806990 0.269450 0.004451
O O8 0.900379 0.380777 0.690138
O O9 0.819087 0.781785 0.772116
O O10 0.844139 0.748744 0.269194
O O11 0.887611 0.589866 0.919656
O O12 0.992632 0.544168 0.535245
#
# Coordination Sequence:
#
# PCOD8171566 Si02
#       6
#     4   4   4   4   4   4
#     4  11  22  44  76 104 135 189 256 309 357 452
#     4  11  24  45  73 106 143 189 252 311 375 445
#     4  12  28  45  72 112 149 197 253 313 389 465
#     4  11  29  46  73 107 151 198 240 317 395 460
#     4  11  25  50  72 104 150 195 253 307 382 452
#     4  12  26  46  74 107 146 192 252 315 372 454
#
# _framework density 24.865960999999999
#
# number of rings (size 3 to 8) (size 9 to 14) (size 15 to 20)
#    0.000    0.667    3.333    3.000   11.667    0.000 
#    0.000    0.000    0.000    0.000    0.000    0.000 
#    0.000    0.000    0.000    0.000    0.000    0.000 
#
# Total GULP energy -297315.722545 kJ/mol
# GULP energy per Si atom -12388.155106 kJ/mol
# Density = 2.480936 g / cm^3
# Si number density = 24.865961 Si / 1000 Ang^3
#
#
#
# Elastic Constant Matrix: (Units=GPa)
#
#
# Indices 1 2 3 4 5 6 
#
# 1 58.6562 18.0708 -3.1702 0.0000 0.0000 0.0000
# 2 18.0708 168.7770 0.8782 0.0000 0.0000 0.0000
# 3 -3.1702 0.8782 57.5649 0.0000 0.0000 0.0000
# 4 0.0000 0.0000 0.0000 35.0100 0.0000 0.0000
# 5 0.0000 0.0000 0.0000 0.0000 19.6926 0.0000
# 6 0.0000 0.0000 0.0000 0.0000 0.0000 24.6478
#
#
#
# Elastic Compliance Matrix: (Units=1/GPa)
#
#
# Indices 1 2 3 4 5 6 
#
# 1 0.017688 -0.001899 0.001003 0.000000 0.000000 0.000000
# 2 -0.001899 0.006129 -0.000198 0.000000 0.000000 0.000000
# 3 0.001003 -0.000198 0.017430 0.000000 0.000000 0.000000
# 4 0.000000 0.000000 0.000000 0.028563 0.000000 0.000000
# 5 0.000000 0.000000 0.000000 0.000000 0.050781 0.000000
# 6 0.000000 0.000000 0.000000 0.000000 0.000000 0.040572
#
#
# Mechanical properties :
#
#
# Convention : Reuss Voigt Hill
#
# Bulk Modulus (GPa) = 25.60233 35.17285 30.38759
# Shear Modulus (GPa) = 28.34946 33.81803 31.08374
#
# Velocity S-wave (km/s) = 3.38019 3.69184 3.53944
# Velocity P-wave (km/s) = 5.05497 5.68758 5.38058
#
# Compressibility (1/GPa) = 0.03905894
#
# Stress axis : x y z
#
# Youngs Moduli (GPa) = 56.53624 163.14977 57.37247
#
# Poissons Ratio (x) = 0.30983 -0.05755
# Poissons Ratio (y) = 0.10736 0.01136
# Poissons Ratio (z) = -0.05671 0.03232
#
# Static dielectric constant tensor:
#      x y z
#    x 4.938240 0.000000 0.000000 
#    y 0.000000 5.061730 0.000000 
#    z 0.000000 0.000000 4.158950 
# 
# 
# High freq. dielectric constant tensor:
#      x y z
#    x 1.977240 0.000000 0.000000 
#    y 0.000000 2.015020 0.000000 
#    z 0.000000 0.000000 1.975100 
# 
# From -- ./inp_files/1704.got.cif
#   From: 2010.03.12/outbox.cif.g09.slc.cpg/sg33_1_cif.got.tgz:1704.got - 2010.04.14 01:49:19.
