data_PCOD8171507
_publ_section_title
;
Structure prediction by ZEFSAII (Michael W. Deem and Ramdas Pophale) SiO2 
 PCOD8171507
Probable space group: P N A 21
;
_chemical_formula_sum "Si O2"
_cell_formula_units_Z 32
_cell_length_a 11.788608
_cell_length_b 11.305701
_cell_length_c 10.987584
_cell_angle_alpha 90.000000
_cell_angle_beta 90.000000
_cell_angle_gamma 90.000000
_cell_volume 1464.408464
_symmetry_space_group_name_H-M "P N A 21"
_symmetry_group_IT_number 33
_symmetry_cell_setting 'orthorhombic'
loop_
_space_group_symop_operation_xyz
x,y,z
-x,-y,1/2+z
1/2-x,1/2+y,1/2+z
1/2+x,1/2-y,z
loop_
_atom_site_type_symbol
_atom_site_label
_atom_site_fract_x
_atom_site_fract_y
_atom_site_fract_z
Si Si1 0.702254 0.704422 0.475970
Si Si2 0.040524 0.564230 0.012873
Si Si3 0.309949 0.048902 0.080355
Si Si4 0.511973 0.710838 0.291066
Si Si5 0.868246 0.577664 0.305695
Si Si6 0.868767 0.995922 0.381767
Si Si7 0.213991 0.023601 0.614758
Si Si8 0.012489 0.168441 0.533959
O O1 0.716265 0.810116 0.574487
O O2 0.617178 0.749505 0.372243
O O3 0.814826 0.667079 0.404396
O O4 0.661226 0.587253 0.542884
O O5 0.152926 0.550527 0.097085
O O6 0.995661 0.696237 0.996036
O O7 0.943496 0.476794 0.062932
O O8 0.068505 0.526767 0.875495
O O9 0.282044 0.987493 0.211379
O O10 0.231189 0.991097 0.979092
O O11 0.456187 0.833346 0.239094
O O12 0.429505 0.631545 0.375558
O O13 0.549879 0.644542 0.165688
O O14 0.961819 0.092687 0.422376
O O15 0.809434 0.014688 0.252686
O O16 0.144250 0.135949 0.562931
#
# Coordination Sequence:
#
# PCOD8171507 Si02
#       8
#     4   4   4   4   4   4   4   4
#     4  11  23  45  69  96 141 181 232 293 355 425
#     4  11  26  42  67 103 140 179 231 296 355 410
#     4  12  25  41  74 101 132 188 236 284 366 427
#     4  11  21  42  69  95 138 179 228 291 343 423
#     4  11  24  44  65 105 136 184 235 292 356 426
#     4  11  25  42  69 101 129 187 237 279 354 422
#     4  10  26  47  67 101 144 182 232 298 349 420
#     4  11  24  43  70  98 138 186 227 287 352 425
#
# _framework density 21.851827
#
# number of rings (size 3 to 8) (size 9 to 14) (size 15 to 20)
#    0.000    1.000    5.000    0.750    7.000    0.000 
#    0.000    0.000    0.000    0.000    0.000    0.000 
#    0.000    0.000    0.000    0.000    0.000    0.000 
#
# Total GULP energy -396525.687549 kJ/mol
# GULP energy per Si atom -12391.427736 kJ/mol
# Density = 2.180209 g / cm^3
# Si number density = 21.851827 Si / 1000 Ang^3
#
#
#
# Elastic Constant Matrix: (Units=GPa)
#
#
# Indices 1 2 3 4 5 6 
#
# 1 73.2309 33.8433 17.6680 0.0000 0.0000 0.0000
# 2 33.8433 141.7410 50.0698 0.0000 0.0000 0.0000
# 3 17.6680 50.0698 81.6735 0.0000 0.0000 0.0000
# 4 0.0000 0.0000 0.0000 38.7380 0.0000 0.0000
# 5 0.0000 0.0000 0.0000 0.0000 37.9336 0.0000
# 6 0.0000 0.0000 0.0000 0.0000 0.0000 23.8920
#
#
#
# Elastic Compliance Matrix: (Units=1/GPa)
#
#
# Indices 1 2 3 4 5 6 
#
# 1 0.015470 -0.003206 -0.001381 0.000000 0.000000 0.000000
# 2 -0.003206 0.009670 -0.005234 0.000000 0.000000 0.000000
# 3 -0.001381 -0.005234 0.015752 0.000000 0.000000 0.000000
# 4 0.000000 0.000000 0.000000 0.025814 0.000000 0.000000
# 5 0.000000 0.000000 0.000000 0.000000 0.026362 0.000000
# 6 0.000000 0.000000 0.000000 0.000000 0.000000 0.041855
#
#
# Mechanical properties :
#
#
# Convention : Reuss Voigt Hill
#
# Bulk Modulus (GPa) = 47.06235 55.53417 51.29826
# Shear Modulus (GPa) = 30.93123 33.11698 32.02411
#
# Velocity S-wave (km/s) = 3.76639 3.89720 3.83235
# Velocity P-wave (km/s) = 6.36381 6.76166 6.56575
#
# Compressibility (1/GPa) = 0.02124841
#
# Stress axis : x y z
#
# Youngs Moduli (GPa) = 64.64005 103.41633 63.48544
#
# Poissons Ratio (x) = 0.33154 0.08769
# Poissons Ratio (y) = 0.20723 0.33231
# Poissons Ratio (z) = 0.08928 0.54133
#
# Static dielectric constant tensor:
#      x y z
#    x 3.829570 0.000000 0.000000 
#    y 0.000000 4.027260 0.000000 
#    z 0.000000 0.000000 4.116460 
# 
# 
# High freq. dielectric constant tensor:
#      x y z
#    x 1.851730 0.000000 0.000000 
#    y 0.000000 1.863920 0.000000 
#    z 0.000000 0.000000 1.864920 
# 
# From -- ./inp_files/6462.got.cif
#   From: 2010.03.12/outbox.cif.g09.slc.cpg/sg33_4_cif.got.tgz:6462.got - 2010.04.14 01:49:19.
