data_PCOD8171019
_publ_section_title
;
Structure prediction by ZEFSAII (Michael W. Deem and Ramdas Pophale) SiO2 
 PCOD8171019
Probable space group: P N A 21
;
_chemical_formula_sum "Si O2"
_cell_formula_units_Z 32
_cell_length_a 14.961660
_cell_length_b 9.076462
_cell_length_c 11.637754
_cell_angle_alpha 90.000000
_cell_angle_beta 90.000000
_cell_angle_gamma 90.000000
_cell_volume 1580.394639
_symmetry_space_group_name_H-M "P N A 21"
_symmetry_group_IT_number 33
_symmetry_cell_setting 'orthorhombic'
loop_
_space_group_symop_operation_xyz
x,y,z
-x,-y,1/2+z
1/2-x,1/2+y,1/2+z
1/2+x,1/2-y,z
loop_
_atom_site_type_symbol
_atom_site_label
_atom_site_fract_x
_atom_site_fract_y
_atom_site_fract_z
Si Si1 0.844841 0.075247 0.333110
Si Si2 0.114233 0.626729 0.913742
Si Si3 0.810825 0.620005 0.563746
Si Si4 0.848039 0.550803 0.811153
Si Si5 0.443339 0.660604 0.448176
Si Si6 0.435217 0.774628 0.013045
Si Si7 0.110065 0.944165 0.577486
Si Si8 0.975495 0.614300 0.261664
O O1 0.821610 0.246937 0.361005
O O2 0.751439 0.983471 0.329882
O O3 0.898240 0.060559 0.214113
O O4 0.908046 0.004524 0.430205
O O5 0.087303 0.511889 0.814848
O O6 0.157648 0.541778 0.020856
O O7 0.031324 0.725381 0.954463
O O8 0.836114 0.648894 0.696323
O O9 0.862146 0.747303 0.499139
O O10 0.704625 0.627214 0.539757
O O11 0.920823 0.427366 0.780839
O O12 0.869427 0.643295 0.925129
O O13 0.531011 0.658499 0.527880
O O14 0.466020 0.730088 0.324819
O O15 0.398623 0.610873 0.032300
O O16 0.444156 0.867725 0.130758
#
# Coordination Sequence:
#
# PCOD8171019 Si02
#       8
#     4   4   4   4   4   4   4   4
#     4  11  23  41  62  94 128 165 214 266 317 387
#     4  10  21  39  65  87 128 165 212 261 319 388
#     4  10  23  43  62  94 129 169 212 266 320 387
#     4  10  23  39  65  89 125 166 216 257 320 385
#     4  11  24  40  63  96 127 164 212 267 324 381
#     4  11  20  40  66  93 126 172 209 270 323 387
#     4  11  24  40  67  91 135 167 216 268 325 382
#     4  10  22  40  64  92 122 168 213 259 326 383
#
# _framework density 20.248107000000001
#
# number of rings (size 3 to 8) (size 9 to 14) (size 15 to 20)
#    0.000    1.500    3.750    0.750    5.250    0.000 
#    2.250    0.000    2.750    0.000    0.000    0.000 
#    0.000    0.000    0.000    0.000    0.000    0.000 
#
# Total GULP energy -396631.374607 kJ/mol
# GULP energy per Si atom -12394.730456 kJ/mol
# Density = 2.020202 g / cm^3
# Si number density = 20.248107 Si / 1000 Ang^3
#
#
#
# Elastic Constant Matrix: (Units=GPa)
#
#
# Indices 1 2 3 4 5 6 
#
# 1 110.4198 38.2057 44.5827 0.0000 0.0000 0.0000
# 2 38.2057 101.6692 45.0032 0.0000 0.0000 0.0000
# 3 44.5827 45.0032 126.2689 0.0000 0.0000 0.0000
# 4 0.0000 0.0000 0.0000 20.2919 0.0000 0.0000
# 5 0.0000 0.0000 0.0000 0.0000 34.4735 0.0000
# 6 0.0000 0.0000 0.0000 0.0000 0.0000 20.6096
#
#
#
# Elastic Compliance Matrix: (Units=1/GPa)
#
#
# Indices 1 2 3 4 5 6 
#
# 1 0.011253 -0.002933 -0.002928 0.000000 0.000000 0.000000
# 2 -0.002933 0.012442 -0.003399 0.000000 0.000000 0.000000
# 3 -0.002928 -0.003399 0.010165 0.000000 0.000000 0.000000
# 4 0.000000 0.000000 0.000000 0.049281 0.000000 0.000000
# 5 0.000000 0.000000 0.000000 0.000000 0.029008 0.000000
# 6 0.000000 0.000000 0.000000 0.000000 0.000000 0.048521
#
#
# Mechanical properties :
#
#
# Convention : Reuss Voigt Hill
#
# Bulk Modulus (GPa) = 65.18517 65.99346 65.58931
# Shear Modulus (GPa) = 27.12913 29.11276 28.12094
#
# Velocity S-wave (km/s) = 3.66435 3.79595 3.73073
# Velocity P-wave (km/s) = 7.08282 7.20246 7.14289
#
# Compressibility (1/GPa) = 0.01534091
#
# Stress axis : x y z
#
# Youngs Moduli (GPa) = 88.86286 80.36974 98.37768
#
# Poissons Ratio (x) = 0.23570 0.28805
# Poissons Ratio (y) = 0.26061 0.33440
# Poissons Ratio (z) = 0.26019 0.27319
#
# Static dielectric constant tensor:
#      x y z
#    x 3.764320 0.000000 0.000000 
#    y 0.000000 3.449750 0.000000 
#    z 0.000000 0.000000 3.753620 
# 
# 
# High freq. dielectric constant tensor:
#      x y z
#    x 1.798400 0.000000 0.000000 
#    y 0.000000 1.779700 0.000000 
#    z 0.000000 0.000000 1.798940 
# 
# From -- ./inp_files/6775.got.cif
#   From: 2010.03.12/outbox.cif.g09.slc.cpg/sg33_4_cif.got.tgz:6775.got - 2010.04.14 01:49:19.
