data_PCOD8171645
_publ_section_title
;
Structure prediction by ZEFSAII (Michael W. Deem and Ramdas Pophale) SiO2 
 PCOD8171645
Probable space group: P N A 21
;
_chemical_formula_sum "Si O2"
_cell_formula_units_Z 32
_cell_length_a 14.846219
_cell_length_b 11.579248
_cell_length_c 8.651095
_cell_angle_alpha 90.000000
_cell_angle_beta 90.000000
_cell_angle_gamma 90.000000
_cell_volume 1487.192886
_symmetry_space_group_name_H-M "P N A 21"
_symmetry_group_IT_number 33
_symmetry_cell_setting 'orthorhombic'
loop_
_space_group_symop_operation_xyz
x,y,z
-x,-y,1/2+z
1/2-x,1/2+y,1/2+z
1/2+x,1/2-y,z
loop_
_atom_site_type_symbol
_atom_site_label
_atom_site_fract_x
_atom_site_fract_y
_atom_site_fract_z
Si Si1 0.694426 0.528038 0.508970
Si Si2 0.367348 0.579446 0.706664
Si Si3 0.265790 0.164585 0.719693
Si Si4 0.494158 0.888611 0.613627
Si Si5 0.433636 0.346229 0.213210
Si Si6 0.378890 0.997060 0.889570
Si Si7 0.334286 0.773759 0.474617
Si Si8 0.802330 0.123430 0.497775
O O1 0.685614 0.443155 0.364049
O O2 0.742882 0.456130 0.640778
O O3 0.599644 0.579717 0.565832
O O4 0.753938 0.636725 0.465517
O O5 0.470331 0.599704 0.755589
O O6 0.325655 0.692669 0.625848
O O7 0.356125 0.471414 0.594469
O O8 0.345630 0.125348 0.837077
O O9 0.297174 0.261237 0.600366
O O10 0.176720 0.201328 0.816326
O O11 0.559036 0.788936 0.676058
O O12 0.554700 0.988191 0.536317
O O13 0.430306 0.837150 0.477867
O O14 0.432320 0.936480 0.750835
O O15 0.361511 0.352988 0.348524
O O16 0.297144 0.916359 0.947066
#
# Coordination Sequence:
#
# PCOD8171645 Si02
#       8
#     4   4   4   4   4   4   4   4
#     4  12  24  44  74 101 143 188 241 297 364 425
#     4  11  25  44  75 104 142 188 238 306 359 426
#     4  12  26  44  75 101 142 197 239 294 359 443
#     4  11  28  45  74 103 152 187 246 306 357 427
#     4  11  25  46  69 105 146 185 247 302 355 437
#     4  12  27  51  69 111 145 197 242 298 363 441
#     4  11  23  49  68 106 140 191 245 297 358 432
#     4  12  26  47  76 105 146 195 244 288 377 437
#
# _framework density 21.517047999999999
#
# number of rings (size 3 to 8) (size 9 to 14) (size 15 to 20)
#    0.000    0.500    5.000    1.500    8.750    1.000 
#    2.250    0.000    0.000    0.000    0.000    0.000 
#    0.000    0.000    0.000    0.000    0.000    0.000 
#
# Total GULP energy -396873.123810 kJ/mol
# GULP energy per Si atom -12402.285119 kJ/mol
# Density = 2.146807 g / cm^3
# Si number density = 21.517048 Si / 1000 Ang^3
#
#
#
# Elastic Constant Matrix: (Units=GPa)
#
#
# Indices 1 2 3 4 5 6 
#
# 1 86.7280 32.2340 35.7459 0.0000 0.0000 0.0000
# 2 32.2340 80.4501 17.8517 0.0000 0.0000 0.0000
# 3 35.7459 17.8517 84.9343 0.0000 0.0000 0.0000
# 4 0.0000 0.0000 0.0000 40.8021 0.0000 0.0000
# 5 0.0000 0.0000 0.0000 0.0000 39.9042 0.0000
# 6 0.0000 0.0000 0.0000 0.0000 0.0000 40.4942
#
#
#
# Elastic Compliance Matrix: (Units=1/GPa)
#
#
# Indices 1 2 3 4 5 6 
#
# 1 0.015695 -0.005059 -0.005542 0.000000 0.000000 0.000000
# 2 -0.005059 0.014669 -0.000954 0.000000 0.000000 0.000000
# 3 -0.005542 -0.000954 0.014307 0.000000 0.000000 0.000000
# 4 0.000000 0.000000 0.000000 0.024509 0.000000 0.000000
# 5 0.000000 0.000000 0.000000 0.000000 0.025060 0.000000
# 6 0.000000 0.000000 0.000000 0.000000 0.000000 0.024695
#
#
# Mechanical properties :
#
#
# Convention : Reuss Voigt Hill
#
# Bulk Modulus (GPa) = 46.38116 47.08617 46.73367
# Shear Modulus (GPa) = 33.50533 35.32548 34.41540
#
# Velocity S-wave (km/s) = 3.95036 4.05624 4.00365
# Velocity P-wave (km/s) = 6.51225 6.62330 6.56801
#
# Compressibility (1/GPa) = 0.02156048
#
# Stress axis : x y z
#
# Youngs Moduli (GPa) = 63.71594 68.17282 69.89675
#
# Poissons Ratio (x) = 0.34486 0.38738
# Poissons Ratio (y) = 0.32231 0.06669
# Poissons Ratio (z) = 0.35312 0.06504
#
# Static dielectric constant tensor:
#      x y z
#    x 3.913690 0.000000 0.000000 
#    y 0.000000 4.030670 0.000000 
#    z 0.000000 0.000000 4.002040 
# 
# 
# High freq. dielectric constant tensor:
#      x y z
#    x 1.846120 0.000000 0.000000 
#    y 0.000000 1.859240 0.000000 
#    z 0.000000 0.000000 1.853230 
# 
# From -- ./inp_files/4419.got.cif
#   From: 2010.03.12/outbox.cif.g09.slc.cpg/sg33_3_cif.got.tgz:4419.got - 2010.04.14 01:49:19.
