data_PCOD8171168
_publ_section_title
;
Structure prediction by ZEFSAII (Michael W. Deem and Ramdas Pophale) SiO2 
 PCOD8171168
Probable space group: P N A 21
;
_chemical_formula_sum "Si O2"
_cell_formula_units_Z 32
_cell_length_a 16.328914
_cell_length_b 6.731564
_cell_length_c 14.247761
_cell_angle_alpha 90.000000
_cell_angle_beta 90.000000
_cell_angle_gamma 90.000000
_cell_volume 1566.101488
_symmetry_space_group_name_H-M "P N A 21"
_symmetry_group_IT_number 33
_symmetry_cell_setting 'orthorhombic'
loop_
_space_group_symop_operation_xyz
x,y,z
-x,-y,1/2+z
1/2-x,1/2+y,1/2+z
1/2+x,1/2-y,z
loop_
_atom_site_type_symbol
_atom_site_label
_atom_site_fract_x
_atom_site_fract_y
_atom_site_fract_z
Si Si1 0.034417 0.255604 0.851070
Si Si2 0.334472 0.498286 0.714211
Si Si3 0.928312 0.911530 0.885859
Si Si4 0.719085 0.311069 0.816834
Si Si5 0.542978 0.019577 0.501285
Si Si6 0.725714 0.102393 0.166070
Si Si7 0.316893 0.279437 0.992226
Si Si8 0.934193 0.348558 0.668538
O O1 0.126515 0.266558 0.814498
O O2 0.971239 0.342172 0.773584
O O3 0.015720 0.023281 0.873733
O O4 0.023012 0.388101 0.944421
O O5 0.389458 0.631254 0.784364
O O6 0.273808 0.346364 0.763286
O O7 0.280040 0.657953 0.660672
O O8 0.394092 0.368283 0.646705
O O9 0.932836 0.706485 0.938811
O O10 0.869871 0.070121 0.933128
O O11 0.727809 0.518928 0.758929
O O12 0.749312 0.326830 0.924757
O O13 0.505477 0.103749 0.596449
O O14 0.623423 0.894666 0.530005
O O15 0.779251 0.075599 0.072075
O O16 0.635349 0.013746 0.158391
#
# Coordination Sequence:
#
# PCOD8171168 Si02
#       8
#     4   4   4   4   4   4   4   4
#     4  10  22  40  60  92 128 159 214 264 307 379
#     4   9  20  39  60  85 117 161 204 250 315 370
#     4   9  20  40  59  84 119 164 200 256 314 364
#     4  10  22  40  61  88 129 161 207 265 309 376
#     4  11  22  39  64  87 123 168 208 260 318 370
#     4  11  22  40  63  89 123 168 203 259 325 369
#     4  10  23  38  60  90 125 159 212 261 308 385
#     4  10  23  38  61  89 126 160 208 265 304 377
#
# _framework density 20.432903
#
# number of rings (size 3 to 8) (size 9 to 14) (size 15 to 20)
#    0.000    2.000    0.000    4.500    3.500    5.000 
#    2.250    0.000    0.000    0.000    0.000    0.000 
#    0.000    0.000    0.000    0.000    0.000    0.000 
#
# Total GULP energy -396652.443424 kJ/mol
# GULP energy per Si atom -12395.388857 kJ/mol
# Density = 2.038640 g / cm^3
# Si number density = 20.432903 Si / 1000 Ang^3
#
#
#
# Elastic Constant Matrix: (Units=GPa)
#
#
# Indices 1 2 3 4 5 6 
#
# 1 103.6528 30.4503 31.6494 0.0000 0.0000 0.0000
# 2 30.4503 85.4674 19.4066 0.0000 0.0000 0.0000
# 3 31.6494 19.4066 71.0693 0.0000 0.0000 0.0000
# 4 0.0000 0.0000 0.0000 30.1327 0.0000 0.0000
# 5 0.0000 0.0000 0.0000 0.0000 13.7652 0.0000
# 6 0.0000 0.0000 0.0000 0.0000 0.0000 19.8699
#
#
#
# Elastic Compliance Matrix: (Units=1/GPa)
#
#
# Indices 1 2 3 4 5 6 
#
# 1 0.011958 -0.003253 -0.004437 0.000000 0.000000 0.000000
# 2 -0.003253 0.013359 -0.002199 0.000000 0.000000 0.000000
# 3 -0.004437 -0.002199 0.016647 0.000000 0.000000 0.000000
# 4 0.000000 0.000000 0.000000 0.033186 0.000000 0.000000
# 5 0.000000 0.000000 0.000000 0.000000 0.072647 0.000000
# 6 0.000000 0.000000 0.000000 0.000000 0.000000 0.050327
#
#
# Mechanical properties :
#
#
# Convention : Reuss Voigt Hill
#
# Bulk Modulus (GPa) = 45.07406 47.02245 46.04826
# Shear Modulus (GPa) = 22.19281 24.66577 23.42929
#
# Velocity S-wave (km/s) = 3.29923 3.47819 3.38989
# Velocity P-wave (km/s) = 6.05150 6.26047 6.15687
#
# Compressibility (1/GPa) = 0.02218571
#
# Stress axis : x y z
#
# Youngs Moduli (GPa) = 83.62594 74.85774 60.06997
#
# Poissons Ratio (x) = 0.24350 0.26653
# Poissons Ratio (y) = 0.27203 0.13210
# Poissons Ratio (z) = 0.37105 0.16463
#
# Static dielectric constant tensor:
#      x y z
#    x 3.788510 0.000000 0.000000 
#    y 0.000000 3.859340 0.000000 
#    z 0.000000 0.000000 3.790570 
# 
# 
# High freq. dielectric constant tensor:
#      x y z
#    x 1.801360 0.000000 0.000000 
#    y 0.000000 1.800000 0.000000 
#    z 0.000000 0.000000 1.794760 
# 
# From -- ./inp_files/8244.got.cif
#   From: 2010.03.12/outbox.cif.g09.slc.cpg/sg33_5_cif.got.tgz:8244.got - 2010.04.14 01:49:19.
