data_PCOD8171045
_publ_section_title
;
Structure prediction by ZEFSAII (Michael W. Deem and Ramdas Pophale) SiO2 
 PCOD8171045
Probable space group: P N A 21
;
_chemical_formula_sum "Si O2"
_cell_formula_units_Z 32
_cell_length_a 9.985945
_cell_length_b 14.582327
_cell_length_c 10.081421
_cell_angle_alpha 90.000000
_cell_angle_beta 90.000000
_cell_angle_gamma 90.000000
_cell_volume 1468.039543
_symmetry_space_group_name_H-M "P N A 21"
_symmetry_group_IT_number 33
_symmetry_cell_setting 'orthorhombic'
loop_
_space_group_symop_operation_xyz
x,y,z
-x,-y,1/2+z
1/2-x,1/2+y,1/2+z
1/2+x,1/2-y,z
loop_
_atom_site_type_symbol
_atom_site_label
_atom_site_fract_x
_atom_site_fract_y
_atom_site_fract_z
Si Si1 0.631463 0.040315 0.845230
Si Si2 0.590968 0.111750 0.340594
Si Si3 0.131219 0.032280 0.199926
Si Si4 0.622278 0.193446 0.626450
Si Si5 0.785782 0.300252 0.090083
Si Si6 0.121439 0.855171 0.793033
Si Si7 0.932839 0.673803 0.553622
Si Si8 0.083896 0.835108 0.084933
O O1 0.596413 0.117717 0.737696
O O2 0.511912 0.970085 0.829024
O O3 0.782659 0.000385 0.828513
O O4 0.627211 0.080085 0.994566
O O5 0.572032 0.159677 0.482246
O O6 0.747479 0.081614 0.324822
O O7 0.556579 0.176525 0.214284
O O8 0.238640 0.098345 0.129478
O O9 0.993134 0.085294 0.222775
O O10 0.093656 0.943500 0.113891
O O11 0.779418 0.217001 0.624374
O O12 0.538540 0.285590 0.661566
O O13 0.826413 0.232279 0.210641
O O14 0.665255 0.255304 0.006121
O O15 0.917118 0.310514 0.997560
O O16 0.057252 0.820331 0.929265
#
# Coordination Sequence:
#
# PCOD8171045 Si02
#       8
#     4   4   4   4   4   4   4   4
#     4  11  24  40  64  96 130 175 213 276 332 398
#     4  10  21  40  66  94 125 166 226 268 324 398
#     4  11  24  43  63  98 137 169 219 282 332 396
#     4  10  23  42  63  90 134 170 214 268 334 387
#     4  11  22  42  65  95 130 174 217 276 332 395
#     4  10  23  39  66  95 124 170 222 273 330 395
#     4  11  23  39  67  93 127 170 222 266 334 390
#     4  10  24  41  64  95 127 174 221 269 328 399
#
# _framework density 21.797777
#
# number of rings (size 3 to 8) (size 9 to 14) (size 15 to 20)
#    0.000    1.500    2.500    1.500    7.000    5.000 
#    2.250    0.000    0.000    0.000    0.000    0.000 
#    0.000    0.000    0.000    0.000    0.000    0.000 
#
# Total GULP energy -396498.407255 kJ/mol
# GULP energy per Si atom -12390.575227 kJ/mol
# Density = 2.174816 g / cm^3
# Si number density = 21.797777 Si / 1000 Ang^3
#
#
#
# Elastic Constant Matrix: (Units=GPa)
#
#
# Indices 1 2 3 4 5 6 
#
# 1 138.7440 65.6608 13.3576 0.0000 0.0000 0.0000
# 2 65.6608 108.7738 7.2368 0.0000 0.0000 0.0000
# 3 13.3576 7.2368 37.0144 0.0000 0.0000 0.0000
# 4 0.0000 0.0000 0.0000 24.9409 0.0000 0.0000
# 5 0.0000 0.0000 0.0000 0.0000 21.6637 0.0000
# 6 0.0000 0.0000 0.0000 0.0000 0.0000 44.0077
#
#
#
# Elastic Compliance Matrix: (Units=1/GPa)
#
#
# Indices 1 2 3 4 5 6 
#
# 1 0.010320 -0.006061 -0.002539 0.000000 0.000000 0.000000
# 2 -0.006061 0.012874 -0.000330 0.000000 0.000000 0.000000
# 3 -0.002539 -0.000330 0.027997 0.000000 0.000000 0.000000
# 4 0.000000 0.000000 0.000000 0.040095 0.000000 0.000000
# 5 0.000000 0.000000 0.000000 0.000000 0.046160 0.000000
# 6 0.000000 0.000000 0.000000 0.000000 0.000000 0.022723
#
#
# Mechanical properties :
#
#
# Convention : Reuss Voigt Hill
#
# Bulk Modulus (GPa) = 30.00159 50.78252 40.39206
# Shear Modulus (GPa) = 26.43540 31.34094 28.88817
#
# Velocity S-wave (km/s) = 3.48624 3.79595 3.64439
# Velocity P-wave (km/s) = 5.47710 6.52380 6.02323
#
# Compressibility (1/GPa) = 0.03333156
#
# Stress axis : x y z
#
# Youngs Moduli (GPa) = 96.89642 77.67634 35.71759
#
# Poissons Ratio (x) = 0.47078 0.09070
# Poissons Ratio (y) = 0.58727 0.01178
# Poissons Ratio (z) = 0.24606 0.02562
#
# Static dielectric constant tensor:
#      x y z
#    x 4.515730 0.000000 0.000000 
#    y 0.000000 3.818410 0.000000 
#    z 0.000000 0.000000 3.859150 
# 
# 
# High freq. dielectric constant tensor:
#      x y z
#    x 1.884870 0.000000 0.000000 
#    y 0.000000 1.846980 0.000000 
#    z 0.000000 0.000000 1.833860 
# 
# From -- ./inp_files/5984.got.cif
#   From: 2010.03.12/outbox.cif.g09.slc.cpg/sg33_3_cif.got.tgz:5984.got - 2010.04.14 01:49:19.
