data_PCOD8171304
_publ_section_title
;
Structure prediction by ZEFSAII (Michael W. Deem and Ramdas Pophale) SiO2 
 PCOD8171304
Probable space group: P N A 21
;
_chemical_formula_sum "Si O2"
_cell_formula_units_Z 28
_cell_length_a 21.061816
_cell_length_b 12.137302
_cell_length_c 5.470499
_cell_angle_alpha 90.000000
_cell_angle_beta 90.000000
_cell_angle_gamma 90.000000
_cell_volume 1398.443471
_symmetry_space_group_name_H-M "P N A 21"
_symmetry_group_IT_number 33
_symmetry_cell_setting 'orthorhombic'
loop_
_space_group_symop_operation_xyz
x,y,z
-x,-y,1/2+z
1/2-x,1/2+y,1/2+z
1/2+x,1/2-y,z
loop_
_atom_site_type_symbol
_atom_site_label
_atom_site_fract_x
_atom_site_fract_y
_atom_site_fract_z
Si Si1 0.700547 0.869453 0.506510
Si Si2 0.066099 0.887246 0.808001
Si Si3 0.936671 0.895707 0.597631
Si Si4 0.660965 0.765496 0.998207
Si Si5 0.238295 0.401841 0.634711
Si Si6 0.340036 0.508387 0.982357
Si Si7 0.173344 0.204666 0.840737
O O1 0.663081 0.843895 0.758791
O O2 0.770269 0.814005 0.537764
O O3 0.706795 0.001454 0.476229
O O4 0.666080 0.827261 0.259022
O O5 0.092686 0.797042 0.999223
O O6 0.002009 0.839506 0.685612
O O7 0.124213 0.909438 0.622407
O O8 0.044666 0.001524 0.928939
O O9 0.897337 0.803487 0.449057
O O10 0.891758 0.937067 0.809956
O O11 0.715921 0.673518 0.970312
O O12 0.180396 0.326422 0.730770
O O13 0.279751 0.455634 0.850937
O O14 0.313376 0.605385 0.151631
#
# Coordination Sequence:
#
# PCOD8171304 Si02
#       7
#     4   4   4   4   4   4   4
#     4  11  23  39  59  91 126 163 209 245 309 386
#     4  11  21  36  60  86 128 166 199 270 315 372
#     4  11  21  35  57  92 123 159 208 253 318 378
#     4  11  24  38  61  91 123 164 206 253 312 376
#     4  11  20  39  62  86 132 164 196 263 316 373
#     4  11  20  39  56  92 126 157 211 246 318 386
#     4  10  23  36  57  92 126 161 203 256 312 379
#
# _framework density 20.022258999999998
#
# number of rings (size 3 to 8) (size 9 to 14) (size 15 to 20)
#    0.000    1.143    4.286    4.286    0.000    2.286 
#    0.000    0.000    0.000    0.000    3.714    0.000 
#    0.000    0.000    0.000    0.000    0.000    0.000 
#
# Total GULP energy -347112.511023 kJ/mol
# GULP energy per Si atom -12396.875394 kJ/mol
# Density = 1.997669 g / cm^3
# Si number density = 20.022259 Si / 1000 Ang^3
#
#
#
# Elastic Constant Matrix: (Units=GPa)
#
#
# Indices 1 2 3 4 5 6 
#
# 1 113.6823 54.2197 46.3449 0.0000 0.0000 0.0000
# 2 54.2197 98.0562 33.6773 0.0000 0.0000 0.0000
# 3 46.3449 33.6773 100.2850 0.0000 0.0000 0.0000
# 4 0.0000 0.0000 0.0000 22.2255 0.0000 0.0000
# 5 0.0000 0.0000 0.0000 0.0000 29.3024 0.0000
# 6 0.0000 0.0000 0.0000 0.0000 0.0000 17.0255
#
#
#
# Elastic Compliance Matrix: (Units=1/GPa)
#
#
# Indices 1 2 3 4 5 6 
#
# 1 0.013326 -0.005939 -0.004164 0.000000 0.000000 0.000000
# 2 -0.005939 0.014174 -0.002016 0.000000 0.000000 0.000000
# 3 -0.004164 -0.002016 0.012573 0.000000 0.000000 0.000000
# 4 0.000000 0.000000 0.000000 0.044993 0.000000 0.000000
# 5 0.000000 0.000000 0.000000 0.000000 0.034127 0.000000
# 6 0.000000 0.000000 0.000000 0.000000 0.000000 0.058736
#
#
# Mechanical properties :
#
#
# Convention : Reuss Voigt Hill
#
# Bulk Modulus (GPa) = 63.14442 64.50083 63.82263
# Shear Modulus (GPa) = 24.10276 25.56277 24.83276
#
# Velocity S-wave (km/s) = 3.47334 3.57699 3.52555
# Velocity P-wave (km/s) = 6.90587 7.02455 6.96547
#
# Compressibility (1/GPa) = 0.01583671
#
# Stress axis : x y z
#
# Youngs Moduli (GPa) = 75.03867 70.55093 79.53629
#
# Poissons Ratio (x) = 0.41897 0.33121
# Poissons Ratio (y) = 0.44562 0.16031
# Poissons Ratio (z) = 0.31248 0.14220
#
# Static dielectric constant tensor:
#      x y z
#    x 3.517910 0.000000 0.000000 
#    y 0.000000 3.760460 0.000000 
#    z 0.000000 0.000000 3.989070 
# 
# 
# High freq. dielectric constant tensor:
#      x y z
#    x 1.759830 0.000000 0.000000 
#    y 0.000000 1.761390 0.000000 
#    z 0.000000 0.000000 1.790480 
# 
# From -- ./inp_files/1976.got.cif
#   From: 2010.03.12/outbox.cif.g09.slc.cpg/sg33_1_cif.got.tgz:1976.got - 2010.04.14 01:49:19.
