data_PCOD8171989
_publ_section_title
;
Structure prediction by ZEFSAII (Michael W. Deem and Ramdas Pophale) SiO2 
 PCOD8171989
Probable space group: P N N 2
;
_chemical_formula_sum "Si O2"
_cell_formula_units_Z 32
_cell_length_a 15.550044
_cell_length_b 10.337042
_cell_length_c 9.461552
_cell_angle_alpha 90.000000
_cell_angle_beta 90.000000
_cell_angle_gamma 90.000000
_cell_volume 1520.863663
_symmetry_space_group_name_H-M "P N N 2"
_symmetry_group_IT_number 34
_symmetry_cell_setting 'orthorhombic'
loop_
_space_group_symop_operation_xyz
x,y,z
-x,-y,z
1/2-x,1/2+y,1/2+z
1/2+x,1/2-y,1/2+z
loop_
_atom_site_type_symbol
_atom_site_label
_atom_site_fract_x
_atom_site_fract_y
_atom_site_fract_z
Si Si1 0.734730 0.398115 0.184180
Si Si2 0.733912 0.424565 0.860551
Si Si3 0.934319 0.776308 0.738881
Si Si4 0.405864 0.003499 0.230188
Si Si5 0.050343 0.866987 0.965086
Si Si6 0.588745 0.749531 0.055801
Si Si7 0.635383 0.670827 0.750089
Si Si8 0.716646 0.659705 0.278614
O O1 0.641160 0.379764 0.256039
O O2 0.794636 0.274936 0.200986
O O3 0.771729 0.526746 0.261849
O O4 0.713727 0.432861 0.023668
O O5 0.836147 0.445044 0.840675
O O6 0.678773 0.529666 0.773072
O O7 0.716566 0.276965 0.808570
O O8 0.885197 0.644649 0.691558
O O9 0.989275 0.762100 0.885289
O O10 0.001625 0.815511 0.616043
O O11 0.500000 0.000000 0.303343
O O12 0.409464 0.096362 0.092018
O O13 0.146456 0.858842 0.902330
O O14 0.060750 0.840746 0.132266
O O15 0.000000 0.000000 0.936977
O O16 0.671116 0.683765 0.127731
O O17 0.590196 0.724929 0.889641
#
# Coordination Sequence:
#
# PCOD8171989 Si02
#       8
#     4   4   4   4   4   4   4   4
#     4  12  23  39  69 100 129 173 228 271 336 407
#     4  11  23  42  65 105 131 171 223 287 338 388
#     4  10  21  41  71  89 127 184 228 250 336 427
#     4   9  19  40  69  88 127 180 217 258 334 408
#     4  11  23  42  66 101 132 178 229 276 339 408
#     4   9  21  39  66  91 132 172 221 272 330 397
#     4  12  25  41  68 104 137 167 227 301 334 387
#     4  10  21  42  66  92 134 175 220 269 338 414
#
# _framework density 21.040676000000001
#
# number of rings (size 3 to 8) (size 9 to 14) (size 15 to 20)
#    0.000    1.500    5.000    0.750    0.000    4.000 
#    2.250    0.000    8.250    0.000    0.000    0.000 
#    0.000    0.000    0.000    0.000    0.000    0.000 
#
# Total GULP energy -396547.826524 kJ/mol
# GULP energy per Si atom -12392.119579 kJ/mol
# Density = 2.099279 g / cm^3
# Si number density = 21.040676 Si / 1000 Ang^3
#
#
#
# Elastic Constant Matrix: (Units=GPa)
#
#
# Indices 1 2 3 4 5 6 
#
# 1 61.8592 32.7648 28.9942 0.0000 0.0000 0.0000
# 2 32.7648 154.0709 36.2470 0.0000 0.0000 0.0000
# 3 28.9942 36.2470 119.1838 0.0000 0.0000 0.0000
# 4 0.0000 0.0000 0.0000 29.2373 0.0000 0.0000
# 5 0.0000 0.0000 0.0000 0.0000 22.7781 0.0000
# 6 0.0000 0.0000 0.0000 0.0000 0.0000 23.3753
#
#
#
# Elastic Compliance Matrix: (Units=1/GPa)
#
#
# Indices 1 2 3 4 5 6 
#
# 1 0.019686 -0.003296 -0.003787 0.000000 0.000000 0.000000
# 2 -0.003296 0.007542 -0.001492 0.000000 0.000000 0.000000
# 3 -0.003787 -0.001492 0.009765 0.000000 0.000000 0.000000
# 4 0.000000 0.000000 0.000000 0.034203 0.000000 0.000000
# 5 0.000000 0.000000 0.000000 0.000000 0.043902 0.000000
# 6 0.000000 0.000000 0.000000 0.000000 0.000000 0.042780
#
#
# Mechanical properties :
#
#
# Convention : Reuss Voigt Hill
#
# Bulk Modulus (GPa) = 50.39061 59.01398 54.70230
# Shear Modulus (GPa) = 27.52652 30.88535 29.20593
#
# Velocity S-wave (km/s) = 3.62090 3.83546 3.72972
# Velocity P-wave (km/s) = 6.44068 6.90817 6.67852
#
# Compressibility (1/GPa) = 0.01984497
#
# Stress axis : x y z
#
# Youngs Moduli (GPa) = 50.79688 132.58383 102.40207
#
# Poissons Ratio (x) = 0.43694 0.38778
# Poissons Ratio (y) = 0.16741 0.15280
# Poissons Ratio (z) = 0.19236 0.19783
#
# Static dielectric constant tensor:
#      x y z
#    x 3.595060 0.000000 0.000000 
#    y 0.000000 4.277590 0.000000 
#    z 0.000000 0.000000 3.627480 
# 
# 
# High freq. dielectric constant tensor:
#      x y z
#    x 1.801750 0.000000 0.000000 
#    y 0.000000 1.847620 0.000000 
#    z 0.000000 0.000000 1.803720 
# 
# From -- ./inp_files/3669.got.cif
#   From: 2010.03.12/outbox.cif.g09.slc.cpg/sg34_2_cif.got.tgz:3669.got - 2010.04.14 01:56:33.
