data_PCOD8171574
_publ_section_title
;
Structure prediction by ZEFSAII (Michael W. Deem and Ramdas Pophale) SiO2 
 PCOD8171574
Probable space group: P N A 21
;
_chemical_formula_sum "Si O2"
_cell_formula_units_Z 24
_cell_length_a 9.215079
_cell_length_b 15.436915
_cell_length_c 6.397589
_cell_angle_alpha 90.000000
_cell_angle_beta 90.000000
_cell_angle_gamma 90.000000
_cell_volume 910.072333
_symmetry_space_group_name_H-M "P N A 21"
_symmetry_group_IT_number 33
_symmetry_cell_setting 'orthorhombic'
loop_
_space_group_symop_operation_xyz
x,y,z
-x,-y,1/2+z
1/2-x,1/2+y,1/2+z
1/2+x,1/2-y,z
loop_
_atom_site_type_symbol
_atom_site_label
_atom_site_fract_x
_atom_site_fract_y
_atom_site_fract_z
Si Si1 0.653043 0.539343 0.623080
Si Si2 0.516867 0.367865 0.783015
Si Si3 0.285304 0.669488 0.637280
Si Si4 0.956808 0.227029 0.375811
Si Si5 0.364109 0.898589 0.934284
Si Si6 0.871167 0.493006 0.299307
O O1 0.546832 0.461470 0.680375
O O2 0.593007 0.611802 0.468335
O O3 0.702966 0.595299 0.829075
O O4 0.794374 0.495230 0.522592
O O5 0.434805 0.305178 0.615932
O O6 0.661074 0.321790 0.891662
O O7 0.437656 0.657484 0.763630
O O8 0.198216 0.580628 0.651437
O O9 0.188626 0.747334 0.741869
O O10 0.056338 0.311200 0.384123
O O11 0.459896 0.977122 0.840981
O O12 0.348891 0.915062 0.182009
#
# Coordination Sequence:
#
# PCOD8171574 Si02
#       6
#     4   4   4   4   4   4
#     4  12  26  45  82 111 153 211 270 322 404 482
#     4  12  28  49  79 115 164 213 268 346 402 499
#     4  11  26  50  75 112 161 204 266 332 403 491
#     4  11  29  49  75 116 161 209 267 338 419 485
#     4  11  25  46  76 113 153 207 265 322 402 475
#     4  11  22  47  77 109 154 202 264 326 382 482
#
# _framework density 26.371528999999999
#
# number of rings (size 3 to 8) (size 9 to 14) (size 15 to 20)
#    0.000    0.667    5.000    1.000    4.667    2.667 
#    0.000    0.000    0.000    0.000    0.000    0.000 
#    0.000    0.000    0.000    0.000    0.000    0.000 
#
# Total GULP energy -297387.670459 kJ/mol
# GULP energy per Si atom -12391.152936 kJ/mol
# Density = 2.631151 g / cm^3
# Si number density = 26.371529 Si / 1000 Ang^3
#
#
#
# Elastic Constant Matrix: (Units=GPa)
#
#
# Indices 1 2 3 4 5 6 
#
# 1 97.4351 29.0898 28.0008 0.0000 0.0000 0.0000
# 2 29.0898 52.7036 44.1808 0.0000 0.0000 0.0000
# 3 28.0008 44.1808 112.8424 0.0000 0.0000 0.0000
# 4 0.0000 0.0000 0.0000 54.4413 0.0000 0.0000
# 5 0.0000 0.0000 0.0000 0.0000 50.1915 0.0000
# 6 0.0000 0.0000 0.0000 0.0000 0.0000 32.4975
#
#
#
# Elastic Compliance Matrix: (Units=1/GPa)
#
#
# Indices 1 2 3 4 5 6 
#
# 1 0.012314 -0.006305 -0.000587 0.000000 0.000000 0.000000
# 2 -0.006305 0.031472 -0.010758 0.000000 0.000000 0.000000
# 3 -0.000587 -0.010758 0.013220 0.000000 0.000000 0.000000
# 4 0.000000 0.000000 0.000000 0.018368 0.000000 0.000000
# 5 0.000000 0.000000 0.000000 0.000000 0.019924 0.000000
# 6 0.000000 0.000000 0.000000 0.000000 0.000000 0.030772
#
#
# Mechanical properties :
#
#
# Convention : Reuss Voigt Hill
#
# Bulk Modulus (GPa) = 46.06874 51.72489 48.89682
# Shear Modulus (GPa) = 29.65530 38.20671 33.93100
#
# Velocity S-wave (km/s) = 3.35702 3.81042 3.59089
# Velocity P-wave (km/s) = 5.70379 6.24625 5.98117
#
# Compressibility (1/GPa) = 0.02170669
#
# Stress axis : x y z
#
# Youngs Moduli (GPa) = 81.20655 31.77442 75.64554
#
# Poissons Ratio (x) = 0.20032 0.04442
# Poissons Ratio (y) = 0.51197 0.81377
# Poissons Ratio (z) = 0.04769 0.34182
#
# Static dielectric constant tensor:
#      x y z
#    x 5.245900 0.000000 0.000000 
#    y 0.000000 4.736140 0.000000 
#    z 0.000000 0.000000 5.238140 
# 
# 
# High freq. dielectric constant tensor:
#      x y z
#    x 2.075970 0.000000 0.000000 
#    y 0.000000 2.053150 0.000000 
#    z 0.000000 0.000000 2.062910 
# 
# From -- ./inp_files/404.got.cif
#   From: 2010.03.12/outbox.cif.g09.slc.cpg/sg33_1_cif.got.tgz:404.got - 2010.04.14 01:49:19.
