data_PCOD8171733
_publ_section_title
;
Structure prediction by ZEFSAII (Michael W. Deem and Ramdas Pophale) SiO2 
 PCOD8171733
Probable space group: P N A 21
;
_chemical_formula_sum "Si O2"
_cell_formula_units_Z 20
_cell_length_a 17.314422
_cell_length_b 5.023426
_cell_length_c 9.720357
_cell_angle_alpha 90.000000
_cell_angle_beta 90.000000
_cell_angle_gamma 90.000000
_cell_volume 845.454467
_symmetry_space_group_name_H-M "P N A 21"
_symmetry_group_IT_number 33
_symmetry_cell_setting 'orthorhombic'
loop_
_space_group_symop_operation_xyz
x,y,z
-x,-y,1/2+z
1/2-x,1/2+y,1/2+z
1/2+x,1/2-y,z
loop_
_atom_site_type_symbol
_atom_site_label
_atom_site_fract_x
_atom_site_fract_y
_atom_site_fract_z
Si Si1 0.515038 0.895553 0.554460
Si Si2 0.105141 0.027492 0.153204
Si Si3 0.133883 0.530894 0.326834
Si Si4 0.594067 0.917760 0.830647
Si Si5 0.812459 0.917842 0.385282
O O1 0.473847 0.604826 0.570384
O O2 0.594173 0.881662 0.469241
O O3 0.454162 0.085647 0.473876
O O4 0.535726 0.997253 0.707643
O O5 0.113979 0.231673 0.280807
O O6 0.102699 0.727935 0.208509
O O7 0.177805 0.052668 0.049801
O O8 0.224627 0.547789 0.345532
O O9 0.663206 0.127625 0.835189
O O10 0.632929 0.631482 0.807679
#
# Coordination Sequence:
#
# PCOD8171733 Si02
#       5
#     4   4   4   4   4
#     4  11  26  48  74 107 140 195 239 301 360 433
#     4  11  26  47  71 105 144 184 250 299 356 438
#     4  12  27  45  75 104 144 192 242 299 370 430
#     4  11  26  48  73 105 146 188 243 299 361 437
#     4  11  27  46  73 103 148 189 240 302 367 432
#
# _framework density 23.655915
#
# number of rings (size 3 to 8) (size 9 to 14) (size 15 to 20)
#    0.000    0.800    2.000    3.600   11.200    4.800 
#    0.000    0.000    0.000    0.000    0.000    0.000 
#    0.000    0.000    0.000    0.000    0.000    0.000 
#
# Total GULP energy -248030.394755 kJ/mol
# GULP energy per Si atom -12401.519738 kJ/mol
# Density = 2.360207 g / cm^3
# Si number density = 23.655915 Si / 1000 Ang^3
#
#
#
# Elastic Constant Matrix: (Units=GPa)
#
#
# Indices 1 2 3 4 5 6 
#
# 1 131.9114 13.9368 37.0935 0.0000 0.0000 0.0000
# 2 13.9368 71.4064 14.3322 0.0000 0.0000 0.0000
# 3 37.0935 14.3322 117.1891 0.0000 0.0000 0.0000
# 4 0.0000 0.0000 0.0000 33.2304 0.0000 0.0000
# 5 0.0000 0.0000 0.0000 0.0000 36.3521 0.0000
# 6 0.0000 0.0000 0.0000 0.0000 0.0000 23.0556
#
#
#
# Elastic Compliance Matrix: (Units=1/GPa)
#
#
# Indices 1 2 3 4 5 6 
#
# 1 0.008410 -0.001135 -0.002523 0.000000 0.000000 0.000000
# 2 -0.001135 0.014510 -0.001415 0.000000 0.000000 0.000000
# 3 -0.002523 -0.001415 0.009505 0.000000 0.000000 0.000000
# 4 0.000000 0.000000 0.000000 0.030093 0.000000 0.000000
# 5 0.000000 0.000000 0.000000 0.000000 0.027509 0.000000
# 6 0.000000 0.000000 0.000000 0.000000 0.000000 0.043373
#
#
# Mechanical properties :
#
#
# Convention : Reuss Voigt Hill
#
# Bulk Modulus (GPa) = 44.88725 50.13689 47.51207
# Shear Modulus (GPa) = 33.11841 35.53726 34.32783
#
# Velocity S-wave (km/s) = 3.74572 3.88010 3.81350
# Velocity P-wave (km/s) = 6.14195 6.42758 6.28639
#
# Compressibility (1/GPa) = 0.02227804
#
# Stress axis : x y z
#
# Youngs Moduli (GPa) = 118.90171 68.91821 105.20787
#
# Poissons Ratio (x) = 0.07822 0.26547
# Poissons Ratio (y) = 0.13496 0.14890
# Poissons Ratio (z) = 0.30002 0.09754
#
# Static dielectric constant tensor:
#      x y z
#    x 4.202670 0.000000 0.000000 
#    y 0.000000 4.086050 0.000000 
#    z 0.000000 0.000000 4.344810 
# 
# 
# High freq. dielectric constant tensor:
#      x y z
#    x 1.942980 0.000000 0.000000 
#    y 0.000000 1.936180 0.000000 
#    z 0.000000 0.000000 1.943500 
# 
# From -- ./inp_files/4568.got.cif
#   From: 2010.03.12/outbox.cif.g09.slc.cpg/sg33_3_cif.got.tgz:4568.got - 2010.04.14 01:49:19.
