data_PCOD8171606
_publ_section_title
;
Structure prediction by ZEFSAII (Michael W. Deem and Ramdas Pophale) SiO2 
 PCOD8171606
Probable space group: P N A 21
;
_chemical_formula_sum "Si O2"
_cell_formula_units_Z 28
_cell_length_a 19.766314
_cell_length_b 11.241398
_cell_length_c 4.833017
_cell_angle_alpha 90.000000
_cell_angle_beta 90.000000
_cell_angle_gamma 90.000000
_cell_volume 1073.901223
_symmetry_space_group_name_H-M "P N A 21"
_symmetry_group_IT_number 33
_symmetry_cell_setting 'orthorhombic'
loop_
_space_group_symop_operation_xyz
x,y,z
-x,-y,1/2+z
1/2-x,1/2+y,1/2+z
1/2+x,1/2-y,z
loop_
_atom_site_type_symbol
_atom_site_label
_atom_site_fract_x
_atom_site_fract_y
_atom_site_fract_z
Si Si1 0.885190 0.237016 0.226790
Si Si2 0.842993 0.909910 0.709817
Si Si3 0.547698 0.989409 0.668500
Si Si4 0.298025 0.277717 0.719941
Si Si5 0.464841 0.467882 0.951726
Si Si6 0.244353 0.034414 0.676946
Si Si7 0.331222 0.850430 0.962329
O O1 0.914675 0.369041 0.263239
O O2 0.859437 0.175640 0.516884
O O3 0.940887 0.158354 0.070734
O O4 0.817768 0.236918 0.038915
O O5 0.808757 0.924458 0.413386
O O6 0.844869 0.775120 0.817562
O O7 0.918089 0.959290 0.733565
O O8 0.802197 0.001593 0.914760
O O9 0.497378 0.959789 0.417221
O O10 0.600853 0.092492 0.586814
O O11 0.288296 0.147189 0.586785
O O12 0.226093 0.344759 0.700982
O O13 0.475607 0.552118 0.223577
O O14 0.298784 0.933885 0.730423
#
# Coordination Sequence:
#
# PCOD8171606 Si02
#       7
#     4   4   4   4   4   4   4
#     4  12  25  49  75 102 150 185 248 298 371 429
#     4  11  26  44  70 107 141 182 240 298 368 426
#     4  12  30  47  73 108 151 202 241 294 366 449
#     4  11  23  44  74 109 137 187 227 309 366 425
#     4  12  27  46  72  98 139 195 247 292 350 434
#     4  11  23  44  68 109 140 175 225 300 373 420
#     4  11  26  44  78 103 148 176 246 297 368 437
#
# _framework density 26.073163000000001
#
# number of rings (size 3 to 8) (size 9 to 14) (size 15 to 20)
#    0.000    0.571    1.429    6.000    4.000    5.714 
#    0.000    0.000    0.000    0.000    0.000    0.000 
#    0.000    0.000    0.000    0.000    0.000    0.000 
#
# Total GULP energy -347078.506904 kJ/mol
# GULP energy per Si atom -12395.660961 kJ/mol
# Density = 2.601382 g / cm^3
# Si number density = 26.073163 Si / 1000 Ang^3
#
#
#
# Elastic Constant Matrix: (Units=GPa)
#
#
# Indices 1 2 3 4 5 6 
#
# 1 63.1055 17.6410 12.8793 0.0000 0.0000 0.0000
# 2 17.6410 71.0190 -23.8938 0.0000 0.0000 0.0000
# 3 12.8793 -23.8938 114.8860 0.0000 0.0000 0.0000
# 4 0.0000 0.0000 0.0000 32.3154 0.0000 0.0000
# 5 0.0000 0.0000 0.0000 0.0000 24.9196 0.0000
# 6 0.0000 0.0000 0.0000 0.0000 0.0000 25.0640
#
#
#
# Elastic Compliance Matrix: (Units=1/GPa)
#
#
# Indices 1 2 3 4 5 6 
#
# 1 0.018047 -0.005552 -0.003178 0.000000 0.000000 0.000000
# 2 -0.005552 0.016848 0.004126 0.000000 0.000000 0.000000
# 3 -0.003178 0.004126 0.009919 0.000000 0.000000 0.000000
# 4 0.000000 0.000000 0.000000 0.030945 0.000000 0.000000
# 5 0.000000 0.000000 0.000000 0.000000 0.040129 0.000000
# 6 0.000000 0.000000 0.000000 0.000000 0.000000 0.039898
#
#
# Mechanical properties :
#
#
# Convention : Reuss Voigt Hill
#
# Bulk Modulus (GPa) = 28.08427 29.14039 28.61233
# Shear Modulus (GPa) = 28.27063 32.61872 30.44467
#
# Velocity S-wave (km/s) = 3.29641 3.54085 3.42082
# Velocity P-wave (km/s) = 5.02824 5.28370 5.15755
#
# Compressibility (1/GPa) = 0.03560712
#
# Stress axis : x y z
#
# Youngs Moduli (GPa) = 55.41048 59.35359 100.81914
#
# Poissons Ratio (x) = 0.32953 0.32039
# Poissons Ratio (y) = 0.30764 -0.41603
# Poissons Ratio (z) = 0.17609 -0.24492
#
# Static dielectric constant tensor:
#      x y z
#    x 4.957650 0.000000 0.000000 
#    y 0.000000 4.896930 0.000000 
#    z 0.000000 0.000000 4.737830 
# 
# 
# High freq. dielectric constant tensor:
#      x y z
#    x 2.050690 0.000000 0.000000 
#    y 0.000000 2.056380 0.000000 
#    z 0.000000 0.000000 2.060220 
# 
# From -- ./inp_files/1721.got.cif
#   From: 2010.03.12/outbox.cif.g09.slc.cpg/sg33_1_cif.got.tgz:1721.got - 2010.04.14 01:49:19.
