data_PCOD8171972
_publ_section_title
;
Structure prediction by ZEFSAII (Michael W. Deem and Ramdas Pophale) SiO2 
 PCOD8171972
Probable space group: P N N 2
;
_chemical_formula_sum "Si O2"
_cell_formula_units_Z 32
_cell_length_a 8.441482
_cell_length_b 14.375036
_cell_length_c 12.213564
_cell_angle_alpha 90.000000
_cell_angle_beta 90.000000
_cell_angle_gamma 90.000000
_cell_volume 1482.074559
_symmetry_space_group_name_H-M "P N N 2"
_symmetry_group_IT_number 34
_symmetry_cell_setting 'orthorhombic'
loop_
_space_group_symop_operation_xyz
x,y,z
-x,-y,z
1/2-x,1/2+y,1/2+z
1/2+x,1/2-y,1/2+z
loop_
_atom_site_type_symbol
_atom_site_label
_atom_site_fract_x
_atom_site_fract_y
_atom_site_fract_z
Si Si1 0.445402 0.903484 0.619300
Si Si2 0.980372 0.823045 0.320690
Si Si3 0.157540 0.942255 0.015521
Si Si4 0.673713 0.747718 0.630665
Si Si5 0.725428 0.941988 0.214118
Si Si6 0.978899 0.716040 0.746454
Si Si7 0.743721 0.166827 0.822240
Si Si8 0.779917 0.593862 0.895722
O O1 0.598096 0.842135 0.581338
O O2 0.340276 0.850877 0.707486
O O3 0.337737 0.930058 0.516087
O O4 0.500000 0.000000 0.672774
O O5 0.101646 0.761663 0.251405
O O6 0.091110 0.881699 0.403983
O O7 0.893700 0.894009 0.237576
O O8 0.852000 0.754256 0.379304
O O9 0.117964 0.838585 0.056682
O O10 0.265163 0.996197 0.103898
O O11 0.252259 0.923646 0.901340
O O12 0.000000 0.000000 0.989810
O O13 0.864317 0.750915 0.647395
O O14 0.589895 0.865349 0.196910
O O15 0.685079 0.006438 0.317357
O O16 0.078576 0.802269 0.792918
O O17 0.877778 0.680522 0.849093
#
# Coordination Sequence:
#
# PCOD8171972 Si02
#       8
#     4   4   4   4   4   4   4   4
#     4  11  25  46  62  86 128 182 223 265 324 409
#     4   9  19  40  65  96 130 166 213 272 335 388
#     4  12  22  39  67 101 136 171 214 282 349 398
#     4  10  21  40  68  89 129 168 216 273 339 387
#     4  11  19  37  68 106 129 157 223 289 338 385
#     4  10  21  39  66 101 128 165 221 280 330 399
#     4  10  25  42  61  93 136 179 215 257 334 420
#     4  11  20  37  69  94 123 165 219 274 329 380
#
# _framework density 21.591356999999999
#
# number of rings (size 3 to 8) (size 9 to 14) (size 15 to 20)
#    0.000    1.500    3.750    2.250    0.000    3.000 
#    2.250    3.750    0.000    0.000    0.000    0.000 
#    0.000    0.000    0.000    0.000    0.000    0.000 
#
# Total GULP energy -396692.579443 kJ/mol
# GULP energy per Si atom -12396.643108 kJ/mol
# Density = 2.154221 g / cm^3
# Si number density = 21.591357 Si / 1000 Ang^3
#
#
#
# Elastic Constant Matrix: (Units=GPa)
#
#
# Indices 1 2 3 4 5 6 
#
# 1 128.0081 51.7923 37.2261 0.0000 0.0000 0.0000
# 2 51.7923 102.4519 35.8996 0.0000 0.0000 0.0000
# 3 37.2261 35.8996 90.5764 0.0000 0.0000 0.0000
# 4 0.0000 0.0000 0.0000 29.3396 0.0000 0.0000
# 5 0.0000 0.0000 0.0000 0.0000 24.4145 0.0000
# 6 0.0000 0.0000 0.0000 0.0000 0.0000 25.7609
#
#
#
# Elastic Compliance Matrix: (Units=1/GPa)
#
#
# Indices 1 2 3 4 5 6 
#
# 1 0.010292 -0.004321 -0.002517 0.000000 0.000000 0.000000
# 2 -0.004321 0.013149 -0.003436 0.000000 0.000000 0.000000
# 3 -0.002517 -0.003436 0.013437 0.000000 0.000000 0.000000
# 4 0.000000 0.000000 0.000000 0.034084 0.000000 0.000000
# 5 0.000000 0.000000 0.000000 0.000000 0.040959 0.000000
# 6 0.000000 0.000000 0.000000 0.000000 0.000000 0.038819
#
#
# Mechanical properties :
#
#
# Convention : Reuss Voigt Hill
#
# Bulk Modulus (GPa) = 61.23735 63.43024 62.33379
# Shear Modulus (GPa) = 28.29161 28.97757 28.63459
#
# Velocity S-wave (km/s) = 3.62376 3.66743 3.64566
# Velocity P-wave (km/s) = 6.77735 6.88293 6.83034
#
# Compressibility (1/GPa) = 0.01632990
#
# Stress axis : x y z
#
# Youngs Moduli (GPa) = 97.15930 76.05203 74.42268
#
# Poissons Ratio (x) = 0.32862 0.18736
# Poissons Ratio (y) = 0.41982 0.25569
# Poissons Ratio (z) = 0.24460 0.26129
#
# Static dielectric constant tensor:
#      x y z
#    x 4.270150 0.000000 0.000000 
#    y 0.000000 3.977480 0.000000 
#    z 0.000000 0.000000 3.583200 
# 
# 
# High freq. dielectric constant tensor:
#      x y z
#    x 1.858590 0.000000 0.000000 
#    y 0.000000 1.843400 0.000000 
#    z 0.000000 0.000000 1.822430 
# 
# From -- ./inp_files/5113.got.cif
#   From: 2010.03.12/outbox.cif.g09.slc.cpg/sg34_3_cif.got.tgz:5113.got - 2010.04.14 01:56:33.
