data_PCOD8171219
_publ_section_title
;
Structure prediction by ZEFSAII (Michael W. Deem and Ramdas Pophale) SiO2 
 PCOD8171219
Probable space group: P N A 21
;
_chemical_formula_sum "Si O2"
_cell_formula_units_Z 28
_cell_length_a 23.005706
_cell_length_b 5.077910
_cell_length_c 11.300394
_cell_angle_alpha 90.000000
_cell_angle_beta 90.000000
_cell_angle_gamma 90.000000
_cell_volume 1320.122249
_symmetry_space_group_name_H-M "P N A 21"
_symmetry_group_IT_number 33
_symmetry_cell_setting 'orthorhombic'
loop_
_space_group_symop_operation_xyz
x,y,z
-x,-y,1/2+z
1/2-x,1/2+y,1/2+z
1/2+x,1/2-y,z
loop_
_atom_site_type_symbol
_atom_site_label
_atom_site_fract_x
_atom_site_fract_y
_atom_site_fract_z
Si Si1 0.922187 0.418044 0.097750
Si Si2 0.602408 0.383382 0.165721
Si Si3 0.333041 0.043294 0.296534
Si Si4 0.860003 0.558113 0.867221
Si Si5 0.199667 0.950475 0.312312
Si Si6 0.521267 0.428345 0.699233
Si Si7 0.389054 0.538816 0.396242
O O1 0.861645 0.395223 0.169517
O O2 0.964193 0.637896 0.153141
O O3 0.955898 0.141847 0.103858
O O4 0.909031 0.482182 0.961656
O O5 0.661460 0.547332 0.191448
O O6 0.547569 0.545076 0.216368
O O7 0.608312 0.104958 0.238546
O O8 0.596208 0.352788 0.025863
O O9 0.264134 0.042040 0.281970
O O10 0.355499 0.258260 0.392426
O O11 0.348188 0.750113 0.334614
O O12 0.828266 0.833241 0.902890
O O13 0.808534 0.339996 0.865636
O O14 0.550258 0.485399 0.826494
#
# Coordination Sequence:
#
# PCOD8171219 Si02
#       7
#     4   4   4   4   4   4   4
#     4  10  22  42  63  89 121 166 214 255 310 372
#     4  10  26  40  63  98 128 164 210 261 321 375
#     4  10  22  42  63  91 121 168 210 257 314 379
#     4  10  23  40  58  96 119 162 204 257 311 374
#     4  10  23  39  62  94 125 160 212 254 324 367
#     4  10  23  40  65  92 120 172 207 259 313 373
#     4  10  23  41  64  90 130 162 213 259 317 374
#
# _framework density 21.210156999999999
#
# number of rings (size 3 to 8) (size 9 to 14) (size 15 to 20)
#    0.857    1.143    0.000    1.714    6.000    2.286 
#    2.571    0.000    0.000    0.000    0.000    0.000 
#    0.000    0.000    0.000    0.000    0.000    0.000 
#
# Total GULP energy -347033.063928 kJ/mol
# GULP energy per Si atom -12394.037997 kJ/mol
# Density = 2.116188 g / cm^3
# Si number density = 21.210157 Si / 1000 Ang^3
#
#
#
# Elastic Constant Matrix: (Units=GPa)
#
#
# Indices 1 2 3 4 5 6 
#
# 1 111.3790 -4.9934 33.9820 0.0000 0.0000 0.0000
# 2 -4.9934 82.0351 16.0188 0.0000 0.0000 0.0000
# 3 33.9820 16.0188 105.4823 0.0000 0.0000 0.0000
# 4 0.0000 0.0000 0.0000 27.6337 0.0000 0.0000
# 5 0.0000 0.0000 0.0000 0.0000 16.5304 0.0000
# 6 0.0000 0.0000 0.0000 0.0000 0.0000 20.2691
#
#
#
# Elastic Compliance Matrix: (Units=1/GPa)
#
#
# Indices 1 2 3 4 5 6 
#
# 1 0.010087 0.001287 -0.003445 0.000000 0.000000 0.000000
# 2 0.001287 0.012727 -0.002347 0.000000 0.000000 0.000000
# 3 -0.003445 -0.002347 0.010947 0.000000 0.000000 0.000000
# 4 0.000000 0.000000 0.000000 0.036188 0.000000 0.000000
# 5 0.000000 0.000000 0.000000 0.000000 0.060495 0.000000
# 6 0.000000 0.000000 0.000000 0.000000 0.000000 0.049336
#
#
# Mechanical properties :
#
#
# Convention : Reuss Voigt Hill
#
# Bulk Modulus (GPa) = 40.40543 43.21235 41.80889
# Shear Modulus (GPa) = 25.37561 29.81258 27.59409
#
# Velocity S-wave (km/s) = 3.46264 3.75317 3.61083
# Velocity P-wave (km/s) = 5.92266 6.26094 6.09415
#
# Compressibility (1/GPa) = 0.02474915
#
# Stress axis : x y z
#
# Youngs Moduli (GPa) = 99.13622 78.57579 91.35286
#
# Poissons Ratio (x) = -0.10110 0.31472
# Poissons Ratio (y) = -0.12756 0.21442
# Poissons Ratio (z) = 0.34153 0.18443
#
# Static dielectric constant tensor:
#      x y z
#    x 3.691550 0.000000 0.000000 
#    y 0.000000 3.926410 0.000000 
#    z 0.000000 0.000000 3.528630 
# 
# 
# High freq. dielectric constant tensor:
#      x y z
#    x 1.829660 0.000000 0.000000 
#    y 0.000000 1.844170 0.000000 
#    z 0.000000 0.000000 1.807200 
# 
# From -- ./inp_files/7159.got.cif
#   From: 2010.03.12/outbox.cif.g09.slc.cpg/sg33_4_cif.got.tgz:7159.got - 2010.04.14 01:49:19.
