data_PCOD8171424
_publ_section_title
;
Structure prediction by ZEFSAII (Michael W. Deem and Ramdas Pophale) SiO2 
 PCOD8171424
Probable space group: P N A 21
;
_chemical_formula_sum "Si O2"
_cell_formula_units_Z 20
_cell_length_a 9.343207
_cell_length_b 5.128835
_cell_length_c 18.479343
_cell_angle_alpha 90.000000
_cell_angle_beta 90.000000
_cell_angle_gamma 90.000000
_cell_volume 885.525812
_symmetry_space_group_name_H-M "P N A 21"
_symmetry_group_IT_number 33
_symmetry_cell_setting 'orthorhombic'
loop_
_space_group_symop_operation_xyz
x,y,z
-x,-y,1/2+z
1/2-x,1/2+y,1/2+z
1/2+x,1/2-y,z
loop_
_atom_site_type_symbol
_atom_site_label
_atom_site_fract_x
_atom_site_fract_y
_atom_site_fract_z
Si Si1 0.180388 0.523228 0.887540
Si Si2 0.928311 0.335900 0.680398
Si Si3 0.149411 0.525336 0.337339
Si Si4 0.507373 0.665340 0.617884
Si Si5 0.781791 0.526141 0.550049
O O1 0.266842 0.252291 0.879838
O O2 0.017140 0.498602 0.860109
O O3 0.266303 0.753735 0.847322
O O4 0.175206 0.589086 0.972574
O O5 0.843364 0.395464 0.753438
O O6 0.002746 0.054051 0.680960
O O7 0.817627 0.315704 0.612771
O O8 0.042434 0.568535 0.662929
O O9 0.615792 0.594304 0.554035
O O10 0.363569 0.706166 0.571161
#
# Coordination Sequence:
#
# PCOD8171424 Si02
#       5
#     4   4   4   4   4
#     4  12  28  46  73 104 151 186 242 291 372 422
#     4  10  26  41  72  97 141 175 241 278 351 412
#     4  12  28  46  73 104 148 190 234 297 365 431
#     4  10  24  39  71  96 132 174 237 286 341 400
#     4  10  26  42  73  97 140 177 240 282 347 415
#
# _framework density 22.585450999999999
#
# number of rings (size 3 to 8) (size 9 to 14) (size 15 to 20)
#    1.200    0.000    0.000    3.600   14.000    0.000 
#    0.000    0.000    0.000    0.000    0.000    0.000 
#    0.000    0.000    0.000    0.000    0.000    0.000 
#
# Total GULP energy -247762.734606 kJ/mol
# GULP energy per Si atom -12388.136730 kJ/mol
# Density = 2.253405 g / cm^3
# Si number density = 22.585451 Si / 1000 Ang^3
#
#
#
# Elastic Constant Matrix: (Units=GPa)
#
#
# Indices 1 2 3 4 5 6 
#
# 1 127.2327 42.3918 24.6382 0.0000 0.0000 0.0000
# 2 42.3918 128.2052 9.4318 0.0000 0.0000 0.0000
# 3 24.6382 9.4318 136.9506 0.0000 0.0000 0.0000
# 4 0.0000 0.0000 0.0000 29.3993 0.0000 0.0000
# 5 0.0000 0.0000 0.0000 0.0000 32.3175 0.0000
# 6 0.0000 0.0000 0.0000 0.0000 0.0000 25.8177
#
#
#
# Elastic Compliance Matrix: (Units=1/GPa)
#
#
# Indices 1 2 3 4 5 6 
#
# 1 0.009106 -0.002905 -0.001438 0.000000 0.000000 0.000000
# 2 -0.002905 0.008767 -0.000081 0.000000 0.000000 0.000000
# 3 -0.001438 -0.000081 0.007566 0.000000 0.000000 0.000000
# 4 0.000000 0.000000 0.000000 0.034014 0.000000 0.000000
# 5 0.000000 0.000000 0.000000 0.000000 0.030943 0.000000
# 6 0.000000 0.000000 0.000000 0.000000 0.000000 0.038733
#
#
# Mechanical properties :
#
#
# Convention : Reuss Voigt Hill
#
# Bulk Modulus (GPa) = 60.27724 60.59024 60.43374
# Shear Modulus (GPa) = 34.84119 38.56866 36.70492
#
# Velocity S-wave (km/s) = 3.93190 4.13689 4.03570
# Velocity P-wave (km/s) = 6.88183 7.05009 6.96647
#
# Compressibility (1/GPa) = 0.01659001
#
# Stress axis : x y z
#
# Youngs Moduli (GPa) = 109.81695 114.06966 132.16636
#
# Poissons Ratio (x) = 0.33139 0.19008
# Poissons Ratio (y) = 0.31904 0.01072
# Poissons Ratio (z) = 0.15793 0.00925
#
# Static dielectric constant tensor:
#      x y z
#    x 3.950830 0.000000 0.000000 
#    y 0.000000 4.169080 0.000000 
#    z 0.000000 0.000000 3.963260 
# 
# 
# High freq. dielectric constant tensor:
#      x y z
#    x 1.885470 0.000000 0.000000 
#    y 0.000000 1.898540 0.000000 
#    z 0.000000 0.000000 1.890420 
# 
# From -- ./inp_files/8399.got.cif
#   From: 2010.03.12/outbox.cif.g09.slc.cpg/sg33_5_cif.got.tgz:8399.got - 2010.04.14 01:49:19.
