data_PCOD8171268
_publ_section_title
;
Structure prediction by ZEFSAII (Michael W. Deem and Ramdas Pophale) SiO2 
 PCOD8171268
Probable space group: P N A 21
;
_chemical_formula_sum "Si O2"
_cell_formula_units_Z 28
_cell_length_a 11.585577
_cell_length_b 10.320783
_cell_length_c 10.763630
_cell_angle_alpha 90.000000
_cell_angle_beta 90.000000
_cell_angle_gamma 90.000000
_cell_volume 1287.031201
_symmetry_space_group_name_H-M "P N A 21"
_symmetry_group_IT_number 33
_symmetry_cell_setting 'orthorhombic'
loop_
_space_group_symop_operation_xyz
x,y,z
-x,-y,1/2+z
1/2-x,1/2+y,1/2+z
1/2+x,1/2-y,z
loop_
_atom_site_type_symbol
_atom_site_label
_atom_site_fract_x
_atom_site_fract_y
_atom_site_fract_z
Si Si1 0.762741 0.832876 0.292700
Si Si2 0.732545 0.171246 0.043973
Si Si3 0.707258 0.766356 0.908782
Si Si4 0.096592 0.927387 0.733545
Si Si5 0.831157 0.905092 0.710029
Si Si6 0.170423 0.381208 0.602892
Si Si7 0.090767 0.568172 0.102993
O O1 0.738459 0.750181 0.417806
O O2 0.822680 0.739395 0.194464
O O3 0.645992 0.900786 0.238991
O O4 0.853514 0.949521 0.309484
O O5 0.846263 0.097399 0.097383
O O6 0.677898 0.267145 0.144233
O O7 0.635345 0.060682 0.032581
O O8 0.621252 0.701008 0.811573
O O9 0.774783 0.887847 0.846736
O O10 0.803603 0.667287 0.962827
O O11 0.623535 0.810097 0.018632
O O12 0.961840 0.951910 0.718898
O O13 0.765067 0.012334 0.632960
O O14 0.045846 0.446634 0.614263
#
# Coordination Sequence:
#
# PCOD8171268 Si02
#       7
#     4   4   4   4   4   4   4
#     4  10  23  44  64 100 130 176 219 267 334 393
#     4  10  23  44  64 100 130 176 219 267 334 393
#     4  10  22  44  66  98 130 176 218 266 342 390
#     4  10  23  43  68  95 137 168 222 276 323 403
#     4  11  24  42  67  99 130 173 222 270 337 395
#     4  11  24  42  67  99 130 173 222 270 337 395
#     4  10  23  43  68  95 137 168 222 276 323 403
#
# _framework density 21.755496000000001
#
# number of rings (size 3 to 8) (size 9 to 14) (size 15 to 20)
#    0.000    1.714    0.000    2.571    8.000    1.143 
#   25.714    0.000    0.000    0.000    0.000    0.000 
#    0.000    0.000    0.000    0.000    0.000    0.000 
#
# Total GULP energy -347193.795093 kJ/mol
# GULP energy per Si atom -12399.778396 kJ/mol
# Density = 2.170598 g / cm^3
# Si number density = 21.755496 Si / 1000 Ang^3
#
#
#
# Elastic Constant Matrix: (Units=GPa)
#
#
# Indices 1 2 3 4 5 6 
#
# 1 136.6001 25.1470 22.4516 0.0000 0.0000 0.0000
# 2 25.1470 87.1502 16.1336 0.0000 0.0000 0.0000
# 3 22.4516 16.1336 89.9817 0.0000 0.0000 0.0000
# 4 0.0000 0.0000 0.0000 44.7718 0.0000 0.0000
# 5 0.0000 0.0000 0.0000 0.0000 20.1308 0.0000
# 6 0.0000 0.0000 0.0000 0.0000 0.0000 29.7845
#
#
#
# Elastic Compliance Matrix: (Units=1/GPa)
#
#
# Indices 1 2 3 4 5 6 
#
# 1 0.007955 -0.001994 -0.001627 0.000000 0.000000 0.000000
# 2 -0.001994 0.012368 -0.001720 0.000000 0.000000 0.000000
# 3 -0.001627 -0.001720 0.011828 0.000000 0.000000 0.000000
# 4 0.000000 0.000000 0.000000 0.022335 0.000000 0.000000
# 5 0.000000 0.000000 0.000000 0.000000 0.049675 0.000000
# 6 0.000000 0.000000 0.000000 0.000000 0.000000 0.033575
#
#
# Mechanical properties :
#
#
# Convention : Reuss Voigt Hill
#
# Bulk Modulus (GPa) = 46.58073 49.02183 47.80128
# Shear Modulus (GPa) = 32.13870 35.60408 33.87139
#
# Velocity S-wave (km/s) = 3.84769 4.04983 3.95005
# Velocity P-wave (km/s) = 6.41850 6.66709 6.54398
#
# Compressibility (1/GPa) = 0.02146811
#
# Stress axis : x y z
#
# Youngs Moduli (GPa) = 125.70341 80.85194 84.54639
#
# Poissons Ratio (x) = 0.16123 0.13759
# Poissons Ratio (y) = 0.25068 0.14542
# Poissons Ratio (z) = 0.20457 0.13907
#
# Static dielectric constant tensor:
#      x y z
#    x 3.873400 0.000000 0.000000 
#    y 0.000000 4.128950 0.000000 
#    z 0.000000 0.000000 4.073760 
# 
# 
# High freq. dielectric constant tensor:
#      x y z
#    x 1.843370 0.000000 0.000000 
#    y 0.000000 1.870850 0.000000 
#    z 0.000000 0.000000 1.854970 
# 
# From -- ./inp_files/6329.got.cif
#   From: 2010.03.12/outbox.cif.g09.slc.cpg/sg33_4_cif.got.tgz:6329.got - 2010.04.14 01:49:19.
