data_PCOD8171655
_publ_section_title
;
Structure prediction by ZEFSAII (Michael W. Deem and Ramdas Pophale) SiO2 
 PCOD8171655
Probable space group: P N A 21
;
_chemical_formula_sum "Si O2"
_cell_formula_units_Z 32
_cell_length_a 8.632348
_cell_length_b 15.289178
_cell_length_c 11.848556
_cell_angle_alpha 90.000000
_cell_angle_beta 90.000000
_cell_angle_gamma 90.000000
_cell_volume 1563.790254
_symmetry_space_group_name_H-M "P N A 21"
_symmetry_group_IT_number 33
_symmetry_cell_setting 'orthorhombic'
loop_
_space_group_symop_operation_xyz
x,y,z
-x,-y,1/2+z
1/2-x,1/2+y,1/2+z
1/2+x,1/2-y,z
loop_
_atom_site_type_symbol
_atom_site_label
_atom_site_fract_x
_atom_site_fract_y
_atom_site_fract_z
Si Si1 0.147906 0.984634 0.607280
Si Si2 0.181336 0.861520 0.801470
Si Si3 0.704452 0.530834 0.143945
Si Si4 0.704547 0.967502 0.889710
Si Si5 0.132019 0.291356 0.640487
Si Si6 0.850749 0.486003 0.924691
Si Si7 0.635783 0.289791 0.396741
Si Si8 0.312481 0.137862 0.733432
O O1 0.167239 0.892133 0.671405
O O2 0.197859 0.972493 0.477150
O O3 0.264873 0.055258 0.658854
O O4 0.974154 0.019101 0.614588
O O5 0.230664 0.943172 0.877366
O O6 0.302953 0.782533 0.808869
O O7 0.016792 0.831444 0.846537
O O8 0.740789 0.494447 0.266541
O O9 0.737283 0.634048 0.134049
O O10 0.812829 0.476126 0.057218
O O11 0.523380 0.980963 0.904817
O O12 0.735876 0.865111 0.912289
O O13 0.100867 0.253576 0.516817
O O14 0.189091 0.215778 0.725113
O O15 0.977551 0.331677 0.689579
O O16 0.824881 0.392676 0.863701
#
# Coordination Sequence:
#
# PCOD8171655 Si02
#       8
#     4   4   4   4   4   4   4   4
#     4  11  25  44  67 104 140 186 231 288 359 426
#     4  11  24  42  69 101 141 177 234 296 355 412
#     4  12  25  45  74 101 142 185 236 291 359 422
#     4  12  25  45  74 101 142 185 236 291 359 422
#     4  12  23  41  71 109 135 181 237 302 347 419
#     4  11  25  44  67 104 140 186 231 288 359 426
#     4  12  23  41  71 109 135 181 237 302 347 419
#     4  11  24  42  69 101 141 177 234 296 355 412
#
# _framework density 20.463103
#
# number of rings (size 3 to 8) (size 9 to 14) (size 15 to 20)
#    0.000    0.500    5.000    3.750    3.500    0.000 
#    0.000    1.250    0.000    0.000    0.000    0.000 
#    0.000    0.000    0.000    0.000    0.000    0.000 
#
# Total GULP energy -396976.393153 kJ/mol
# GULP energy per Si atom -12405.512286 kJ/mol
# Density = 2.041653 g / cm^3
# Si number density = 20.463103 Si / 1000 Ang^3
#
#
#
# Elastic Constant Matrix: (Units=GPa)
#
#
# Indices 1 2 3 4 5 6 
#
# 1 114.7438 41.4391 12.6046 0.0000 0.0000 0.0000
# 2 41.4391 110.2939 44.3144 0.0000 0.0000 0.0000
# 3 12.6046 44.3144 93.9048 0.0000 0.0000 0.0000
# 4 0.0000 0.0000 0.0000 47.9462 0.0000 0.0000
# 5 0.0000 0.0000 0.0000 0.0000 28.0769 0.0000
# 6 0.0000 0.0000 0.0000 0.0000 0.0000 31.1439
#
#
#
# Elastic Compliance Matrix: (Units=1/GPa)
#
#
# Indices 1 2 3 4 5 6 
#
# 1 0.010105 -0.004012 0.000537 0.000000 0.000000 0.000000
# 2 -0.004012 0.012781 -0.005493 0.000000 0.000000 0.000000
# 3 0.000537 -0.005493 0.013169 0.000000 0.000000 0.000000
# 4 0.000000 0.000000 0.000000 0.020857 0.000000 0.000000
# 5 0.000000 0.000000 0.000000 0.000000 0.035617 0.000000
# 6 0.000000 0.000000 0.000000 0.000000 0.000000 0.032109
#
#
# Mechanical properties :
#
#
# Convention : Reuss Voigt Hill
#
# Bulk Modulus (GPa) = 55.19099 57.29542 56.24320
# Shear Modulus (GPa) = 33.64420 36.13902 34.89161
#
# Velocity S-wave (km/s) = 4.05920 4.20701 4.13376
# Velocity P-wave (km/s) = 6.99993 7.18740 7.09428
#
# Compressibility (1/GPa) = 0.01811890
#
# Stress axis : x y z
#
# Youngs Moduli (GPa) = 98.95950 78.23972 75.93491
#
# Poissons Ratio (x) = 0.31393 -0.04079
# Poissons Ratio (y) = 0.39707 0.41711
# Poissons Ratio (z) = -0.05315 0.42977
#
# Static dielectric constant tensor:
#      x y z
#    x 3.898750 0.000000 0.000000 
#    y 0.000000 4.073850 0.000000 
#    z 0.000000 0.000000 3.994090 
# 
# 
# High freq. dielectric constant tensor:
#      x y z
#    x 1.821450 0.000000 0.000000 
#    y 0.000000 1.794930 0.000000 
#    z 0.000000 0.000000 1.798130 
# 
# From -- ./inp_files/6026.got.cif
#   From: 2010.03.12/outbox.cif.g09.slc.cpg/sg33_4_cif.got.tgz:6026.got - 2010.04.14 01:49:19.
