data_PCOD8171851
_publ_section_title
;
Structure prediction by ZEFSAII (Michael W. Deem and Ramdas Pophale) SiO2 
 PCOD8171851
Probable space group: P N N 2
;
_chemical_formula_sum "Si O2"
_cell_formula_units_Z 30
_cell_length_a 19.081220
_cell_length_b 9.248343
_cell_length_c 9.066449
_cell_angle_alpha 90.000000
_cell_angle_beta 90.000000
_cell_angle_gamma 90.000000
_cell_volume 1599.953240
_symmetry_space_group_name_H-M "P N N 2"
_symmetry_group_IT_number 34
_symmetry_cell_setting 'orthorhombic'
loop_
_space_group_symop_operation_xyz
x,y,z
-x,-y,z
1/2-x,1/2+y,1/2+z
1/2+x,1/2-y,1/2+z
loop_
_atom_site_type_symbol
_atom_site_label
_atom_site_fract_x
_atom_site_fract_y
_atom_site_fract_z
Si Si1 0.668950 0.439836 0.638190
Si Si2 0.650046 0.483334 0.160290
Si Si3 0.262446 0.034824 0.407804
Si Si4 0.146179 0.807318 0.928461
Si Si5 0.002656 0.670518 0.983680
Si Si6 0.500000 0.500000 0.022224
Si Si7 0.026489 0.147075 0.242690
Si Si8 0.648008 0.243151 0.381123
O O1 0.735470 0.458964 0.741306
O O2 0.643933 0.594944 0.575493
O O3 0.610623 0.359339 0.737155
O O4 0.689205 0.337812 0.501983
O O5 0.667949 0.600687 0.285310
O O6 0.569110 0.507933 0.119510
O O7 0.660403 0.320096 0.222986
O O8 0.701191 0.508749 0.021920
O O9 0.323865 0.917684 0.397155
O O10 0.295330 0.186077 0.456794
O O11 0.070911 0.732679 0.902651
O O12 0.935394 0.745428 0.909683
O O13 0.000000 0.500000 0.967127
O O14 0.003458 0.712699 0.158104
O O15 0.497789 0.642752 0.914464
O O16 0.000000 0.000000 0.160440
#
# Coordination Sequence:
#
# PCOD8171851 Si02
#       8
#     4   4   4   4   4   2   4   4
#     4  10  20  37  58  82 112 149 195 225 272 344
#     4  11  23  37  61  86 112 150 194 232 281 335
#     4  12  21  39  57  84 121 150 180 235 287 337
#     4  11  22  37  60  85 112 152 189 231 284 337
#     4  11  20  37  60  87 114 148 188 238 284 333
#     4  10  18  38  62  84 106 142 196 246 272 320
#     4   9  17  33  61  83 106 142 193 229 270 325
#     4  10  23  37  58  87 114 148 191 236 276 337
#
# _framework density 18.750547000000001
#
# number of rings (size 3 to 8) (size 9 to 14) (size 15 to 20)
#    0.400    1.067    4.000    2.400    0.000    0.000 
#    0.000    0.000    2.933    0.000    0.000    0.000 
#    0.000    0.000    0.000    0.000    0.000    0.000 
#
# Total GULP energy -371895.268227 kJ/mol
# GULP energy per Si atom -12396.508941 kJ/mol
# Density = 1.870787 g / cm^3
# Si number density = 18.750547 Si / 1000 Ang^3
#
#
#
# Elastic Constant Matrix: (Units=GPa)
#
#
# Indices 1 2 3 4 5 6 
#
# 1 89.3496 19.9755 29.2295 0.0000 0.0000 0.0000
# 2 19.9755 89.5083 25.1697 0.0000 0.0000 0.0000
# 3 29.2295 25.1697 74.1665 0.0000 0.0000 0.0000
# 4 0.0000 0.0000 0.0000 16.3557 0.0000 0.0000
# 5 0.0000 0.0000 0.0000 0.0000 29.6190 0.0000
# 6 0.0000 0.0000 0.0000 0.0000 0.0000 26.2493
#
#
#
# Elastic Compliance Matrix: (Units=1/GPa)
#
#
# Indices 1 2 3 4 5 6 
#
# 1 0.013058 -0.001622 -0.004596 0.000000 0.000000 0.000000
# 2 -0.001622 0.012552 -0.003621 0.000000 0.000000 0.000000
# 3 -0.004596 -0.003621 0.016523 0.000000 0.000000 0.000000
# 4 0.000000 0.000000 0.000000 0.061141 0.000000 0.000000
# 5 0.000000 0.000000 0.000000 0.000000 0.033762 0.000000
# 6 0.000000 0.000000 0.000000 0.000000 0.000000 0.038096
#
#
# Mechanical properties :
#
#
# Convention : Reuss Voigt Hill
#
# Bulk Modulus (GPa) = 44.52996 44.64152 44.58574
# Shear Modulus (GPa) = 24.71643 26.35480 25.53562
#
# Velocity S-wave (km/s) = 3.63460 3.75313 3.69434
# Velocity P-wave (km/s) = 6.43537 6.53002 6.48287
#
# Compressibility (1/GPa) = 0.02245679
#
# Stress axis : x y z
#
# Youngs Moduli (GPa) = 76.58117 79.66724 60.52104
#
# Poissons Ratio (x) = 0.12920 0.27815
# Poissons Ratio (y) = 0.12420 0.21913
# Poissons Ratio (z) = 0.35196 0.28845
#
# Static dielectric constant tensor:
#      x y z
#    x 3.351380 0.000000 0.000000 
#    y 0.000000 3.342340 0.000000 
#    z 0.000000 0.000000 3.322230 
# 
# 
# High freq. dielectric constant tensor:
#      x y z
#    x 1.731130 0.000000 0.000000 
#    y 0.000000 1.718020 0.000000 
#    z 0.000000 0.000000 1.720640 
# 
# From -- ./inp_files/2882.got.cif
#   From: 2010.03.12/outbox.cif.g09.slc.cpg/sg34_2_cif.got.tgz:2882.got - 2010.04.14 01:56:33.
