data_PCOD8171833
_publ_section_title
;
Structure prediction by ZEFSAII (Michael W. Deem and Ramdas Pophale) SiO2 
 PCOD8171833
Probable space group: P N N 2
;
_chemical_formula_sum "Si O2"
_cell_formula_units_Z 32
_cell_length_a 16.472111
_cell_length_b 9.445517
_cell_length_c 11.545439
_cell_angle_alpha 90.000000
_cell_angle_beta 90.000000
_cell_angle_gamma 90.000000
_cell_volume 1796.327197
_symmetry_space_group_name_H-M "P N N 2"
_symmetry_group_IT_number 34
_symmetry_cell_setting 'orthorhombic'
loop_
_space_group_symop_operation_xyz
x,y,z
-x,-y,z
1/2-x,1/2+y,1/2+z
1/2+x,1/2-y,1/2+z
loop_
_atom_site_type_symbol
_atom_site_label
_atom_site_fract_x
_atom_site_fract_y
_atom_site_fract_z
Si Si1 0.298908 0.741628 0.093750
Si Si2 0.601190 0.863851 0.866274
Si Si3 0.183324 0.498011 0.028923
Si Si4 0.075249 0.313802 0.415161
Si Si5 0.245752 0.821225 0.330678
Si Si6 0.558965 0.799214 0.607340
Si Si7 0.379314 0.757176 0.663139
Si Si8 0.331981 0.450090 0.626345
O O1 0.260653 0.595681 0.050424
O O2 0.302312 0.739685 0.234828
O O3 0.243159 0.877993 0.055591
O O4 0.386314 0.750792 0.032561
O O5 0.521702 0.789657 0.923230
O O6 0.685784 0.786505 0.900848
O O7 0.592379 0.861855 0.728076
O O8 0.601852 0.023845 0.908781
O O9 0.102141 0.595440 0.015107
O O10 0.180603 0.386446 0.135587
O O11 0.193981 0.406880 0.912722
O O12 0.108703 0.234372 0.300208
O O13 0.186019 0.930200 0.263625
O O14 0.462655 0.803248 0.599085
O O15 0.586755 0.636374 0.592346
O O16 0.344868 0.615451 0.602099
#
# Coordination Sequence:
#
# PCOD8171833 Si02
#       8
#     4   4   4   4   4   4   4   4
#     4   9  20  35  48  76 114 137 171 226 278 323
#     4   9  17  33  51  82 100 137 176 229 268 325
#     4  11  19  32  52  75 107 140 173 223 272 331
#     4  10  18  30  57  76 108 134 175 226 282 312
#     4   9  19  33  52  74 112 137 181 214 281 327
#     4   9  17  33  49  75 112 127 170 232 273 304
#     4  11  18  28  54  83  97 137 184 216 270 328
#     4   8  18  32  47  76 106 135 167 219 266 326
#
# _framework density 17.814128
#
# number of rings (size 3 to 8) (size 9 to 14) (size 15 to 20)
#    0.750    1.750    2.500    1.500    1.750    0.000 
#    0.000    1.875    5.500    0.000    0.000    0.000 
#    0.000    0.000    0.000    0.000    0.000    0.000 
#
# Total GULP energy -396430.752011 kJ/mol
# GULP energy per Si atom -12388.461000 kJ/mol
# Density = 1.777358 g / cm^3
# Si number density = 17.814128 Si / 1000 Ang^3
#
#
#
# Elastic Constant Matrix: (Units=GPa)
#
#
# Indices 1 2 3 4 5 6 
#
# 1 75.2291 25.6736 35.1311 0.0000 0.0000 0.0000
# 2 25.6736 82.6997 15.0184 0.0000 0.0000 0.0000
# 3 35.1311 15.0184 54.7476 0.0000 0.0000 0.0000
# 4 0.0000 0.0000 0.0000 17.4927 0.0000 0.0000
# 5 0.0000 0.0000 0.0000 0.0000 28.2012 0.0000
# 6 0.0000 0.0000 0.0000 0.0000 0.0000 25.9859
#
#
#
# Elastic Compliance Matrix: (Units=1/GPa)
#
#
# Indices 1 2 3 4 5 6 
#
# 1 0.020238 -0.004130 -0.011853 0.000000 0.000000 0.000000
# 2 -0.004130 0.013569 -0.001072 0.000000 0.000000 0.000000
# 3 -0.011853 -0.001072 0.026166 0.000000 0.000000 0.000000
# 4 0.000000 0.000000 0.000000 0.057167 0.000000 0.000000
# 5 0.000000 0.000000 0.000000 0.000000 0.035459 0.000000
# 6 0.000000 0.000000 0.000000 0.000000 0.000000 0.038482
#
#
# Mechanical properties :
#
#
# Convention : Reuss Voigt Hill
#
# Bulk Modulus (GPa) = 38.66751 40.48031 39.57391
# Shear Modulus (GPa) = 21.38471 23.45952 22.42212
#
# Velocity S-wave (km/s) = 3.46849 3.63286 3.55162
# Velocity P-wave (km/s) = 6.14766 6.35373 6.25155
#
# Compressibility (1/GPa) = 0.02586150
#
# Stress axis : x y z
#
# Youngs Moduli (GPa) = 49.41313 73.69876 38.21770
#
# Poissons Ratio (x) = 0.30438 0.45301
# Poissons Ratio (y) = 0.20408 0.04097
# Poissons Ratio (z) = 0.58571 0.07901
#
# Static dielectric constant tensor:
#      x y z
#    x 3.229760 0.000000 0.000000 
#    y 0.000000 3.256280 0.000000 
#    z 0.000000 0.000000 2.907690 
# 
# 
# High freq. dielectric constant tensor:
#      x y z
#    x 1.674950 0.000000 0.000000 
#    y 0.000000 1.695220 0.000000 
#    z 0.000000 0.000000 1.643000 
# 
# From -- ./inp_files/5807.got.cif
#   From: 2010.03.12/outbox.cif.g09.slc.cpg/sg34_3_cif.got.tgz:5807.got - 2010.04.14 01:56:33.
