data_PCOD8171964
_publ_section_title
;
Structure prediction by ZEFSAII (Michael W. Deem and Ramdas Pophale) SiO2 
 PCOD8171964
Probable space group: P N N 2
;
_chemical_formula_sum "Si O2"
_cell_formula_units_Z 30
_cell_length_a 8.190177
_cell_length_b 12.636593
_cell_length_c 14.231546
_cell_angle_alpha 90.000000
_cell_angle_beta 90.000000
_cell_angle_gamma 90.000000
_cell_volume 1472.907136
_symmetry_space_group_name_H-M "P N N 2"
_symmetry_group_IT_number 34
_symmetry_cell_setting 'orthorhombic'
loop_
_space_group_symop_operation_xyz
x,y,z
-x,-y,z
1/2-x,1/2+y,1/2+z
1/2+x,1/2-y,1/2+z
loop_
_atom_site_type_symbol
_atom_site_label
_atom_site_fract_x
_atom_site_fract_y
_atom_site_fract_z
Si Si1 0.014428 0.786620 0.338310
Si Si2 0.090067 0.100741 0.824180
Si Si3 0.225232 0.733681 0.171676
Si Si4 0.153373 0.574251 0.011505
Si Si5 0.021204 0.617824 0.655275
Si Si6 0.000000 0.000000 0.450457
Si Si7 0.646914 0.783956 0.338566
Si Si8 0.628783 0.909465 0.950208
O O1 0.831088 0.744695 0.342318
O O2 0.082281 0.790299 0.231736
O O3 0.111081 0.703228 0.400287
O O4 0.035991 0.901454 0.383294
O O5 0.191194 0.147068 0.737731
O O6 0.195673 0.054341 0.911497
O O7 0.969071 0.187963 0.867399
O O8 0.000000 0.000000 0.780052
O O9 0.152563 0.673508 0.082067
O O10 0.348608 0.824505 0.134987
O O11 0.000000 0.500000 0.040022
O O12 0.334459 0.518618 0.012830
O O13 0.115897 0.617385 0.907432
O O14 0.000000 0.500000 0.695278
O O15 0.118634 0.683492 0.731488
O O16 0.128246 0.610932 0.561049
O O17 0.500000 0.000000 0.921324
#
# Coordination Sequence:
#
# PCOD8171964 Si02
#       8
#     4   4   4   4   4   2   4   4
#     4  10  22  41  65  90 132 163 215 270 328 396
#     4  10  22  39  63  88 126 167 216 266 327 393
#     4  10  24  41  60  99 128 166 217 274 331 406
#     4  11  25  42  68  97 135 174 226 277 339 406
#     4  10  21  38  63  87 125 164 211 264 326 386
#     4  10  24  42  70  96 132 182 220 276 338 404
#     4  10  22  39  61  94 122 170 216 266 324 400
#     4  10  21  39  62  88 123 171 206 268 328 383
#
# _framework density 20.367882999999999
#
# number of rings (size 3 to 8) (size 9 to 14) (size 15 to 20)
#    0.000    1.867    0.000    2.800   10.267    5.333 
#    2.400    0.000    1.467    0.000    0.000    0.000 
#    0.000    0.000    0.000    0.000    0.000    0.000 
#
# Total GULP energy -371940.503425 kJ/mol
# GULP energy per Si atom -12398.016781 kJ/mol
# Density = 2.032152 g / cm^3
# Si number density = 20.367883 Si / 1000 Ang^3
#
#
#
# Elastic Constant Matrix: (Units=GPa)
#
#
# Indices 1 2 3 4 5 6 
#
# 1 89.4715 31.4385 26.6742 0.0000 0.0000 0.0000
# 2 31.4385 104.2669 26.7265 0.0000 0.0000 0.0000
# 3 26.6742 26.7265 77.6724 0.0000 0.0000 0.0000
# 4 0.0000 0.0000 0.0000 28.8433 0.0000 0.0000
# 5 0.0000 0.0000 0.0000 0.0000 9.0086 0.0000
# 6 0.0000 0.0000 0.0000 0.0000 0.0000 38.9919
#
#
#
# Elastic Compliance Matrix: (Units=1/GPa)
#
#
# Indices 1 2 3 4 5 6 
#
# 1 0.013316 -0.003118 -0.003500 0.000000 0.000000 0.000000
# 2 -0.003118 0.011249 -0.002800 0.000000 0.000000 0.000000
# 3 -0.003500 -0.002800 0.015040 0.000000 0.000000 0.000000
# 4 0.000000 0.000000 0.000000 0.034670 0.000000 0.000000
# 5 0.000000 0.000000 0.000000 0.000000 0.111006 0.000000
# 6 0.000000 0.000000 0.000000 0.000000 0.000000 0.025646
#
#
# Mechanical properties :
#
#
# Convention : Reuss Voigt Hill
#
# Bulk Modulus (GPa) = 48.14900 49.00992 48.57946
# Shear Modulus (GPa) = 21.12515 27.80686 24.46601
#
# Velocity S-wave (km/s) = 3.22402 3.69891 3.46960
# Velocity P-wave (km/s) = 6.12781 6.50824 6.32089
#
# Compressibility (1/GPa) = 0.02076887
#
# Stress axis : x y z
#
# Youngs Moduli (GPa) = 75.09906 88.90062 66.48949
#
# Poissons Ratio (x) = 0.27717 0.23272
# Poissons Ratio (y) = 0.23414 0.18616
# Poissons Ratio (z) = 0.26285 0.24891
#
# Static dielectric constant tensor:
#      x y z
#    x 4.047480 0.000000 0.000000 
#    y 0.000000 3.771310 0.000000 
#    z 0.000000 0.000000 3.626910 
# 
# 
# High freq. dielectric constant tensor:
#      x y z
#    x 1.798980 0.000000 0.000000 
#    y 0.000000 1.804350 0.000000 
#    z 0.000000 0.000000 1.792390 
# 
# From -- ./inp_files/6517.got.cif
#   From: 2010.03.12/outbox.cif.g09.slc.cpg/sg34_4_cif.got.tgz:6517.got - 2010.04.14 01:56:33.
