data_PCOD8171191
_publ_section_title
;
Structure prediction by ZEFSAII (Michael W. Deem and Ramdas Pophale) SiO2 
 PCOD8171191
Probable space group: P N A 21
;
_chemical_formula_sum "Si O2"
_cell_formula_units_Z 28
_cell_length_a 18.327743
_cell_length_b 8.169590
_cell_length_c 8.000282
_cell_angle_alpha 90.000000
_cell_angle_beta 90.000000
_cell_angle_gamma 90.000000
_cell_volume 1197.883391
_symmetry_space_group_name_H-M "P N A 21"
_symmetry_group_IT_number 33
_symmetry_cell_setting 'orthorhombic'
loop_
_space_group_symop_operation_xyz
x,y,z
-x,-y,1/2+z
1/2-x,1/2+y,1/2+z
1/2+x,1/2-y,z
loop_
_atom_site_type_symbol
_atom_site_label
_atom_site_fract_x
_atom_site_fract_y
_atom_site_fract_z
Si Si1 0.469115 0.573123 0.747980
Si Si2 0.310356 0.158129 0.468795
Si Si3 0.103053 0.544941 0.256910
Si Si4 0.854705 0.756056 0.944314
Si Si5 0.869111 0.675464 0.316241
Si Si6 0.501394 0.873617 0.533695
Si Si7 0.610614 0.511906 0.926288
O O1 0.417242 0.608906 0.908593
O O2 0.506000 0.735063 0.672454
O O3 0.539592 0.475880 0.811064
O O4 0.418379 0.476024 0.616933
O O5 0.336776 0.156802 0.663538
O O6 0.224079 0.163610 0.455031
O O7 0.346146 0.320393 0.383986
O O8 0.329008 0.986702 0.381265
O O9 0.140743 0.367962 0.286752
O O10 0.079752 0.603949 0.442922
O O11 0.033201 0.530546 0.130212
O O12 0.869838 0.664751 0.117488
O O13 0.951201 0.673097 0.378967
O O14 0.837849 0.851522 0.388916
#
# Coordination Sequence:
#
# PCOD8171191 Si02
#       7
#     4   4   4   4   4   4   4
#     4  10  24  42  71 107 141 181 240 302 359 411
#     4  11  28  45  73 100 145 198 231 285 371 429
#     4  10  22  40  70 104 140 180 240 287 357 426
#     4  11  25  45  71 103 146 190 236 293 355 438
#     4  10  24  47  70 100 145 178 237 298 348 427
#     4   9  20  38  71 104 137 179 227 300 353 411
#     4  11  25  47  72 108 140 184 241 303 353 426
#
# _framework density 23.374563999999999
#
# number of rings (size 3 to 8) (size 9 to 14) (size 15 to 20)
#    0.000    1.714    0.000    2.571   20.000    0.000 
#    0.000    0.000    0.000    0.000    0.000    0.000 
#    0.000    0.000    0.000    0.000    0.000    0.000 
#
# Total GULP energy -346869.914704 kJ/mol
# GULP energy per Si atom -12388.211239 kJ/mol
# Density = 2.332136 g / cm^3
# Si number density = 23.374564 Si / 1000 Ang^3
#
#
#
# Elastic Constant Matrix: (Units=GPa)
#
#
# Indices 1 2 3 4 5 6 
#
# 1 73.7429 41.9893 39.0913 0.0000 0.0000 0.0000
# 2 41.9893 130.1772 35.1620 0.0000 0.0000 0.0000
# 3 39.0913 35.1620 116.0508 0.0000 0.0000 0.0000
# 4 0.0000 0.0000 0.0000 33.4079 0.0000 0.0000
# 5 0.0000 0.0000 0.0000 0.0000 26.0086 0.0000
# 6 0.0000 0.0000 0.0000 0.0000 0.0000 17.7606
#
#
#
# Elastic Compliance Matrix: (Units=1/GPa)
#
#
# Indices 1 2 3 4 5 6 
#
# 1 0.018878 -0.004761 -0.004916 0.000000 0.000000 0.000000
# 2 -0.004761 0.009567 -0.001295 0.000000 0.000000 0.000000
# 3 -0.004916 -0.001295 0.010665 0.000000 0.000000 0.000000
# 4 0.000000 0.000000 0.000000 0.029933 0.000000 0.000000
# 5 0.000000 0.000000 0.000000 0.000000 0.038449 0.000000
# 6 0.000000 0.000000 0.000000 0.000000 0.000000 0.056304
#
#
# Mechanical properties :
#
#
# Convention : Reuss Voigt Hill
#
# Bulk Modulus (GPa) = 58.25654 61.38401 59.82027
# Shear Modulus (GPa) = 26.11462 29.01731 27.56597
#
# Velocity S-wave (km/s) = 3.34612 3.52718 3.43784
# Velocity P-wave (km/s) = 6.31710 6.55027 6.43474
#
# Compressibility (1/GPa) = 0.01716545
#
# Stress axis : x y z
#
# Youngs Moduli (GPa) = 52.97226 104.52192 93.76161
#
# Poissons Ratio (x) = 0.49765 0.46096
# Poissons Ratio (y) = 0.25221 0.12142
# Poissons Ratio (z) = 0.26043 0.13536
#
# Static dielectric constant tensor:
#      x y z
#    x 3.938280 0.000000 0.000000 
#    y 0.000000 4.497430 0.000000 
#    z 0.000000 0.000000 4.286810 
# 
# 
# High freq. dielectric constant tensor:
#      x y z
#    x 1.895020 0.000000 0.000000 
#    y 0.000000 1.928240 0.000000 
#    z 0.000000 0.000000 1.932220 
# 
# From -- ./inp_files/4732.got.cif
#   From: 2010.03.12/outbox.cif.g09.slc.cpg/sg33_3_cif.got.tgz:4732.got - 2010.04.14 01:49:19.
