data_PCOD8171155
_publ_section_title
;
Structure prediction by ZEFSAII (Michael W. Deem and Ramdas Pophale) SiO2 
 PCOD8171155
Probable space group: P N A 21
;
_chemical_formula_sum "Si O2"
_cell_formula_units_Z 32
_cell_length_a 20.223373
_cell_length_b 8.744052
_cell_length_c 8.991103
_cell_angle_alpha 90.000000
_cell_angle_beta 90.000000
_cell_angle_gamma 90.000000
_cell_volume 1589.934732
_symmetry_space_group_name_H-M "P N A 21"
_symmetry_group_IT_number 33
_symmetry_cell_setting 'orthorhombic'
loop_
_space_group_symop_operation_xyz
x,y,z
-x,-y,1/2+z
1/2-x,1/2+y,1/2+z
1/2+x,1/2-y,z
loop_
_atom_site_type_symbol
_atom_site_label
_atom_site_fract_x
_atom_site_fract_y
_atom_site_fract_z
Si Si1 0.058445 0.075219 0.433340
Si Si2 0.938491 0.577270 0.950433
Si Si3 0.317973 0.084999 0.440986
Si Si4 0.437600 0.930281 0.598945
Si Si5 0.188332 0.897405 0.434182
Si Si6 0.811798 0.101051 0.590521
Si Si7 0.181450 0.581966 0.595476
Si Si8 0.439904 0.583482 0.587632
O O1 0.048550 0.246613 0.493631
O O2 0.045035 0.067478 0.259863
O O3 0.132689 0.022950 0.470739
O O4 0.006670 0.960532 0.505261
O O5 0.941367 0.549916 0.775064
O O6 0.866575 0.531881 0.008777
O O7 0.992024 0.472752 0.030736
O O8 0.295743 0.254642 0.487469
O O9 0.337342 0.082629 0.268581
O O10 0.381611 0.041375 0.536699
O O11 0.258774 0.968936 0.476328
O O12 0.420532 0.757740 0.550181
O O13 0.185154 0.847135 0.262147
O O14 0.174495 0.752360 0.535578
O O15 0.755812 0.973834 0.568429
O O16 0.880323 0.025824 0.536754
#
# Coordination Sequence:
#
# PCOD8171155 Si02
#       8
#     4   4   4   4   4   4   4   4
#     4  10  22  39  59  84 115 152 193 239 290 346
#     4  11  23  40  61  87 120 156 196 242 293 350
#     4  11  23  39  61  89 118 153 198 244 294 349
#     4  11  23  40  61  87 120 156 196 242 293 350
#     4  10  22  40  60  84 117 155 194 239 292 349
#     4  10  22  40  60  84 117 155 194 239 292 349
#     4  11  23  39  61  89 118 153 198 244 294 349
#     4  10  22  39  59  84 115 152 193 239 290 346
#
# _framework density 20.126611
#
# number of rings (size 3 to 8) (size 9 to 14) (size 15 to 20)
#    0.000    1.500    0.000    4.500    0.000   11.000 
#    0.000    0.000    0.000    0.000    0.000    0.000 
#    0.000    0.000    0.000    0.000    0.000    0.000 
#
# Total GULP energy -397029.093917 kJ/mol
# GULP energy per Si atom -12407.159185 kJ/mol
# Density = 2.008080 g / cm^3
# Si number density = 20.126611 Si / 1000 Ang^3
#
#
#
# Elastic Constant Matrix: (Units=GPa)
#
#
# Indices 1 2 3 4 5 6 
#
# 1 91.9312 12.7587 38.4548 0.0000 0.0000 0.0000
# 2 12.7587 94.7838 46.8046 0.0000 0.0000 0.0000
# 3 38.4548 46.8046 80.0864 0.0000 0.0000 0.0000
# 4 0.0000 0.0000 0.0000 28.8051 0.0000 0.0000
# 5 0.0000 0.0000 0.0000 0.0000 31.2671 0.0000
# 6 0.0000 0.0000 0.0000 0.0000 0.0000 36.6768
#
#
#
# Elastic Compliance Matrix: (Units=1/GPa)
#
#
# Indices 1 2 3 4 5 6 
#
# 1 0.013876 0.001999 -0.007831 0.000000 0.000000 0.000000
# 2 0.001999 0.015118 -0.009795 0.000000 0.000000 0.000000
# 3 -0.007831 -0.009795 0.021971 0.000000 0.000000 0.000000
# 4 0.000000 0.000000 0.000000 0.034716 0.000000 0.000000
# 5 0.000000 0.000000 0.000000 0.000000 0.031982 0.000000
# 6 0.000000 0.000000 0.000000 0.000000 0.000000 0.027265
#
#
# Mechanical properties :
#
#
# Convention : Reuss Voigt Hill
#
# Bulk Modulus (GPa) = 50.73324 51.42637 51.07980
# Shear Modulus (GPa) = 27.35908 30.60202 28.98055
#
# Velocity S-wave (km/s) = 3.69093 3.90356 3.79873
# Velocity P-wave (km/s) = 6.58982 6.77672 6.68392
#
# Compressibility (1/GPa) = 0.01971094
#
# Stress axis : x y z
#
# Youngs Moduli (GPa) = 72.06673 66.14525 45.51351
#
# Poissons Ratio (x) = -0.13224 0.35643
# Poissons Ratio (y) = -0.14408 0.44583
# Poissons Ratio (z) = 0.56437 0.64792
#
# Static dielectric constant tensor:
#      x y z
#    x 3.674240 0.000000 0.000000 
#    y 0.000000 3.703580 0.000000 
#    z 0.000000 0.000000 3.649970 
# 
# 
# High freq. dielectric constant tensor:
#      x y z
#    x 1.799310 0.000000 0.000000 
#    y 0.000000 1.797730 0.000000 
#    z 0.000000 0.000000 1.786640 
# 
# From -- ./inp_files/5008.got.cif
#   From: 2010.03.12/outbox.cif.g09.slc.cpg/sg33_3_cif.got.tgz:5008.got - 2010.04.14 01:49:19.
