data_PCOD8171717
_publ_section_title
;
Structure prediction by ZEFSAII (Michael W. Deem and Ramdas Pophale) SiO2 
 PCOD8171717
Probable space group: P N A 21
;
_chemical_formula_sum "Si O2"
_cell_formula_units_Z 28
_cell_length_a 18.874557
_cell_length_b 12.056005
_cell_length_c 4.977912
_cell_angle_alpha 90.000000
_cell_angle_beta 90.000000
_cell_angle_gamma 90.000000
_cell_volume 1132.732605
_symmetry_space_group_name_H-M "P N A 21"
_symmetry_group_IT_number 33
_symmetry_cell_setting 'orthorhombic'
loop_
_space_group_symop_operation_xyz
x,y,z
-x,-y,1/2+z
1/2-x,1/2+y,1/2+z
1/2+x,1/2-y,z
loop_
_atom_site_type_symbol
_atom_site_label
_atom_site_fract_x
_atom_site_fract_y
_atom_site_fract_z
Si Si1 0.905562 0.233010 0.216370
Si Si2 0.829828 0.866503 0.764141
Si Si3 0.549376 0.984817 0.702220
Si Si4 0.317917 0.293768 0.707028
Si Si5 0.519398 0.434924 0.085244
Si Si6 0.252014 0.072833 0.743402
Si Si7 0.322461 0.876779 0.985464
O O1 0.913522 0.365369 0.221589
O O2 0.879803 0.175507 0.494460
O O3 0.980896 0.181789 0.138041
O O4 0.845783 0.194802 0.006753
O O5 0.898831 0.919781 0.641408
O O6 0.770544 0.881710 0.536236
O O7 0.812006 0.939429 0.029862
O O8 0.841281 0.738299 0.841252
O O9 0.488033 0.983843 0.479662
O O10 0.609148 0.078188 0.644937
O O11 0.301823 0.167680 0.619172
O O12 0.246060 0.366138 0.681373
O O13 0.488377 0.531298 0.275186
O O14 0.299337 0.962943 0.755089
#
# Coordination Sequence:
#
# PCOD8171717 Si02
#       7
#     4   4   4   4   4   4   4
#     4  12  26  49  72 109 150 188 256 295 368 441
#     4  11  27  48  69 111 145 187 246 297 354 446
#     4  12  28  48  79 110 148 198 244 311 379 437
#     4  11  25  45  73 110 144 194 240 306 360 443
#     4  12  28  49  74 105 147 201 240 296 364 433
#     4  11  25  46  74 107 144 184 239 299 371 424
#     4  11  27  47  79 106 150 190 245 304 374 426
#
# _framework density 24.718986999999998
#
# number of rings (size 3 to 8) (size 9 to 14) (size 15 to 20)
#    0.000    0.571    1.429    5.143    6.000    9.143 
#    0.000    0.000    0.000    0.000    0.000    0.000 
#    0.000    0.000    0.000    0.000    0.000    0.000 
#
# Total GULP energy -347319.148210 kJ/mol
# GULP energy per Si atom -12404.255293 kJ/mol
# Density = 2.466273 g / cm^3
# Si number density = 24.718987 Si / 1000 Ang^3
#
#
#
# Elastic Constant Matrix: (Units=GPa)
#
#
# Indices 1 2 3 4 5 6 
#
# 1 52.4827 3.1947 -0.3246 0.0000 0.0000 0.0000
# 2 3.1947 77.2733 -3.3683 0.0000 0.0000 0.0000
# 3 -0.3246 -3.3683 72.7133 0.0000 0.0000 0.0000
# 4 0.0000 0.0000 0.0000 36.0431 0.0000 0.0000
# 5 0.0000 0.0000 0.0000 0.0000 36.6899 0.0000
# 6 0.0000 0.0000 0.0000 0.0000 0.0000 36.1999
#
#
#
# Elastic Compliance Matrix: (Units=1/GPa)
#
#
# Indices 1 2 3 4 5 6 
#
# 1 0.019102 -0.000788 0.000049 0.000000 0.000000 0.000000
# 2 -0.000788 0.013000 0.000599 0.000000 0.000000 0.000000
# 3 0.000049 0.000599 0.013781 0.000000 0.000000 0.000000
# 4 0.000000 0.000000 0.000000 0.027745 0.000000 0.000000
# 5 0.000000 0.000000 0.000000 0.000000 0.027255 0.000000
# 6 0.000000 0.000000 0.000000 0.000000 0.000000 0.027624
#
#
# Mechanical properties :
#
#
# Convention : Reuss Voigt Hill
#
# Bulk Modulus (GPa) = 21.92877 22.38587 22.15732
# Shear Modulus (GPa) = 34.72515 35.31776 35.02145
#
# Velocity S-wave (km/s) = 3.75213 3.78401 3.76810
# Velocity P-wave (km/s) = 5.25945 5.30730 5.28343
#
# Compressibility (1/GPa) = 0.04560219
#
# Stress axis : x y z
#
# Youngs Moduli (GPa) = 52.35016 76.92466 72.56585
#
# Poissons Ratio (x) = 0.06059 -0.00354
# Poissons Ratio (y) = 0.04123 -0.04344
# Poissons Ratio (z) = -0.00255 -0.04605
#
# Static dielectric constant tensor:
#      x y z
#    x 4.498220 0.000000 0.000000 
#    y 0.000000 4.547800 0.000000 
#    z 0.000000 0.000000 4.517370 
# 
# 
# High freq. dielectric constant tensor:
#      x y z
#    x 1.992260 0.000000 0.000000 
#    y 0.000000 1.992610 0.000000 
#    z 0.000000 0.000000 1.990810 
# 
# From -- ./inp_files/1722.got.cif
#   From: 2010.03.12/outbox.cif.g09.slc.cpg/sg33_1_cif.got.tgz:1722.got - 2010.04.14 01:49:19.
