data_PCOD8171372
_publ_section_title
;
Structure prediction by ZEFSAII (Michael W. Deem and Ramdas Pophale) SiO2 
 PCOD8171372
Probable space group: P N A 21
;
_chemical_formula_sum "Si O2"
_cell_formula_units_Z 28
_cell_length_a 10.915332
_cell_length_b 12.305563
_cell_length_c 9.589156
_cell_angle_alpha 90.000000
_cell_angle_beta 90.000000
_cell_angle_gamma 90.000000
_cell_volume 1288.008775
_symmetry_space_group_name_H-M "P N A 21"
_symmetry_group_IT_number 33
_symmetry_cell_setting 'orthorhombic'
loop_
_space_group_symop_operation_xyz
x,y,z
-x,-y,1/2+z
1/2-x,1/2+y,1/2+z
1/2+x,1/2-y,z
loop_
_atom_site_type_symbol
_atom_site_label
_atom_site_fract_x
_atom_site_fract_y
_atom_site_fract_z
Si Si1 0.230800 0.461294 0.782580
Si Si2 0.152735 0.462822 0.282503
Si Si3 0.186632 0.787643 0.656025
Si Si4 0.428006 0.151915 0.388177
Si Si5 0.955900 0.155191 0.912781
Si Si6 0.000480 0.659163 0.190331
Si Si7 0.201433 0.084404 0.015695
O O1 0.148489 0.539170 0.881064
O O2 0.333355 0.411511 0.881333
O O3 0.142508 0.370688 0.711620
O O4 0.306342 0.520799 0.660918
O O5 0.253695 0.405222 0.185436
O O6 0.198274 0.523952 0.421551
O O7 0.060055 0.366310 0.319881
O O8 0.082400 0.551808 0.193656
O O9 0.152228 0.739435 0.805846
O O10 0.060754 0.801070 0.570034
O O11 0.267609 0.709020 0.556102
O O12 0.461141 0.203193 0.538349
O O13 0.965794 0.250825 0.802045
O O14 0.077883 0.081823 0.922074
#
# Coordination Sequence:
#
# PCOD8171372 Si02
#       7
#     4   4   4   4   4   4   4
#     4  10  24  44  67  98 141 180 237 290 357 427
#     4  11  23  44  70  96 141 182 228 288 359 421
#     4  11  24  44  69 102 138 180 238 285 355 426
#     4  10  23  43  71  99 131 184 234 286 351 429
#     4  12  25  42  68 101 139 181 231 293 351 421
#     4  11  23  42  72 102 135 182 236 289 358 423
#     4  11  24  45  65 102 137 183 230 293 351 429
#
# _framework density 21.738982
#
# number of rings (size 3 to 8) (size 9 to 14) (size 15 to 20)
#    0.000    1.143    2.857    2.571    4.000    1.143 
#    0.000    0.000    0.000    0.000    0.000    0.000 
#    0.000    0.000    0.000    0.000    0.000    0.000 
#
# Total GULP energy -347089.463695 kJ/mol
# GULP energy per Si atom -12396.052275 kJ/mol
# Density = 2.168950 g / cm^3
# Si number density = 21.738982 Si / 1000 Ang^3
#
#
#
# Elastic Constant Matrix: (Units=GPa)
#
#
# Indices 1 2 3 4 5 6 
#
# 1 100.6556 21.8123 27.8060 0.0000 0.0000 0.0000
# 2 21.8123 55.3292 19.7329 0.0000 0.0000 0.0000
# 3 27.8060 19.7329 91.2045 0.0000 0.0000 0.0000
# 4 0.0000 0.0000 0.0000 31.3609 0.0000 0.0000
# 5 0.0000 0.0000 0.0000 0.0000 40.5104 0.0000
# 6 0.0000 0.0000 0.0000 0.0000 0.0000 24.2292
#
#
#
# Elastic Compliance Matrix: (Units=1/GPa)
#
#
# Indices 1 2 3 4 5 6 
#
# 1 0.011456 -0.003544 -0.002726 0.000000 0.000000 0.000000
# 2 -0.003544 0.020681 -0.003394 0.000000 0.000000 0.000000
# 3 -0.002726 -0.003394 0.012530 0.000000 0.000000 0.000000
# 4 0.000000 0.000000 0.000000 0.031887 0.000000 0.000000
# 5 0.000000 0.000000 0.000000 0.000000 0.024685 0.000000
# 6 0.000000 0.000000 0.000000 0.000000 0.000000 0.041272
#
#
# Mechanical properties :
#
#
# Convention : Reuss Voigt Hill
#
# Bulk Modulus (GPa) = 39.46489 42.87685 41.17087
# Shear Modulus (GPa) = 29.36244 31.07596 30.21920
#
# Velocity S-wave (km/s) = 3.67915 3.78498 3.73244
# Velocity P-wave (km/s) = 6.02010 6.23440 6.12819
#
# Compressibility (1/GPa) = 0.02533898
#
# Stress axis : x y z
#
# Youngs Moduli (GPa) = 87.29142 48.35287 79.81003
#
# Poissons Ratio (x) = 0.17137 0.21755
# Poissons Ratio (y) = 0.30937 0.27088
# Poissons Ratio (z) = 0.23794 0.16411
#
# Static dielectric constant tensor:
#      x y z
#    x 3.880620 0.000000 0.000000 
#    y 0.000000 3.766890 0.000000 
#    z 0.000000 0.000000 3.975730 
# 
# 
# High freq. dielectric constant tensor:
#      x y z
#    x 1.857700 0.000000 0.000000 
#    y 0.000000 1.842290 0.000000 
#    z 0.000000 0.000000 1.864740 
# 
# From -- ./inp_files/3824.got.cif
#   From: 2010.03.12/outbox.cif.g09.slc.cpg/sg33_2_cif.got.tgz:3824.got - 2010.04.14 01:49:19.
