data_PCOD8171474
_publ_section_title
;
Structure prediction by ZEFSAII (Michael W. Deem and Ramdas Pophale) SiO2 
 PCOD8171474
Probable space group: P N A 21
;
_chemical_formula_sum "Si O2"
_cell_formula_units_Z 28
_cell_length_a 15.475529
_cell_length_b 9.284544
_cell_length_c 8.671838
_cell_angle_alpha 90.000000
_cell_angle_beta 90.000000
_cell_angle_gamma 90.000000
_cell_volume 1245.997693
_symmetry_space_group_name_H-M "P N A 21"
_symmetry_group_IT_number 33
_symmetry_cell_setting 'orthorhombic'
loop_
_space_group_symop_operation_xyz
x,y,z
-x,-y,1/2+z
1/2-x,1/2+y,1/2+z
1/2+x,1/2-y,z
loop_
_atom_site_type_symbol
_atom_site_label
_atom_site_fract_x
_atom_site_fract_y
_atom_site_fract_z
Si Si1 0.115962 0.423904 0.656250
Si Si2 0.581619 0.549372 0.802157
Si Si3 0.812799 0.015747 0.739916
Si Si4 0.634843 0.772246 0.052446
Si Si5 0.561064 0.345876 0.067208
Si Si6 0.676485 0.383087 0.560780
Si Si7 0.025046 0.464407 0.975000
O O1 0.209472 0.472338 0.718944
O O2 0.119734 0.260255 0.592728
O O3 0.047529 0.451586 0.794941
O O4 0.078446 0.520636 0.513110
O O5 0.507071 0.604789 0.692741
O O6 0.661793 0.488997 0.703726
O O7 0.619954 0.679538 0.899552
O O8 0.539826 0.422428 0.905155
O O9 0.861171 0.167591 0.701651
O O10 0.842929 0.895769 0.616994
O O11 0.849115 0.967160 0.905288
O O12 0.724244 0.852813 0.037348
O O13 0.561936 0.893651 0.061644
O O14 0.563909 0.175211 0.056723
#
# Coordination Sequence:
#
# PCOD8171474 Si02
#       7
#     4   4   4   4   4   4   4
#     4  11  26  46  69 111 144 188 241 304 369 430
#     4  11  24  45  72 107 137 192 243 290 363 437
#     4  10  24  47  72 104 143 192 239 297 361 433
#     4  10  25  46  70 105 143 185 245 293 359 434
#     4  11  25  44  76 103 145 189 242 296 358 433
#     4  11  23  46  74  99 150 185 241 297 357 442
#     4  12  25  48  69 107 148 183 243 301 363 429
#
# _framework density 22.471952000000002
#
# number of rings (size 3 to 8) (size 9 to 14) (size 15 to 20)
#    0.000    1.143    2.857    1.714    8.000    2.286 
#    5.143    0.000    0.000    0.000    0.000    0.000 
#    0.000    0.000    0.000    0.000    0.000    0.000 
#
# Total GULP energy -347080.398266 kJ/mol
# GULP energy per Si atom -12395.728509 kJ/mol
# Density = 2.242080 g / cm^3
# Si number density = 22.471952 Si / 1000 Ang^3
#
#
#
# Elastic Constant Matrix: (Units=GPa)
#
#
# Indices 1 2 3 4 5 6 
#
# 1 82.2897 46.4689 61.4384 0.0000 0.0000 0.0000
# 2 46.4689 150.3855 60.8285 0.0000 0.0000 0.0000
# 3 61.4384 60.8285 131.1933 0.0000 0.0000 0.0000
# 4 0.0000 0.0000 0.0000 24.9354 0.0000 0.0000
# 5 0.0000 0.0000 0.0000 0.0000 34.1678 0.0000
# 6 0.0000 0.0000 0.0000 0.0000 0.0000 162.5137
#
#
#
# Elastic Compliance Matrix: (Units=1/GPa)
#
#
# Indices 1 2 3 4 5 6 
#
# 1 0.019657 -0.002893 -0.007864 0.000000 0.000000 0.000000
# 2 -0.002893 0.008610 -0.002637 0.000000 0.000000 0.000000
# 3 -0.007864 -0.002637 0.012528 0.000000 0.000000 0.000000
# 4 0.000000 0.000000 0.000000 0.040104 0.000000 0.000000
# 5 0.000000 0.000000 0.000000 0.000000 0.029267 0.000000
# 6 0.000000 0.000000 0.000000 0.000000 0.000000 0.006153
#
#
# Mechanical properties :
#
#
# Convention : Reuss Voigt Hill
#
# Bulk Modulus (GPa) = 71.39639 77.92667 74.66153
# Shear Modulus (GPa) = 33.83443 57.33223 45.58333
#
# Velocity S-wave (km/s) = 3.88445 5.05650 4.50872
# Velocity P-wave (km/s) = 7.20826 8.29720 7.77182
#
# Compressibility (1/GPa) = 0.01400631
#
# Stress axis : x y z
#
# Youngs Moduli (GPa) = 50.87120 116.13962 79.82106
#
# Poissons Ratio (x) = 0.33601 0.62773
# Poissons Ratio (y) = 0.14718 0.21052
# Poissons Ratio (z) = 0.40006 0.30630
#
# Static dielectric constant tensor:
#      x y z
#    x 4.041730 0.000000 0.000000 
#    y 0.000000 4.400190 0.000000 
#    z 0.000000 0.000000 4.316140 
# 
# 
# High freq. dielectric constant tensor:
#      x y z
#    x 1.885420 0.000000 0.000000 
#    y 0.000000 1.895390 0.000000 
#    z 0.000000 0.000000 1.892500 
# 
# From -- ./inp_files/4733.got.cif
#   From: 2010.03.12/outbox.cif.g09.slc.cpg/sg33_3_cif.got.tgz:4733.got - 2010.04.14 01:49:19.
