data_PCOD8171713
_publ_section_title
;
Structure prediction by ZEFSAII (Michael W. Deem and Ramdas Pophale) SiO2 
 PCOD8171713
Probable space group: P N A 21
;
_chemical_formula_sum "Si O2"
_cell_formula_units_Z 28
_cell_length_a 11.103283
_cell_length_b 9.999926
_cell_length_c 11.045323
_cell_angle_alpha 90.000000
_cell_angle_beta 90.000000
_cell_angle_gamma 90.000000
_cell_volume 1226.384396
_symmetry_space_group_name_H-M "P N A 21"
_symmetry_group_IT_number 33
_symmetry_cell_setting 'orthorhombic'
loop_
_space_group_symop_operation_xyz
x,y,z
-x,-y,1/2+z
1/2-x,1/2+y,1/2+z
1/2+x,1/2-y,z
loop_
_atom_site_type_symbol
_atom_site_label
_atom_site_fract_x
_atom_site_fract_y
_atom_site_fract_z
Si Si1 0.882814 0.489951 0.030510
Si Si2 0.823324 0.876888 0.376200
Si Si3 0.612853 0.841981 0.999708
Si Si4 0.834419 0.019153 0.940833
Si Si5 0.775002 0.166873 0.704543
Si Si6 0.007116 0.785144 0.576039
Si Si7 0.032050 0.870244 0.834301
O O1 0.792579 0.556091 0.125783
O O2 0.959949 0.370100 0.087093
O O3 0.807799 0.430618 0.917364
O O4 0.977520 0.602814 0.992233
O O5 0.816865 0.763892 0.273985
O O6 0.894042 0.813540 0.489791
O O7 0.893121 0.995825 0.312114
O O8 0.623554 0.741035 0.886445
O O9 0.705002 0.964389 0.980725
O O10 0.636997 0.759126 0.123112
O O11 0.845710 0.085542 0.807547
O O12 0.928873 0.896195 0.936174
O O13 0.874217 0.131929 0.036248
O O14 0.969017 0.828183 0.710061
#
# Coordination Sequence:
#
# PCOD8171713 Si02
#       7
#     4   4   4   4   4   4   4
#     4  12  26  46  74 107 147 190 250 299 373 447
#     4  11  25  48  72 106 148 194 244 308 377 447
#     4  12  27  46  72 110 141 196 245 309 371 448
#     4  11  25  46  71 101 147 189 244 303 378 437
#     4  12  25  46  75 107 152 188 250 306 373 443
#     4  11  25  46  73 104 143 193 243 308 371 442
#     4  11  25  44  73  99 146 186 248 301 373 444
#
# _framework density 22.831340000000001
#
# number of rings (size 3 to 8) (size 9 to 14) (size 15 to 20)
#    0.000    0.571    2.857    4.286    6.000    2.286 
#    0.000    0.000    0.000    0.000    0.000    0.000 
#    0.000    0.000    0.000    0.000    0.000    0.000 
#
# Total GULP energy -347264.230850 kJ/mol
# GULP energy per Si atom -12402.293959 kJ/mol
# Density = 2.277937 g / cm^3
# Si number density = 22.831340 Si / 1000 Ang^3
#
#
#
# Elastic Constant Matrix: (Units=GPa)
#
#
# Indices 1 2 3 4 5 6 
#
# 1 71.0090 15.4184 -2.6562 0.0000 0.0000 0.0000
# 2 15.4184 106.5735 20.8698 0.0000 0.0000 0.0000
# 3 -2.6562 20.8698 83.8941 0.0000 0.0000 0.0000
# 4 0.0000 0.0000 0.0000 44.9881 0.0000 0.0000
# 5 0.0000 0.0000 0.0000 0.0000 38.9629 0.0000
# 6 0.0000 0.0000 0.0000 0.0000 0.0000 35.7675
#
#
#
# Elastic Compliance Matrix: (Units=1/GPa)
#
#
# Indices 1 2 3 4 5 6 
#
# 1 0.014625 -0.002320 0.001040 0.000000 0.000000 0.000000
# 2 -0.002320 0.010232 -0.002619 0.000000 0.000000 0.000000
# 3 0.001040 -0.002619 0.012604 0.000000 0.000000 0.000000
# 4 0.000000 0.000000 0.000000 0.022228 0.000000 0.000000
# 5 0.000000 0.000000 0.000000 0.000000 0.025665 0.000000
# 6 0.000000 0.000000 0.000000 0.000000 0.000000 0.027958
#
#
# Mechanical properties :
#
#
# Convention : Reuss Voigt Hill
#
# Bulk Modulus (GPa) = 33.71014 36.52674 35.11844
# Shear Modulus (GPa) = 38.16868 39.13334 38.65101
#
# Velocity S-wave (km/s) = 4.09316 4.14456 4.11894
# Velocity P-wave (km/s) = 6.09389 6.23991 6.16733
#
# Compressibility (1/GPa) = 0.02966466
#
# Stress axis : x y z
#
# Youngs Moduli (GPa) = 68.37472 97.73659 79.33896
#
# Poissons Ratio (x) = 0.22671 -0.08252
# Poissons Ratio (y) = 0.15860 0.20776
# Poissons Ratio (z) = -0.07111 0.25594
#
# Static dielectric constant tensor:
#      x y z
#    x 4.037620 0.000000 0.000000 
#    y 0.000000 4.349500 0.000000 
#    z 0.000000 0.000000 3.988930 
# 
# 
# High freq. dielectric constant tensor:
#      x y z
#    x 1.898070 0.000000 0.000000 
#    y 0.000000 1.926750 0.000000 
#    z 0.000000 0.000000 1.894980 
# 
# From -- ./inp_files/6316.got.cif
#   From: 2010.03.12/outbox.cif.g09.slc.cpg/sg33_4_cif.got.tgz:6316.got - 2010.04.14 01:49:19.
