data_PCOD8171188
_publ_section_title
;
Structure prediction by ZEFSAII (Michael W. Deem and Ramdas Pophale) SiO2 
 PCOD8171188
Probable space group: P N A 21
;
_chemical_formula_sum "Si O2"
_cell_formula_units_Z 28
_cell_length_a 9.909474
_cell_length_b 8.183437
_cell_length_c 16.071373
_cell_angle_alpha 90.000000
_cell_angle_beta 90.000000
_cell_angle_gamma 90.000000
_cell_volume 1303.284789
_symmetry_space_group_name_H-M "P N A 21"
_symmetry_group_IT_number 33
_symmetry_cell_setting 'orthorhombic'
loop_
_space_group_symop_operation_xyz
x,y,z
-x,-y,1/2+z
1/2-x,1/2+y,1/2+z
1/2+x,1/2-y,z
loop_
_atom_site_type_symbol
_atom_site_label
_atom_site_fract_x
_atom_site_fract_y
_atom_site_fract_z
Si Si1 0.844688 0.700515 0.895790
Si Si2 0.015810 0.105479 0.636560
Si Si3 0.170642 0.609985 0.306214
Si Si4 0.714656 0.055200 0.131956
Si Si5 0.185170 0.120467 0.227230
Si Si6 0.895038 0.324806 0.502733
Si Si7 0.381396 0.855252 0.264580
O O1 0.775145 0.529983 0.868290
O O2 0.870249 0.805698 0.812977
O O3 0.749121 0.792730 0.960152
O O4 0.988952 0.656488 0.934847
O O5 0.090160 0.258678 0.679338
O O6 0.928536 0.167782 0.559217
O O7 0.128715 0.975242 0.607749
O O8 0.917193 0.022543 0.702914
O O9 0.176620 0.553013 0.211023
O O10 0.263344 0.768706 0.318714
O O11 0.012620 0.643212 0.323758
O O12 0.693530 0.246262 0.152985
O O13 0.619970 0.992312 0.056227
O O14 0.332786 0.038937 0.241403
#
# Coordination Sequence:
#
# PCOD8171188 Si02
#       7
#     4   4   4   4   4   4   4
#     4  11  27  42  70 102 144 184 223 296 360 408
#     4  11  22  42  72 100 130 189 234 283 346 423
#     4  10  22  40  68  98 131 183 234 272 343 420
#     4  10  23  40  67  99 132 182 235 280 341 422
#     4  11  25  42  73 102 138 180 245 287 341 427
#     4  12  23  47  67  99 144 185 233 287 366 412
#     4  11  20  41  71  98 133 173 242 283 327 412
#
# _framework density 21.484176000000001
#
# number of rings (size 3 to 8) (size 9 to 14) (size 15 to 20)
#    0.000    1.143    4.286    1.714   10.000    0.000 
#    0.000    4.286    0.000    0.000    0.000    0.000 
#    0.000    0.000    0.000    0.000    0.000    0.000 
#
# Total GULP energy -347225.425350 kJ/mol
# GULP energy per Si atom -12400.908048 kJ/mol
# Density = 2.143528 g / cm^3
# Si number density = 21.484176 Si / 1000 Ang^3
#
#
#
# Elastic Constant Matrix: (Units=GPa)
#
#
# Indices 1 2 3 4 5 6 
#
# 1 106.1713 33.9512 26.8473 0.0000 0.0000 0.0000
# 2 33.9512 107.2092 43.5208 0.0000 0.0000 0.0000
# 3 26.8473 43.5208 90.2316 0.0000 0.0000 0.0000
# 4 0.0000 0.0000 0.0000 35.6693 0.0000 0.0000
# 5 0.0000 0.0000 0.0000 0.0000 29.8289 0.0000
# 6 0.0000 0.0000 0.0000 0.0000 0.0000 33.9851
#
#
#
# Elastic Compliance Matrix: (Units=1/GPa)
#
#
# Indices 1 2 3 4 5 6 
#
# 1 0.010745 -0.002617 -0.001935 0.000000 0.000000 0.000000
# 2 -0.002617 0.012236 -0.005123 0.000000 0.000000 0.000000
# 3 -0.001935 -0.005123 0.014129 0.000000 0.000000 0.000000
# 4 0.000000 0.000000 0.000000 0.028035 0.000000 0.000000
# 5 0.000000 0.000000 0.000000 0.000000 0.033525 0.000000
# 6 0.000000 0.000000 0.000000 0.000000 0.000000 0.029425
#
#
# Mechanical properties :
#
#
# Convention : Reuss Voigt Hill
#
# Bulk Modulus (GPa) = 56.30558 56.91673 56.61115
# Shear Modulus (GPa) = 32.60204 33.18284 32.89244
#
# Velocity S-wave (km/s) = 3.89972 3.93431 3.91705
# Velocity P-wave (km/s) = 6.82217 6.86937 6.84581
#
# Compressibility (1/GPa) = 0.01776023
#
# Stress axis : x y z
#
# Youngs Moduli (GPa) = 93.06721 81.72559 70.77572
#
# Poissons Ratio (x) = 0.21391 0.13692
# Poissons Ratio (y) = 0.24359 0.36258
# Poissons Ratio (z) = 0.18005 0.41868
#
# Static dielectric constant tensor:
#      x y z
#    x 4.076620 0.000000 0.000000 
#    y 0.000000 3.923120 0.000000 
#    z 0.000000 0.000000 3.676120 
# 
# 
# High freq. dielectric constant tensor:
#      x y z
#    x 1.855340 0.000000 0.000000 
#    y 0.000000 1.840700 0.000000 
#    z 0.000000 0.000000 1.821350 
# 
# From -- ./inp_files/8470.got.cif
#   From: 2010.03.12/outbox.cif.g09.slc.cpg/sg33_5_cif.got.tgz:8470.got - 2010.04.14 01:49:19.
