data_PCOD8171171
_publ_section_title
;
Structure prediction by ZEFSAII (Michael W. Deem and Ramdas Pophale) SiO2 
 PCOD8171171
Probable space group: P N A 21
;
_chemical_formula_sum "Si O2"
_cell_formula_units_Z 28
_cell_length_a 13.948878
_cell_length_b 11.609065
_cell_length_c 8.445669
_cell_angle_alpha 90.000000
_cell_angle_beta 90.000000
_cell_angle_gamma 90.000000
_cell_volume 1367.636161
_symmetry_space_group_name_H-M "P N A 21"
_symmetry_group_IT_number 33
_symmetry_cell_setting 'orthorhombic'
loop_
_space_group_symop_operation_xyz
x,y,z
-x,-y,1/2+z
1/2-x,1/2+y,1/2+z
1/2+x,1/2-y,z
loop_
_atom_site_type_symbol
_atom_site_label
_atom_site_fract_x
_atom_site_fract_y
_atom_site_fract_z
Si Si1 0.750000 0.882691 0.834940
Si Si2 0.906244 0.022839 0.010289
Si Si3 0.551326 0.130953 0.689625
Si Si4 0.750000 0.063122 0.571759
Si Si5 0.593756 0.022839 0.010289
Si Si6 0.750000 0.121176 0.232750
Si Si7 0.948674 0.130953 0.689625
O O1 0.750000 0.747557 0.808215
O O2 0.750000 0.941820 0.662664
O O3 0.843686 0.920705 0.932858
O O4 0.656314 0.920705 0.932858
O O5 0.844286 0.100525 0.129531
O O6 0.946752 0.107860 0.876816
O O7 0.995859 0.972127 0.103547
O O8 0.658287 0.139002 0.620824
O O9 0.500000 0.250000 0.654136
O O10 0.495859 0.027873 0.603547
O O11 0.553248 0.107860 0.876816
O O12 0.750000 0.035521 0.384189
O O13 0.841713 0.139002 0.620824
O O14 0.655714 0.100525 0.129531
#
# Coordination Sequence:
#
# PCOD8171171 Si02
#       7
#     4   4   4   4   4   4   4
#     4   9  21  41  62  90 124 153 193 249 296 346
#     4  10  23  38  59  93 120 153 204 238 288 363
#     4  11  23  41  62  87 121 157 196 247 296 346
#     4  10  22  40  62  88 118 156 200 242 296 356
#     4  10  23  38  59  93 120 153 204 238 288 363
#     4  11  21  39  64  88 122 159 191 243 296 344
#     4  11  23  41  62  87 121 157 196 247 296 346
#
# _framework density 20.473281
#
# number of rings (size 3 to 8) (size 9 to 14) (size 15 to 20)
#    0.000    1.714    0.000    4.286    0.000    8.000 
#    0.000    5.714    0.000    0.000    0.000    0.000 
#    0.000    0.000    0.000    0.000    0.000    0.000 
#
# Total GULP energy -347351.270543 kJ/mol
# GULP energy per Si atom -12405.402519 kJ/mol
# Density = 2.042668 g / cm^3
# Si number density = 20.473281 Si / 1000 Ang^3
#
#
#
# Elastic Constant Matrix: (Units=GPa)
#
#
# Indices 1 2 3 4 5 6 
#
# 1 129.1285 29.7502 33.0201 0.0000 0.0000 0.0000
# 2 29.7502 66.4309 15.7948 0.0000 0.0000 0.0000
# 3 33.0201 15.7948 136.3721 0.0000 0.0000 0.0000
# 4 0.0000 0.0000 0.0000 27.3420 0.0000 0.0000
# 5 0.0000 0.0000 0.0000 0.0000 41.9013 0.0000
# 6 0.0000 0.0000 0.0000 0.0000 0.0000 27.4007
#
#
#
# Elastic Compliance Matrix: (Units=1/GPa)
#
#
# Indices 1 2 3 4 5 6 
#
# 1 0.009031 -0.003624 -0.001767 0.000000 0.000000 0.000000
# 2 -0.003624 0.016934 -0.001084 0.000000 0.000000 0.000000
# 3 -0.001767 -0.001084 0.007886 0.000000 0.000000 0.000000
# 4 0.000000 0.000000 0.000000 0.036574 0.000000 0.000000
# 5 0.000000 0.000000 0.000000 0.000000 0.023866 0.000000
# 6 0.000000 0.000000 0.000000 0.000000 0.000000 0.036495
#
#
# Mechanical properties :
#
#
# Convention : Reuss Voigt Hill
#
# Bulk Modulus (GPa) = 47.84396 54.34019 51.09207
# Shear Modulus (GPa) = 33.17776 36.21988 34.69882
#
# Velocity S-wave (km/s) = 4.02996 4.21066 4.12130
# Velocity P-wave (km/s) = 6.71370 7.08796 6.90337
#
# Compressibility (1/GPa) = 0.02090128
#
# Stress axis : x y z
#
# Youngs Moduli (GPa) = 110.72876 59.05267 126.80325
#
# Poissons Ratio (x) = 0.21403 0.22405
# Poissons Ratio (y) = 0.40132 0.13742
# Poissons Ratio (z) = 0.19565 0.06400
#
# Static dielectric constant tensor:
#      x y z
#    x 3.878380 0.000000 0.000000 
#    y 0.000000 3.329010 0.000000 
#    z 0.000000 0.000000 3.952680 
# 
# 
# High freq. dielectric constant tensor:
#      x y z
#    x 1.814210 0.000000 0.000000 
#    y 0.000000 1.780950 0.000000 
#    z 0.000000 0.000000 1.820990 
# 
# From -- ./inp_files/4331.got.cif
#   From: 2010.03.12/outbox.cif.g09.slc.cpg/sg33_3_cif.got.tgz:4331.got - 2010.04.14 01:49:19.
