data_PCOD8171949
_publ_section_title
;
Structure prediction by ZEFSAII (Michael W. Deem and Ramdas Pophale) SiO2 
 PCOD8171949
Probable space group: P N N 2
;
_chemical_formula_sum "Si O2"
_cell_formula_units_Z 24
_cell_length_a 11.997943
_cell_length_b 11.132630
_cell_length_c 8.875650
_cell_angle_alpha 90.000000
_cell_angle_beta 90.000000
_cell_angle_gamma 90.000000
_cell_volume 1185.508679
_symmetry_space_group_name_H-M "P N N 2"
_symmetry_group_IT_number 34
_symmetry_cell_setting 'orthorhombic'
loop_
_space_group_symop_operation_xyz
x,y,z
-x,-y,z
1/2-x,1/2+y,1/2+z
1/2+x,1/2-y,1/2+z
loop_
_atom_site_type_symbol
_atom_site_label
_atom_site_fract_x
_atom_site_fract_y
_atom_site_fract_z
Si Si1 0.346966 0.945695 0.754300
Si Si2 0.500000 0.000000 0.016814
Si Si3 0.306549 0.188813 0.614325
Si Si4 0.950682 0.755431 0.614995
Si Si5 0.500000 0.500000 0.578531
Si Si6 0.992654 0.780947 0.271987
Si Si7 0.377236 0.342505 0.354468
O O1 0.434093 0.840947 0.710772
O O2 0.228357 0.883375 0.761644
O O3 0.333644 0.047455 0.628002
O O4 0.389545 0.006843 0.910411
O O5 0.512624 0.116010 0.122715
O O6 0.178918 0.222914 0.648128
O O7 0.376415 0.265975 0.736326
O O8 0.344420 0.221893 0.444853
O O9 0.976050 0.805063 0.448308
O O10 0.019584 0.825007 0.741870
O O11 0.554944 0.395919 0.682072
O O12 0.403378 0.446751 0.473988
#
# Coordination Sequence:
#
# PCOD8171949 Si02
#       7
#     4   2   4   4   2   4   4
#     4  11  20  43  71  91 136 182 221 283 343 406
#     4  10  20  44  68  90 140 180 224 276 336 416
#     4  11  21  42  70  97 136 176 228 280 346 410
#     4  11  23  45  67 105 135 180 230 284 347 409
#     4  10  24  42  64  96 142 174 230 274 340 406
#     4  10  22  44  69  94 134 187 223 281 350 405
#     4  11  24  42  66 103 135 175 229 284 338 411
#
# _framework density 20.244475000000001
#
# number of rings (size 3 to 8) (size 9 to 14) (size 15 to 20)
#    0.000    1.333    6.667    1.000    0.000    3.333 
#   12.000    0.000    0.000    0.000    0.000    0.000 
#    0.000    0.000    0.000    0.000    0.000    0.000 
#
# Total GULP energy -297517.623128 kJ/mol
# GULP energy per Si atom -12396.567630 kJ/mol
# Density = 2.019840 g / cm^3
# Si number density = 20.244475 Si / 1000 Ang^3
#
#
#
# Elastic Constant Matrix: (Units=GPa)
#
#
# Indices 1 2 3 4 5 6 
#
# 1 151.2936 48.2855 57.2039 0.0000 0.0000 0.0000
# 2 48.2855 140.7957 63.7303 0.0000 0.0000 0.0000
# 3 57.2039 63.7303 93.8871 0.0000 0.0000 0.0000
# 4 0.0000 0.0000 0.0000 40.3612 0.0000 0.0000
# 5 0.0000 0.0000 0.0000 0.0000 22.7945 0.0000
# 6 0.0000 0.0000 0.0000 0.0000 0.0000 26.1282
#
#
#
# Elastic Compliance Matrix: (Units=1/GPa)
#
#
# Indices 1 2 3 4 5 6 
#
# 1 0.008656 -0.000839 -0.004704 0.000000 0.000000 0.000000
# 2 -0.000839 0.010334 -0.006503 0.000000 0.000000 0.000000
# 3 -0.004704 -0.006503 0.017932 0.000000 0.000000 0.000000
# 4 0.000000 0.000000 0.000000 0.024776 0.000000 0.000000
# 5 0.000000 0.000000 0.000000 0.000000 0.043870 0.000000
# 6 0.000000 0.000000 0.000000 0.000000 0.000000 0.038273
#
#
# Mechanical properties :
#
#
# Convention : Reuss Voigt Hill
#
# Bulk Modulus (GPa) = 77.95396 80.49065 79.22230
# Shear Modulus (GPa) = 29.03404 32.30722 30.67063
#
# Velocity S-wave (km/s) = 3.79115 3.99915 3.89654
# Velocity P-wave (km/s) = 7.59958 7.82112 7.71115
#
# Compressibility (1/GPa) = 0.01282808
#
# Stress axis : x y z
#
# Youngs Moduli (GPa) = 115.52344 96.76786 55.76638
#
# Poissons Ratio (x) = 0.08121 0.26235
# Poissons Ratio (y) = 0.09695 0.36267
# Poissons Ratio (z) = 0.54348 0.62932
#
# Static dielectric constant tensor:
#      x y z
#    x 3.722980 0.000000 0.000000 
#    y 0.000000 3.936770 0.000000 
#    z 0.000000 0.000000 3.529380 
# 
# 
# High freq. dielectric constant tensor:
#      x y z
#    x 1.795420 0.000000 0.000000 
#    y 0.000000 1.799150 0.000000 
#    z 0.000000 0.000000 1.771900 
# 
# From -- ./inp_files/3178.got.cif
#   From: 2010.03.12/outbox.cif.g09.slc.cpg/sg34_2_cif.got.tgz:3178.got - 2010.04.14 01:56:33.
