data_PCOD8171231
_publ_section_title
;
Structure prediction by ZEFSAII (Michael W. Deem and Ramdas Pophale) SiO2 
 PCOD8171231
Probable space group: P N A 21
;
_chemical_formula_sum "Si O2"
_cell_formula_units_Z 32
_cell_length_a 12.703313
_cell_length_b 16.976932
_cell_length_c 7.177930
_cell_angle_alpha 90.000000
_cell_angle_beta 90.000000
_cell_angle_gamma 90.000000
_cell_volume 1548.015934
_symmetry_space_group_name_H-M "P N A 21"
_symmetry_group_IT_number 33
_symmetry_cell_setting 'orthorhombic'
loop_
_space_group_symop_operation_xyz
x,y,z
-x,-y,1/2+z
1/2-x,1/2+y,1/2+z
1/2+x,1/2-y,z
loop_
_atom_site_type_symbol
_atom_site_label
_atom_site_fract_x
_atom_site_fract_y
_atom_site_fract_z
Si Si1 0.793889 0.706659 0.013890
Si Si2 0.401216 0.949980 0.980492
Si Si3 0.121861 0.855087 0.774173
Si Si4 0.759197 0.995492 0.177831
Si Si5 0.278147 0.669765 0.342061
Si Si6 0.388727 0.197766 0.114110
Si Si7 0.630596 0.950266 0.837697
Si Si8 0.914606 0.782690 0.688881
O O1 0.883099 0.640262 0.042632
O O2 0.785948 0.758779 0.197961
O O3 0.682492 0.661809 0.970495
O O4 0.828009 0.760021 0.839551
O O5 0.360821 0.005364 0.143614
O O6 0.523300 0.966330 0.947439
O O7 0.338806 0.970809 0.793128
O O8 0.163079 0.784670 0.638599
O O9 0.994857 0.845697 0.788094
O O10 0.148137 0.939799 0.686276
O O11 0.805577 0.913525 0.251539
O O12 0.725605 0.980654 0.965214
O O13 0.157530 0.665257 0.419333
O O14 0.358009 0.679143 0.512636
O O15 0.357821 0.142356 0.289788
O O16 0.516569 0.207021 0.115341
#
# Coordination Sequence:
#
# PCOD8171231 Si02
#       8
#     4   4   4   4   4   4   4   4
#     4  11  23  40  68  96 123 168 218 264 322 389
#     4  11  23  37  64  99 126 164 211 259 336 386
#     4   9  22  46  63  88 132 169 204 271 317 376
#     4  11  25  40  62  96 132 164 217 263 326 383
#     4  12  25  41  67  98 123 170 220 264 318 391
#     4  10  22  42  67  89 131 166 211 268 324 374
#     4  12  22  40  64  97 132 166 206 276 327 388
#     4  10  22  44  65  87 127 171 217 259 316 383
#
# _framework density 20.671621999999999
#
# number of rings (size 3 to 8) (size 9 to 14) (size 15 to 20)
#    0.750    0.500    5.000    0.750    1.750    3.000 
#    2.250    0.000    0.000    0.000    0.000    0.000 
#    0.000    0.000    0.000    0.000    0.000    0.000 
#
# Total GULP energy -396613.988654 kJ/mol
# GULP energy per Si atom -12394.187145 kJ/mol
# Density = 2.062457 g / cm^3
# Si number density = 20.671622 Si / 1000 Ang^3
#
#
#
# Elastic Constant Matrix: (Units=GPa)
#
#
# Indices 1 2 3 4 5 6 
#
# 1 62.5939 -4.5657 23.8674 0.0000 0.0000 0.0000
# 2 -4.5657 92.7565 23.0249 0.0000 0.0000 0.0000
# 3 23.8674 23.0249 86.9416 0.0000 0.0000 0.0000
# 4 0.0000 0.0000 0.0000 38.8373 0.0000 0.0000
# 5 0.0000 0.0000 0.0000 0.0000 28.2245 0.0000
# 6 0.0000 0.0000 0.0000 0.0000 0.0000 26.5103
#
#
#
# Elastic Compliance Matrix: (Units=1/GPa)
#
#
# Indices 1 2 3 4 5 6 
#
# 1 0.018290 0.002298 -0.005630 0.000000 0.000000 0.000000
# 2 0.002298 0.011828 -0.003763 0.000000 0.000000 0.000000
# 3 -0.005630 -0.003763 0.014044 0.000000 0.000000 0.000000
# 4 0.000000 0.000000 0.000000 0.025748 0.000000 0.000000
# 5 0.000000 0.000000 0.000000 0.000000 0.035430 0.000000
# 6 0.000000 0.000000 0.000000 0.000000 0.000000 0.037721
#
#
# Mechanical properties :
#
#
# Convention : Reuss Voigt Hill
#
# Bulk Modulus (GPa) = 33.36429 36.32726 34.84578
# Shear Modulus (GPa) = 29.89658 32.04544 30.97101
#
# Velocity S-wave (km/s) = 3.80710 3.94155 3.87491
# Velocity P-wave (km/s) = 5.95823 6.19080 6.07563
#
# Compressibility (1/GPa) = 0.02997216
#
# Stress axis : x y z
#
# Youngs Moduli (GPa) = 54.67416 84.54402 71.20459
#
# Poissons Ratio (x) = -0.19426 0.40085
# Poissons Ratio (y) = -0.12562 0.26796
# Poissons Ratio (z) = 0.30779 0.31816
#
# Static dielectric constant tensor:
#      x y z
#    x 3.642310 0.000000 0.000000 
#    y 0.000000 3.834400 0.000000 
#    z 0.000000 0.000000 3.545100 
# 
# 
# High freq. dielectric constant tensor:
#      x y z
#    x 1.798010 0.000000 0.000000 
#    y 0.000000 1.816120 0.000000 
#    z 0.000000 0.000000 1.796410 
# 
# From -- ./inp_files/1494.got.cif
#   From: 2010.03.12/outbox.cif.g09.slc.cpg/sg33_1_cif.got.tgz:1494.got - 2010.04.14 01:49:19.
