data_PCOD8171612
_publ_section_title
;
Structure prediction by ZEFSAII (Michael W. Deem and Ramdas Pophale) SiO2 
 PCOD8171612
Probable space group: P N A 21
;
_chemical_formula_sum "Si O2"
_cell_formula_units_Z 28
_cell_length_a 8.832964
_cell_length_b 18.130721
_cell_length_c 7.752510
_cell_angle_alpha 90.000000
_cell_angle_beta 90.000000
_cell_angle_gamma 90.000000
_cell_volume 1241.549017
_symmetry_space_group_name_H-M "P N A 21"
_symmetry_group_IT_number 33
_symmetry_cell_setting 'orthorhombic'
loop_
_space_group_symop_operation_xyz
x,y,z
-x,-y,1/2+z
1/2-x,1/2+y,1/2+z
1/2+x,1/2-y,z
loop_
_atom_site_type_symbol
_atom_site_label
_atom_site_fract_x
_atom_site_fract_y
_atom_site_fract_z
Si Si1 0.340807 0.306448 0.503250
Si Si2 0.184877 0.167837 0.605820
Si Si3 0.137104 0.800908 0.607308
Si Si4 0.179201 0.379048 0.824960
Si Si5 0.905251 0.918518 0.591633
Si Si6 0.650656 0.478235 0.442833
Si Si7 0.647040 0.847407 0.434844
O O1 0.287754 0.221392 0.490086
O O2 0.509198 0.312871 0.578072
O O3 0.326518 0.329214 0.302038
O O4 0.234995 0.354479 0.633603
O O5 0.220976 0.080228 0.578822
O O6 0.233260 0.187463 0.800131
O O7 0.268971 0.826322 0.479380
O O8 0.110862 0.713456 0.582830
O O9 0.983938 0.841022 0.544356
O O10 0.231857 0.462260 0.869477
O O11 0.997856 0.376760 0.830721
O O12 0.905467 0.923711 0.795641
O O13 0.732615 0.916997 0.522684
O O14 0.997583 0.986776 0.515841
#
# Coordination Sequence:
#
# PCOD8171612 Si02
#       7
#     4   4   4   4   4   4   4
#     4  12  25  46  74 108 139 195 248 309 365 447
#     4  12  25  45  74 109 144 192 252 308 373 447
#     4  11  24  44  72 104 142 191 251 303 369 442
#     4  11  26  46  73 106 153 191 243 313 377 442
#     4  11  23  44  73 100 146 192 247 301 376 457
#     4  11  24  46  71 108 142 202 248 304 381 462
#     4  12  25  45  71 107 152 193 243 314 373 451
#
# _framework density 22.552472999999999
#
# number of rings (size 3 to 8) (size 9 to 14) (size 15 to 20)
#    0.000    0.571    2.857    6.000    2.000    1.143 
#    2.571    1.429    0.000    0.000    0.000    0.000 
#    0.000    0.000    0.000    0.000    0.000    0.000 
#
# Total GULP energy -347033.592207 kJ/mol
# GULP energy per Si atom -12394.056865 kJ/mol
# Density = 2.250114 g / cm^3
# Si number density = 22.552473 Si / 1000 Ang^3
#
#
#
# Elastic Constant Matrix: (Units=GPa)
#
#
# Indices 1 2 3 4 5 6 
#
# 1 114.9887 50.5358 58.9657 0.0000 0.0000 0.0000
# 2 50.5358 125.8413 12.6600 0.0000 0.0000 0.0000
# 3 58.9657 12.6600 98.2351 0.0000 0.0000 0.0000
# 4 0.0000 0.0000 0.0000 21.8431 0.0000 0.0000
# 5 0.0000 0.0000 0.0000 0.0000 3.3358 0.0000
# 6 0.0000 0.0000 0.0000 0.0000 0.0000 21.5578
#
#
#
# Elastic Compliance Matrix: (Units=1/GPa)
#
#
# Indices 1 2 3 4 5 6 
#
# 1 0.015443 -0.005338 -0.008582 0.000000 0.000000 0.000000
# 2 -0.005338 0.009896 0.001929 0.000000 0.000000 0.000000
# 3 -0.008582 0.001929 0.015082 0.000000 0.000000 0.000000
# 4 0.000000 0.000000 0.000000 0.045781 0.000000 0.000000
# 5 0.000000 0.000000 0.000000 0.000000 0.299775 0.000000
# 6 0.000000 0.000000 0.000000 0.000000 0.000000 0.046387
#
#
# Mechanical properties :
#
#
# Convention : Reuss Voigt Hill
#
# Bulk Modulus (GPa) = 60.82963 64.82091 62.82527
# Shear Modulus (GPa) = 10.82654 23.80759 17.31706
#
# Velocity S-wave (km/s) = 2.19340 3.25261 2.77403
# Velocity P-wave (km/s) = 5.78323 6.55062 6.17885
#
# Compressibility (1/GPa) = 0.01643936
#
# Stress axis : x y z
#
# Youngs Moduli (GPa) = 64.75231 101.04804 66.30252
#
# Poissons Ratio (x) = 0.53944 0.56901
# Poissons Ratio (y) = 0.34568 -0.12790
# Poissons Ratio (z) = 0.55570 -0.19492
#
# Static dielectric constant tensor:
#      x y z
#    x 5.548280 0.000000 0.000000 
#    y 0.000000 4.318490 0.000000 
#    z 0.000000 0.000000 4.156490 
# 
# 
# High freq. dielectric constant tensor:
#      x y z
#    x 1.883250 0.000000 0.000000 
#    y 0.000000 1.887960 0.000000 
#    z 0.000000 0.000000 1.900970 
# 
# From -- ./inp_files/3377.got.cif
#   From: 2010.03.12/outbox.cif.g09.slc.cpg/sg33_2_cif.got.tgz:3377.got - 2010.04.14 01:49:19.
