data_PCOD8171272
_publ_section_title
;
Structure prediction by ZEFSAII (Michael W. Deem and Ramdas Pophale) SiO2 
 PCOD8171272
Probable space group: P N A 21
;
_chemical_formula_sum "Si O2"
_cell_formula_units_Z 28
_cell_length_a 9.074942
_cell_length_b 23.110693
_cell_length_c 5.569638
_cell_angle_alpha 90.000000
_cell_angle_beta 90.000000
_cell_angle_gamma 90.000000
_cell_volume 1168.110144
_symmetry_space_group_name_H-M "P N A 21"
_symmetry_group_IT_number 33
_symmetry_cell_setting 'orthorhombic'
loop_
_space_group_symop_operation_xyz
x,y,z
-x,-y,1/2+z
1/2-x,1/2+y,1/2+z
1/2+x,1/2-y,z
loop_
_atom_site_type_symbol
_atom_site_label
_atom_site_fract_x
_atom_site_fract_y
_atom_site_fract_z
Si Si1 0.353386 0.828821 0.102030
Si Si2 0.616758 0.394733 0.796262
Si Si3 0.170725 0.524144 0.509125
Si Si4 0.902320 0.251632 0.465151
Si Si5 0.287054 0.434346 0.846084
Si Si6 0.584419 0.080330 0.239725
Si Si7 0.150912 0.173257 0.295466
O O1 0.204082 0.791235 0.113409
O O2 0.496346 0.788300 0.156075
O O3 0.332679 0.884470 0.269379
O O4 0.390731 0.855154 0.838446
O O5 0.448756 0.413304 0.792367
O O6 0.649861 0.361785 0.548523
O O7 0.721608 0.450862 0.803433
O O8 0.646717 0.362062 0.048776
O O9 0.269491 0.496830 0.722085
O O10 0.063798 0.471550 0.431617
O O11 0.065549 0.577720 0.586232
O O12 0.803125 0.291457 0.293520
O O13 0.010728 0.215698 0.292311
O O14 0.241183 0.439270 0.122149
#
# Coordination Sequence:
#
# PCOD8171272 Si02
#       7
#     4   4   4   4   4   4   4
#     4  10  22  44  68  99 136 178 230 290 351 414
#     4  12  28  45  72 105 146 183 241 295 359 430
#     4  11  26  42  72 100 140 189 238 290 361 433
#     4  10  22  47  71  99 139 184 235 293 359 419
#     4  11  25  43  67  99 143 183 227 296 349 429
#     4  11  23  44  66 101 135 183 237 289 352 426
#     4  11  26  47  70 107 139 186 240 295 359 429
#
# _framework density 23.970343
#
# number of rings (size 3 to 8) (size 9 to 14) (size 15 to 20)
#    0.000    1.143    2.857    1.714    8.000    1.143 
#   10.286    0.000    0.000    0.000    0.000    0.000 
#    0.000    0.000    0.000    0.000    0.000    0.000 
#
# Total GULP energy -346909.643840 kJ/mol
# GULP energy per Si atom -12389.630137 kJ/mol
# Density = 2.391579 g / cm^3
# Si number density = 23.970343 Si / 1000 Ang^3
#
#
#
# Elastic Constant Matrix: (Units=GPa)
#
#
# Indices 1 2 3 4 5 6 
#
# 1 125.0847 59.0939 18.5510 0.0000 0.0000 0.0000
# 2 59.0939 104.3856 31.4334 0.0000 0.0000 0.0000
# 3 18.5510 31.4334 87.1944 0.0000 0.0000 0.0000
# 4 0.0000 0.0000 0.0000 25.5003 0.0000 0.0000
# 5 0.0000 0.0000 0.0000 0.0000 25.8298 0.0000
# 6 0.0000 0.0000 0.0000 0.0000 0.0000 42.1994
#
#
#
# Elastic Compliance Matrix: (Units=1/GPa)
#
#
# Indices 1 2 3 4 5 6 
#
# 1 0.010914 -0.006147 -0.000106 0.000000 0.000000 0.000000
# 2 -0.006147 0.014208 -0.003814 0.000000 0.000000 0.000000
# 3 -0.000106 -0.003814 0.012866 0.000000 0.000000 0.000000
# 4 0.000000 0.000000 0.000000 0.039215 0.000000 0.000000
# 5 0.000000 0.000000 0.000000 0.000000 0.038715 0.000000
# 6 0.000000 0.000000 0.000000 0.000000 0.000000 0.023697
#
#
# Mechanical properties :
#
#
# Convention : Reuss Voigt Hill
#
# Bulk Modulus (GPa) = 56.00878 59.42458 57.71668
# Shear Modulus (GPa) = 30.17473 32.54500 31.35987
#
# Velocity S-wave (km/s) = 3.55186 3.68872 3.62094
# Velocity P-wave (km/s) = 6.34330 6.55644 6.45075
#
# Compressibility (1/GPa) = 0.01785434
#
# Stress axis : x y z
#
# Youngs Moduli (GPa) = 91.62365 70.38209 77.72269
#
# Poissons Ratio (x) = 0.43262 0.00825
# Poissons Ratio (y) = 0.56318 0.29646
# Poissons Ratio (z) = 0.00973 0.26846
#
# Static dielectric constant tensor:
#      x y z
#    x 4.423960 0.000000 0.000000 
#    y 0.000000 4.497880 0.000000 
#    z 0.000000 0.000000 4.150860 
# 
# 
# High freq. dielectric constant tensor:
#      x y z
#    x 1.967150 0.000000 0.000000 
#    y 0.000000 1.966940 0.000000 
#    z 0.000000 0.000000 1.925010 
# 
# From -- ./inp_files/484.got.cif
#   From: 2010.03.12/outbox.cif.g09.slc.cpg/sg33_1_cif.got.tgz:484.got - 2010.04.14 01:49:19.
