data_PCOD8171437
_publ_section_title
;
Structure prediction by ZEFSAII (Michael W. Deem and Ramdas Pophale) SiO2 
 PCOD8171437
Probable space group: P N A 21
;
_chemical_formula_sum "Si O2"
_cell_formula_units_Z 20
_cell_length_a 21.175432
_cell_length_b 7.971566
_cell_length_c 5.002094
_cell_angle_alpha 90.000000
_cell_angle_beta 90.000000
_cell_angle_gamma 90.000000
_cell_volume 844.360239
_symmetry_space_group_name_H-M "P N A 21"
_symmetry_group_IT_number 33
_symmetry_cell_setting 'orthorhombic'
loop_
_space_group_symop_operation_xyz
x,y,z
-x,-y,1/2+z
1/2-x,1/2+y,1/2+z
1/2+x,1/2-y,z
loop_
_atom_site_type_symbol
_atom_site_label
_atom_site_fract_x
_atom_site_fract_y
_atom_site_fract_z
Si Si1 0.465647 0.058640 0.879070
Si Si2 0.531289 0.567118 0.573585
Si Si3 0.167226 0.434563 0.507411
Si Si4 0.770820 0.861681 0.765967
Si Si5 0.843032 0.904044 0.254487
O O1 0.497052 0.061860 0.586062
O O2 0.392239 0.007208 0.846027
O O3 0.470964 0.239727 0.006352
O O4 0.521680 0.462701 0.300742
O O5 0.597031 0.518513 0.706710
O O6 0.217969 0.339642 0.309707
O O7 0.200745 0.589059 0.666274
O O8 0.141101 0.294718 0.715888
O O9 0.820993 0.934484 0.554699
O O10 0.787091 0.954500 0.045445
#
# Coordination Sequence:
#
# PCOD8171437 Si02
#       5
#     4   4   4   4   4
#     4  12  28  46  74 106 141 188 240 300 360 424
#     4  12  25  45  71 101 142 191 240 294 359 427
#     4  10  26  45  72 101 145 184 240 292 352 432
#     4  10  25  40  72  97 145 178 239 288 357 409
#     4  10  24  42  67 101 137 183 237 290 346 426
#
# _framework density 23.686572999999999
#
# number of rings (size 3 to 8) (size 9 to 14) (size 15 to 20)
#    1.200    0.000    0.000    4.800   11.200    0.000 
#    0.000    0.000    0.000    0.000    0.000    0.000 
#    0.000    0.000    0.000    0.000    0.000    0.000 
#
# Total GULP energy -247865.252900 kJ/mol
# GULP energy per Si atom -12393.262645 kJ/mol
# Density = 2.363266 g / cm^3
# Si number density = 23.686573 Si / 1000 Ang^3
#
#
#
# Elastic Constant Matrix: (Units=GPa)
#
#
# Indices 1 2 3 4 5 6 
#
# 1 89.4075 25.6400 2.0279 0.0000 0.0000 0.0000
# 2 25.6400 78.1307 15.9854 0.0000 0.0000 0.0000
# 3 2.0279 15.9854 92.5745 0.0000 0.0000 0.0000
# 4 0.0000 0.0000 0.0000 32.5521 0.0000 0.0000
# 5 0.0000 0.0000 0.0000 0.0000 35.7864 0.0000
# 6 0.0000 0.0000 0.0000 0.0000 0.0000 44.8255
#
#
#
# Elastic Compliance Matrix: (Units=1/GPa)
#
#
# Indices 1 2 3 4 5 6 
#
# 1 0.012364 -0.004149 0.000446 0.000000 0.000000 0.000000
# 2 -0.004149 0.014660 -0.002441 0.000000 0.000000 0.000000
# 3 0.000446 -0.002441 0.011214 0.000000 0.000000 0.000000
# 4 0.000000 0.000000 0.000000 0.030720 0.000000 0.000000
# 5 0.000000 0.000000 0.000000 0.000000 0.027944 0.000000
# 6 0.000000 0.000000 0.000000 0.000000 0.000000 0.022309
#
#
# Mechanical properties :
#
#
# Convention : Reuss Voigt Hill
#
# Bulk Modulus (GPa) = 38.53480 38.60213 38.56847
# Shear Modulus (GPa) = 35.67656 37.06342 36.36999
#
# Velocity S-wave (km/s) = 3.88518 3.95998 3.92276
# Velocity P-wave (km/s) = 6.03574 6.10254 6.06923
#
# Compressibility (1/GPa) = 0.02595057
#
# Stress axis : x y z
#
# Youngs Moduli (GPa) = 80.87728 68.21336 89.17609
#
# Poissons Ratio (x) = 0.28300 -0.03973
# Poissons Ratio (y) = 0.33554 0.21764
# Poissons Ratio (z) = -0.03603 0.16648
#
# Static dielectric constant tensor:
#      x y z
#    x 4.029920 0.000000 0.000000 
#    y 0.000000 4.076480 0.000000 
#    z 0.000000 0.000000 4.470570 
# 
# 
# High freq. dielectric constant tensor:
#      x y z
#    x 1.930650 0.000000 0.000000 
#    y 0.000000 1.930410 0.000000 
#    z 0.000000 0.000000 1.943910 
# 
# From -- ./inp_files/1646.got.cif
#   From: 2010.03.12/outbox.cif.g09.slc.cpg/sg33_1_cif.got.tgz:1646.got - 2010.04.14 01:49:19.
