data_PCOD8171968
_publ_section_title
;
Structure prediction by ZEFSAII (Michael W. Deem and Ramdas Pophale) SiO2 
 PCOD8171968
Probable space group: P N N 2
;
_chemical_formula_sum "Si O2"
_cell_formula_units_Z 32
_cell_length_a 8.190345
_cell_length_b 28.535975
_cell_length_c 6.772059
_cell_angle_alpha 90.000000
_cell_angle_beta 90.000000
_cell_angle_gamma 90.000000
_cell_volume 1582.762109
_symmetry_space_group_name_H-M "P N N 2"
_symmetry_group_IT_number 34
_symmetry_cell_setting 'orthorhombic'
loop_
_space_group_symop_operation_xyz
x,y,z
-x,-y,z
1/2-x,1/2+y,1/2+z
1/2+x,1/2-y,1/2+z
loop_
_atom_site_type_symbol
_atom_site_label
_atom_site_fract_x
_atom_site_fract_y
_atom_site_fract_z
Si Si1 0.858391 0.661340 0.478930
Si Si2 0.102517 0.453645 0.077270
Si Si3 0.165083 0.929295 0.904302
Si Si4 0.838903 0.212533 0.669750
Si Si5 0.590623 0.860565 0.647887
Si Si6 0.415365 0.453191 0.822323
Si Si7 0.963414 0.880030 0.593620
Si Si8 0.569788 0.212073 0.366355
O O1 0.734567 0.618720 0.488434
O O2 0.778232 0.703630 0.355393
O O3 0.028896 0.647326 0.372568
O O4 0.877334 0.674759 0.704426
O O5 0.193305 0.457592 0.288708
O O6 0.000000 0.500000 0.040927
O O7 0.988681 0.407908 0.062815
O O8 0.232705 0.448366 0.903450
O O9 0.017760 0.918244 0.755265
O O10 0.094141 0.958527 0.086009
O O11 0.727591 0.232335 0.487255
O O12 0.977534 0.247588 0.744595
O O13 0.916941 0.164411 0.591075
O O14 0.783632 0.863705 0.644984
O O15 0.545812 0.815309 0.517775
O O16 0.500000 0.500000 0.906377
O O17 0.522245 0.407371 0.884413
#
# Coordination Sequence:
#
# PCOD8171968 Si02
#       8
#     4   4   4   4   4   4   4   4
#     4   9  20  40  60  82 118 158 195 245 300 357
#     4  10  21  39  62  86 123 161 198 252 303 359
#     4   9  20  39  59  84 119 157 196 243 298 356
#     4  10  24  39  61  87 121 159 204 245 309 361
#     4  10  22  39  61  91 121 158 205 247 309 364
#     4  11  22  37  61  89 119 159 205 247 300 364
#     4  10  22  41  60  87 124 159 197 252 304 363
#     4  11  23  40  62  88 122 161 201 255 301 368
#
# _framework density 20.217818000000001
#
# number of rings (size 3 to 8) (size 9 to 14) (size 15 to 20)
#    0.000    2.000    0.000    4.500    3.500    5.500 
#    2.250    2.500    0.000    0.000    0.000    0.000 
#    0.000    0.000    0.000    0.000    0.000    0.000 
#
# Total GULP energy -396764.069140 kJ/mol
# GULP energy per Si atom -12398.877161 kJ/mol
# Density = 2.017180 g / cm^3
# Si number density = 20.217818 Si / 1000 Ang^3
#
#
#
# Elastic Constant Matrix: (Units=GPa)
#
#
# Indices 1 2 3 4 5 6 
#
# 1 98.7770 16.4191 28.1834 0.0000 0.0000 0.0000
# 2 16.4191 73.1214 14.9645 0.0000 0.0000 0.0000
# 3 28.1834 14.9645 85.4302 0.0000 0.0000 0.0000
# 4 0.0000 0.0000 0.0000 26.0598 0.0000 0.0000
# 5 0.0000 0.0000 0.0000 0.0000 23.2527 0.0000
# 6 0.0000 0.0000 0.0000 0.0000 0.0000 30.8911
#
#
#
# Elastic Compliance Matrix: (Units=1/GPa)
#
#
# Indices 1 2 3 4 5 6 
#
# 1 0.011414 -0.001859 -0.003440 0.000000 0.000000 0.000000
# 2 -0.001859 0.014487 -0.001924 0.000000 0.000000 0.000000
# 3 -0.003440 -0.001924 0.013177 0.000000 0.000000 0.000000
# 4 0.000000 0.000000 0.000000 0.038373 0.000000 0.000000
# 5 0.000000 0.000000 0.000000 0.000000 0.043006 0.000000
# 6 0.000000 0.000000 0.000000 0.000000 0.000000 0.032372
#
#
# Mechanical properties :
#
#
# Convention : Reuss Voigt Hill
#
# Bulk Modulus (GPa) = 40.59733 41.82918 41.21325
# Shear Modulus (GPa) = 28.49212 29.22482 28.85847
#
# Velocity S-wave (km/s) = 3.75808 3.80610 3.78216
# Velocity P-wave (km/s) = 6.24135 6.32845 6.28505
#
# Compressibility (1/GPa) = 0.02463216
#
# Stress axis : x y z
#
# Youngs Moduli (GPa) = 87.60921 69.02662 75.88759
#
# Poissons Ratio (x) = 0.12832 0.26105
# Poissons Ratio (y) = 0.16287 0.14604
# Poissons Ratio (z) = 0.30137 0.13283
#
# Static dielectric constant tensor:
#      x y z
#    x 3.652660 0.000000 0.000000 
#    y 0.000000 3.579110 0.000000 
#    z 0.000000 0.000000 3.697640 
# 
# 
# High freq. dielectric constant tensor:
#      x y z
#    x 1.789320 0.000000 0.000000 
#    y 0.000000 1.788240 0.000000 
#    z 0.000000 0.000000 1.790670 
# 
# From -- ./inp_files/662.got.cif
#   From: 2010.03.12/outbox.cif.g09.slc.cpg/sg34_1_cif.got.tgz:662.got - 2010.04.14 01:56:33.
