data_PCOD8171315
_publ_section_title
;
Structure prediction by ZEFSAII (Michael W. Deem and Ramdas Pophale) SiO2 
 PCOD8171315
Probable space group: P N A 21
;
_chemical_formula_sum "Si O2"
_cell_formula_units_Z 24
_cell_length_a 15.068068
_cell_length_b 6.208746
_cell_length_c 11.654304
_cell_angle_alpha 90.000000
_cell_angle_beta 90.000000
_cell_angle_gamma 90.000000
_cell_volume 1090.304506
_symmetry_space_group_name_H-M "P N A 21"
_symmetry_group_IT_number 33
_symmetry_cell_setting 'orthorhombic'
loop_
_space_group_symop_operation_xyz
x,y,z
-x,-y,1/2+z
1/2-x,1/2+y,1/2+z
1/2+x,1/2-y,z
loop_
_atom_site_type_symbol
_atom_site_label
_atom_site_fract_x
_atom_site_fract_y
_atom_site_fract_z
Si Si1 0.150078 0.766663 0.511240
Si Si2 0.426354 0.163208 0.246179
Si Si3 0.814128 0.613481 0.861140
Si Si4 0.816263 0.436328 0.441642
Si Si5 0.052369 0.006817 0.330014
Si Si6 0.092184 0.618175 0.177115
O O1 0.138141 0.758916 0.647746
O O2 0.152216 0.518886 0.471484
O O3 0.064244 0.874829 0.449255
O O4 0.241331 0.890201 0.475913
O O5 0.376211 0.993248 0.331448
O O6 0.458684 0.370468 0.320635
O O7 0.509575 0.042802 0.190450
O O8 0.718555 0.704748 0.895081
O O9 0.821114 0.455271 0.751231
O O10 0.871103 0.818858 0.829642
O O11 0.881197 0.382246 0.545489
O O12 0.064496 0.855292 0.218570
#
# Coordination Sequence:
#
# PCOD8171315 Si02
#       6
#     4   4   4   4   4   4
#     4  10  23  43  69  96 137 171 223 278 329 403
#     4  11  25  39  67  98 132 174 229 269 341 396
#     4   9  21  42  62  92 131 168 218 266 331 394
#     4  11  24  40  67  97 130 175 224 274 339 393
#     4   9  22  42  65  93 132 174 215 271 331 390
#     4  10  23  40  66  94 134 172 223 276 327 396
#
# _framework density 22.0122
#
# number of rings (size 3 to 8) (size 9 to 14) (size 15 to 20)
#    0.000    2.000    0.000    1.000    9.333    9.333 
#    0.000    0.000    0.000    0.000    0.000    0.000 
#    0.000    0.000    0.000    0.000    0.000    0.000 
#
# Total GULP energy -297385.076039 kJ/mol
# GULP energy per Si atom -12391.044835 kJ/mol
# Density = 2.196210 g / cm^3
# Si number density = 22.012200 Si / 1000 Ang^3
#
#
#
# Elastic Constant Matrix: (Units=GPa)
#
#
# Indices 1 2 3 4 5 6 
#
# 1 99.9591 32.3819 63.9185 0.0000 0.0000 0.0000
# 2 32.3819 90.6606 29.6725 0.0000 0.0000 0.0000
# 3 63.9185 29.6725 162.7556 0.0000 0.0000 0.0000
# 4 0.0000 0.0000 0.0000 24.3461 0.0000 0.0000
# 5 0.0000 0.0000 0.0000 0.0000 41.3136 0.0000
# 6 0.0000 0.0000 0.0000 0.0000 0.0000 14.3295
#
#
#
# Elastic Compliance Matrix: (Units=1/GPa)
#
#
# Indices 1 2 3 4 5 6 
#
# 1 0.014323 -0.003483 -0.004990 0.000000 0.000000 0.000000
# 2 -0.003483 0.012577 -0.000925 0.000000 0.000000 0.000000
# 3 -0.004990 -0.000925 0.008273 0.000000 0.000000 0.000000
# 4 0.000000 0.000000 0.000000 0.041074 0.000000 0.000000
# 5 0.000000 0.000000 0.000000 0.000000 0.024205 0.000000
# 6 0.000000 0.000000 0.000000 0.000000 0.000000 0.069786
#
#
# Mechanical properties :
#
#
# Convention : Reuss Voigt Hill
#
# Bulk Modulus (GPa) = 61.06252 67.25790 64.16021
# Shear Modulus (GPa) = 25.70785 31.15803 28.43294
#
# Velocity S-wave (km/s) = 3.42115 3.76638 3.59791
# Velocity P-wave (km/s) = 6.58834 7.03813 6.81695
#
# Compressibility (1/GPa) = 0.01637666
#
# Stress axis : x y z
#
# Youngs Moduli (GPa) = 69.81640 79.51091 120.88041
#
# Poissons Ratio (x) = 0.27691 0.60322
# Poissons Ratio (y) = 0.24315 0.11184
# Poissons Ratio (z) = 0.34840 0.07356
#
# Static dielectric constant tensor:
#      x y z
#    x 4.064640 0.000000 0.000000 
#    y 0.000000 4.182040 0.000000 
#    z 0.000000 0.000000 4.071290 
# 
# 
# High freq. dielectric constant tensor:
#      x y z
#    x 1.858010 0.000000 0.000000 
#    y 0.000000 1.866310 0.000000 
#    z 0.000000 0.000000 1.869000 
# 
# From -- ./inp_files/6615.got.cif
#   From: 2010.03.12/outbox.cif.g09.slc.cpg/sg33_4_cif.got.tgz:6615.got - 2010.04.14 01:49:19.
