data_PCOD8171643
_publ_section_title
;
Structure prediction by ZEFSAII (Michael W. Deem and Ramdas Pophale) SiO2 
 PCOD8171643
Probable space group: P N A 21
;
_chemical_formula_sum "Si O2"
_cell_formula_units_Z 20
_cell_length_a 11.032038
_cell_length_b 15.700875
_cell_length_c 5.013946
_cell_angle_alpha 90.000000
_cell_angle_beta 90.000000
_cell_angle_gamma 90.000000
_cell_volume 868.478872
_symmetry_space_group_name_H-M "P N A 21"
_symmetry_group_IT_number 33
_symmetry_cell_setting 'orthorhombic'
loop_
_space_group_symop_operation_xyz
x,y,z
-x,-y,1/2+z
1/2-x,1/2+y,1/2+z
1/2+x,1/2-y,z
loop_
_atom_site_type_symbol
_atom_site_label
_atom_site_fract_x
_atom_site_fract_y
_atom_site_fract_z
Si Si1 0.066626 0.532078 0.788650
Si Si2 0.296656 0.665497 0.282308
Si Si3 0.672371 0.485368 0.439259
Si Si4 0.990437 0.134377 0.114619
Si Si5 0.349172 0.211155 0.300661
O O1 0.205486 0.499012 0.771918
O O2 0.064719 0.631535 0.877704
O O3 0.008876 0.522786 0.498610
O O4 0.433899 0.684185 0.384062
O O5 0.201886 0.691078 0.508397
O O6 0.292375 0.563653 0.214417
O O7 0.261176 0.718395 0.015106
O O8 0.613204 0.576512 0.485099
O O9 0.581505 0.423517 0.282294
O O10 0.925724 0.202432 0.305603
#
# Coordination Sequence:
#
# PCOD8171643 Si02
#       5
#     4   4   4   4   4
#     4  11  24  48  73 102 152 198 242 297 371 453
#     4  11  23  48  68 103 157 187 241 319 362 451
#     4  11  25  46  78 109 150 195 255 310 378 449
#     4  12  25  47  79 114 147 200 252 324 385 444
#     4  11  27  45  72 108 152 196 248 310 378 451
#
# _framework density 23.028770000000002
#
# number of rings (size 3 to 8) (size 9 to 14) (size 15 to 20)
#    0.000    0.800    6.000    2.400    2.800    1.600 
#    3.600    2.000    0.000    0.000    0.000    0.000 
#    0.000    0.000    0.000    0.000    0.000    0.000 
#
# Total GULP energy -247968.665803 kJ/mol
# GULP energy per Si atom -12398.433290 kJ/mol
# Density = 2.297636 g / cm^3
# Si number density = 23.028770 Si / 1000 Ang^3
#
#
#
# Elastic Constant Matrix: (Units=GPa)
#
#
# Indices 1 2 3 4 5 6 
#
# 1 132.6635 79.4174 35.7392 0.0000 0.0000 0.0000
# 2 79.4174 111.6145 32.4071 0.0000 0.0000 0.0000
# 3 35.7392 32.4071 109.4073 0.0000 0.0000 0.0000
# 4 0.0000 0.0000 0.0000 34.8182 0.0000 0.0000
# 5 0.0000 0.0000 0.0000 0.0000 43.8354 0.0000
# 6 0.0000 0.0000 0.0000 0.0000 0.0000 25.7426
#
#
#
# Elastic Compliance Matrix: (Units=1/GPa)
#
#
# Indices 1 2 3 4 5 6 
#
# 1 0.013414 -0.009051 -0.001701 0.000000 0.000000 0.000000
# 2 -0.009051 0.015909 -0.001756 0.000000 0.000000 0.000000
# 3 -0.001701 -0.001756 0.010216 0.000000 0.000000 0.000000
# 4 0.000000 0.000000 0.000000 0.028721 0.000000 0.000000
# 5 0.000000 0.000000 0.000000 0.000000 0.022813 0.000000
# 6 0.000000 0.000000 0.000000 0.000000 0.000000 0.038846
#
#
# Mechanical properties :
#
#
# Convention : Reuss Voigt Hill
#
# Bulk Modulus (GPa) = 68.85153 72.09027 70.47090
# Shear Modulus (GPa) = 31.29395 34.62069 32.95732
#
# Velocity S-wave (km/s) = 3.69033 3.88153 3.78714
# Velocity P-wave (km/s) = 6.93693 7.17362 7.05627
#
# Compressibility (1/GPa) = 0.01452401
#
# Stress axis : x y z
#
# Youngs Moduli (GPa) = 74.54746 62.85687 97.88656
#
# Poissons Ratio (x) = 0.56891 0.16651
# Poissons Ratio (y) = 0.67471 0.17187
# Poissons Ratio (z) = 0.12681 0.11037
#
# Static dielectric constant tensor:
#      x y z
#    x 4.378020 0.000000 0.000000 
#    y 0.000000 4.080100 0.000000 
#    z 0.000000 0.000000 4.299520 
# 
# 
# High freq. dielectric constant tensor:
#      x y z
#    x 1.917910 0.000000 0.000000 
#    y 0.000000 1.885260 0.000000 
#    z 0.000000 0.000000 1.920070 
# 
# From -- ./inp_files/384.got.cif
#   From: 2010.03.12/outbox.cif.g09.slc.cpg/sg33_1_cif.got.tgz:384.got - 2010.04.14 01:49:19.
