data_PCOD8171895
_publ_section_title
;
Structure prediction by ZEFSAII (Michael W. Deem and Ramdas Pophale) SiO2 
 PCOD8171895
Probable space group: P N N 2
;
_chemical_formula_sum "Si O2"
_cell_formula_units_Z 26
_cell_length_a 11.641854
_cell_length_b 8.479740
_cell_length_c 13.590485
_cell_angle_alpha 90.000000
_cell_angle_beta 90.000000
_cell_angle_gamma 90.000000
_cell_volume 1341.651253
_symmetry_space_group_name_H-M "P N N 2"
_symmetry_group_IT_number 34
_symmetry_cell_setting 'orthorhombic'
loop_
_space_group_symop_operation_xyz
x,y,z
-x,-y,z
1/2-x,1/2+y,1/2+z
1/2+x,1/2-y,1/2+z
loop_
_atom_site_type_symbol
_atom_site_label
_atom_site_fract_x
_atom_site_fract_y
_atom_site_fract_z
Si Si1 0.731619 0.053809 0.718390
Si Si2 0.380091 0.961807 0.381629
Si Si3 0.500000 0.000000 0.829116
Si Si4 0.975300 0.257802 0.498809
Si Si5 0.316790 0.545108 0.014288
Si Si6 0.401410 0.180027 0.204463
Si Si7 0.580337 0.371098 0.330158
O O1 0.778212 0.232284 0.708722
O O2 0.601794 0.055171 0.757174
O O3 0.743120 0.967198 0.613658
O O4 0.806928 0.956836 0.794464
O O5 0.369174 0.772982 0.394037
O O6 0.500000 0.000000 0.436450
O O7 0.275444 0.057103 0.427146
O O8 0.391284 0.019474 0.267509
O O9 0.539247 0.855873 0.898724
O O10 0.935082 0.363081 0.592262
O O11 0.107863 0.203981 0.512136
O O12 0.896083 0.104753 0.494680
O O13 0.499230 0.301443 0.243588
O O14 0.500000 0.500000 0.388238
#
# Coordination Sequence:
#
# PCOD8171895 Si02
#       7
#     4   4   2   4   4   4   4
#     4  10  20  35  53  76 115 146 175 225 286 332
#     4  10  20  31  56  85 108 139 184 232 272 332
#     4  12  24  32  54  88 116 136 178 240 288 320
#     4  10  21  36  57  81 106 146 192 231 266 332
#     4  10  20  38  57  77 110 152 188 219 279 338
#     4   9  18  35  55  81 104 142 190 232 262 321
#     4   9  17  33  56  80 105 141 181 224 274 318
#
# _framework density 19.379104000000002
#
# number of rings (size 3 to 8) (size 9 to 14) (size 15 to 20)
#    0.000    2.154    1.538    1.846    4.308    0.000 
#    0.000    0.000    0.000    0.000    4.000    0.000 
#    0.000    0.000    0.000    0.000    0.000    0.000 
#
# Total GULP energy -322207.697351 kJ/mol
# GULP energy per Si atom -12392.603744 kJ/mol
# Density = 1.933500 g / cm^3
# Si number density = 19.379104 Si / 1000 Ang^3
#
#
#
# Elastic Constant Matrix: (Units=GPa)
#
#
# Indices 1 2 3 4 5 6 
#
# 1 120.5901 26.4154 50.1108 0.0000 0.0000 0.0000
# 2 26.4154 83.3187 20.0692 0.0000 0.0000 0.0000
# 3 50.1108 20.0692 75.0199 0.0000 0.0000 0.0000
# 4 0.0000 0.0000 0.0000 20.7700 0.0000 0.0000
# 5 0.0000 0.0000 0.0000 0.0000 28.2697 0.0000
# 6 0.0000 0.0000 0.0000 0.0000 0.0000 19.5808
#
#
#
# Elastic Compliance Matrix: (Units=1/GPa)
#
#
# Indices 1 2 3 4 5 6 
#
# 1 0.011772 -0.001965 -0.007338 0.000000 0.000000 0.000000
# 2 -0.001965 0.013157 -0.002207 0.000000 0.000000 0.000000
# 3 -0.007338 -0.002207 0.018822 0.000000 0.000000 0.000000
# 4 0.000000 0.000000 0.000000 0.048146 0.000000 0.000000
# 5 0.000000 0.000000 0.000000 0.000000 0.035374 0.000000
# 6 0.000000 0.000000 0.000000 0.000000 0.000000 0.051070
#
#
# Mechanical properties :
#
#
# Convention : Reuss Voigt Hill
#
# Bulk Modulus (GPa) = 48.23724 52.45774 50.34749
# Shear Modulus (GPa) = 24.00721 25.87965 24.94343
#
# Velocity S-wave (km/s) = 3.52351 3.65833 3.59155
# Velocity P-wave (km/s) = 6.44196 6.70616 6.57539
#
# Compressibility (1/GPa) = 0.02073087
#
# Stress axis : x y z
#
# Youngs Moduli (GPa) = 84.94645 76.00702 53.13026
#
# Poissons Ratio (x) = 0.14934 0.38986
# Poissons Ratio (y) = 0.16690 0.11727
# Poissons Ratio (z) = 0.62332 0.16777
#
# Static dielectric constant tensor:
#      x y z
#    x 3.613430 0.000000 0.000000 
#    y 0.000000 3.557170 0.000000 
#    z 0.000000 0.000000 3.281730 
# 
# 
# High freq. dielectric constant tensor:
#      x y z
#    x 1.758150 0.000000 0.000000 
#    y 0.000000 1.753610 0.000000 
#    z 0.000000 0.000000 1.724830 
# 
# From -- ./inp_files/6500.got.cif
#   From: 2010.03.12/outbox.cif.g09.slc.cpg/sg34_4_cif.got.tgz:6500.got - 2010.04.14 01:56:33.
