data_PCOD8171634
_publ_section_title
;
Structure prediction by ZEFSAII (Michael W. Deem and Ramdas Pophale) SiO2 
 PCOD8171634
Probable space group: P N A 21
;
_chemical_formula_sum "Si O2"
_cell_formula_units_Z 20
_cell_length_a 22.585583
_cell_length_b 6.711951
_cell_length_c 5.837199
_cell_angle_alpha 90.000000
_cell_angle_beta 90.000000
_cell_angle_gamma 90.000000
_cell_volume 884.880413
_symmetry_space_group_name_H-M "P N A 21"
_symmetry_group_IT_number 33
_symmetry_cell_setting 'orthorhombic'
loop_
_space_group_symop_operation_xyz
x,y,z
-x,-y,1/2+z
1/2-x,1/2+y,1/2+z
1/2+x,1/2-y,z
loop_
_atom_site_type_symbol
_atom_site_label
_atom_site_fract_x
_atom_site_fract_y
_atom_site_fract_z
Si Si1 0.501813 0.386595 0.980460
Si Si2 0.189881 0.543306 0.069384
Si Si3 0.108253 0.595824 0.463884
Si Si4 0.884006 0.739229 0.303120
Si Si5 0.312594 0.378936 0.234348
O O1 0.502697 0.501959 0.728928
O O2 0.563640 0.266373 0.989057
O O3 0.448356 0.234375 0.962118
O O4 0.129730 0.534035 0.214983
O O5 0.250474 0.480538 0.184597
O O6 0.175232 0.372520 0.885947
O O7 0.195508 0.769014 0.977715
O O8 0.090749 0.392595 0.594307
O O9 0.166673 0.708764 0.559908
O O10 0.864330 0.958691 0.227099
#
# Coordination Sequence:
#
# PCOD8171634 Si02
#       5
#     4   4   4   4   4
#     4  12  28  48  76 105 152 195 249 312 372 444
#     4  11  25  41  74 101 145 188 244 305 365 448
#     4  11  26  44  71 104 143 192 248 302 375 437
#     4  11  26  44  71 104 143 193 245 305 372 438
#     4  11  23  47  66 108 143 188 244 302 372 437
#
# _framework density 22.601924
#
# number of rings (size 3 to 8) (size 9 to 14) (size 15 to 20)
#    0.000    0.800    2.000    3.600    8.400    8.000 
#    0.000    0.000    0.000    0.000    0.000    0.000 
#    0.000    0.000    0.000    0.000    0.000    0.000 
#
# Total GULP energy -247772.038274 kJ/mol
# GULP energy per Si atom -12388.601914 kJ/mol
# Density = 2.255048 g / cm^3
# Si number density = 22.601924 Si / 1000 Ang^3
#
#
#
# Elastic Constant Matrix: (Units=GPa)
#
#
# Indices 1 2 3 4 5 6 
#
# 1 117.8935 45.1318 26.2719 0.0000 0.0000 0.0000
# 2 45.1318 124.6195 40.6615 0.0000 0.0000 0.0000
# 3 26.2719 40.6615 94.8566 0.0000 0.0000 0.0000
# 4 0.0000 0.0000 0.0000 24.9606 0.0000 0.0000
# 5 0.0000 0.0000 0.0000 0.0000 35.4494 0.0000
# 6 0.0000 0.0000 0.0000 0.0000 0.0000 51.2762
#
#
#
# Elastic Compliance Matrix: (Units=1/GPa)
#
#
# Indices 1 2 3 4 5 6 
#
# 1 0.010009 -0.003163 -0.001416 0.000000 0.000000 0.000000
# 2 -0.003163 0.010329 -0.003552 0.000000 0.000000 0.000000
# 3 -0.001416 -0.003552 0.012457 0.000000 0.000000 0.000000
# 4 0.000000 0.000000 0.000000 0.040063 0.000000 0.000000
# 5 0.000000 0.000000 0.000000 0.000000 0.028209 0.000000
# 6 0.000000 0.000000 0.000000 0.000000 0.000000 0.019502
#
#
# Mechanical properties :
#
#
# Convention : Reuss Voigt Hill
#
# Bulk Modulus (GPa) = 60.48452 62.38888 61.43670
# Shear Modulus (GPa) = 35.12703 37.35754 36.24228
#
# Velocity S-wave (km/s) = 3.94656 4.06993 4.00872
# Velocity P-wave (km/s) = 6.89826 7.05330 6.97621
#
# Compressibility (1/GPa) = 0.01653316
#
# Stress axis : x y z
#
# Youngs Moduli (GPa) = 99.91486 96.81876 80.27661
#
# Poissons Ratio (x) = 0.30619 0.11370
# Poissons Ratio (y) = 0.31598 0.28511
# Poissons Ratio (z) = 0.14151 0.34386
#
# Static dielectric constant tensor:
#      x y z
#    x 3.974630 0.000000 0.000000 
#    y 0.000000 4.200400 0.000000 
#    z 0.000000 0.000000 4.326310 
# 
# 
# High freq. dielectric constant tensor:
#      x y z
#    x 1.908020 0.000000 0.000000 
#    y 0.000000 1.906300 0.000000 
#    z 0.000000 0.000000 1.887060 
# 
# From -- ./inp_files/1933.got.cif
#   From: 2010.03.12/outbox.cif.g09.slc.cpg/sg33_1_cif.got.tgz:1933.got - 2010.04.14 01:49:19.
