data_PCOD8171186
_publ_section_title
;
Structure prediction by ZEFSAII (Michael W. Deem and Ramdas Pophale) SiO2 
 PCOD8171186
Probable space group: P N A 21
;
_chemical_formula_sum "Si O2"
_cell_formula_units_Z 32
_cell_length_a 12.613903
_cell_length_b 15.528150
_cell_length_c 7.943095
_cell_angle_alpha 90.000000
_cell_angle_beta 90.000000
_cell_angle_gamma 90.000000
_cell_volume 1555.818608
_symmetry_space_group_name_H-M "P N A 21"
_symmetry_group_IT_number 33
_symmetry_cell_setting 'orthorhombic'
loop_
_space_group_symop_operation_xyz
x,y,z
-x,-y,1/2+z
1/2-x,1/2+y,1/2+z
1/2+x,1/2-y,z
loop_
_atom_site_type_symbol
_atom_site_label
_atom_site_fract_x
_atom_site_fract_y
_atom_site_fract_z
Si Si1 0.070621 0.268434 0.280370
Si Si2 0.078546 0.078597 0.362288
Si Si3 0.916381 0.564481 0.994923
Si Si4 0.035093 0.402178 0.851658
Si Si5 0.383757 0.211857 0.046231
Si Si6 0.229148 0.055055 0.051856
Si Si7 0.636607 0.507396 0.720461
Si Si8 0.271690 0.852390 0.552371
O O1 0.091304 0.181532 0.384444
O O2 0.096967 0.354931 0.377081
O O3 0.156841 0.275974 0.132018
O O4 0.949295 0.268708 0.216545
O O5 0.150835 0.043181 0.209811
O O6 0.106207 0.038314 0.543873
O O7 0.960120 0.058057 0.304301
O O8 0.978296 0.600395 0.154244
O O9 0.802652 0.529027 0.051185
O O10 0.988717 0.491838 0.913934
O O11 0.158094 0.396868 0.907752
O O12 0.967244 0.320383 0.909239
O O13 0.296863 0.140005 0.084576
O O14 0.330731 0.300879 0.980093
O O15 0.173612 0.060103 0.866031
O O16 0.732129 0.573962 0.681760
#
# Coordination Sequence:
#
# PCOD8171186 Si02
#       8
#     4   4   4   4   4   4   4   4
#     4  11  23  43  69  93 135 171 222 283 333 387
#     4  12  25  44  67 100 135 180 225 276 336 410
#     4  11  22  44  66  98 131 172 225 280 337 397
#     4  10  23  39  68  98 131 171 222 280 334 404
#     4  10  22  40  67  97 131 173 220 270 340 395
#     4  11  23  43  69  97 135 178 223 274 337 406
#     4  12  25  42  68  96 136 182 223 270 338 410
#     4  11  21  43  66  91 132 181 214 271 343 387
#
# _framework density 20.567951000000001
#
# number of rings (size 3 to 8) (size 9 to 14) (size 15 to 20)
#    0.000    1.000    5.000    3.000    1.750    1.000 
#    2.250    1.250    0.000    0.000    0.000    0.000 
#    0.000    0.000    0.000    0.000    0.000    0.000 
#
# Total GULP energy -396632.046924 kJ/mol
# GULP energy per Si atom -12394.751466 kJ/mol
# Density = 2.052114 g / cm^3
# Si number density = 20.567951 Si / 1000 Ang^3
#
#
#
# Elastic Constant Matrix: (Units=GPa)
#
#
# Indices 1 2 3 4 5 6 
#
# 1 90.3335 40.2309 25.9334 0.0000 0.0000 0.0000
# 2 40.2309 109.5140 26.0566 0.0000 0.0000 0.0000
# 3 25.9334 26.0566 91.0972 0.0000 0.0000 0.0000
# 4 0.0000 0.0000 0.0000 29.5402 0.0000 0.0000
# 5 0.0000 0.0000 0.0000 0.0000 29.2653 0.0000
# 6 0.0000 0.0000 0.0000 0.0000 0.0000 34.2167
#
#
#
# Elastic Compliance Matrix: (Units=1/GPa)
#
#
# Indices 1 2 3 4 5 6 
#
# 1 0.013812 -0.004441 -0.002662 0.000000 0.000000 0.000000
# 2 -0.004441 0.011226 -0.001947 0.000000 0.000000 0.000000
# 3 -0.002662 -0.001947 0.012292 0.000000 0.000000 0.000000
# 4 0.000000 0.000000 0.000000 0.033852 0.000000 0.000000
# 5 0.000000 0.000000 0.000000 0.000000 0.034170 0.000000
# 6 0.000000 0.000000 0.000000 0.000000 0.000000 0.029226
#
#
# Mechanical properties :
#
#
# Convention : Reuss Voigt Hill
#
# Bulk Modulus (GPa) = 51.99885 52.82072 52.40979
# Shear Modulus (GPa) = 31.42949 31.85266 31.64108
#
# Velocity S-wave (km/s) = 3.91331 3.93956 3.92646
# Velocity P-wave (km/s) = 6.76425 6.81399 6.78916
#
# Compressibility (1/GPa) = 0.01923119
#
# Stress axis : x y z
#
# Youngs Moduli (GPa) = 72.40115 89.08097 81.35455
#
# Poissons Ratio (x) = 0.39557 0.21655
# Poissons Ratio (y) = 0.32151 0.15838
# Poissons Ratio (z) = 0.19272 0.17342
#
# Static dielectric constant tensor:
#      x y z
#    x 3.966910 0.000000 0.000000 
#    y 0.000000 3.665800 0.000000 
#    z 0.000000 0.000000 3.706180 
# 
# 
# High freq. dielectric constant tensor:
#      x y z
#    x 1.822110 0.000000 0.000000 
#    y 0.000000 1.806590 0.000000 
#    z 0.000000 0.000000 1.792820 
# 
# From -- ./inp_files/3958.got.cif
#   From: 2010.03.12/outbox.cif.g09.slc.cpg/sg33_2_cif.got.tgz:3958.got - 2010.04.14 01:49:19.
