data_PCOD8171329
_publ_section_title
;
Structure prediction by ZEFSAII (Michael W. Deem and Ramdas Pophale) SiO2 
 PCOD8171329
Probable space group: P N A 21
;
_chemical_formula_sum "Si O2"
_cell_formula_units_Z 32
_cell_length_a 12.251939
_cell_length_b 14.918465
_cell_length_c 8.344175
_cell_angle_alpha 90.000000
_cell_angle_beta 90.000000
_cell_angle_gamma 90.000000
_cell_volume 1525.149334
_symmetry_space_group_name_H-M "P N A 21"
_symmetry_group_IT_number 33
_symmetry_cell_setting 'orthorhombic'
loop_
_space_group_symop_operation_xyz
x,y,z
-x,-y,1/2+z
1/2-x,1/2+y,1/2+z
1/2+x,1/2-y,z
loop_
_atom_site_type_symbol
_atom_site_label
_atom_site_fract_x
_atom_site_fract_y
_atom_site_fract_z
Si Si1 0.864238 0.547748 0.894670
Si Si2 0.861608 0.259258 0.991487
Si Si3 0.263961 0.616924 0.276407
Si Si4 0.820073 0.180618 0.319181
Si Si5 0.067955 0.564501 0.671117
Si Si6 0.009164 0.100284 0.913176
Si Si7 0.045857 0.083403 0.282263
Si Si8 0.769246 0.368438 0.413597
O O1 0.787439 0.462859 0.874941
O O2 0.784665 0.632879 0.896799
O O3 0.951096 0.561687 0.754920
O O4 0.923087 0.526566 0.064606
O O5 0.800335 0.202787 0.130837
O O6 0.926260 0.344085 0.066496
O O7 0.943670 0.192598 0.902652
O O8 0.775911 0.290140 0.856169
O O9 0.393609 0.611402 0.286972
O O10 0.229146 0.599955 0.095050
O O11 0.832492 0.273911 0.411838
O O12 0.930735 0.123855 0.341895
O O13 0.164388 0.561508 0.803466
O O14 0.053685 0.081891 0.090976
O O15 0.937380 0.016155 0.853850
O O16 0.146083 0.142946 0.347028
#
# Coordination Sequence:
#
# PCOD8171329 Si02
#       8
#     4   4   4   4   4   4   4   4
#     4  11  22  43  67  93 129 171 219 263 326 395
#     4   9  23  41  65  93 129 174 210 265 329 388
#     4  11  23  44  61  95 132 168 214 273 321 392
#     4  10  23  41  67  92 126 175 209 270 324 389
#     4  10  23  44  66  95 131 173 213 271 328 386
#     4  11  22  42  64  97 127 169 217 267 327 388
#     4  11  23  40  68  95 130 169 217 267 330 383
#     4  11  25  41  64  96 132 167 219 266 325 391
#
# _framework density 20.981553000000002
#
# number of rings (size 3 to 8) (size 9 to 14) (size 15 to 20)
#    0.000    1.500    1.250    3.750    8.750    2.000 
#    4.500    0.000    0.000    0.000    0.000    0.000 
#    0.000    0.000    0.000    0.000    0.000    0.000 
#
# Total GULP energy -396824.487090 kJ/mol
# GULP energy per Si atom -12400.765222 kJ/mol
# Density = 2.093380 g / cm^3
# Si number density = 20.981553 Si / 1000 Ang^3
#
#
#
# Elastic Constant Matrix: (Units=GPa)
#
#
# Indices 1 2 3 4 5 6 
#
# 1 76.8253 19.5553 1.2023 0.0000 0.0000 0.0000
# 2 19.5553 76.7939 16.8421 0.0000 0.0000 0.0000
# 3 1.2023 16.8421 57.3976 0.0000 0.0000 0.0000
# 4 0.0000 0.0000 0.0000 32.5744 0.0000 0.0000
# 5 0.0000 0.0000 0.0000 0.0000 34.0032 0.0000
# 6 0.0000 0.0000 0.0000 0.0000 0.0000 30.9604
#
#
#
# Elastic Compliance Matrix: (Units=1/GPa)
#
#
# Indices 1 2 3 4 5 6 
#
# 1 0.013953 -0.003729 0.000802 0.000000 0.000000 0.000000
# 2 -0.003729 0.014914 -0.004298 0.000000 0.000000 0.000000
# 3 0.000802 -0.004298 0.018667 0.000000 0.000000 0.000000
# 4 0.000000 0.000000 0.000000 0.030699 0.000000 0.000000
# 5 0.000000 0.000000 0.000000 0.000000 0.029409 0.000000
# 6 0.000000 0.000000 0.000000 0.000000 0.000000 0.032299
#
#
# Mechanical properties :
#
#
# Convention : Reuss Voigt Hill
#
# Bulk Modulus (GPa) = 30.22647 31.80182 31.01414
# Shear Modulus (GPa) = 30.22618 31.06873 30.64745
#
# Velocity S-wave (km/s) = 3.79965 3.85224 3.82604
# Velocity P-wave (km/s) = 5.80407 5.91408 5.85933
#
# Compressibility (1/GPa) = 0.03308359
#
# Stress axis : x y z
#
# Youngs Moduli (GPa) = 71.66817 67.05071 53.57133
#
# Poissons Ratio (x) = 0.25003 -0.04296
# Poissons Ratio (y) = 0.26725 0.23025
# Poissons Ratio (z) = -0.05747 0.28819
#
# Static dielectric constant tensor:
#      x y z
#    x 3.788860 0.000000 0.000000 
#    y 0.000000 3.859490 0.000000 
#    z 0.000000 0.000000 3.898240 
# 
# 
# High freq. dielectric constant tensor:
#      x y z
#    x 1.821210 0.000000 0.000000 
#    y 0.000000 1.819990 0.000000 
#    z 0.000000 0.000000 1.822680 
# 
# From -- ./inp_files/3960.got.cif
#   From: 2010.03.12/outbox.cif.g09.slc.cpg/sg33_2_cif.got.tgz:3960.got - 2010.04.14 01:49:19.
