data_PCOD8171585
_publ_section_title
;
Structure prediction by ZEFSAII (Michael W. Deem and Ramdas Pophale) SiO2 
 PCOD8171585
Probable space group: P N A 21
;
_chemical_formula_sum "Si O2"
_cell_formula_units_Z 20
_cell_length_a 18.354748
_cell_length_b 9.236431
_cell_length_c 5.078735
_cell_angle_alpha 90.000000
_cell_angle_beta 90.000000
_cell_angle_gamma 90.000000
_cell_volume 861.009948
_symmetry_space_group_name_H-M "P N A 21"
_symmetry_group_IT_number 33
_symmetry_cell_setting 'orthorhombic'
loop_
_space_group_symop_operation_xyz
x,y,z
-x,-y,1/2+z
1/2-x,1/2+y,1/2+z
1/2+x,1/2-y,z
loop_
_atom_site_type_symbol
_atom_site_label
_atom_site_fract_x
_atom_site_fract_y
_atom_site_fract_z
Si Si1 0.451774 0.887655 0.539950
Si Si2 0.393280 0.124295 0.845569
Si Si3 0.836198 0.068706 0.937796
Si Si4 0.111137 0.233923 0.536088
Si Si5 0.260642 0.929075 0.948205
O O1 0.538324 0.919059 0.531667
O O2 0.424297 0.790502 0.302494
O O3 0.410944 0.045127 0.563813
O O4 0.435875 0.796978 0.800782
O O5 0.386317 0.296694 0.846191
O O6 0.317161 0.061153 0.943659
O O7 0.794030 0.023195 0.675618
O O8 0.780643 0.102305 0.174785
O O9 0.890008 0.940113 0.027466
O O10 0.195987 0.282377 0.520966
#
# Coordination Sequence:
#
# PCOD8171585 Si02
#       5
#     4   4   4   4   4
#     4  11  25  44  68  95 133 177 223 275 331 401
#     4  11  25  45  71  97 131 179 227 271 332 408
#     4  12  25  41  68  98 133 174 220 279 340 398
#     4  11  24  43  64  97 135 171 222 285 337 392
#     4  11  23  41  65  97 132 173 220 274 336 407
#
# _framework density 23.228535000000001
#
# number of rings (size 3 to 8) (size 9 to 14) (size 15 to 20)
#    0.000    0.800    0.000    8.400    0.000    9.600 
#    0.000    0.000    0.000    0.000    0.000    0.000 
#    0.000    0.000    0.000    0.000    0.000    0.000 
#
# Total GULP energy -247936.177573 kJ/mol
# GULP energy per Si atom -12396.808879 kJ/mol
# Density = 2.317567 g / cm^3
# Si number density = 23.228535 Si / 1000 Ang^3
#
#
#
# Elastic Constant Matrix: (Units=GPa)
#
#
# Indices 1 2 3 4 5 6 
#
# 1 100.3332 54.3826 55.8409 0.0000 0.0000 0.0000
# 2 54.3826 193.5723 54.3372 0.0000 0.0000 0.0000
# 3 55.8409 54.3372 138.8587 0.0000 0.0000 0.0000
# 4 0.0000 0.0000 0.0000 27.8909 0.0000 0.0000
# 5 0.0000 0.0000 0.0000 0.0000 47.1604 0.0000
# 6 0.0000 0.0000 0.0000 0.0000 0.0000 18.1758
#
#
#
# Elastic Compliance Matrix: (Units=1/GPa)
#
#
# Indices 1 2 3 4 5 6 
#
# 1 0.013940 -0.002632 -0.004576 0.000000 0.000000 0.000000
# 2 -0.002632 0.006300 -0.001407 0.000000 0.000000 0.000000
# 3 -0.004576 -0.001407 0.009592 0.000000 0.000000 0.000000
# 4 0.000000 0.000000 0.000000 0.035854 0.000000 0.000000
# 5 0.000000 0.000000 0.000000 0.000000 0.021204 0.000000
# 6 0.000000 0.000000 0.000000 0.000000 0.000000 0.055018
#
#
# Mechanical properties :
#
#
# Convention : Reuss Voigt Hill
#
# Bulk Modulus (GPa) = 79.34599 84.65399 81.99999
# Shear Modulus (GPa) = 30.61096 36.52564 33.56830
#
# Velocity S-wave (km/s) = 3.63411 3.96971 3.80561
# Velocity P-wave (km/s) = 7.20014 7.58515 7.39515
#
# Compressibility (1/GPa) = 0.01260303
#
# Stress axis : x y z
#
# Youngs Moduli (GPa) = 71.73546 158.72022 104.24946
#
# Poissons Ratio (x) = 0.41773 0.47705
# Poissons Ratio (y) = 0.18880 0.14668
# Poissons Ratio (z) = 0.32826 0.22333
#
# Static dielectric constant tensor:
#      x y z
#    x 4.257280 0.000000 0.000000 
#    y 0.000000 4.345130 0.000000 
#    z 0.000000 0.000000 4.459910 
# 
# 
# High freq. dielectric constant tensor:
#      x y z
#    x 1.918000 0.000000 0.000000 
#    y 0.000000 1.922290 0.000000 
#    z 0.000000 0.000000 1.927710 
# 
# From -- ./inp_files/1626.got.cif
#   From: 2010.03.12/outbox.cif.g09.slc.cpg/sg33_1_cif.got.tgz:1626.got - 2010.04.14 01:49:19.
