data_PCOD8171801
_publ_section_title
;
Structure prediction by ZEFSAII (Michael W. Deem and Ramdas Pophale) SiO2 
 PCOD8171801
Probable space group: P N A 21
;
_chemical_formula_sum "Si O2"
_cell_formula_units_Z 28
_cell_length_a 15.063467
_cell_length_b 5.182186
_cell_length_c 14.099033
_cell_angle_alpha 90.000000
_cell_angle_beta 90.000000
_cell_angle_gamma 90.000000
_cell_volume 1100.594312
_symmetry_space_group_name_H-M "P N A 21"
_symmetry_group_IT_number 33
_symmetry_cell_setting 'orthorhombic'
loop_
_space_group_symop_operation_xyz
x,y,z
-x,-y,1/2+z
1/2-x,1/2+y,1/2+z
1/2+x,1/2-y,z
loop_
_atom_site_type_symbol
_atom_site_label
_atom_site_fract_x
_atom_site_fract_y
_atom_site_fract_z
Si Si1 0.583000 0.824136 0.378930
Si Si2 0.540822 0.044737 0.722260
Si Si3 0.793845 0.841375 0.143731
Si Si4 0.187461 0.157644 0.420880
Si Si5 0.917601 0.831562 0.472150
Si Si6 0.849401 0.141616 0.311771
Si Si7 0.392892 0.142085 0.582719
O O1 0.522168 0.775599 0.286402
O O2 0.659636 0.611019 0.373928
O O3 0.518838 0.771178 0.468527
O O4 0.625336 0.107520 0.386410
O O5 0.638049 0.140954 0.690683
O O6 0.478260 0.008048 0.631320
O O7 0.559594 0.793498 0.787039
O O8 0.689054 0.769299 0.150365
O O9 0.802649 0.094675 0.209782
O O10 0.817948 0.876449 0.034016
O O11 0.287165 0.205373 0.385210
O O12 0.858622 0.601609 0.518459
O O13 0.877397 0.878805 0.366564
O O14 0.921148 0.104311 0.525962
#
# Coordination Sequence:
#
# PCOD8171801 Si02
#       7
#     4   4   4   4   4   4   4
#     4  12  27  51  83 115 166 217 267 347 414 497
#     4  12  29  51  81 123 161 218 277 345 411 499
#     4  12  29  50  84 117 166 212 284 339 412 508
#     4  12  30  50  82 122 163 221 277 340 428 495
#     4  12  26  53  77 113 163 210 267 339 411 490
#     4  12  29  51  81 119 169 214 277 350 415 495
#     4  12  30  50  82 119 162 214 271 342 415 494
#
# _framework density 25.440798000000001
#
# number of rings (size 3 to 8) (size 9 to 14) (size 15 to 20)
#    0.000    0.000    2.857    5.143   14.000    0.000 
#    0.000    0.000    0.000    0.000    0.000    0.000 
#    0.000    0.000    0.000    0.000    0.000    0.000 
#
# Total GULP energy -346982.180953 kJ/mol
# GULP energy per Si atom -12392.220748 kJ/mol
# Density = 2.538289 g / cm^3
# Si number density = 25.440798 Si / 1000 Ang^3
#
#
#
# Elastic Constant Matrix: (Units=GPa)
#
#
# Indices 1 2 3 4 5 6 
#
# 1 118.7232 14.0631 43.1578 0.0000 0.0000 0.0000
# 2 14.0631 101.2705 57.2302 0.0000 0.0000 0.0000
# 3 43.1578 57.2302 129.4442 0.0000 0.0000 0.0000
# 4 0.0000 0.0000 0.0000 34.6904 0.0000 0.0000
# 5 0.0000 0.0000 0.0000 0.0000 39.8646 0.0000
# 6 0.0000 0.0000 0.0000 0.0000 0.0000 45.9842
#
#
#
# Elastic Compliance Matrix: (Units=1/GPa)
#
#
# Indices 1 2 3 4 5 6 
#
# 1 0.009615 0.000635 -0.003487 0.000000 0.000000 0.000000
# 2 0.000635 0.013205 -0.006050 0.000000 0.000000 0.000000
# 3 -0.003487 -0.006050 0.011563 0.000000 0.000000 0.000000
# 4 0.000000 0.000000 0.000000 0.028826 0.000000 0.000000
# 5 0.000000 0.000000 0.000000 0.000000 0.025085 0.000000
# 6 0.000000 0.000000 0.000000 0.000000 0.000000 0.021747
#
#
# Mechanical properties :
#
#
# Convention : Reuss Voigt Hill
#
# Bulk Modulus (GPa) = 60.31355 64.26002 62.28679
# Shear Modulus (GPa) = 37.48938 39.77363 38.63150
#
# Velocity S-wave (km/s) = 3.84291 3.95825 3.90100
# Velocity P-wave (km/s) = 6.59162 6.79734 6.69527
#
# Compressibility (1/GPa) = 0.01658002
#
# Stress axis : x y z
#
# Youngs Moduli (GPa) = 104.00261 75.72647 86.48501
#
# Poissons Ratio (x) = -0.04809 0.30154
# Poissons Ratio (y) = -0.06605 0.52325
# Poissons Ratio (z) = 0.36261 0.45816
#
# Static dielectric constant tensor:
#      x y z
#    x 4.935470 0.000000 0.000000 
#    y 0.000000 4.377570 0.000000 
#    z 0.000000 0.000000 4.836490 
# 
# 
# High freq. dielectric constant tensor:
#      x y z
#    x 2.030440 0.000000 0.000000 
#    y 0.000000 2.006460 0.000000 
#    z 0.000000 0.000000 2.031710 
# 
# From -- ./inp_files/8082.got.cif
#   From: 2010.03.12/outbox.cif.g09.slc.cpg/sg33_5_cif.got.tgz:8082.got - 2010.04.14 01:49:19.
