data_PCOD8171597
_publ_section_title
;
Structure prediction by ZEFSAII (Michael W. Deem and Ramdas Pophale) SiO2 
 PCOD8171597
Probable space group: P N A 21
;
_chemical_formula_sum "Si O2"
_cell_formula_units_Z 32
_cell_length_a 10.861414
_cell_length_b 21.632049
_cell_length_c 6.061510
_cell_angle_alpha 90.000000
_cell_angle_beta 90.000000
_cell_angle_gamma 90.000000
_cell_volume 1424.179899
_symmetry_space_group_name_H-M "P N A 21"
_symmetry_group_IT_number 33
_symmetry_cell_setting 'orthorhombic'
loop_
_space_group_symop_operation_xyz
x,y,z
-x,-y,1/2+z
1/2-x,1/2+y,1/2+z
1/2+x,1/2-y,z
loop_
_atom_site_type_symbol
_atom_site_label
_atom_site_fract_x
_atom_site_fract_y
_atom_site_fract_z
Si Si1 0.118414 0.637564 0.503050
Si Si2 0.680207 0.960655 0.833524
Si Si3 0.043889 0.847080 0.985088
Si Si4 0.037961 0.025829 0.364095
Si Si5 0.473709 0.931700 0.173626
Si Si6 0.155481 0.193789 0.802603
Si Si7 0.185539 0.318835 0.540213
Si Si8 0.956021 0.743728 0.690966
O O1 0.184105 0.605647 0.711077
O O2 0.217601 0.655437 0.314447
O O3 0.022060 0.586788 0.415512
O O4 0.049375 0.700293 0.562501
O O5 0.816924 0.977126 0.907990
O O6 0.630875 0.016166 0.679569
O O7 0.590409 0.956660 0.040842
O O8 0.942964 0.848833 0.178544
O O9 0.183159 0.851429 0.072719
O O10 0.016159 0.905495 0.829898
O O11 0.035631 0.780154 0.871377
O O12 0.987209 0.003193 0.613549
O O13 0.420472 0.869187 0.071243
O O14 0.174971 0.262173 0.707929
O O15 0.103839 0.202780 0.046079
O O16 0.158791 0.293864 0.294425
#
# Coordination Sequence:
#
# PCOD8171597 Si02
#       8
#     4   4   4   4   4   4   4   4
#     4  12  24  43  73 104 144 191 250 312 381 468
#     4  12  27  48  78 105 150 196 264 324 387 467
#     4  11  26  45  71 102 146 193 250 308 388 467
#     4  12  31  54  79 112 155 208 261 323 395 470
#     4  12  25  45  72 109 143 195 254 324 391 453
#     4  11  24  42  69 104 144 192 239 310 387 460
#     4  11  24  43  67 105 146 187 249 313 386 470
#     4  11  23  42  69 107 142 188 239 312 389 457
#
# _framework density 22.469073000000002
#
# number of rings (size 3 to 8) (size 9 to 14) (size 15 to 20)
#    0.000    0.500    3.750    3.750    7.000    4.000 
#    2.250    0.000    0.000    0.000    0.000    0.000 
#    0.000    0.000    0.000    0.000    0.000    0.000 
#
# Total GULP energy -396591.922926 kJ/mol
# GULP energy per Si atom -12393.497591 kJ/mol
# Density = 2.241793 g / cm^3
# Si number density = 22.469073 Si / 1000 Ang^3
#
#
#
# Elastic Constant Matrix: (Units=GPa)
#
#
# Indices 1 2 3 4 5 6 
#
# 1 144.4829 33.5291 27.2944 0.0000 0.0000 0.0000
# 2 33.5291 87.3735 21.2951 0.0000 0.0000 0.0000
# 3 27.2944 21.2951 83.9767 0.0000 0.0000 0.0000
# 4 0.0000 0.0000 0.0000 32.4606 0.0000 0.0000
# 5 0.0000 0.0000 0.0000 0.0000 38.1854 0.0000
# 6 0.0000 0.0000 0.0000 0.0000 0.0000 35.6625
#
#
#
# Elastic Compliance Matrix: (Units=1/GPa)
#
#
# Indices 1 2 3 4 5 6 
#
# 1 0.007876 -0.002556 -0.001912 0.000000 0.000000 0.000000
# 2 -0.002556 0.013029 -0.002473 0.000000 0.000000 0.000000
# 3 -0.001912 -0.002473 0.013156 0.000000 0.000000 0.000000
# 4 0.000000 0.000000 0.000000 0.030807 0.000000 0.000000
# 5 0.000000 0.000000 0.000000 0.000000 0.026188 0.000000
# 6 0.000000 0.000000 0.000000 0.000000 0.000000 0.028041
#
#
# Mechanical properties :
#
#
# Convention : Reuss Voigt Hill
#
# Bulk Modulus (GPa) = 49.55608 53.34113 51.44860
# Shear Modulus (GPa) = 35.78990 36.84267 36.31629
#
# Velocity S-wave (km/s) = 3.99538 4.05372 4.02466
# Velocity P-wave (km/s) = 6.58690 6.76029 6.67416
#
# Compressibility (1/GPa) = 0.02017916
#
# Stress axis : x y z
#
# Youngs Moduli (GPa) = 126.97493 76.75284 76.00821
#
# Poissons Ratio (x) = 0.19621 0.14529
# Poissons Ratio (y) = 0.32459 0.18797
# Poissons Ratio (z) = 0.24271 0.18981
#
# Static dielectric constant tensor:
#      x y z
#    x 4.086130 0.000000 0.000000 
#    y 0.000000 4.152070 0.000000 
#    z 0.000000 0.000000 4.207610 
# 
# 
# High freq. dielectric constant tensor:
#      x y z
#    x 1.894130 0.000000 0.000000 
#    y 0.000000 1.898970 0.000000 
#    z 0.000000 0.000000 1.883450 
# 
# From -- ./inp_files/1012.got.cif
#   From: 2010.03.12/outbox.cif.g09.slc.cpg/sg33_1_cif.got.tgz:1012.got - 2010.04.14 01:49:19.
