data_PCOD8171430
_publ_section_title
;
Structure prediction by ZEFSAII (Michael W. Deem and Ramdas Pophale) SiO2 
 PCOD8171430
Probable space group: P N A 21
;
_chemical_formula_sum "Si O2"
_cell_formula_units_Z 16
_cell_length_a 9.509061
_cell_length_b 14.687270
_cell_length_c 5.084165
_cell_angle_alpha 90.000000
_cell_angle_beta 90.000000
_cell_angle_gamma 90.000000
_cell_volume 710.065396
_symmetry_space_group_name_H-M "P N A 21"
_symmetry_group_IT_number 33
_symmetry_cell_setting 'orthorhombic'
loop_
_space_group_symop_operation_xyz
x,y,z
-x,-y,1/2+z
1/2-x,1/2+y,1/2+z
1/2+x,1/2-y,z
loop_
_atom_site_type_symbol
_atom_site_label
_atom_site_fract_x
_atom_site_fract_y
_atom_site_fract_z
Si Si1 0.763020 0.320084 0.414420
Si Si2 0.800004 0.148527 0.118270
Si Si3 0.410890 0.997713 0.417095
Si Si4 0.045500 0.822424 0.112300
O O1 0.746266 0.253605 0.158510
O O2 0.802323 0.422658 0.336732
O O3 0.889515 0.279551 0.593438
O O4 0.620657 0.320218 0.581216
O O5 0.876811 0.115607 0.387759
O O6 0.665904 0.089041 0.043462
O O7 0.918866 0.137783 0.896554
O O8 0.484559 0.967278 0.146218
#
# Coordination Sequence:
#
# PCOD8171430 Si02
#       4
#     4   4   4   4
#     4  10  26  43  73  98 142 189 232 299 363 423
#     4  10  25  42  66 102 140 175 243 288 354 430
#     4  12  27  44  72 103 144 188 248 297 366 444
#     4  10  24  41  71  95 142 180 235 288 367 417
#
# _framework density 22.533135000000001
#
# number of rings (size 3 to 8) (size 9 to 14) (size 15 to 20)
#    1.500    0.000    0.000    3.000   10.500    2.000 
#    0.000    0.000    0.000    0.000    0.000    0.000 
#    0.000    0.000    0.000    0.000    0.000    0.000 
#
# Total GULP energy -198287.199828 kJ/mol
# GULP energy per Si atom -12392.949989 kJ/mol
# Density = 2.248185 g / cm^3
# Si number density = 22.533135 Si / 1000 Ang^3
#
#
#
# Elastic Constant Matrix: (Units=GPa)
#
#
# Indices 1 2 3 4 5 6 
#
# 1 112.2941 41.0102 18.4443 0.0000 0.0000 0.0000
# 2 41.0102 109.0196 27.4864 0.0000 0.0000 0.0000
# 3 18.4443 27.4864 109.5835 0.0000 0.0000 0.0000
# 4 0.0000 0.0000 0.0000 21.4841 0.0000 0.0000
# 5 0.0000 0.0000 0.0000 0.0000 32.7032 0.0000
# 6 0.0000 0.0000 0.0000 0.0000 0.0000 29.3870
#
#
#
# Elastic Compliance Matrix: (Units=1/GPa)
#
#
# Indices 1 2 3 4 5 6 
#
# 1 0.010392 -0.003702 -0.000820 0.000000 0.000000 0.000000
# 2 -0.003702 0.011111 -0.002164 0.000000 0.000000 0.000000
# 3 -0.000820 -0.002164 0.009806 0.000000 0.000000 0.000000
# 4 0.000000 0.000000 0.000000 0.046546 0.000000 0.000000
# 5 0.000000 0.000000 0.000000 0.000000 0.030578 0.000000
# 6 0.000000 0.000000 0.000000 0.000000 0.000000 0.034029
#
#
# Mechanical properties :
#
#
# Convention : Reuss Voigt Hill
#
# Bulk Modulus (GPa) = 55.75345 56.08656 55.92001
# Shear Modulus (GPa) = 30.89968 32.97859 31.93914
#
# Velocity S-wave (km/s) = 3.70712 3.82980 3.76896
# Velocity P-wave (km/s) = 6.56660 6.67092 6.61897
#
# Compressibility (1/GPa) = 0.01793611
#
# Stress axis : x y z
#
# Youngs Moduli (GPa) = 96.22727 90.00152 101.97546
#
# Poissons Ratio (x) = 0.33322 0.08367
# Poissons Ratio (y) = 0.35627 0.22065
# Poissons Ratio (z) = 0.07895 0.19474
#
# Static dielectric constant tensor:
#      x y z
#    x 3.836160 0.000000 0.000000 
#    y 0.000000 3.821850 0.000000 
#    z 0.000000 0.000000 3.979760 
# 
# 
# High freq. dielectric constant tensor:
#      x y z
#    x 1.890110 0.000000 0.000000 
#    y 0.000000 1.863510 0.000000 
#    z 0.000000 0.000000 1.890360 
# 
# From -- ./inp_files/276.got.cif
#   From: 2010.03.12/outbox.cif.g09.slc.cpg/sg33_1_cif.got.tgz:276.got - 2010.04.14 01:49:19.
