data_PCOD8171235
_publ_section_title
;
Structure prediction by ZEFSAII (Michael W. Deem and Ramdas Pophale) SiO2 
 PCOD8171235
Probable space group: P N A 21
;
_chemical_formula_sum "Si O2"
_cell_formula_units_Z 24
_cell_length_a 17.946390
_cell_length_b 7.260581
_cell_length_c 8.536049
_cell_angle_alpha 90.000000
_cell_angle_beta 90.000000
_cell_angle_gamma 90.000000
_cell_volume 1112.257584
_symmetry_space_group_name_H-M "P N A 21"
_symmetry_group_IT_number 33
_symmetry_cell_setting 'orthorhombic'
loop_
_space_group_symop_operation_xyz
x,y,z
-x,-y,1/2+z
1/2-x,1/2+y,1/2+z
1/2+x,1/2-y,z
loop_
_atom_site_type_symbol
_atom_site_label
_atom_site_fract_x
_atom_site_fract_y
_atom_site_fract_z
Si Si1 0.233539 0.890196 0.521480
Si Si2 0.234553 0.491993 0.384393
Si Si3 0.937510 0.075025 0.966185
Si Si4 0.920576 0.425726 0.783759
Si Si5 0.160516 0.690802 0.972675
Si Si6 0.480768 0.272890 0.281899
O O1 0.256119 0.686992 0.463102
O O2 0.240217 0.942271 0.706048
O O3 0.151234 0.942073 0.466137
O O4 0.293531 0.009836 0.425555
O O5 0.144417 0.480163 0.389850
O O6 0.277420 0.350065 0.496930
O O7 0.961448 0.258132 0.871366
O O8 0.975509 0.096480 0.133407
O O9 0.970430 0.883823 0.905800
O O10 0.884692 0.335785 0.631153
O O11 0.981538 0.578089 0.740966
O O12 0.103601 0.737016 0.834799
#
# Coordination Sequence:
#
# PCOD8171235 Si02
#       6
#     4   4   4   4   4   4
#     4  10  23  44  66 100 135 178 227 284 340 407
#     4  10  22  42  68  97 134 175 230 281 343 407
#     4  11  24  45  66  99 139 176 223 276 342 399
#     4  10  24  43  64  99 134 175 221 282 337 405
#     4  11  23  42  69  99 130 181 226 280 340 405
#     4  12  24  42  67 100 136 179 221 275 338 405
#
# _framework density 21.577736999999999
#
# number of rings (size 3 to 8) (size 9 to 14) (size 15 to 20)
#    0.000    1.333    1.667    3.000    0.000   10.667 
#    6.000    0.000    0.000    0.000    0.000    0.000 
#    0.000    0.000    0.000    0.000    0.000    0.000 
#
# Total GULP energy -297485.308215 kJ/mol
# GULP energy per Si atom -12395.221176 kJ/mol
# Density = 2.152862 g / cm^3
# Si number density = 21.577737 Si / 1000 Ang^3
#
#
#
# Elastic Constant Matrix: (Units=GPa)
#
#
# Indices 1 2 3 4 5 6 
#
# 1 63.2411 34.3293 11.9466 0.0000 0.0000 0.0000
# 2 34.3293 107.9081 44.9340 0.0000 0.0000 0.0000
# 3 11.9466 44.9340 84.5369 0.0000 0.0000 0.0000
# 4 0.0000 0.0000 0.0000 41.6415 0.0000 0.0000
# 5 0.0000 0.0000 0.0000 0.0000 23.0022 0.0000
# 6 0.0000 0.0000 0.0000 0.0000 0.0000 40.1423
#
#
#
# Elastic Compliance Matrix: (Units=1/GPa)
#
#
# Indices 1 2 3 4 5 6 
#
# 1 0.019144 -0.006375 0.000683 0.000000 0.000000 0.000000
# 2 -0.006375 0.014024 -0.006553 0.000000 0.000000 0.000000
# 3 0.000683 -0.006553 0.015216 0.000000 0.000000 0.000000
# 4 0.000000 0.000000 0.000000 0.024015 0.000000 0.000000
# 5 0.000000 0.000000 0.000000 0.000000 0.043474 0.000000
# 6 0.000000 0.000000 0.000000 0.000000 0.000000 0.024911
#
#
# Mechanical properties :
#
#
# Convention : Reuss Voigt Hill
#
# Bulk Modulus (GPa) = 41.85207 48.67844 45.26526
# Shear Modulus (GPa) = 28.86191 31.92227 30.39209
#
# Velocity S-wave (km/s) = 3.66126 3.85048 3.75706
# Velocity P-wave (km/s) = 6.10829 6.50975 6.31221
#
# Compressibility (1/GPa) = 0.02389368
#
# Stress axis : x y z
#
# Youngs Moduli (GPa) = 52.23601 71.30611 65.72058
#
# Poissons Ratio (x) = 0.45456 -0.04489
# Poissons Ratio (y) = 0.33299 0.43069
# Poissons Ratio (z) = -0.03568 0.46729
#
# Static dielectric constant tensor:
#      x y z
#    x 4.162580 0.000000 0.000000 
#    y 0.000000 4.042700 0.000000 
#    z 0.000000 0.000000 3.956540 
# 
# 
# High freq. dielectric constant tensor:
#      x y z
#    x 1.856360 0.000000 0.000000 
#    y 0.000000 1.857180 0.000000 
#    z 0.000000 0.000000 1.843350 
# 
# From -- ./inp_files/4621.got.cif
#   From: 2010.03.12/outbox.cif.g09.slc.cpg/sg33_3_cif.got.tgz:4621.got - 2010.04.14 01:49:19.
