data_PCOD8171750
_publ_section_title
;
Structure prediction by ZEFSAII (Michael W. Deem and Ramdas Pophale) SiO2 
 PCOD8171750
Probable space group: P N A 21
;
_chemical_formula_sum "Si O2"
_cell_formula_units_Z 32
_cell_length_a 9.767514
_cell_length_b 11.207530
_cell_length_c 13.702376
_cell_angle_alpha 90.000000
_cell_angle_beta 90.000000
_cell_angle_gamma 90.000000
_cell_volume 1499.995075
_symmetry_space_group_name_H-M "P N A 21"
_symmetry_group_IT_number 33
_symmetry_cell_setting 'orthorhombic'
loop_
_space_group_symop_operation_xyz
x,y,z
-x,-y,1/2+z
1/2-x,1/2+y,1/2+z
1/2+x,1/2-y,z
loop_
_atom_site_type_symbol
_atom_site_label
_atom_site_fract_x
_atom_site_fract_y
_atom_site_fract_z
Si Si1 0.539593 0.508025 0.965660
Si Si2 0.867143 0.488628 0.264409
Si Si3 0.873600 0.395467 0.678535
Si Si4 0.621445 0.515904 0.753638
Si Si5 0.283965 0.985789 0.478441
Si Si6 0.673559 0.273272 0.029914
Si Si7 0.077880 0.738850 0.653897
Si Si8 0.379711 0.383488 0.661822
O O1 0.574494 0.561275 0.859873
O O2 0.377846 0.510428 0.985195
O O3 0.601093 0.374386 0.965416
O O4 0.615908 0.587078 0.046741
O O5 0.851564 0.468939 0.379486
O O6 0.912154 0.355032 0.239730
O O7 0.726219 0.529486 0.215440
O O8 0.978004 0.583166 0.225130
O O9 0.770335 0.456357 0.754979
O O10 0.859037 0.452908 0.570537
O O11 0.844070 0.254753 0.673887
O O12 0.627985 0.629528 0.682736
O O13 0.523879 0.413526 0.710950
O O14 0.312678 0.845625 0.467517
O O15 0.825280 0.309325 0.066177
O O16 0.580036 0.247097 0.124238
#
# Coordination Sequence:
#
# PCOD8171750 Si02
#       8
#     4   4   4   4   4   4   4   4
#     4  12  26  44  73 103 135 193 232 278 351 419
#     4  12  27  43  71 107 135 181 234 286 348 409
#     4  12  27  47  66 103 150 178 225 298 343 408
#     4  12  25  47  70 102 141 186 231 279 356 412
#     4  12  26  46  68 105 141 182 233 293 346 404
#     4  12  22  44  71  96 140 177 236 285 339 404
#     4  12  22  46  70 100 136 181 229 294 339 402
#     4  12  25  47  67 102 140 188 228 277 352 422
#
# _framework density 21.333402
#
# number of rings (size 3 to 8) (size 9 to 14) (size 15 to 20)
#    0.000    0.000    8.750    0.750    5.250    2.000 
#    0.000    0.000    0.000    0.000    0.000    0.000 
#    0.000    0.000    0.000    0.000    0.000    0.000 
#
# Total GULP energy -396877.547704 kJ/mol
# GULP energy per Si atom -12402.423366 kJ/mol
# Density = 2.128485 g / cm^3
# Si number density = 21.333402 Si / 1000 Ang^3
#
#
#
# Elastic Constant Matrix: (Units=GPa)
#
#
# Indices 1 2 3 4 5 6 
#
# 1 72.0217 13.1743 15.2476 0.0000 0.0000 0.0000
# 2 13.1743 80.0739 -0.3749 0.0000 0.0000 0.0000
# 3 15.2476 -0.3749 90.7853 0.0000 0.0000 0.0000
# 4 0.0000 0.0000 0.0000 27.9977 0.0000 0.0000
# 5 0.0000 0.0000 0.0000 0.0000 34.5527 0.0000
# 6 0.0000 0.0000 0.0000 0.0000 0.0000 29.4154
#
#
#
# Elastic Compliance Matrix: (Units=1/GPa)
#
#
# Indices 1 2 3 4 5 6 
#
# 1 0.014865 -0.002457 -0.002507 0.000000 0.000000 0.000000
# 2 -0.002457 0.012895 0.000466 0.000000 0.000000 0.000000
# 3 -0.002507 0.000466 0.011438 0.000000 0.000000 0.000000
# 4 0.000000 0.000000 0.000000 0.035717 0.000000 0.000000
# 5 0.000000 0.000000 0.000000 0.000000 0.028941 0.000000
# 6 0.000000 0.000000 0.000000 0.000000 0.000000 0.033996
#
#
# Mechanical properties :
#
#
# Convention : Reuss Voigt Hill
#
# Bulk Modulus (GPa) = 33.11099 33.21943 33.16521
# Shear Modulus (GPa) = 31.86426 32.71543 32.28984
#
# Velocity S-wave (km/s) = 3.86895 3.92028 3.89470
# Velocity P-wave (km/s) = 5.95926 6.00806 5.98371
#
# Compressibility (1/GPa) = 0.03020145
#
# Stress axis : x y z
#
# Youngs Moduli (GPa) = 67.27248 77.54970 87.42841
#
# Poissons Ratio (x) = 0.19057 0.21916
# Poissons Ratio (y) = 0.16532 -0.04074
# Poissons Ratio (z) = 0.16863 -0.03614
#
# Static dielectric constant tensor:
#      x y z
#    x 3.970650 0.000000 0.000000 
#    y 0.000000 3.854590 0.000000 
#    z 0.000000 0.000000 3.821900 
# 
# 
# High freq. dielectric constant tensor:
#      x y z
#    x 1.849070 0.000000 0.000000 
#    y 0.000000 1.840060 0.000000 
#    z 0.000000 0.000000 1.836080 
# 
# From -- ./inp_files/7666.got.cif
#   From: 2010.03.12/outbox.cif.g09.slc.cpg/sg33_4_cif.got.tgz:7666.got - 2010.04.14 01:49:19.
