data_PCOD8171215
_publ_section_title
;
Structure prediction by ZEFSAII (Michael W. Deem and Ramdas Pophale) SiO2 
 PCOD8171215
Probable space group: P N A 21
;
_chemical_formula_sum "Si O2"
_cell_formula_units_Z 28
_cell_length_a 16.242903
_cell_length_b 6.135874
_cell_length_c 12.880974
_cell_angle_alpha 90.000000
_cell_angle_beta 90.000000
_cell_angle_gamma 90.000000
_cell_volume 1283.774625
_symmetry_space_group_name_H-M "P N A 21"
_symmetry_group_IT_number 33
_symmetry_cell_setting 'orthorhombic'
loop_
_space_group_symop_operation_xyz
x,y,z
-x,-y,1/2+z
1/2-x,1/2+y,1/2+z
1/2+x,1/2-y,z
loop_
_atom_site_type_symbol
_atom_site_label
_atom_site_fract_x
_atom_site_fract_y
_atom_site_fract_z
Si Si1 0.982221 0.031768 0.118690
Si Si2 0.367202 0.372826 0.940633
Si Si3 0.133524 0.338423 0.111838
Si Si4 0.455510 0.153802 0.753318
Si Si5 0.105362 0.637084 0.761878
Si Si6 0.211751 0.647567 0.954366
Si Si7 0.718490 0.959224 0.584855
O O1 0.927957 0.145607 0.207488
O O2 0.057282 0.184488 0.084470
O O3 0.926567 0.992556 0.017379
O O4 0.013505 0.798100 0.156689
O O5 0.416727 0.313005 0.837720
O O6 0.292814 0.530768 0.909799
O O7 0.333606 0.153649 0.993589
O O8 0.113974 0.488311 0.211504
O O9 0.214352 0.199240 0.136790
O O10 0.151209 0.480243 0.010554
O O11 0.530884 0.015609 0.801540
O O12 0.159908 0.731340 0.856153
O O13 0.157540 0.487656 0.680507
O O14 0.236594 0.832317 0.036737
#
# Coordination Sequence:
#
# PCOD8171215 Si02
#       7
#     4   4   4   4   4   4   4
#     4  10  22  42  61  91 132 172 215 282 322 402
#     4  10  24  40  61  96 128 171 223 265 340 391
#     4  10  23  39  62  96 125 169 223 270 333 396
#     4  11  23  41  69  94 131 178 220 281 326 408
#     4  10  24  40  64  95 128 171 226 265 344 396
#     4  11  23  39  66  94 129 176 213 283 332 402
#     4  10  23  43  63  94 133 165 218 282 327 403
#
# _framework density 21.810683999999998
#
# number of rings (size 3 to 8) (size 9 to 14) (size 15 to 20)
#    0.000    1.714    0.000    2.571    6.000    5.714 
#    0.000    0.000    0.000    0.000    0.000    0.000 
#    0.000    0.000    0.000    0.000    0.000    0.000 
#
# Total GULP energy -347300.019516 kJ/mol
# GULP energy per Si atom -12403.572126 kJ/mol
# Density = 2.176104 g / cm^3
# Si number density = 21.810684 Si / 1000 Ang^3
#
#
#
# Elastic Constant Matrix: (Units=GPa)
#
#
# Indices 1 2 3 4 5 6 
#
# 1 108.5169 22.7153 48.3168 0.0000 0.0000 0.0000
# 2 22.7153 65.3971 17.0045 0.0000 0.0000 0.0000
# 3 48.3168 17.0045 73.0228 0.0000 0.0000 0.0000
# 4 0.0000 0.0000 0.0000 20.5941 0.0000 0.0000
# 5 0.0000 0.0000 0.0000 0.0000 40.2733 0.0000
# 6 0.0000 0.0000 0.0000 0.0000 0.0000 17.3338
#
#
#
# Elastic Compliance Matrix: (Units=1/GPa)
#
#
# Indices 1 2 3 4 5 6 
#
# 1 0.013439 -0.002508 -0.008308 0.000000 0.000000 0.000000
# 2 -0.002508 0.016745 -0.002240 0.000000 0.000000 0.000000
# 3 -0.008308 -0.002240 0.019713 0.000000 0.000000 0.000000
# 4 0.000000 0.000000 0.000000 0.048558 0.000000 0.000000
# 5 0.000000 0.000000 0.000000 0.000000 0.024830 0.000000
# 6 0.000000 0.000000 0.000000 0.000000 0.000000 0.057691
#
#
# Mechanical properties :
#
#
# Convention : Reuss Voigt Hill
#
# Bulk Modulus (GPa) = 42.04305 47.00113 44.52209
# Shear Modulus (GPa) = 23.25399 26.23358 24.74379
#
# Velocity S-wave (km/s) = 3.26877 3.47188 3.37186
# Velocity P-wave (km/s) = 5.79351 6.13745 5.96796
#
# Compressibility (1/GPa) = 0.02378515
#
# Stress axis : x y z
#
# Youngs Moduli (GPa) = 74.40812 59.72048 50.72693
#
# Poissons Ratio (x) = 0.14976 0.42146
# Poissons Ratio (y) = 0.18660 0.11363
# Poissons Ratio (z) = 0.61822 0.13377
#
# Static dielectric constant tensor:
#      x y z
#    x 4.239630 0.000000 0.000000 
#    y 0.000000 3.780710 0.000000 
#    z 0.000000 0.000000 3.678360 
# 
# 
# High freq. dielectric constant tensor:
#      x y z
#    x 1.880230 0.000000 0.000000 
#    y 0.000000 1.848220 0.000000 
#    z 0.000000 0.000000 1.848440 
# 
# From -- ./inp_files/6966.got.cif
#   From: 2010.03.12/outbox.cif.g09.slc.cpg/sg33_4_cif.got.tgz:6966.got - 2010.04.14 01:49:19.
