data_PCOD8171160
_publ_section_title
;
Structure prediction by ZEFSAII (Michael W. Deem and Ramdas Pophale) SiO2 
 PCOD8171160
Probable space group: P N A 21
;
_chemical_formula_sum "Si O2"
_cell_formula_units_Z 24
_cell_length_a 8.767003
_cell_length_b 15.131369
_cell_length_c 8.495778
_cell_angle_alpha 90.000000
_cell_angle_beta 90.000000
_cell_angle_gamma 90.000000
_cell_volume 1127.022361
_symmetry_space_group_name_H-M "P N A 21"
_symmetry_group_IT_number 33
_symmetry_cell_setting 'orthorhombic'
loop_
_space_group_symop_operation_xyz
x,y,z
-x,-y,1/2+z
1/2-x,1/2+y,1/2+z
1/2+x,1/2-y,z
loop_
_atom_site_type_symbol
_atom_site_label
_atom_site_fract_x
_atom_site_fract_y
_atom_site_fract_z
Si Si1 0.326850 0.886696 0.043410
Si Si2 0.135594 0.996357 0.807886
Si Si3 0.548396 0.680860 0.648666
Si Si4 0.827330 0.099945 0.869645
Si Si5 0.774870 0.781139 0.837762
Si Si6 0.172577 0.555921 0.038476
O O1 0.247495 0.864107 0.209772
O O2 0.493243 0.929053 0.060872
O O3 0.344947 0.796495 0.945591
O O4 0.217312 0.958880 0.963043
O O5 0.253579 0.057887 0.712168
O O6 0.984966 0.048199 0.851871
O O7 0.088790 0.918448 0.693006
O O8 0.620138 0.686750 0.472714
O O9 0.613963 0.751485 0.771170
O O10 0.370049 0.698380 0.677149
O O11 0.700076 0.038027 0.952585
O O12 0.757452 0.869128 0.938348
#
# Coordination Sequence:
#
# PCOD8171160 Si02
#       6
#     4   4   4   4   4   4
#     4  11  23  41  65  98 135 169 222 277 330 401
#     4  10  22  39  67  95 126 170 221 266 331 396
#     4  10  22  42  62  92 125 171 213 268 335 397
#     4  11  23  42  66  96 130 173 224 270 331 406
#     4  11  22  42  65  89 131 173 214 273 339 388
#     4  11  22  40  67  94 129 174 220 274 332 390
#
# _framework density 21.295052999999999
#
# number of rings (size 3 to 8) (size 9 to 14) (size 15 to 20)
#    0.000    1.333    3.333    3.000    2.333    0.000 
#    6.000    0.000    0.000    0.000    0.000    0.000 
#    0.000    0.000    0.000    0.000    0.000    0.000 
#
# Total GULP energy -297455.015252 kJ/mol
# GULP energy per Si atom -12393.958969 kJ/mol
# Density = 2.124658 g / cm^3
# Si number density = 21.295053 Si / 1000 Ang^3
#
#
#
# Elastic Constant Matrix: (Units=GPa)
#
#
# Indices 1 2 3 4 5 6 
#
# 1 100.2241 15.8043 34.1820 0.0000 0.0000 0.0000
# 2 15.8043 54.9073 29.2195 0.0000 0.0000 0.0000
# 3 34.1820 29.2195 125.7919 0.0000 0.0000 0.0000
# 4 0.0000 0.0000 0.0000 -163.8831 0.0000 0.0000
# 5 0.0000 0.0000 0.0000 0.0000 -10.5340 0.0000
# 6 0.0000 0.0000 0.0000 0.0000 0.0000 -12.5182
#
#
#
# Elastic Compliance Matrix: (Units=1/GPa)
#
#
# Indices 1 2 3 4 5 6 
#
# 1 0.011154 -0.001823 -0.002608 0.000000 0.000000 0.000000
# 2 -0.001823 0.021079 -0.004401 0.000000 0.000000 0.000000
# 3 -0.002608 -0.004401 0.009680 0.000000 0.000000 0.000000
# 4 0.000000 0.000000 0.000000 -0.006102 0.000000 0.000000
# 5 0.000000 0.000000 0.000000 0.000000 -0.094931 0.000000
# 6 0.000000 0.000000 0.000000 0.000000 0.000000 -0.079884
#
#
# Mechanical properties :
#
#
# Convention : Reuss Voigt Hill
#
# Bulk Modulus (GPa) = 41.23536 48.81496 45.02516
# Shear Modulus (GPa) = -44.14809 -23.93923 -34.04366
#
# Velocity S-wave (km/s) = -4.55814 -3.35650 -4.00267
# Velocity P-wave (km/s) = 2.88033 2.81983 0.41524
#
# Compressibility (1/GPa) = 0.02425103
#
# Stress axis : x y z
#
# Youngs Moduli (GPa) = 89.65039 47.43995 103.30048
#
# Poissons Ratio (x) = 0.08648 0.26937
# Poissons Ratio (y) = 0.16343 0.45463
# Poissons Ratio (z) = 0.23377 0.20878
#
# Static dielectric constant tensor:
#      x y z
#    x 4.068170 0.000000 0.000000 
#    y 0.000000 3.750200 0.000000 
#    z 0.000000 0.000000 4.269320 
# 
# 
# High freq. dielectric constant tensor:
#      x y z
#    x 1.848650 0.000000 0.000000 
#    y 0.000000 1.818570 0.000000 
#    z 0.000000 0.000000 1.840690 
# 
# From -- ./inp_files/3102.got.cif
#   From: 2010.03.12/outbox.cif.g09.slc.cpg/sg33_2_cif.got.tgz:3102.got - 2010.04.14 01:49:19.
