data_PCOD8171150
_publ_section_title
;
Structure prediction by ZEFSAII (Michael W. Deem and Ramdas Pophale) SiO2 
 PCOD8171150
Probable space group: P N A 21
;
_chemical_formula_sum "Si O2"
_cell_formula_units_Z 32
_cell_length_a 8.026685
_cell_length_b 15.915842
_cell_length_c 11.157521
_cell_angle_alpha 90.000000
_cell_angle_beta 90.000000
_cell_angle_gamma 90.000000
_cell_volume 1425.389489
_symmetry_space_group_name_H-M "P N A 21"
_symmetry_group_IT_number 33
_symmetry_cell_setting 'orthorhombic'
loop_
_space_group_symop_operation_xyz
x,y,z
-x,-y,1/2+z
1/2-x,1/2+y,1/2+z
1/2+x,1/2-y,z
loop_
_atom_site_type_symbol
_atom_site_label
_atom_site_fract_x
_atom_site_fract_y
_atom_site_fract_z
Si Si1 0.949196 0.169287 0.307560
Si Si2 0.192193 0.400889 0.628021
Si Si3 0.070242 0.479243 0.226842
Si Si4 0.052589 0.072558 0.520787
Si Si5 0.421704 0.842547 0.892501
Si Si6 0.170354 0.891160 0.570812
Si Si7 0.285084 0.637709 0.247755
Si Si8 0.640740 0.694712 0.330512
O O1 0.070826 0.111353 0.387897
O O2 0.764129 0.152097 0.346520
O O3 0.964404 0.145340 0.167272
O O4 0.982611 0.265786 0.334547
O O5 0.364687 0.426506 0.568197
O O6 0.080814 0.342803 0.537606
O O7 0.221942 0.351027 0.749699
O O8 0.084998 0.482465 0.656996
O O9 0.996222 0.428356 0.340908
O O10 0.155818 0.413051 0.135255
O O11 0.203361 0.547531 0.278584
O O12 0.171028 0.130486 0.605704
O O13 0.103773 0.976160 0.510843
O O14 0.195795 0.820090 0.468427
O O15 0.455672 0.656398 0.318616
O O16 0.149456 0.708228 0.286097
#
# Coordination Sequence:
#
# PCOD8171150 Si02
#       8
#     4   4   4   4   4   4   4   4
#     4  10  22  41  61  89 130 163 214 267 322 390
#     4  10  22  38  66  94 121 168 221 267 330 390
#     4  10  23  43  63  91 134 164 221 272 330 393
#     4   9  21  40  66  89 126 169 218 268 325 395
#     4  10  23  41  63  92 124 171 214 269 326 386
#     4  10  24  39  62  96 130 169 211 267 337 394
#     4  10  22  41  62  92 128 170 216 276 320 395
#     4  11  23  39  65  97 129 170 219 268 336 387
#
# _framework density 22.450002999999999
#
# number of rings (size 3 to 8) (size 9 to 14) (size 15 to 20)
#    0.000    2.000    0.000    1.500   10.500    7.000 
#    2.250    0.000    0.000    0.000    0.000    0.000 
#    0.000    0.000    0.000    0.000    0.000    0.000 
#
# Total GULP energy -396632.610714 kJ/mol
# GULP energy per Si atom -12394.769085 kJ/mol
# Density = 2.239891 g / cm^3
# Si number density = 22.450003 Si / 1000 Ang^3
#
#
#
# Elastic Constant Matrix: (Units=GPa)
#
#
# Indices 1 2 3 4 5 6 
#
# 1 37.8524 24.8244 19.0117 0.0000 0.0000 0.0000
# 2 24.8244 109.8738 64.3946 0.0000 0.0000 0.0000
# 3 19.0117 64.3946 157.9177 0.0000 0.0000 0.0000
# 4 0.0000 0.0000 0.0000 45.1552 0.0000 0.0000
# 5 0.0000 0.0000 0.0000 0.0000 13.9552 0.0000
# 6 0.0000 0.0000 0.0000 0.0000 0.0000 31.4921
#
#
#
# Elastic Compliance Matrix: (Units=1/GPa)
#
#
# Indices 1 2 3 4 5 6 
#
# 1 0.031174 -0.006365 -0.001158 0.000000 0.000000 0.000000
# 2 -0.006365 0.013259 -0.004640 0.000000 0.000000 0.000000
# 3 -0.001158 -0.004640 0.008364 0.000000 0.000000 0.000000
# 4 0.000000 0.000000 0.000000 0.022146 0.000000 0.000000
# 5 0.000000 0.000000 0.000000 0.000000 0.071658 0.000000
# 6 0.000000 0.000000 0.000000 0.000000 0.000000 0.031754
#
#
# Mechanical properties :
#
#
# Convention : Reuss Voigt Hill
#
# Bulk Modulus (GPa) = 35.12308 58.01170 46.56739
# Shear Modulus (GPa) = 23.56588 31.28138 27.42363
#
# Velocity S-wave (km/s) = 3.24343 3.73685 3.49885
# Velocity P-wave (km/s) = 5.45027 6.67197 6.09182
#
# Compressibility (1/GPa) = 0.02847130
#
# Stress axis : x y z
#
# Youngs Moduli (GPa) = 32.07794 75.42026 119.55987
#
# Poissons Ratio (x) = 0.48004 0.13841
# Poissons Ratio (y) = 0.20417 0.55481
# Poissons Ratio (z) = 0.03713 0.34998
#
# Static dielectric constant tensor:
#      x y z
#    x 3.926900 0.000000 0.000000 
#    y 0.000000 3.856090 0.000000 
#    z 0.000000 0.000000 4.497870 
# 
# 
# High freq. dielectric constant tensor:
#      x y z
#    x 1.874810 0.000000 0.000000 
#    y 0.000000 1.883040 0.000000 
#    z 0.000000 0.000000 1.885720 
# 
# From -- ./inp_files/6033.got.cif
#   From: 2010.03.12/outbox.cif.g09.slc.cpg/sg33_4_cif.got.tgz:6033.got - 2010.04.14 01:49:19.
