data_PCOD8171350
_publ_section_title
;
Structure prediction by ZEFSAII (Michael W. Deem and Ramdas Pophale) SiO2 
 PCOD8171350
Probable space group: P N A 21
;
_chemical_formula_sum "Si O2"
_cell_formula_units_Z 32
_cell_length_a 11.221007
_cell_length_b 10.927078
_cell_length_c 10.851356
_cell_angle_alpha 90.000000
_cell_angle_beta 90.000000
_cell_angle_gamma 90.000000
_cell_volume 1330.515346
_symmetry_space_group_name_H-M "P N A 21"
_symmetry_group_IT_number 33
_symmetry_cell_setting 'orthorhombic'
loop_
_space_group_symop_operation_xyz
x,y,z
-x,-y,1/2+z
1/2-x,1/2+y,1/2+z
1/2+x,1/2-y,z
loop_
_atom_site_type_symbol
_atom_site_label
_atom_site_fract_x
_atom_site_fract_y
_atom_site_fract_z
Si Si1 0.269973 0.868011 0.976030
Si Si2 0.654086 0.552610 0.719023
Si Si3 0.117464 0.682972 0.399937
Si Si4 0.946753 0.055713 0.858283
Si Si5 0.006092 0.734843 0.645604
Si Si6 0.245221 0.583429 0.990149
Si Si7 0.997937 0.552711 0.870252
Si Si8 0.657902 0.403354 0.035444
O O1 0.220329 0.921859 0.846845
O O2 0.412508 0.881442 0.971692
O O3 0.233107 0.730087 0.004379
O O4 0.215257 0.965070 0.077739
O O5 0.525579 0.487184 0.742645
O O6 0.624177 0.681453 0.657499
O O7 0.733808 0.471943 0.626420
O O8 0.111927 0.812062 0.328688
O O9 0.254896 0.661826 0.437120
O O10 0.028780 0.667916 0.516971
O O11 0.063260 0.572338 0.318433
O O12 0.028674 0.072701 0.977444
O O13 0.849497 0.953441 0.894808
O O14 0.878259 0.809463 0.646086
O O15 0.007691 0.639616 0.754136
O O16 0.124269 0.530142 0.934364
#
# Coordination Sequence:
#
# PCOD8171350 Si02
#       8
#     4   4   4   4   4   4   4   4
#     4  10  24  46  68 107 155 186 253 315 365 464
#     4  11  23  44  73 105 142 209 237 303 389 449
#     4  10  23  43  68 102 146 187 247 310 362 448
#     4  10  23  42  67  98 143 192 250 299 372 451
#     4  11  22  41  75 103 141 196 244 292 392 443
#     4  12  24  43  77 108 151 197 250 316 377 445
#     4  11  26  42  70 111 145 187 253 321 355 447
#     4   9  21  43  68  96 145 190 238 300 372 447
#
# _framework density 24.050830999999999
#
# number of rings (size 3 to 8) (size 9 to 14) (size 15 to 20)
#    0.000    1.500    3.750    0.750    8.750    1.000 
#    4.500    3.750    0.000    0.000    0.000    0.000 
#    0.000    0.000    0.000    0.000    0.000    0.000 
#
# Total GULP energy -396604.116747 kJ/mol
# GULP energy per Si atom -12393.878648 kJ/mol
# Density = 2.399609 g / cm^3
# Si number density = 24.050831 Si / 1000 Ang^3
#
#
#
# Elastic Constant Matrix: (Units=GPa)
#
#
# Indices 1 2 3 4 5 6 
#
# 1 132.9627 31.9213 20.4138 0.0000 0.0000 0.0000
# 2 31.9213 129.3741 20.4567 0.0000 0.0000 0.0000
# 3 20.4138 20.4567 58.8421 0.0000 0.0000 0.0000
# 4 0.0000 0.0000 0.0000 38.2448 0.0000 0.0000
# 5 0.0000 0.0000 0.0000 0.0000 31.3117 0.0000
# 6 0.0000 0.0000 0.0000 0.0000 0.0000 36.8096
#
#
#
# Elastic Compliance Matrix: (Units=1/GPa)
#
#
# Indices 1 2 3 4 5 6 
#
# 1 0.008275 -0.001680 -0.002287 0.000000 0.000000 0.000000
# 2 -0.001680 0.008520 -0.002379 0.000000 0.000000 0.000000
# 3 -0.002287 -0.002379 0.018615 0.000000 0.000000 0.000000
# 4 0.000000 0.000000 0.000000 0.026147 0.000000 0.000000
# 5 0.000000 0.000000 0.000000 0.000000 0.031937 0.000000
# 6 0.000000 0.000000 0.000000 0.000000 0.000000 0.027167
#
#
# Mechanical properties :
#
#
# Convention : Reuss Voigt Hill
#
# Bulk Modulus (GPa) = 44.01734 51.86251 47.93992
# Shear Modulus (GPa) = 35.47931 37.83235 36.65583
#
# Velocity S-wave (km/s) = 3.84497 3.97043 3.90821
# Velocity P-wave (km/s) = 6.16874 6.52914 6.35149
#
# Compressibility (1/GPa) = 0.02271832
#
# Stress axis : x y z
#
# Youngs Moduli (GPa) = 120.84026 117.36671 53.71979
#
# Poissons Ratio (x) = 0.19721 0.12285
# Poissons Ratio (y) = 0.20304 0.12781
# Poissons Ratio (z) = 0.27634 0.27924
#
# Static dielectric constant tensor:
#      x y z
#    x 4.544920 0.000000 0.000000 
#    y 0.000000 4.783740 0.000000 
#    z 0.000000 0.000000 4.004940 
# 
# 
# High freq. dielectric constant tensor:
#      x y z
#    x 1.968650 0.000000 0.000000 
#    y 0.000000 1.972110 0.000000 
#    z 0.000000 0.000000 1.920320 
# 
# From -- ./inp_files/6446.got.cif
#   From: 2010.03.12/outbox.cif.g09.slc.cpg/sg33_4_cif.got.tgz:6446.got - 2010.04.14 01:49:19.
