data_PCOD8171397
_publ_section_title
;
Structure prediction by ZEFSAII (Michael W. Deem and Ramdas Pophale) SiO2 
 PCOD8171397
Probable space group: P N A 21
;
_chemical_formula_sum "Si O2"
_cell_formula_units_Z 32
_cell_length_a 19.603772
_cell_length_b 13.333412
_cell_length_c 5.527436
_cell_angle_alpha 90.000000
_cell_angle_beta 90.000000
_cell_angle_gamma 90.000000
_cell_volume 1444.789792
_symmetry_space_group_name_H-M "P N A 21"
_symmetry_group_IT_number 33
_symmetry_cell_setting 'orthorhombic'
loop_
_space_group_symop_operation_xyz
x,y,z
-x,-y,1/2+z
1/2-x,1/2+y,1/2+z
1/2+x,1/2-y,z
loop_
_atom_site_type_symbol
_atom_site_label
_atom_site_fract_x
_atom_site_fract_y
_atom_site_fract_z
Si Si1 0.969420 0.821121 0.773140
Si Si2 0.352344 0.525602 0.832388
Si Si3 0.138398 0.459593 0.683133
Si Si4 0.222461 0.569514 0.065336
Si Si5 0.119147 0.836776 0.675221
Si Si6 0.613667 0.857173 0.373416
Si Si7 0.531143 0.202948 0.762501
Si Si8 0.232277 0.919462 0.947781
O O1 0.921896 0.918423 0.772033
O O2 0.961397 0.766330 0.511841
O O3 0.046991 0.859455 0.805344
O O4 0.948204 0.758051 0.012115
O O5 0.298078 0.599810 0.969426
O O6 0.315331 0.500275 0.582108
O O7 0.368142 0.422809 0.975941
O O8 0.167277 0.542584 0.863430
O O9 0.107809 0.528146 0.467522
O O10 0.080097 0.392030 0.799140
O O11 0.202355 0.386701 0.607905
O O12 0.184435 0.655075 0.222120
O O13 0.234595 0.468215 0.213204
O O14 0.117455 0.724858 0.580134
O O15 0.181225 0.830841 0.868586
O O16 0.545778 0.835360 0.218687
#
# Coordination Sequence:
#
# PCOD8171397 Si02
#       8
#     4   4   4   4   4   4   4   4
#     4  11  28  46  69 107 142 183 240 284 345 414
#     4  10  23  45  69  99 136 187 226 292 347 415
#     4  10  23  45  69  99 136 187 226 292 347 415
#     4   9  21  43  67  98 137 171 242 275 354 414
#     4  10  24  41  70 102 137 179 231 285 347 422
#     4  10  24  41  70 102 137 179 231 285 347 422
#     4  11  28  46  69 107 142 183 240 284 345 414
#     4   9  21  43  67  98 137 171 242 275 354 414
#
# _framework density 22.148551000000001
#
# number of rings (size 3 to 8) (size 9 to 14) (size 15 to 20)
#    0.000    2.000    0.000    0.000   17.500    0.000 
#   13.500    0.000    0.000    0.000    0.000    0.000 
#    0.000    0.000    0.000    0.000    0.000    0.000 
#
# Total GULP energy -396447.535961 kJ/mol
# GULP energy per Si atom -12388.985499 kJ/mol
# Density = 2.209814 g / cm^3
# Si number density = 22.148551 Si / 1000 Ang^3
#
#
#
# Elastic Constant Matrix: (Units=GPa)
#
#
# Indices 1 2 3 4 5 6 
#
# 1 133.9988 46.8469 17.3709 0.0000 0.0000 0.0000
# 2 46.8469 63.6165 12.2271 0.0000 0.0000 0.0000
# 3 17.3709 12.2271 79.8871 0.0000 0.0000 0.0000
# 4 0.0000 0.0000 0.0000 17.6754 0.0000 0.0000
# 5 0.0000 0.0000 0.0000 0.0000 33.5313 0.0000
# 6 0.0000 0.0000 0.0000 0.0000 0.0000 33.8089
#
#
#
# Elastic Compliance Matrix: (Units=1/GPa)
#
#
# Indices 1 2 3 4 5 6 
#
# 1 0.010142 -0.007258 -0.001094 0.000000 0.000000 0.000000
# 2 -0.007258 0.021390 -0.001696 0.000000 0.000000 0.000000
# 3 -0.001094 -0.001696 0.013015 0.000000 0.000000 0.000000
# 4 0.000000 0.000000 0.000000 0.056576 0.000000 0.000000
# 5 0.000000 0.000000 0.000000 0.000000 0.029823 0.000000
# 6 0.000000 0.000000 0.000000 0.000000 0.000000 0.029578
#
#
# Mechanical properties :
#
#
# Convention : Reuss Voigt Hill
#
# Bulk Modulus (GPa) = 40.89849 47.82135 44.35992
# Shear Modulus (GPa) = 26.48714 30.40697 28.44705
#
# Velocity S-wave (km/s) = 3.46191 3.70924 3.58771
# Velocity P-wave (km/s) = 5.87243 6.32318 6.10197
#
# Compressibility (1/GPa) = 0.02445078
#
# Stress axis : x y z
#
# Youngs Moduli (GPa) = 98.59807 46.75063 76.83352
#
# Poissons Ratio (x) = 0.33933 0.08409
# Poissons Ratio (y) = 0.71566 0.13028
# Poissons Ratio (z) = 0.10791 0.07927
#
# Static dielectric constant tensor:
#      x y z
#    x 4.521010 0.000000 0.000000 
#    y 0.000000 3.538530 0.000000 
#    z 0.000000 0.000000 4.143370 
# 
# 
# High freq. dielectric constant tensor:
#      x y z
#    x 1.894790 0.000000 0.000000 
#    y 0.000000 1.838920 0.000000 
#    z 0.000000 0.000000 1.880120 
# 
# From -- ./inp_files/1793.got.cif
#   From: 2010.03.12/outbox.cif.g09.slc.cpg/sg33_1_cif.got.tgz:1793.got - 2010.04.14 01:49:19.
