data_PCOD8171112
_publ_section_title
;
Structure prediction by ZEFSAII (Michael W. Deem and Ramdas Pophale) SiO2 
 PCOD8171112
Probable space group: P N A 21
;
_chemical_formula_sum "Si O2"
_cell_formula_units_Z 24
_cell_length_a 14.094513
_cell_length_b 15.407894
_cell_length_c 5.166907
_cell_angle_alpha 90.000000
_cell_angle_beta 90.000000
_cell_angle_gamma 90.000000
_cell_volume 1122.080464
_symmetry_space_group_name_H-M "P N A 21"
_symmetry_group_IT_number 33
_symmetry_cell_setting 'orthorhombic'
loop_
_space_group_symop_operation_xyz
x,y,z
-x,-y,1/2+z
1/2-x,1/2+y,1/2+z
1/2+x,1/2-y,z
loop_
_atom_site_type_symbol
_atom_site_label
_atom_site_fract_x
_atom_site_fract_y
_atom_site_fract_z
Si Si1 0.400793 0.606819 0.625000
Si Si2 0.752877 0.647256 0.160691
Si Si3 0.393280 0.441322 0.953511
Si Si4 0.649726 0.202963 0.179906
Si Si5 0.443138 0.976209 0.682866
Si Si6 0.247774 0.008766 0.849193
O O1 0.498428 0.582467 0.489831
O O2 0.404735 0.706199 0.711017
O O3 0.310435 0.594393 0.431090
O O4 0.386611 0.541147 0.861075
O O5 0.643666 0.632334 0.251271
O O6 0.811875 0.690649 0.390922
O O7 0.767286 0.703920 0.899732
O O8 0.785801 0.547448 0.097013
O O9 0.324112 0.441328 0.202780
O O10 0.575491 0.125856 0.238034
O O11 0.342458 0.029734 0.684386
O O12 0.487404 0.987151 0.400779
#
# Coordination Sequence:
#
# PCOD8171112 Si02
#       6
#     4   4   4   4   4   4
#     4  11  25  40  72 107 141 178 237 286 354 423
#     4  10  21  43  70  89 136 186 213 279 356 394
#     4  11  21  44  71 104 138 192 219 281 370 425
#     4  11  24  45  67 101 140 175 236 299 324 411
#     4  11  23  44  70  93 130 187 231 274 344 405
#     4  10  22  44  70  94 137 180 230 281 348 424
#
# _framework density 21.388839999999998
#
# number of rings (size 3 to 8) (size 9 to 14) (size 15 to 20)
#    0.000    1.333    5.000    2.000    4.667    0.000 
#    3.000    1.667    3.667    0.000    0.000    0.000 
#    0.000    0.000    0.000    0.000    0.000    0.000 
#
# Total GULP energy -297319.769652 kJ/mol
# GULP energy per Si atom -12388.323735 kJ/mol
# Density = 2.134016 g / cm^3
# Si number density = 21.388840 Si / 1000 Ang^3
#
#
#
# Elastic Constant Matrix: (Units=GPa)
#
#
# Indices 1 2 3 4 5 6 
#
# 1 113.0886 39.8235 28.4342 0.0000 0.0000 0.0000
# 2 39.8235 120.3244 27.2616 0.0000 0.0000 0.0000
# 3 28.4342 27.2616 100.4255 0.0000 0.0000 0.0000
# 4 0.0000 0.0000 0.0000 22.7102 0.0000 0.0000
# 5 0.0000 0.0000 0.0000 0.0000 35.4514 0.0000
# 6 0.0000 0.0000 0.0000 0.0000 0.0000 25.5809
#
#
#
# Elastic Compliance Matrix: (Units=1/GPa)
#
#
# Indices 1 2 3 4 5 6 
#
# 1 0.010426 -0.002964 -0.002147 0.000000 0.000000 0.000000
# 2 -0.002964 0.009698 -0.001793 0.000000 0.000000 0.000000
# 3 -0.002147 -0.001793 0.011052 0.000000 0.000000 0.000000
# 4 0.000000 0.000000 0.000000 0.044033 0.000000 0.000000
# 5 0.000000 0.000000 0.000000 0.000000 0.028208 0.000000
# 6 0.000000 0.000000 0.000000 0.000000 0.000000 0.039092
#
#
# Mechanical properties :
#
#
# Convention : Reuss Voigt Hill
#
# Bulk Modulus (GPa) = 57.58057 58.31968 57.95012
# Shear Modulus (GPa) = 30.84350 32.63644 31.73997
#
# Velocity S-wave (km/s) = 3.80154 3.91047 3.85639
# Velocity P-wave (km/s) = 6.80060 6.90758 6.85430
#
# Compressibility (1/GPa) = 0.01736697
#
# Stress axis : x y z
#
# Youngs Moduli (GPa) = 95.91027 103.11107 90.47741
#
# Poissons Ratio (x) = 0.30565 0.19429
# Poissons Ratio (y) = 0.28430 0.16226
# Poissons Ratio (z) = 0.20596 0.18492
#
# Static dielectric constant tensor:
#      x y z
#    x 3.971840 0.000000 0.000000 
#    y 0.000000 3.670550 0.000000 
#    z 0.000000 0.000000 4.086770 
# 
# 
# High freq. dielectric constant tensor:
#      x y z
#    x 1.836420 0.000000 0.000000 
#    y 0.000000 1.807110 0.000000 
#    z 0.000000 0.000000 1.854850 
# 
# From -- ./inp_files/1374.got.cif
#   From: 2010.03.12/outbox.cif.g09.slc.cpg/sg33_1_cif.got.tgz:1374.got - 2010.04.14 01:49:19.
