data_PCOD8171816
_publ_section_title
;
Structure prediction by ZEFSAII (Michael W. Deem and Ramdas Pophale) SiO2 
 PCOD8171816
Probable space group: P N A 21
;
_chemical_formula_sum "Si O2"
_cell_formula_units_Z 20
_cell_length_a 7.487393
_cell_length_b 11.065948
_cell_length_c 7.762206
_cell_angle_alpha 90.000000
_cell_angle_beta 90.000000
_cell_angle_gamma 90.000000
_cell_volume 643.138367
_symmetry_space_group_name_H-M "P N A 21"
_symmetry_group_IT_number 33
_symmetry_cell_setting 'orthorhombic'
loop_
_space_group_symop_operation_xyz
x,y,z
-x,-y,1/2+z
1/2-x,1/2+y,1/2+z
1/2+x,1/2-y,z
loop_
_atom_site_type_symbol
_atom_site_label
_atom_site_fract_x
_atom_site_fract_y
_atom_site_fract_z
Si Si1 0.274413 0.833739 0.557780
Si Si2 0.560215 0.019874 0.493478
Si Si3 0.077096 0.006947 0.795327
Si Si4 0.657683 0.235325 0.698618
Si Si5 0.251250 0.150494 0.356588
O O1 0.471655 0.892798 0.544612
O O2 0.129391 0.928991 0.626335
O O3 0.218140 0.785810 0.367621
O O4 0.293713 0.721653 0.685102
O O5 0.762931 0.999407 0.434937
O O6 0.548019 0.111405 0.660259
O O7 0.442857 0.084195 0.342431
O O8 0.898174 0.953057 0.878826
O O9 0.039172 0.144453 0.735287
O O10 0.766805 0.260217 0.521288
#
# Coordination Sequence:
#
# PCOD8171816 Si02
#       5
#     4   4   4   4   4
#     4  12  29  54  91 125 171 233 289 359 449 515
#     4  12  29  61  88 128 182 229 293 369 441 525
#     4  12  30  57  87 132 174 233 297 366 439 528
#     4  12  30  53  88 130 170 233 293 357 442 525
#     4  12  30  59  84 131 179 222 300 369 425 539
#
# _framework density 31.097508999999999
#
# number of rings (size 3 to 8) (size 9 to 14) (size 15 to 20)
#    0.000    0.000    4.000    2.400    5.600    3.200 
#    0.000    0.000    0.000    0.000    0.000    0.000 
#    0.000    0.000    0.000    0.000    0.000    0.000 
#
# Total GULP energy -247960.904704 kJ/mol
# GULP energy per Si atom -12398.045235 kJ/mol
# Density = 3.102673 g / cm^3
# Si number density = 31.097509 Si / 1000 Ang^3
#
#
#
# Elastic Constant Matrix: (Units=GPa)
#
#
# Indices 1 2 3 4 5 6 
#
# 1 90.4474 29.9201 36.5534 0.0000 0.0000 0.0000
# 2 29.9201 142.0466 63.8726 0.0000 0.0000 0.0000
# 3 36.5534 63.8726 200.9520 0.0000 0.0000 0.0000
# 4 0.0000 0.0000 0.0000 44.6132 0.0000 0.0000
# 5 0.0000 0.0000 0.0000 0.0000 33.6422 0.0000
# 6 0.0000 0.0000 0.0000 0.0000 0.0000 27.9783
#
#
#
# Elastic Compliance Matrix: (Units=1/GPa)
#
#
# Indices 1 2 3 4 5 6 
#
# 1 0.012339 -0.001855 -0.001655 0.000000 0.000000 0.000000
# 2 -0.001855 0.008493 -0.002362 0.000000 0.000000 0.000000
# 3 -0.001655 -0.002362 0.006028 0.000000 0.000000 0.000000
# 4 0.000000 0.000000 0.000000 0.022415 0.000000 0.000000
# 5 0.000000 0.000000 0.000000 0.000000 0.029725 0.000000
# 6 0.000000 0.000000 0.000000 0.000000 0.000000 0.035742
#
#
# Mechanical properties :
#
#
# Convention : Reuss Voigt Hill
#
# Bulk Modulus (GPa) = 66.15508 77.12645 71.64076
# Shear Modulus (GPa) = 38.01622 41.45341 39.73481
#
# Velocity S-wave (km/s) = 3.50020 3.65501 3.57844
# Velocity P-wave (km/s) = 6.13635 6.53203 6.33728
#
# Compressibility (1/GPa) = 0.01511600
#
# Stress axis : x y z
#
# Youngs Moduli (GPa) = 81.04705 117.74762 165.88988
#
# Poissons Ratio (x) = 0.21840 0.27452
# Poissons Ratio (y) = 0.15033 0.39184
# Poissons Ratio (z) = 0.13412 0.27812
#
# Static dielectric constant tensor:
#      x y z
#    x 5.273800 0.000000 0.000000 
#    y 0.000000 6.390120 0.000000 
#    z 0.000000 0.000000 6.131080 
# 
# 
# High freq. dielectric constant tensor:
#      x y z
#    x 2.254700 0.000000 0.000000 
#    y 0.000000 2.303610 0.000000 
#    z 0.000000 0.000000 2.308290 
# 
# From -- ./inp_files/3045.got.cif
#   From: 2010.03.12/outbox.cif.g09.slc.cpg/sg33_2_cif.got.tgz:3045.got - 2010.04.14 01:49:19.
