data_PCOD8171401
_publ_section_title
;
Structure prediction by ZEFSAII (Michael W. Deem and Ramdas Pophale) SiO2 
 PCOD8171401
Probable space group: P N A 21
;
_chemical_formula_sum "Si O2"
_cell_formula_units_Z 32
_cell_length_a 18.713407
_cell_length_b 6.514575
_cell_length_c 12.412036
_cell_angle_alpha 90.000000
_cell_angle_beta 90.000000
_cell_angle_gamma 90.000000
_cell_volume 1513.149986
_symmetry_space_group_name_H-M "P N A 21"
_symmetry_group_IT_number 33
_symmetry_cell_setting 'orthorhombic'
loop_
_space_group_symop_operation_xyz
x,y,z
-x,-y,1/2+z
1/2-x,1/2+y,1/2+z
1/2+x,1/2-y,z
loop_
_atom_site_type_symbol
_atom_site_label
_atom_site_fract_x
_atom_site_fract_y
_atom_site_fract_z
Si Si1 0.425296 0.979923 0.619120
Si Si2 0.658363 0.864452 0.580872
Si Si3 0.938302 0.657953 0.203249
Si Si4 0.202624 0.215295 0.198679
Si Si5 0.574704 0.479923 0.520863
Si Si6 0.158363 0.864452 0.059111
Si Si7 0.561698 0.342047 0.936733
Si Si8 0.297376 0.784705 0.941304
O O1 0.491777 0.011630 0.700674
O O2 0.403672 0.202764 0.576715
O O3 0.359243 0.881158 0.681392
O O4 0.450817 0.844126 0.519158
O O5 0.729164 0.746863 0.621732
O O6 0.596328 0.702764 0.563267
O O7 0.632026 0.029390 0.670050
O O8 0.673897 0.985949 0.468686
O O9 0.950817 0.844126 0.120825
O O10 0.924735 0.750000 0.319991
O O11 0.228674 0.250000 0.319991
O O12 0.173897 0.985949 0.171297
O O13 0.508223 0.511630 0.439308
O O14 0.640757 0.381158 0.458591
O O15 0.229164 0.746863 0.018251
O O16 0.132026 0.029390 0.969932
#
# Coordination Sequence:
#
# PCOD8171401 Si02
#       8
#     4   4   4   4   4   4   4   4
#     4  11  23  43  64  95 131 165 213 269 313 385
#     4  10  23  46  61  96 131 162 222 261 315 391
#     4  11  25  40  68  97 129 172 209 264 327 379
#     4  10  24  41  66  94 126 172 213 266 320 377
#     4  11  23  43  64  95 131 165 213 269 313 385
#     4  10  23  46  61  96 131 162 222 261 315 391
#     4  11  25  40  68  97 129 172 209 264 327 379
#     4  10  24  41  66  94 126 172 213 266 320 377
#
# _framework density 21.147938
#
# number of rings (size 3 to 8) (size 9 to 14) (size 15 to 20)
#    0.000    1.500    2.500    0.750    7.000    0.000 
#    0.000    0.000    0.000    0.000    0.000    0.000 
#    0.000    0.000    0.000    0.000    0.000    0.000 
#
# Total GULP energy -396839.876405 kJ/mol
# GULP energy per Si atom -12401.246138 kJ/mol
# Density = 2.109980 g / cm^3
# Si number density = 21.147938 Si / 1000 Ang^3
#
#
#
# Elastic Constant Matrix: (Units=GPa)
#
#
# Indices 1 2 3 4 5 6 
#
# 1 99.9915 24.5738 15.5534 0.0000 0.0000 0.0000
# 2 24.5738 72.1514 25.7190 0.0000 0.0000 0.0000
# 3 15.5534 25.7190 89.5115 0.0000 0.0000 0.0000
# 4 0.0000 0.0000 0.0000 16.7496 0.0000 0.0000
# 5 0.0000 0.0000 0.0000 0.0000 24.0868 0.0000
# 6 0.0000 0.0000 0.0000 0.0000 0.0000 40.5394
#
#
#
# Elastic Compliance Matrix: (Units=1/GPa)
#
#
# Indices 1 2 3 4 5 6 
#
# 1 0.010983 -0.003410 -0.000929 0.000000 0.000000 0.000000
# 2 -0.003410 0.016500 -0.004148 0.000000 0.000000 0.000000
# 3 -0.000929 -0.004148 0.012525 0.000000 0.000000 0.000000
# 4 0.000000 0.000000 0.000000 0.059703 0.000000 0.000000
# 5 0.000000 0.000000 0.000000 0.000000 0.041516 0.000000
# 6 0.000000 0.000000 0.000000 0.000000 0.000000 0.024667
#
#
# Mechanical properties :
#
#
# Convention : Reuss Voigt Hill
#
# Bulk Modulus (GPa) = 43.41312 43.70520 43.55916
# Shear Modulus (GPa) = 26.24030 29.32905 27.78468
#
# Velocity S-wave (km/s) = 3.52632 3.72809 3.62860
# Velocity P-wave (km/s) = 6.09530 6.26441 6.18043
#
# Compressibility (1/GPa) = 0.02303451
#
# Stress axis : x y z
#
# Youngs Moduli (GPa) = 91.04745 60.60699 79.83999
#
# Poissons Ratio (x) = 0.20665 0.07415
# Poissons Ratio (y) = 0.31044 0.33120
# Poissons Ratio (z) = 0.08456 0.25142
#
# Static dielectric constant tensor:
#      x y z
#    x 3.850880 0.000000 0.000000 
#    y 0.000000 3.877860 0.000000 
#    z 0.000000 0.000000 3.517640 
# 
# 
# High freq. dielectric constant tensor:
#      x y z
#    x 1.849270 0.000000 0.000000 
#    y 0.000000 1.834220 0.000000 
#    z 0.000000 0.000000 1.804970 
# 
# From -- ./inp_files/7210.got.cif
#   From: 2010.03.12/outbox.cif.g09.slc.cpg/sg33_4_cif.got.tgz:7210.got - 2010.04.14 01:49:19.
