data_PCOD8171182
_publ_section_title
;
Structure prediction by ZEFSAII (Michael W. Deem and Ramdas Pophale) SiO2 
 PCOD8171182
Probable space group: P N A 21
;
_chemical_formula_sum "Si O2"
_cell_formula_units_Z 28
_cell_length_a 9.145222
_cell_length_b 16.809204
_cell_length_c 8.281520
_cell_angle_alpha 90.000000
_cell_angle_beta 90.000000
_cell_angle_gamma 90.000000
_cell_volume 1273.067571
_symmetry_space_group_name_H-M "P N A 21"
_symmetry_group_IT_number 33
_symmetry_cell_setting 'orthorhombic'
loop_
_space_group_symop_operation_xyz
x,y,z
-x,-y,1/2+z
1/2-x,1/2+y,1/2+z
1/2+x,1/2-y,z
loop_
_atom_site_type_symbol
_atom_site_label
_atom_site_fract_x
_atom_site_fract_y
_atom_site_fract_z
Si Si1 0.888722 0.213649 0.688250
Si Si2 0.068432 0.449614 0.784322
Si Si3 0.097102 0.624476 0.774184
Si Si4 0.684161 0.473433 0.455710
Si Si5 0.555998 0.434752 0.791823
Si Si6 0.814624 0.344985 0.930535
Si Si7 0.886461 0.678573 0.030757
O O1 0.811163 0.260991 0.836171
O O2 0.781224 0.208933 0.530782
O O3 0.927967 0.124273 0.736335
O O4 0.035129 0.257732 0.643301
O O5 0.026962 0.538894 0.727345
O O6 0.203750 0.454170 0.912782
O O7 0.112443 0.406954 0.617773
O O8 0.933661 0.405161 0.862032
O O9 0.239333 0.608678 0.890864
O O10 0.150161 0.672807 0.617764
O O11 0.967044 0.674484 0.858925
O O12 0.659110 0.465016 0.646355
O O13 0.525976 0.489914 0.373026
O O14 0.658126 0.388986 0.920446
#
# Coordination Sequence:
#
# PCOD8171182 Si02
#       7
#     4   4   4   4   4   4   4
#     4  11  23  42  65  91 130 188 216 269 349 401
#     4   9  21  39  65  95 128 166 218 266 346 394
#     4  10  22  40  66 101 127 167 231 274 334 408
#     4  10  23  39  66  99 130 170 220 279 349 401
#     4  12  23  43  67  98 140 174 226 287 345 408
#     4  11  23  41  69  94 133 178 223 280 334 414
#     4  11  21  42  66  92 132 173 222 267 335 410
#
# _framework density 21.994118
#
# number of rings (size 3 to 8) (size 9 to 14) (size 15 to 20)
#    0.857    0.571    2.857    3.429    2.000    1.143 
#    2.571    1.429    0.000    0.000    0.000    0.000 
#    0.000    0.000    0.000    0.000    0.000    0.000 
#
# Total GULP energy -346999.738885 kJ/mol
# GULP energy per Si atom -12392.847817 kJ/mol
# Density = 2.194406 g / cm^3
# Si number density = 21.994118 Si / 1000 Ang^3
#
#
#
# Elastic Constant Matrix: (Units=GPa)
#
#
# Indices 1 2 3 4 5 6 
#
# 1 109.2073 14.3485 36.3394 0.0000 0.0000 0.0000
# 2 14.3485 43.6766 13.9629 0.0000 0.0000 0.0000
# 3 36.3394 13.9629 100.8426 0.0000 0.0000 0.0000
# 4 0.0000 0.0000 0.0000 20.7114 0.0000 0.0000
# 5 0.0000 0.0000 0.0000 0.0000 41.0780 0.0000
# 6 0.0000 0.0000 0.0000 0.0000 0.0000 20.3990
#
#
#
# Elastic Compliance Matrix: (Units=1/GPa)
#
#
# Indices 1 2 3 4 5 6 
#
# 1 0.010635 -0.002374 -0.003504 0.000000 0.000000 0.000000
# 2 -0.002374 0.024486 -0.002535 0.000000 0.000000 0.000000
# 3 -0.003504 -0.002535 0.011530 0.000000 0.000000 0.000000
# 4 0.000000 0.000000 0.000000 0.048283 0.000000 0.000000
# 5 0.000000 0.000000 0.000000 0.000000 0.024344 0.000000
# 6 0.000000 0.000000 0.000000 0.000000 0.000000 0.049022
#
#
# Mechanical properties :
#
#
# Convention : Reuss Voigt Hill
#
# Bulk Modulus (GPa) = 33.52788 42.55868 38.04328
# Shear Modulus (GPa) = 25.63242 29.04270 27.33756
#
# Velocity S-wave (km/s) = 3.41753 3.63778 3.52937
# Velocity P-wave (km/s) = 5.55426 6.08577 5.82608
#
# Compressibility (1/GPa) = 0.02982592
#
# Stress axis : x y z
#
# Youngs Moduli (GPa) = 94.03258 40.84008 86.73020
#
# Poissons Ratio (x) = 0.09694 0.30387
# Poissons Ratio (y) = 0.22319 0.21986
# Poissons Ratio (z) = 0.32945 0.10353
#
# Static dielectric constant tensor:
#      x y z
#    x 3.980340 0.000000 0.000000 
#    y 0.000000 3.813480 0.000000 
#    z 0.000000 0.000000 3.730990 
# 
# 
# High freq. dielectric constant tensor:
#      x y z
#    x 1.875860 0.000000 0.000000 
#    y 0.000000 1.848290 0.000000 
#    z 0.000000 0.000000 1.842090 
# 
# From -- ./inp_files/3352.got.cif
#   From: 2010.03.12/outbox.cif.g09.slc.cpg/sg33_2_cif.got.tgz:3352.got - 2010.04.14 01:49:19.
