data_PCOD8171603
_publ_section_title
;
Structure prediction by ZEFSAII (Michael W. Deem and Ramdas Pophale) SiO2 
 PCOD8171603
Probable space group: P N A 21
;
_chemical_formula_sum "Si O2"
_cell_formula_units_Z 32
_cell_length_a 14.752618
_cell_length_b 11.888910
_cell_length_c 8.535127
_cell_angle_alpha 90.000000
_cell_angle_beta 90.000000
_cell_angle_gamma 90.000000
_cell_volume 1496.997669
_symmetry_space_group_name_H-M "P N A 21"
_symmetry_group_IT_number 33
_symmetry_cell_setting 'orthorhombic'
loop_
_space_group_symop_operation_xyz
x,y,z
-x,-y,1/2+z
1/2-x,1/2+y,1/2+z
1/2+x,1/2-y,z
loop_
_atom_site_type_symbol
_atom_site_label
_atom_site_fract_x
_atom_site_fract_y
_atom_site_fract_z
Si Si1 0.332740 0.359512 0.169090
Si Si2 0.515192 0.286610 0.007133
Si Si3 0.833057 0.774819 0.759339
Si Si4 0.269856 0.498904 0.903159
Si Si5 0.045555 0.871530 0.938026
Si Si6 0.961910 0.638734 0.970251
Si Si7 0.434203 0.934782 0.326447
Si Si8 0.055087 0.953365 0.270696
O O1 0.418934 0.294384 0.095471
O O2 0.247661 0.278315 0.159393
O O3 0.359070 0.389642 0.348644
O O4 0.303228 0.474755 0.081409
O O5 0.595835 0.315006 0.127150
O O6 0.526581 0.162944 0.935320
O O7 0.515475 0.373095 0.861264
O O8 0.785477 0.871983 0.861457
O O9 0.872998 0.682945 0.880469
O O10 0.168953 0.458702 0.872562
O O11 0.339530 0.422642 0.799296
O O12 0.037260 0.950865 0.087766
O O13 0.963826 0.917075 0.826452
O O14 0.032776 0.741809 0.984526
O O15 0.939181 0.593465 0.142544
O O16 0.005916 0.544257 0.860593
#
# Coordination Sequence:
#
# PCOD8171603 Si02
#       8
#     4   4   4   4   4   4   4   4
#     4  11  25  42  73 104 146 188 246 303 365 439
#     4  11  23  47  74 105 147 194 241 304 372 432
#     4  12  24  47  72 107 143 192 247 305 364 439
#     4  11  24  44  72 106 145 186 250 308 363 438
#     4  12  23  44  70 106 137 193 241 302 370 432
#     4  12  27  47  73 102 148 195 244 296 371 448
#     4  12  27  48  74 104 154 199 244 300 377 448
#     4  11  23  43  72 104 142 185 245 306 366 430
#
# _framework density 21.376118000000002
#
# number of rings (size 3 to 8) (size 9 to 14) (size 15 to 20)
#    0.000    0.500    5.000    3.750    3.500    0.000 
#    0.000    0.000    2.750    0.000    0.000    0.000 
#    0.000    0.000    0.000    0.000    0.000    0.000 
#
# Total GULP energy -396710.094157 kJ/mol
# GULP energy per Si atom -12397.190442 kJ/mol
# Density = 2.132747 g / cm^3
# Si number density = 21.376118 Si / 1000 Ang^3
#
#
#
# Elastic Constant Matrix: (Units=GPa)
#
#
# Indices 1 2 3 4 5 6 
#
# 1 121.4575 43.3436 61.6538 0.0000 0.0000 0.0000
# 2 43.3436 117.8506 55.4133 0.0000 0.0000 0.0000
# 3 61.6538 55.4133 149.2708 0.0000 0.0000 0.0000
# 4 0.0000 0.0000 0.0000 48.4198 0.0000 0.0000
# 5 0.0000 0.0000 0.0000 0.0000 29.6476 0.0000
# 6 0.0000 0.0000 0.0000 0.0000 0.0000 32.8124
#
#
#
# Elastic Compliance Matrix: (Units=1/GPa)
#
#
# Indices 1 2 3 4 5 6 
#
# 1 0.010906 -0.002293 -0.003653 0.000000 0.000000 0.000000
# 2 -0.002293 0.010762 -0.003048 0.000000 0.000000 0.000000
# 3 -0.003653 -0.003048 0.009340 0.000000 0.000000 0.000000
# 4 0.000000 0.000000 0.000000 0.020653 0.000000 0.000000
# 5 0.000000 0.000000 0.000000 0.000000 0.033730 0.000000
# 6 0.000000 0.000000 0.000000 0.000000 0.000000 0.030476
#
#
# Mechanical properties :
#
#
# Convention : Reuss Voigt Hill
#
# Bulk Modulus (GPa) = 76.81256 78.82225 77.81740
# Shear Modulus (GPa) = 36.18080 37.38716 36.78398
#
# Velocity S-wave (km/s) = 4.11856 4.18666 4.15275
# Velocity P-wave (km/s) = 7.65693 7.76691 7.71211
#
# Compressibility (1/GPa) = 0.01301870
#
# Stress axis : x y z
#
# Youngs Moduli (GPa) = 91.69091 92.92044 107.07099
#
# Poissons Ratio (x) = 0.21310 0.39116
# Poissons Ratio (y) = 0.21028 0.32634
# Poissons Ratio (z) = 0.33497 0.28321
#
# Static dielectric constant tensor:
#      x y z
#    x 3.995760 0.000000 0.000000 
#    y 0.000000 3.902570 0.000000 
#    z 0.000000 0.000000 4.048820 
# 
# 
# High freq. dielectric constant tensor:
#      x y z
#    x 1.840140 0.000000 0.000000 
#    y 0.000000 1.843200 0.000000 
#    z 0.000000 0.000000 1.853420 
# 
# From -- ./inp_files/4460.got.cif
#   From: 2010.03.12/outbox.cif.g09.slc.cpg/sg33_3_cif.got.tgz:4460.got - 2010.04.14 01:49:19.
