data_PCOD8171221
_publ_section_title
;
Structure prediction by ZEFSAII (Michael W. Deem and Ramdas Pophale) SiO2 
 PCOD8171221
Probable space group: P N A 21
;
_chemical_formula_sum "Si O2"
_cell_formula_units_Z 32
_cell_length_a 30.736835
_cell_length_b 5.345642
_cell_length_c 8.443257
_cell_angle_alpha 90.000000
_cell_angle_beta 90.000000
_cell_angle_gamma 90.000000
_cell_volume 1387.295652
_symmetry_space_group_name_H-M "P N A 21"
_symmetry_group_IT_number 33
_symmetry_cell_setting 'orthorhombic'
loop_
_space_group_symop_operation_xyz
x,y,z
-x,-y,1/2+z
1/2-x,1/2+y,1/2+z
1/2+x,1/2-y,z
loop_
_atom_site_type_symbol
_atom_site_label
_atom_site_fract_x
_atom_site_fract_y
_atom_site_fract_z
Si Si1 0.351289 0.329178 0.270070
Si Si2 0.217065 0.730343 0.250407
Si Si3 0.054260 0.389324 0.005661
Si Si4 0.542038 0.509505 0.244902
Si Si5 0.518186 0.227481 0.527533
Si Si6 0.374876 0.269361 0.620000
Si Si7 0.899459 0.686974 0.206213
Si Si8 0.240423 0.739506 0.619895
O O1 0.355616 0.387757 0.457332
O O2 0.368202 0.574314 0.172180
O O3 0.301918 0.280274 0.225868
O O4 0.375617 0.074700 0.226201
O O5 0.164807 0.717910 0.239020
O O6 0.230354 0.708977 0.433949
O O7 0.231799 0.489965 0.148385
O O8 0.235308 0.988454 0.177334
O O9 0.030972 0.235326 0.143239
O O10 0.096050 0.530961 0.078040
O O11 0.014523 0.550343 0.928698
O O12 0.073576 0.226043 0.861829
O O13 0.528301 0.475822 0.426175
O O14 0.510757 0.727068 0.183776
O O15 0.593541 0.546654 0.217464
O O16 0.566176 0.125291 0.566980
#
# Coordination Sequence:
#
# PCOD8171221 Si02
#       8
#     4   4   4   4   4   4   4   4
#     4  11  24  45  71 100 143 178 237 286 362 425
#     4  12  27  48  78 109 148 191 243 299 371 444
#     4  10  22  42  63  96 133 186 233 289 352 418
#     4  11  23  42  65  94 141 179 244 289 355 410
#     4  11  25  38  65  94 135 188 235 293 349 421
#     4  10  24  42  67 103 137 187 229 299 352 430
#     4  11  24  42  67  98 137 183 232 291 350 420
#     4  12  27  49  78 110 148 192 241 302 369 444
#
# _framework density 23.066462999999999
#
# number of rings (size 3 to 8) (size 9 to 14) (size 15 to 20)
#    0.000    1.000    1.250    4.500    8.750    3.000 
#    0.000    0.000    0.000    0.000    0.000    0.000 
#    0.000    0.000    0.000    0.000    0.000    0.000 
#
# Total GULP energy -396514.706689 kJ/mol
# GULP energy per Si atom -12391.084584 kJ/mol
# Density = 2.301396 g / cm^3
# Si number density = 23.066463 Si / 1000 Ang^3
#
#
#
# Elastic Constant Matrix: (Units=GPa)
#
#
# Indices 1 2 3 4 5 6 
#
# 1 109.4505 19.1347 19.7011 0.0000 0.0000 0.0000
# 2 19.1347 103.0001 2.4061 0.0000 0.0000 0.0000
# 3 19.7011 2.4061 54.0214 0.0000 0.0000 0.0000
# 4 0.0000 0.0000 0.0000 22.4769 0.0000 0.0000
# 5 0.0000 0.0000 0.0000 0.0000 35.9363 0.0000
# 6 0.0000 0.0000 0.0000 0.0000 0.0000 19.4866
#
#
#
# Elastic Compliance Matrix: (Units=1/GPa)
#
#
# Indices 1 2 3 4 5 6 
#
# 1 0.010098 -0.001792 -0.003603 0.000000 0.000000 0.000000
# 2 -0.001792 0.010037 0.000206 0.000000 0.000000 0.000000
# 3 -0.003603 0.000206 0.019816 0.000000 0.000000 0.000000
# 4 0.000000 0.000000 0.000000 0.044490 0.000000 0.000000
# 5 0.000000 0.000000 0.000000 0.000000 0.027827 0.000000
# 6 0.000000 0.000000 0.000000 0.000000 0.000000 0.051317
#
#
# Mechanical properties :
#
#
# Convention : Reuss Voigt Hill
#
# Bulk Modulus (GPa) = 33.81309 38.77285 36.29297
# Shear Modulus (GPa) = 27.20046 30.59529 28.89788
#
# Velocity S-wave (km/s) = 3.43770 3.64592 3.54334
# Velocity P-wave (km/s) = 5.51796 5.87957 5.70163
#
# Compressibility (1/GPa) = 0.02957434
#
# Stress axis : x y z
#
# Youngs Moduli (GPa) = 99.02618 99.63349 50.46440
#
# Poissons Ratio (x) = 0.17853 0.18182
# Poissons Ratio (y) = 0.17744 -0.01042
# Poissons Ratio (z) = 0.35679 -0.02057
#
# Static dielectric constant tensor:
#      x y z
#    x 4.320430 0.000000 0.000000 
#    y 0.000000 4.213910 0.000000 
#    z 0.000000 0.000000 4.113580 
# 
# 
# High freq. dielectric constant tensor:
#      x y z
#    x 1.927200 0.000000 0.000000 
#    y 0.000000 1.912590 0.000000 
#    z 0.000000 0.000000 1.906310 
# 
# From -- ./inp_files/5324.got.cif
#   From: 2010.03.12/outbox.cif.g09.slc.cpg/sg33_3_cif.got.tgz:5324.got - 2010.04.14 01:49:19.
