data_PCOD8171122
_publ_section_title
;
Structure prediction by ZEFSAII (Michael W. Deem and Ramdas Pophale) SiO2 
 PCOD8171122
Probable space group: P N A 21
;
_chemical_formula_sum "Si O2"
_cell_formula_units_Z 28
_cell_length_a 7.616653
_cell_length_b 18.028450
_cell_length_c 7.757268
_cell_angle_alpha 90.000000
_cell_angle_beta 90.000000
_cell_angle_gamma 90.000000
_cell_volume 1065.200486
_symmetry_space_group_name_H-M "P N A 21"
_symmetry_group_IT_number 33
_symmetry_cell_setting 'orthorhombic'
loop_
_space_group_symop_operation_xyz
x,y,z
-x,-y,1/2+z
1/2-x,1/2+y,1/2+z
1/2+x,1/2-y,z
loop_
_atom_site_type_symbol
_atom_site_label
_atom_site_fract_x
_atom_site_fract_y
_atom_site_fract_z
Si Si1 0.035102 0.815396 0.795530
Si Si2 0.098039 0.806713 0.266924
Si Si3 0.714222 0.965291 0.049263
Si Si4 0.898348 0.449128 0.935097
Si Si5 0.380969 0.437866 0.523814
Si Si6 0.222307 0.197469 0.977926
Si Si7 0.794643 0.304303 0.480397
O O1 0.910382 0.816398 0.633951
O O2 0.917973 0.807706 0.974389
O O3 0.139145 0.892071 0.839940
O O4 0.156094 0.741595 0.802245
O O5 0.195044 0.780803 0.450268
O O6 0.892863 0.818805 0.305808
O O7 0.167229 0.882565 0.183195
O O8 0.131053 0.734644 0.148939
O O9 0.667012 0.966007 0.246564
O O10 0.638628 0.888603 0.966968
O O11 0.924489 0.975243 0.027330
O O12 0.603395 0.030604 0.958164
O O13 0.764949 0.499001 0.049910
O O14 0.877938 0.362959 0.987019
#
# Coordination Sequence:
#
# PCOD8171122 Si02
#       7
#     4   4   4   4   4   4   4
#     4  10  23  40  69 108 142 185 247 311 373 444
#     4  11  22  46  73 101 145 198 256 307 379 456
#     4  11  26  49  72 109 147 198 252 313 381 469
#     4  12  28  47  75 110 154 200 256 313 393 460
#     4  10  25  48  76 102 151 208 247 307 390 476
#     4  12  25  44  70 116 148 185 260 323 371 452
#     4  10  21  44  69  96 141 194 242 296 379 453
#
# _framework density 26.28613
#
# number of rings (size 3 to 8) (size 9 to 14) (size 15 to 20)
#    0.000    1.143    2.857    2.571   12.000    0.000 
#    2.571    0.000    0.000    0.000    0.000    0.000 
#    0.000    0.000    0.000    0.000    0.000    0.000 
#
# Total GULP energy -346988.736241 kJ/mol
# GULP energy per Si atom -12392.454866 kJ/mol
# Density = 2.622630 g / cm^3
# Si number density = 26.286130 Si / 1000 Ang^3
#
#
#
# Elastic Constant Matrix: (Units=GPa)
#
#
# Indices 1 2 3 4 5 6 
#
# 1 62.6194 41.0770 5.1071 0.0000 0.0000 0.0000
# 2 41.0770 86.5423 17.5835 0.0000 0.0000 0.0000
# 3 5.1071 17.5835 17.8727 0.0000 0.0000 0.0000
# 4 0.0000 0.0000 0.0000 30.4904 0.0000 0.0000
# 5 0.0000 0.0000 0.0000 0.0000 37.4076 0.0000
# 6 0.0000 0.0000 0.0000 0.0000 0.0000 43.8433
#
#
#
# Elastic Compliance Matrix: (Units=1/GPa)
#
#
# Indices 1 2 3 4 5 6 
#
# 1 0.023591 -0.012283 0.005343 0.000000 0.000000 0.000000
# 2 -0.012283 0.020837 -0.016990 0.000000 0.000000 0.000000
# 3 0.005343 -0.016990 0.071139 0.000000 0.000000 0.000000
# 4 0.000000 0.000000 0.000000 0.032797 0.000000 0.000000
# 5 0.000000 0.000000 0.000000 0.000000 0.026733 0.000000
# 6 0.000000 0.000000 0.000000 0.000000 0.000000 0.022808
#
#
# Mechanical properties :
#
#
# Convention : Reuss Voigt Hill
#
# Bulk Modulus (GPa) = 14.76937 32.72994 23.74966
# Shear Modulus (GPa) = 18.63343 29.23272 23.93307
#
# Velocity S-wave (km/s) = 2.66535 3.33843 3.02069
# Velocity P-wave (km/s) = 3.88626 5.22863 4.60660
#
# Compressibility (1/GPa) = 0.06770768
#
# Stress axis : x y z
#
# Youngs Moduli (GPa) = 42.38883 47.99126 14.05692
#
# Poissons Ratio (x) = 0.58948 -0.07511
# Poissons Ratio (y) = 0.52066 0.23883
# Poissons Ratio (z) = -0.22649 0.81537
#
# Static dielectric constant tensor:
#      x y z
#    x 5.186670 0.000000 0.000000 
#    y 0.000000 5.019920 0.000000 
#    z 0.000000 0.000000 4.977420 
# 
# 
# High freq. dielectric constant tensor:
#      x y z
#    x 2.053160 0.000000 0.000000 
#    y 0.000000 2.043620 0.000000 
#    z 0.000000 0.000000 2.066050 
# 
# From -- ./inp_files/3366.got.cif
#   From: 2010.03.12/outbox.cif.g09.slc.cpg/sg33_2_cif.got.tgz:3366.got - 2010.04.14 01:49:19.
