data_PCOD8171677
_publ_section_title
;
Structure prediction by ZEFSAII (Michael W. Deem and Ramdas Pophale) SiO2 
 PCOD8171677
Probable space group: P N A 21
;
_chemical_formula_sum "Si O2"
_cell_formula_units_Z 28
_cell_length_a 24.425287
_cell_length_b 6.621648
_cell_length_c 7.842607
_cell_angle_alpha 90.000000
_cell_angle_beta 90.000000
_cell_angle_gamma 90.000000
_cell_volume 1268.429163
_symmetry_space_group_name_H-M "P N A 21"
_symmetry_group_IT_number 33
_symmetry_cell_setting 'orthorhombic'
loop_
_space_group_symop_operation_xyz
x,y,z
-x,-y,1/2+z
1/2-x,1/2+y,1/2+z
1/2+x,1/2-y,z
loop_
_atom_site_type_symbol
_atom_site_label
_atom_site_fract_x
_atom_site_fract_y
_atom_site_fract_z
Si Si1 0.443955 0.157139 0.416390
Si Si2 0.109699 0.968270 0.719705
Si Si3 0.809140 0.801992 0.466941
Si Si4 0.334853 0.104808 0.604738
Si Si5 0.051985 0.359388 0.620547
Si Si6 0.356824 0.110995 0.990124
Si Si7 0.259343 0.876855 0.139938
O O1 0.444275 0.350604 0.290949
O O2 0.384048 0.193298 0.495388
O O3 0.490195 0.170600 0.558423
O O4 0.448585 0.946489 0.313459
O O5 0.148936 0.056438 0.866484
O O6 0.084316 0.149060 0.609817
O O7 0.146074 0.814788 0.604222
O O8 0.839324 0.634451 0.579619
O O9 0.776237 0.922084 0.611907
O O10 0.768179 0.687969 0.336045
O O11 0.342533 0.170830 0.799447
O O12 0.275582 0.196721 0.547373
O O13 0.082050 0.518957 0.496917
O O14 0.318180 0.928181 0.058353
#
# Coordination Sequence:
#
# PCOD8171677 Si02
#       7
#     4   4   4   4   4   4   4
#     4  11  24  45  72 103 140 185 246 292 370 419
#     4  11  24  48  69 102 142 189 231 303 356 433
#     4  12  26  45  72 100 149 184 246 288 366 420
#     4  12  26  45  71 104 141 193 236 301 354 432
#     4  11  24  47  74  99 145 186 234 308 354 429
#     4  11  26  44  69 104 141 183 243 291 367 420
#     4  12  26  42  71 104 142 192 234 297 351 435
#
# _framework density 22.074548
#
# number of rings (size 3 to 8) (size 9 to 14) (size 15 to 20)
#    0.000    0.571    5.714    1.714    4.000    4.571 
#    2.571    0.000    0.000    0.000    0.000    0.000 
#    0.000    0.000    0.000    0.000    0.000    0.000 
#
# Total GULP energy -347044.690981 kJ/mol
# GULP energy per Si atom -12394.453249 kJ/mol
# Density = 2.202431 g / cm^3
# Si number density = 22.074548 Si / 1000 Ang^3
#
#
#
# Elastic Constant Matrix: (Units=GPa)
#
#
# Indices 1 2 3 4 5 6 
#
# 1 105.3473 46.3131 34.8704 0.0000 0.0000 0.0000
# 2 46.3131 129.9046 50.0001 0.0000 0.0000 0.0000
# 3 34.8704 50.0001 87.0514 0.0000 0.0000 0.0000
# 4 0.0000 0.0000 0.0000 32.9751 0.0000 0.0000
# 5 0.0000 0.0000 0.0000 0.0000 30.6551 0.0000
# 6 0.0000 0.0000 0.0000 0.0000 0.0000 31.0710
#
#
#
# Elastic Compliance Matrix: (Units=1/GPa)
#
#
# Indices 1 2 3 4 5 6 
#
# 1 0.011827 -0.003072 -0.002973 0.000000 0.000000 0.000000
# 2 -0.003072 0.010681 -0.004904 0.000000 0.000000 0.000000
# 3 -0.002973 -0.004904 0.015495 0.000000 0.000000 0.000000
# 4 0.000000 0.000000 0.000000 0.030326 0.000000 0.000000
# 5 0.000000 0.000000 0.000000 0.000000 0.032621 0.000000
# 6 0.000000 0.000000 0.000000 0.000000 0.000000 0.032184
#
#
# Mechanical properties :
#
#
# Convention : Reuss Voigt Hill
#
# Bulk Modulus (GPa) = 62.09498 64.96339 63.52919
# Shear Modulus (GPa) = 31.17179 31.68154 31.42667
#
# Velocity S-wave (km/s) = 3.76189 3.79252 3.77724
# Velocity P-wave (km/s) = 6.86002 6.97643 6.91847
#
# Compressibility (1/GPa) = 0.01610436
#
# Stress axis : x y z
#
# Youngs Moduli (GPa) = 84.55149 93.62530 64.53613
#
# Poissons Ratio (x) = 0.28764 0.19187
# Poissons Ratio (y) = 0.25976 0.31650
# Poissons Ratio (z) = 0.25137 0.45915
#
# Static dielectric constant tensor:
#      x y z
#    x 4.018630 0.000000 0.000000 
#    y 0.000000 4.107130 0.000000 
#    z 0.000000 0.000000 3.798790 
# 
# 
# High freq. dielectric constant tensor:
#      x y z
#    x 1.869000 0.000000 0.000000 
#    y 0.000000 1.881840 0.000000 
#    z 0.000000 0.000000 1.855020 
# 
# From -- ./inp_files/5269.got.cif
#   From: 2010.03.12/outbox.cif.g09.slc.cpg/sg33_3_cif.got.tgz:5269.got - 2010.04.14 01:49:19.
