data_PCOD8171259
_publ_section_title
;
Structure prediction by ZEFSAII (Michael W. Deem and Ramdas Pophale) SiO2 
 PCOD8171259
Probable space group: P N A 21
;
_chemical_formula_sum "Si O2"
_cell_formula_units_Z 24
_cell_length_a 9.399086
_cell_length_b 8.120359
_cell_length_c 12.210852
_cell_angle_alpha 90.000000
_cell_angle_beta 90.000000
_cell_angle_gamma 90.000000
_cell_volume 931.980489
_symmetry_space_group_name_H-M "P N A 21"
_symmetry_group_IT_number 33
_symmetry_cell_setting 'orthorhombic'
loop_
_space_group_symop_operation_xyz
x,y,z
-x,-y,1/2+z
1/2-x,1/2+y,1/2+z
1/2+x,1/2-y,z
loop_
_atom_site_type_symbol
_atom_site_label
_atom_site_fract_x
_atom_site_fract_y
_atom_site_fract_z
Si Si1 0.952330 0.451853 0.953490
Si Si2 0.179337 0.363014 0.271080
Si Si3 0.645749 0.255589 0.593258
Si Si4 0.231203 0.038356 0.404059
Si Si5 0.406623 0.390814 0.705120
Si Si6 0.048913 0.800836 0.636990
O O1 0.847126 0.474748 0.847900
O O2 0.116500 0.454602 0.918252
O O3 0.928903 0.607567 0.030847
O O4 0.918501 0.281180 0.018339
O O5 0.238738 0.214252 0.344718
O O6 0.305766 0.385470 0.182918
O O7 0.023635 0.337200 0.215643
O O8 0.652552 0.424080 0.519476
O O9 0.554449 0.292138 0.702353
O O10 0.801452 0.213670 0.631539
O O11 0.136290 0.914637 0.330968
O O12 0.424159 0.562175 0.638094
#
# Coordination Sequence:
#
# PCOD8171259 Si02
#       6
#     4   4   4   4   4   4
#     4  11  22  43  80 107 153 208 265 318 404 473
#     4  10  22  43  72 107 159 208 253 328 398 461
#     4  11  24  48  75 110 154 210 252 329 395 472
#     4  10  22  45  74 107 149 203 258 316 400 461
#     4  11  26  49  76 109 157 202 263 328 399 471
#     4  11  24  44  75 116 150 213 263 325 396 472
#
# _framework density 25.751612999999999
#
# number of rings (size 3 to 8) (size 9 to 14) (size 15 to 20)
#    0.000    1.333    3.333    2.000    2.333    0.000 
#    3.000    0.000    0.000    0.000    0.000    0.000 
#    0.000    0.000    0.000    0.000    0.000    0.000 
#
# Total GULP energy -297476.943355 kJ/mol
# GULP energy per Si atom -12394.872640 kJ/mol
# Density = 2.569300 g / cm^3
# Si number density = 25.751613 Si / 1000 Ang^3
#
#
#
# Elastic Constant Matrix: (Units=GPa)
#
#
# Indices 1 2 3 4 5 6 
#
# 1 148.5922 38.2731 80.9932 0.0000 0.0000 0.0000
# 2 38.2731 43.3413 49.6265 0.0000 0.0000 0.0000
# 3 80.9932 49.6265 142.4964 0.0000 0.0000 0.0000
# 4 0.0000 0.0000 0.0000 56.6280 0.0000 0.0000
# 5 0.0000 0.0000 0.0000 0.0000 51.4138 0.0000
# 6 0.0000 0.0000 0.0000 0.0000 0.0000 35.5371
#
#
#
# Elastic Compliance Matrix: (Units=1/GPa)
#
#
# Indices 1 2 3 4 5 6 
#
# 1 0.010135 -0.003915 -0.004397 0.000000 0.000000 0.000000
# 2 -0.003915 0.039888 -0.011666 0.000000 0.000000 0.000000
# 3 -0.004397 -0.011666 0.013580 0.000000 0.000000 0.000000
# 4 0.000000 0.000000 0.000000 0.017659 0.000000 0.000000
# 5 0.000000 0.000000 0.000000 0.000000 0.019450 0.000000
# 6 0.000000 0.000000 0.000000 0.000000 0.000000 0.028140
#
#
# Mechanical properties :
#
#
# Convention : Reuss Voigt Hill
#
# Bulk Modulus (GPa) = 42.29043 74.69062 58.49053
# Shear Modulus (GPa) = 28.29798 39.75159 34.02479
#
# Velocity S-wave (km/s) = 3.31854 3.93320 3.63887
# Velocity P-wave (km/s) = 5.58047 7.04939 6.35750
#
# Compressibility (1/GPa) = 0.02364601
#
# Stress axis : x y z
#
# Youngs Moduli (GPa) = 98.66819 25.07007 73.63771
#
# Poissons Ratio (x) = 0.09815 0.32379
# Poissons Ratio (y) = 0.38629 0.85909
# Poissons Ratio (z) = 0.43386 0.29248
#
# Static dielectric constant tensor:
#      x y z
#    x 4.589400 0.000000 0.000000 
#    y 0.000000 4.612190 0.000000 
#    z 0.000000 0.000000 4.969660 
# 
# 
# High freq. dielectric constant tensor:
#      x y z
#    x 2.028530 0.000000 0.000000 
#    y 0.000000 2.032470 0.000000 
#    z 0.000000 0.000000 2.033150 
# 
# From -- ./inp_files/5751.got.cif
#   From: 2010.03.12/outbox.cif.g09.slc.cpg/sg33_3_cif.got.tgz:5751.got - 2010.04.14 01:49:19.
