data_PCOD8171654
_publ_section_title
;
Structure prediction by ZEFSAII (Michael W. Deem and Ramdas Pophale) SiO2 
 PCOD8171654
Probable space group: P N A 21
;
_chemical_formula_sum "Si O2"
_cell_formula_units_Z 32
_cell_length_a 17.844629
_cell_length_b 7.094084
_cell_length_c 11.897678
_cell_angle_alpha 90.000000
_cell_angle_beta 90.000000
_cell_angle_gamma 90.000000
_cell_volume 1506.142490
_symmetry_space_group_name_H-M "P N A 21"
_symmetry_group_IT_number 33
_symmetry_cell_setting 'orthorhombic'
loop_
_space_group_symop_operation_xyz
x,y,z
-x,-y,1/2+z
1/2-x,1/2+y,1/2+z
1/2+x,1/2-y,z
loop_
_atom_site_type_symbol
_atom_site_label
_atom_site_fract_x
_atom_site_fract_y
_atom_site_fract_z
Si Si1 0.124701 0.456551 0.152040
Si Si2 0.126126 0.859059 0.631936
Si Si3 0.511328 0.218966 0.997472
Si Si4 0.816275 0.853604 0.955963
Si Si5 0.958532 0.635409 0.867572
Si Si6 0.761677 0.842390 0.716782
Si Si7 0.077805 0.954644 0.863082
Si Si8 0.315431 0.343006 0.560416
O O1 0.063336 0.460773 0.250371
O O2 0.200772 0.362905 0.198025
O O3 0.139235 0.667881 0.111309
O O4 0.091638 0.331768 0.050636
O O5 0.043995 0.799235 0.591899
O O6 0.176344 0.679239 0.672393
O O7 0.114016 0.995613 0.740383
O O8 0.168982 0.960604 0.529569
O O9 0.525094 0.371345 0.898991
O O10 0.473112 0.031837 0.952693
O O11 0.894007 0.765618 0.918236
O O12 0.764486 0.903112 0.847775
O O13 0.769747 0.707886 0.030866
O O14 0.031705 0.761643 0.852228
O O15 0.811304 0.996584 0.653766
O O16 0.143571 0.926219 0.952224
#
# Coordination Sequence:
#
# PCOD8171654 Si02
#       8
#     4   4   4   4   4   4   4   4
#     4  11  24  42  68  99 133 176 231 282 342 416
#     4  12  25  47  71 105 142 183 236 292 351 422
#     4  12  25  43  71 100 137 186 229 285 349 416
#     4  11  25  47  69 102 138 179 234 285 346 419
#     4  11  25  43  66 101 137 178 229 284 343 410
#     4  11  25  46  72  98 137 180 230 292 347 410
#     4  12  25  44  71 101 142 179 232 288 346 418
#     4  12  24  46  72 100 134 187 229 288 348 411
#
# _framework density 21.246328999999999
#
# number of rings (size 3 to 8) (size 9 to 14) (size 15 to 20)
#    0.000    0.500    7.500    0.750    1.750    2.000 
#    6.750    0.000    0.000    0.000    0.000    0.000 
#    0.000    0.000    0.000    0.000    0.000    0.000 
#
# Total GULP energy -396914.189376 kJ/mol
# GULP energy per Si atom -12403.568418 kJ/mol
# Density = 2.119797 g / cm^3
# Si number density = 21.246329 Si / 1000 Ang^3
#
#
#
# Elastic Constant Matrix: (Units=GPa)
#
#
# Indices 1 2 3 4 5 6 
#
# 1 71.8345 26.1154 25.6643 0.0000 0.0000 0.0000
# 2 26.1154 78.5396 49.3325 0.0000 0.0000 0.0000
# 3 25.6643 49.3325 130.6061 0.0000 0.0000 0.0000
# 4 0.0000 0.0000 0.0000 27.1855 0.0000 0.0000
# 5 0.0000 0.0000 0.0000 0.0000 39.2157 0.0000
# 6 0.0000 0.0000 0.0000 0.0000 0.0000 38.5444
#
#
#
# Elastic Compliance Matrix: (Units=1/GPa)
#
#
# Indices 1 2 3 4 5 6 
#
# 1 0.016054 -0.004401 -0.001492 0.000000 0.000000 0.000000
# 2 -0.004401 0.017899 -0.005896 0.000000 0.000000 0.000000
# 3 -0.001492 -0.005896 0.010177 0.000000 0.000000 0.000000
# 4 0.000000 0.000000 0.000000 0.036784 0.000000 0.000000
# 5 0.000000 0.000000 0.000000 0.000000 0.025500 0.000000
# 6 0.000000 0.000000 0.000000 0.000000 0.000000 0.025944
#
#
# Mechanical properties :
#
#
# Convention : Reuss Voigt Hill
#
# Bulk Modulus (GPa) = 48.65798 53.68939 51.17369
# Shear Modulus (GPa) = 30.71485 32.98031 31.84758
#
# Velocity S-wave (km/s) = 3.80630 3.94418 3.87585
# Velocity P-wave (km/s) = 6.50144 6.78726 6.64589
#
# Compressibility (1/GPa) = 0.02055161
#
# Stress axis : x y z
#
# Youngs Moduli (GPa) = 62.28990 55.86824 98.26119
#
# Poissons Ratio (x) = 0.24586 0.14664
# Poissons Ratio (y) = 0.27412 0.57936
# Poissons Ratio (z) = 0.09296 0.32941
#
# Static dielectric constant tensor:
#      x y z
#    x 3.840330 0.000000 0.000000 
#    y 0.000000 3.660560 0.000000 
#    z 0.000000 0.000000 4.047740 
# 
# 
# High freq. dielectric constant tensor:
#      x y z
#    x 1.843240 0.000000 0.000000 
#    y 0.000000 1.820150 0.000000 
#    z 0.000000 0.000000 1.847790 
# 
# From -- ./inp_files/7181.got.cif
#   From: 2010.03.12/outbox.cif.g09.slc.cpg/sg33_4_cif.got.tgz:7181.got - 2010.04.14 01:49:19.
