data_PCOD8171710
_publ_section_title
;
Structure prediction by ZEFSAII (Michael W. Deem and Ramdas Pophale) SiO2 
 PCOD8171710
Probable space group: P N A 21
;
_chemical_formula_sum "Si O2"
_cell_formula_units_Z 20
_cell_length_a 18.132773
_cell_length_b 6.626041
_cell_length_c 7.356610
_cell_angle_alpha 90.000000
_cell_angle_beta 90.000000
_cell_angle_gamma 90.000000
_cell_volume 883.885637
_symmetry_space_group_name_H-M "P N A 21"
_symmetry_group_IT_number 33
_symmetry_cell_setting 'orthorhombic'
loop_
_space_group_symop_operation_xyz
x,y,z
-x,-y,1/2+z
1/2-x,1/2+y,1/2+z
1/2+x,1/2-y,z
loop_
_atom_site_type_symbol
_atom_site_label
_atom_site_fract_x
_atom_site_fract_y
_atom_site_fract_z
Si Si1 0.328438 0.988350 0.759050
Si Si2 0.844037 0.102388 0.643134
Si Si3 0.069314 0.148652 0.415363
Si Si4 0.409630 0.408721 0.277090
Si Si5 0.783062 0.331138 0.115431
O O1 0.388862 0.856223 0.865648
O O2 0.268898 0.858668 0.654527
O O3 0.356803 0.155862 0.614717
O O4 0.291238 0.141748 0.901186
O O5 0.867803 0.996138 0.452321
O O6 0.896919 0.036239 0.805092
O O7 0.759459 0.032283 0.687735
O O8 0.985992 0.181177 0.351913
O O9 0.077563 0.086373 0.627841
O O10 0.362605 0.217127 0.203134
#
# Coordination Sequence:
#
# PCOD8171710 Si02
#       5
#     4   4   4   4   4
#     4  11  26  45  72 108 146 189 248 297 376 431
#     4  11  25  47  70 109 143 193 241 302 368 437
#     4  11  26  48  70 108 149 194 242 303 365 444
#     4  12  24  47  76 102 150 192 244 304 370 435
#     4  11  25  43  74 107 144 188 241 308 361 441
#
# _framework density 22.627364
#
# number of rings (size 3 to 8) (size 9 to 14) (size 15 to 20)
#    0.000    0.800    6.000    0.000    5.600    1.600 
#    3.600    0.000    0.000    0.000    0.000    0.000 
#    0.000    0.000    0.000    0.000    0.000    0.000 
#
# Total GULP energy -247807.762667 kJ/mol
# GULP energy per Si atom -12390.388133 kJ/mol
# Density = 2.257586 g / cm^3
# Si number density = 22.627364 Si / 1000 Ang^3
#
#
#
# Elastic Constant Matrix: (Units=GPa)
#
#
# Indices 1 2 3 4 5 6 
#
# 1 147.1640 61.3687 43.0781 0.0000 0.0000 0.0000
# 2 61.3687 140.4026 43.4595 0.0000 0.0000 0.0000
# 3 43.0781 43.4595 113.3691 0.0000 0.0000 0.0000
# 4 0.0000 0.0000 0.0000 29.8928 0.0000 0.0000
# 5 0.0000 0.0000 0.0000 0.0000 32.3263 0.0000
# 6 0.0000 0.0000 0.0000 0.0000 0.0000 4.0279
#
#
#
# Elastic Compliance Matrix: (Units=1/GPa)
#
#
# Indices 1 2 3 4 5 6 
#
# 1 0.008731 -0.003165 -0.002104 0.000000 0.000000 0.000000
# 2 -0.003165 0.009228 -0.002335 0.000000 0.000000 0.000000
# 3 -0.002104 -0.002335 0.010516 0.000000 0.000000 0.000000
# 4 0.000000 0.000000 0.000000 0.033453 0.000000 0.000000
# 5 0.000000 0.000000 0.000000 0.000000 0.030935 0.000000
# 6 0.000000 0.000000 0.000000 0.000000 0.000000 0.248270
#
#
# Mechanical properties :
#
#
# Convention : Reuss Voigt Hill
#
# Bulk Modulus (GPa) = 75.37896 77.41647 76.39772
# Shear Modulus (GPa) = 13.85950 30.11803 21.98876
#
# Velocity S-wave (km/s) = 2.47758 3.65231 3.12072
# Velocity P-wave (km/s) = 6.44748 7.21621 6.84265
#
# Compressibility (1/GPa) = 0.01326630
#
# Stress axis : x y z
#
# Youngs Moduli (GPa) = 114.53592 108.36012 95.09758
#
# Poissons Ratio (x) = 0.34294 0.20012
# Poissons Ratio (y) = 0.36249 0.22206
# Poissons Ratio (z) = 0.24102 0.25303
#
# Static dielectric constant tensor:
#      x y z
#    x 4.290280 0.000000 0.000000 
#    y 0.000000 3.974710 0.000000 
#    z 0.000000 0.000000 4.279460 
# 
# 
# High freq. dielectric constant tensor:
#      x y z
#    x 1.895330 0.000000 0.000000 
#    y 0.000000 1.878270 0.000000 
#    z 0.000000 0.000000 1.907930 
# 
# From -- ./inp_files/4565.got.cif
#   From: 2010.03.12/outbox.cif.g09.slc.cpg/sg33_3_cif.got.tgz:4565.got - 2010.04.14 01:49:19.
