data_PCOD8171673
_publ_section_title
;
Structure prediction by ZEFSAII (Michael W. Deem and Ramdas Pophale) SiO2 
 PCOD8171673
Probable space group: P N A 21
;
_chemical_formula_sum "Si O2"
_cell_formula_units_Z 28
_cell_length_a 23.682192
_cell_length_b 9.611288
_cell_length_c 5.283096
_cell_angle_alpha 90.000000
_cell_angle_beta 90.000000
_cell_angle_gamma 90.000000
_cell_volume 1202.519122
_symmetry_space_group_name_H-M "P N A 21"
_symmetry_group_IT_number 33
_symmetry_cell_setting 'orthorhombic'
loop_
_space_group_symop_operation_xyz
x,y,z
-x,-y,1/2+z
1/2-x,1/2+y,1/2+z
1/2+x,1/2-y,z
loop_
_atom_site_type_symbol
_atom_site_label
_atom_site_fract_x
_atom_site_fract_y
_atom_site_fract_z
Si Si1 0.555858 0.041975 0.480470
Si Si2 0.107910 0.948339 0.226537
Si Si3 0.793881 0.596721 0.635003
Si Si4 0.512056 0.773049 0.284371
Si Si5 0.833476 0.470032 0.155895
Si Si6 0.904181 0.747815 0.585020
Si Si7 0.666677 0.655818 0.717691
O O1 0.498887 0.125720 0.545267
O O2 0.607892 0.059162 0.683378
O O3 0.575922 0.105993 0.217444
O O4 0.543721 0.876182 0.478230
O O5 0.050306 0.858729 0.219709
O O6 0.142841 0.929329 0.482010
O O7 0.090675 0.109389 0.241783
O O8 0.145151 0.911980 0.979413
O O9 0.789428 0.503511 0.380021
O O10 0.836830 0.720951 0.548938
O O11 0.734275 0.661280 0.706294
O O12 0.810704 0.499916 0.873312
O O13 0.448374 0.724938 0.356971
O O14 0.853346 0.312413 0.185928
#
# Coordination Sequence:
#
# PCOD8171673 Si02
#       7
#     4   4   4   4   4   4   4
#     4  11  24  44  75 105 143 192 247 304 356 447
#     4  12  31  47  74 110 153 196 237 306 382 441
#     4  11  26  46  78 101 143 188 251 305 359 433
#     4  12  25  45  76 104 151 192 248 301 370 443
#     4  11  24  48  72 109 136 191 249 296 360 433
#     4  11  28  47  71 111 144 195 245 309 372 438
#     4  12  28  49  74 106 148 196 243 307 367 447
#
# _framework density 23.284455000000001
#
# number of rings (size 3 to 8) (size 9 to 14) (size 15 to 20)
#    0.000    0.571    4.286    1.714   14.000    0.000 
#    0.000    0.000    0.000    0.000    0.000    0.000 
#    0.000    0.000    0.000    0.000    0.000    0.000 
#
# Total GULP energy -346874.343466 kJ/mol
# GULP energy per Si atom -12388.369410 kJ/mol
# Density = 2.323146 g / cm^3
# Si number density = 23.284455 Si / 1000 Ang^3
#
#
#
# Elastic Constant Matrix: (Units=GPa)
#
#
# Indices 1 2 3 4 5 6 
#
# 1 125.9776 21.6678 31.0560 0.0000 0.0000 0.0000
# 2 21.6678 106.1404 10.9929 0.0000 0.0000 0.0000
# 3 31.0560 10.9929 121.4892 0.0000 0.0000 0.0000
# 4 0.0000 0.0000 0.0000 28.7054 0.0000 0.0000
# 5 0.0000 0.0000 0.0000 0.0000 40.9628 0.0000
# 6 0.0000 0.0000 0.0000 0.0000 0.0000 28.6983
#
#
#
# Elastic Compliance Matrix: (Units=1/GPa)
#
#
# Indices 1 2 3 4 5 6 
#
# 1 0.008722 -0.001564 -0.002088 0.000000 0.000000 0.000000
# 2 -0.001564 0.009791 -0.000486 0.000000 0.000000 0.000000
# 3 -0.002088 -0.000486 0.008809 0.000000 0.000000 0.000000
# 4 0.000000 0.000000 0.000000 0.034837 0.000000 0.000000
# 5 0.000000 0.000000 0.000000 0.000000 0.024412 0.000000
# 6 0.000000 0.000000 0.000000 0.000000 0.000000 0.034845
#
#
# Mechanical properties :
#
#
# Convention : Reuss Voigt Hill
#
# Bulk Modulus (GPa) = 52.50667 53.44894 52.97781
# Shear Modulus (GPa) = 36.75364 38.99934 37.87649
#
# Velocity S-wave (km/s) = 3.97730 4.09700 4.03759
# Velocity P-wave (km/s) = 6.60991 6.73685 6.67368
#
# Compressibility (1/GPa) = 0.01904520
#
# Stress axis : x y z
#
# Youngs Moduli (GPa) = 114.65672 102.13299 113.52143
#
# Poissons Ratio (x) = 0.15976 0.23703
# Poissons Ratio (y) = 0.17935 0.05518
# Poissons Ratio (z) = 0.23940 0.04965
#
# Static dielectric constant tensor:
#      x y z
#    x 4.553390 0.000000 0.000000 
#    y 0.000000 4.121580 0.000000 
#    z 0.000000 0.000000 4.076520 
# 
# 
# High freq. dielectric constant tensor:
#      x y z
#    x 1.934670 0.000000 0.000000 
#    y 0.000000 1.919800 0.000000 
#    z 0.000000 0.000000 1.919570 
# 
# From -- ./inp_files/2212.got.cif
#   From: 2010.03.12/outbox.cif.g09.slc.cpg/sg33_2_cif.got.tgz:2212.got - 2010.04.14 01:49:19.
