data_PCOD8171674
_publ_section_title
;
Structure prediction by ZEFSAII (Michael W. Deem and Ramdas Pophale) SiO2 
 PCOD8171674
Probable space group: P N A 21
;
_chemical_formula_sum "Si O2"
_cell_formula_units_Z 24
_cell_length_a 13.526139
_cell_length_b 6.642198
_cell_length_c 11.322055
_cell_angle_alpha 90.000000
_cell_angle_beta 90.000000
_cell_angle_gamma 90.000000
_cell_volume 1017.210709
_symmetry_space_group_name_H-M "P N A 21"
_symmetry_group_IT_number 33
_symmetry_cell_setting 'orthorhombic'
loop_
_space_group_symop_operation_xyz
x,y,z
-x,-y,1/2+z
1/2-x,1/2+y,1/2+z
1/2+x,1/2-y,z
loop_
_atom_site_type_symbol
_atom_site_label
_atom_site_fract_x
_atom_site_fract_y
_atom_site_fract_z
Si Si1 0.422294 0.130300 0.507560
Si Si2 0.077706 0.869700 0.240033
Si Si3 0.804422 0.738849 0.491005
Si Si4 0.892914 0.434579 0.931189
Si Si5 0.804422 0.761150 0.756587
Si Si6 0.107086 0.934579 0.816404
O O1 0.389166 0.250000 0.623796
O O2 0.448162 0.288509 0.406497
O O3 0.328833 0.995456 0.461425
O O4 0.524050 0.004535 0.525786
O O5 0.051838 0.711491 0.341096
O O6 0.171167 0.004544 0.286168
O O7 0.975950 0.995465 0.221807
O O8 0.690527 0.807530 0.500091
O O9 0.851132 0.750000 0.623796
O O10 0.852207 0.877432 0.390899
O O11 0.852207 0.622568 0.856693
O O12 0.690527 0.692470 0.747501
#
# Coordination Sequence:
#
# PCOD8171674 Si02
#       6
#     4   4   4   4   4   4
#     4  12  24  45  75 101 137 185 233 286 349 414
#     4  12  24  45  75 101 137 185 233 286 349 414
#     4  11  24  45  68 100 143 182 230 287 348 410
#     4  11  25  44  69 103 139 184 231 288 345 412
#     4  11  24  45  68 100 143 182 230 287 348 410
#     4  11  25  44  69 103 139 184 231 288 345 412
#
# _framework density 23.593931000000001
#
# number of rings (size 3 to 8) (size 9 to 14) (size 15 to 20)
#    0.000    0.667    6.667    1.000    0.000    4.000 
#   12.000    0.000    0.000    0.000    0.000    0.000 
#    0.000    0.000    0.000    0.000    0.000    0.000 
#
# Total GULP energy -297387.750834 kJ/mol
# GULP energy per Si atom -12391.156285 kJ/mol
# Density = 2.354023 g / cm^3
# Si number density = 23.593931 Si / 1000 Ang^3
#
#
#
# Elastic Constant Matrix: (Units=GPa)
#
#
# Indices 1 2 3 4 5 6 
#
# 1 130.1996 65.9743 18.7657 0.0000 0.0000 0.0000
# 2 65.9743 144.3161 32.9896 0.0000 0.0000 0.0000
# 3 18.7657 32.9896 71.1780 0.0000 0.0000 0.0000
# 4 0.0000 0.0000 0.0000 44.5903 0.0000 0.0000
# 5 0.0000 0.0000 0.0000 0.0000 42.2889 0.0000
# 6 0.0000 0.0000 0.0000 0.0000 0.0000 41.2616
#
#
#
# Elastic Compliance Matrix: (Units=1/GPa)
#
#
# Indices 1 2 3 4 5 6 
#
# 1 0.010017 -0.004447 -0.000580 0.000000 0.000000 0.000000
# 2 -0.004447 0.009724 -0.003335 0.000000 0.000000 0.000000
# 3 -0.000580 -0.003335 0.015748 0.000000 0.000000 0.000000
# 4 0.000000 0.000000 0.000000 0.022426 0.000000 0.000000
# 5 0.000000 0.000000 0.000000 0.000000 0.023647 0.000000
# 6 0.000000 0.000000 0.000000 0.000000 0.000000 0.024236
#
#
# Mechanical properties :
#
#
# Convention : Reuss Voigt Hill
#
# Bulk Modulus (GPa) = 53.28654 64.57257 58.92956
# Shear Modulus (GPa) = 38.82676 40.82575 39.82626
#
# Velocity S-wave (km/s) = 4.06103 4.16426 4.11297
# Velocity P-wave (km/s) = 6.68006 7.10979 6.89827
#
# Compressibility (1/GPa) = 0.01876646
#
# Stress axis : x y z
#
# Youngs Moduli (GPa) = 99.82602 102.83388 63.50108
#
# Poissons Ratio (x) = 0.45729 0.03683
# Poissons Ratio (y) = 0.44392 0.21176
# Poissons Ratio (z) = 0.05790 0.34292
#
# Static dielectric constant tensor:
#      x y z
#    x 4.140430 0.000000 0.000000 
#    y 0.000000 4.600340 0.000000 
#    z 0.000000 0.000000 3.948240 
# 
# 
# High freq. dielectric constant tensor:
#      x y z
#    x 1.928900 0.000000 0.000000 
#    y 0.000000 1.952640 0.000000 
#    z 0.000000 0.000000 1.920760 
# 
# From -- ./inp_files/1263.got.cif
#   From: 2010.03.12/outbox.cif.g09.slc.cpg/sg33_1_cif.got.tgz:1263.got - 2010.04.14 01:49:19.
