data_PCOD8171711
_publ_section_title
;
Structure prediction by ZEFSAII (Michael W. Deem and Ramdas Pophale) SiO2 
 PCOD8171711
Probable space group: P N A 21
;
_chemical_formula_sum "Si O2"
_cell_formula_units_Z 24
_cell_length_a 9.222821
_cell_length_b 7.402021
_cell_length_c 17.029656
_cell_angle_alpha 90.000000
_cell_angle_beta 90.000000
_cell_angle_gamma 90.000000
_cell_volume 1162.572292
_symmetry_space_group_name_H-M "P N A 21"
_symmetry_group_IT_number 33
_symmetry_cell_setting 'orthorhombic'
loop_
_space_group_symop_operation_xyz
x,y,z
-x,-y,1/2+z
1/2-x,1/2+y,1/2+z
1/2+x,1/2-y,z
loop_
_atom_site_type_symbol
_atom_site_label
_atom_site_fract_x
_atom_site_fract_y
_atom_site_fract_z
Si Si1 0.276901 0.419136 0.968070
Si Si2 0.438990 0.050290 0.977278
Si Si3 0.649917 0.752859 0.754833
Si Si4 0.038750 0.428477 0.652702
Si Si5 0.199732 0.058770 0.640821
Si Si6 0.900187 0.775818 0.863939
O O1 0.339053 0.219820 0.958190
O O2 0.348893 0.536773 0.900328
O O3 0.104878 0.407455 0.956455
O O4 0.319522 0.510365 0.050007
O O5 0.378996 0.884647 0.926168
O O6 0.418842 0.006796 0.068413
O O7 0.625994 0.602620 0.688901
O O8 0.816469 0.746569 0.781675
O O9 0.565992 0.710703 0.836177
O O10 0.604785 0.946302 0.720421
O O11 0.108852 0.233670 0.663126
O O12 0.866711 0.410837 0.662991
#
# Coordination Sequence:
#
# PCOD8171711 Si02
#       6
#     4   4   4   4   4   4
#     4  11  25  44  71 101 134 181 228 278 337 407
#     4  11  25  44  71 102 134 180 231 272 339 410
#     4  12  26  46  66 103 143 174 221 285 345 395
#     4  11  25  44  71 102 134 180 231 272 339 410
#     4  11  25  44  71 101 134 181 228 278 337 407
#     4  12  26  46  66 103 143 174 221 285 345 395
#
# _framework density 20.643875000000001
#
# number of rings (size 3 to 8) (size 9 to 14) (size 15 to 20)
#    0.000    0.667    6.667    0.000    4.667    4.000 
#    0.000    0.000    0.000    0.000    0.000    0.000 
#    0.000    0.000    0.000    0.000    0.000    0.000 
#
# Total GULP energy -297752.888852 kJ/mol
# GULP energy per Si atom -12406.370369 kJ/mol
# Density = 2.059689 g / cm^3
# Si number density = 20.643875 Si / 1000 Ang^3
#
#
#
# Elastic Constant Matrix: (Units=GPa)
#
#
# Indices 1 2 3 4 5 6 
#
# 1 50.3685 25.4930 16.7036 0.0000 0.0000 0.0000
# 2 25.4930 93.0907 5.5220 0.0000 0.0000 0.0000
# 3 16.7036 5.5220 64.6512 0.0000 0.0000 0.0000
# 4 0.0000 0.0000 0.0000 39.3252 0.0000 0.0000
# 5 0.0000 0.0000 0.0000 0.0000 40.7596 0.0000
# 6 0.0000 0.0000 0.0000 0.0000 0.0000 39.0818
#
#
#
# Elastic Compliance Matrix: (Units=1/GPa)
#
#
# Indices 1 2 3 4 5 6 
#
# 1 0.025126 -0.006529 -0.005934 0.000000 0.000000 0.000000
# 2 -0.006529 0.012493 0.000620 0.000000 0.000000 0.000000
# 3 -0.005934 0.000620 0.016948 0.000000 0.000000 0.000000
# 4 0.000000 0.000000 0.000000 0.025429 0.000000 0.000000
# 5 0.000000 0.000000 0.000000 0.000000 0.024534 0.000000
# 6 0.000000 0.000000 0.000000 0.000000 0.000000 0.025587
#
#
# Mechanical properties :
#
#
# Convention : Reuss Voigt Hill
#
# Bulk Modulus (GPa) = 32.38238 33.72751 33.05495
# Shear Modulus (GPa) = 30.46970 34.52611 32.49791
#
# Velocity S-wave (km/s) = 3.84600 4.09401 3.97194
# Velocity P-wave (km/s) = 5.95336 6.22263 6.08949
#
# Compressibility (1/GPa) = 0.03088099
#
# Stress axis : x y z
#
# Youngs Moduli (GPa) = 39.79943 80.04250 59.00462
#
# Poissons Ratio (x) = 0.52258 0.35013
# Poissons Ratio (y) = 0.25984 -0.03657
# Poissons Ratio (z) = 0.23617 -0.04960
#
# Static dielectric constant tensor:
#      x y z
#    x 3.756680 0.000000 0.000000 
#    y 0.000000 3.672800 0.000000 
#    z 0.000000 0.000000 3.752840 
# 
# 
# High freq. dielectric constant tensor:
#      x y z
#    x 1.817010 0.000000 0.000000 
#    y 0.000000 1.815730 0.000000 
#    z 0.000000 0.000000 1.817190 
# 
# From -- ./inp_files/7870.got.cif
#   From: 2010.03.12/outbox.cif.g09.slc.cpg/sg33_4_cif.got.tgz:7870.got - 2010.04.14 01:49:19.
