data_PCOD8171699
_publ_section_title
;
Structure prediction by ZEFSAII (Michael W. Deem and Ramdas Pophale) SiO2 
 PCOD8171699
Probable space group: P N A 21
;
_chemical_formula_sum "Si O2"
_cell_formula_units_Z 24
_cell_length_a 11.597787
_cell_length_b 7.652719
_cell_length_c 11.487008
_cell_angle_alpha 90.000000
_cell_angle_beta 90.000000
_cell_angle_gamma 90.000000
_cell_volume 1019.524857
_symmetry_space_group_name_H-M "P N A 21"
_symmetry_group_IT_number 33
_symmetry_cell_setting 'orthorhombic'
loop_
_space_group_symop_operation_xyz
x,y,z
-x,-y,1/2+z
1/2-x,1/2+y,1/2+z
1/2+x,1/2-y,z
loop_
_atom_site_type_symbol
_atom_site_label
_atom_site_fract_x
_atom_site_fract_y
_atom_site_fract_z
Si Si1 0.332029 0.627295 0.412710
Si Si2 0.285207 0.437821 0.020257
Si Si3 0.662969 0.032513 0.237070
Si Si4 0.795842 0.934739 0.759706
Si Si5 0.928320 0.636478 0.218137
Si Si6 0.519242 0.554761 0.089483
O O1 0.279709 0.751955 0.512326
O O2 0.220767 0.564952 0.343768
O O3 0.417712 0.732269 0.327670
O O4 0.398036 0.467388 0.476652
O O5 0.211305 0.549089 0.115352
O O6 0.414590 0.417397 0.071289
O O7 0.288257 0.534753 0.897338
O O8 0.704755 0.230550 0.238702
O O9 0.526426 0.006386 0.246446
O O10 0.913491 0.015433 0.709080
O O11 0.688754 0.029615 0.695301
O O12 0.964949 0.750143 0.103553
#
# Coordination Sequence:
#
# PCOD8171699 Si02
#       6
#     4   4   4   4   4   4
#     4  11  24  48  74 111 149 190 250 311 372 445
#     4  11  26  48  75 107 150 193 244 308 374 437
#     4  12  26  48  75 107 148 196 249 304 375 442
#     4  11  28  48  73 113 146 197 254 301 379 446
#     4  11  26  48  73 105 153 194 247 309 368 440
#     4  12  24  46  76 105 150 194 244 309 368 438
#
# _framework density 23.540378
#
# number of rings (size 3 to 8) (size 9 to 14) (size 15 to 20)
#    0.000    0.667    3.333    4.000    4.667    0.000 
#    9.000    0.000    0.000    0.000    0.000    0.000 
#    0.000    0.000    0.000    0.000    0.000    0.000 
#
# Total GULP energy -297576.022822 kJ/mol
# GULP energy per Si atom -12399.000951 kJ/mol
# Density = 2.348680 g / cm^3
# Si number density = 23.540378 Si / 1000 Ang^3
#
#
#
# Elastic Constant Matrix: (Units=GPa)
#
#
# Indices 1 2 3 4 5 6 
#
# 1 161.7481 45.3633 48.6708 0.0000 0.0000 0.0000
# 2 45.3633 91.9369 27.7964 0.0000 0.0000 0.0000
# 3 48.6708 27.7964 81.8681 0.0000 0.0000 0.0000
# 4 0.0000 0.0000 0.0000 31.3446 0.0000 0.0000
# 5 0.0000 0.0000 0.0000 0.0000 32.2127 0.0000
# 6 0.0000 0.0000 0.0000 0.0000 0.0000 25.0752
#
#
#
# Elastic Compliance Matrix: (Units=1/GPa)
#
#
# Indices 1 2 3 4 5 6 
#
# 1 0.008148 -0.002848 -0.003877 0.000000 0.000000 0.000000
# 2 -0.002848 0.013117 -0.002760 0.000000 0.000000 0.000000
# 3 -0.003877 -0.002760 0.015457 0.000000 0.000000 0.000000
# 4 0.000000 0.000000 0.000000 0.031903 0.000000 0.000000
# 5 0.000000 0.000000 0.000000 0.000000 0.031044 0.000000
# 6 0.000000 0.000000 0.000000 0.000000 0.000000 0.039880
#
#
# Mechanical properties :
#
#
# Convention : Reuss Voigt Hill
#
# Bulk Modulus (GPa) = 56.33533 64.35712 60.34623
# Shear Modulus (GPa) = 30.40694 31.97468 31.19081
#
# Velocity S-wave (km/s) = 3.59791 3.68950 3.64399
# Velocity P-wave (km/s) = 6.42209 6.74894 6.58755
#
# Compressibility (1/GPa) = 0.01775085
#
# Stress axis : x y z
#
# Youngs Moduli (GPa) = 122.73261 76.23750 64.69650
#
# Poissons Ratio (x) = 0.21713 0.25082
# Poissons Ratio (y) = 0.34956 0.17858
# Poissons Ratio (z) = 0.47582 0.21044
#
# Static dielectric constant tensor:
#      x y z
#    x 4.373490 0.000000 0.000000 
#    y 0.000000 4.189780 0.000000 
#    z 0.000000 0.000000 4.396700 
# 
# 
# High freq. dielectric constant tensor:
#      x y z
#    x 1.947440 0.000000 0.000000 
#    y 0.000000 1.915910 0.000000 
#    z 0.000000 0.000000 1.942150 
# 
# From -- ./inp_files/6288.got.cif
#   From: 2010.03.12/outbox.cif.g09.slc.cpg/sg33_4_cif.got.tgz:6288.got - 2010.04.14 01:49:19.
