data_PCOD8171549
_publ_section_title
;
Structure prediction by ZEFSAII (Michael W. Deem and Ramdas Pophale) SiO2 
 PCOD8171549
Probable space group: P N A 21
;
_chemical_formula_sum "Si O2"
_cell_formula_units_Z 32
_cell_length_a 10.626101
_cell_length_b 11.488512
_cell_length_c 10.683538
_cell_angle_alpha 90.000000
_cell_angle_beta 90.000000
_cell_angle_gamma 90.000000
_cell_volume 1304.225901
_symmetry_space_group_name_H-M "P N A 21"
_symmetry_group_IT_number 33
_symmetry_cell_setting 'orthorhombic'
loop_
_space_group_symop_operation_xyz
x,y,z
-x,-y,1/2+z
1/2-x,1/2+y,1/2+z
1/2+x,1/2-y,z
loop_
_atom_site_type_symbol
_atom_site_label
_atom_site_fract_x
_atom_site_fract_y
_atom_site_fract_z
Si Si1 0.050854 0.318083 0.673390
Si Si2 0.366142 0.003800 0.008304
Si Si3 0.250163 0.825814 0.356594
Si Si4 0.811229 0.418296 0.760453
Si Si5 0.414327 0.573434 0.500994
Si Si6 0.276838 0.357624 0.149019
Si Si7 0.009169 0.289156 0.123678
Si Si8 0.492731 0.429958 0.732458
O O1 0.120091 0.370506 0.552246
O O2 0.117169 0.369848 0.799636
O O3 0.906179 0.359666 0.663121
O O4 0.068651 0.179259 0.672237
O O5 0.466757 0.083882 0.080566
O O6 0.390138 0.004555 0.859872
O O7 0.227545 0.049221 0.039983
O O8 0.253330 0.683844 0.343807
O O9 0.225936 0.862243 0.498415
O O10 0.144371 0.882185 0.268441
O O11 0.709977 0.506357 0.695097
O O12 0.451701 0.711204 0.501235
O O13 0.493497 0.525056 0.621042
O O14 0.445413 0.521207 0.363367
O O15 0.393778 0.276979 0.196746
O O16 0.141598 0.306747 0.199369
#
# Coordination Sequence:
#
# PCOD8171549 Si02
#       8
#     4   4   4   4   4   4   4   4
#     4  11  24  43  70  98 144 181 239 289 360 423
#     4  12  23  45  68 104 142 178 235 302 351 422
#     4  11  22  42  70 102 136 186 245 288 358 435
#     4  11  24  41  72 103 139 190 231 294 364 431
#     4  12  25  46  73 102 146 185 243 292 364 422
#     4  12  24  42  73 104 139 188 240 294 353 437
#     4  12  23  43  68 103 140 185 240 287 352 433
#     4  11  25  44  70 104 138 193 235 298 354 435
#
# _framework density 24.535625
#
# number of rings (size 3 to 8) (size 9 to 14) (size 15 to 20)
#    0.000    0.500    6.250    3.000    3.500    0.000 
#    2.250    0.000    2.750    0.000    0.000    0.000 
#    0.000    0.000    0.000    0.000    0.000    0.000 
#
# Total GULP energy -396508.350750 kJ/mol
# GULP energy per Si atom -12390.885961 kJ/mol
# Density = 2.447978 g / cm^3
# Si number density = 24.535625 Si / 1000 Ang^3
#
#
#
# Elastic Constant Matrix: (Units=GPa)
#
#
# Indices 1 2 3 4 5 6 
#
# 1 102.3885 20.7116 7.1621 0.0000 0.0000 0.0000
# 2 20.7116 107.4828 54.8221 0.0000 0.0000 0.0000
# 3 7.1621 54.8221 94.2219 0.0000 0.0000 0.0000
# 4 0.0000 0.0000 0.0000 44.6701 0.0000 0.0000
# 5 0.0000 0.0000 0.0000 0.0000 22.9646 0.0000
# 6 0.0000 0.0000 0.0000 0.0000 0.0000 33.2928
#
#
#
# Elastic Compliance Matrix: (Units=1/GPa)
#
#
# Indices 1 2 3 4 5 6 
#
# 1 0.010181 -0.002228 0.000523 0.000000 0.000000 0.000000
# 2 -0.002228 0.013718 -0.007812 0.000000 0.000000 0.000000
# 3 0.000523 -0.007812 0.015119 0.000000 0.000000 0.000000
# 4 0.000000 0.000000 0.000000 0.022386 0.000000 0.000000
# 5 0.000000 0.000000 0.000000 0.000000 0.043545 0.000000
# 6 0.000000 0.000000 0.000000 0.000000 0.000000 0.030036
#
#
# Mechanical properties :
#
#
# Convention : Reuss Voigt Hill
#
# Bulk Modulus (GPa) = 50.04531 52.16497 51.10514
# Shear Modulus (GPa) = 31.11727 34.94533 33.03130
#
# Velocity S-wave (km/s) = 3.56511 3.77804 3.67312
# Velocity P-wave (km/s) = 6.11457 6.35126 6.23404
#
# Compressibility (1/GPa) = 0.01998189
#
# Stress axis : x y z
#
# Youngs Moduli (GPa) = 98.22273 72.89749 66.14199
#
# Poissons Ratio (x) = 0.16245 -0.03457
# Poissons Ratio (y) = 0.21888 0.51672
# Poissons Ratio (z) = -0.05134 0.56949
#
# Static dielectric constant tensor:
#      x y z
#    x 5.051480 0.000000 0.000000 
#    y 0.000000 4.491460 0.000000 
#    z 0.000000 0.000000 4.108360 
# 
# 
# High freq. dielectric constant tensor:
#      x y z
#    x 2.018530 0.000000 0.000000 
#    y 0.000000 1.967620 0.000000 
#    z 0.000000 0.000000 1.937990 
# 
# From -- ./inp_files/6455.got.cif
#   From: 2010.03.12/outbox.cif.g09.slc.cpg/sg33_4_cif.got.tgz:6455.got - 2010.04.14 01:49:19.
