data_PCOD8171850
_publ_section_title
;
Structure prediction by ZEFSAII (Michael W. Deem and Ramdas Pophale) SiO2 
 PCOD8171850
Probable space group: P N N 2
;
_chemical_formula_sum "Si O2"
_cell_formula_units_Z 24
_cell_length_a 7.764727
_cell_length_b 9.945440
_cell_length_c 15.362191
_cell_angle_alpha 90.000000
_cell_angle_beta 90.000000
_cell_angle_gamma 90.000000
_cell_volume 1186.324100
_symmetry_space_group_name_H-M "P N N 2"
_symmetry_group_IT_number 34
_symmetry_cell_setting 'orthorhombic'
loop_
_space_group_symop_operation_xyz
x,y,z
-x,-y,z
1/2-x,1/2+y,1/2+z
1/2+x,1/2-y,1/2+z
loop_
_atom_site_type_symbol
_atom_site_label
_atom_site_fract_x
_atom_site_fract_y
_atom_site_fract_z
Si Si1 0.279646 0.391246 0.846460
Si Si2 0.870607 0.821176 0.278834
Si Si3 0.136983 0.389981 0.030838
Si Si4 0.132609 0.880599 0.694355
Si Si5 0.035280 0.861103 0.098558
Si Si6 0.594485 0.138970 0.179326
O O1 0.446391 0.298169 0.825418
O O2 0.287182 0.551130 0.826772
O O3 0.127041 0.340332 0.783306
O O4 0.259083 0.369312 0.948465
O O5 0.748613 0.686068 0.273779
O O6 0.906661 0.867947 0.180766
O O7 0.240886 0.433491 0.117900
O O8 0.000000 0.500000 0.005932
O O9 0.022010 0.257948 0.037546
O O10 0.026853 0.760444 0.649869
O O11 0.000000 0.000000 0.725246
O O12 0.232864 0.845705 0.124570
O O13 0.000000 0.000000 0.047177
O O14 0.500000 0.000000 0.157900
#
# Coordination Sequence:
#
# PCOD8171850 Si02
#       6
#     4   4   4   4   4   4
#     4  10  19  37  66  91 113 162 225 266 295 369
#     4   9  18  37  64  88 117 165 218 251 299 378
#     4  11  24  38  58  95 133 161 199 271 334 362
#     4  11  23  37  58  99 131 163 201 260 325 385
#     4  10  18  38  61  88 124 166 204 254 303 376
#     4  11  18  35  66  91 113 168 228 243 288 391
#
# _framework density 20.230557999999998
#
# number of rings (size 3 to 8) (size 9 to 14) (size 15 to 20)
#    0.000    1.667    5.000    2.500    2.333    0.000 
#    0.000    0.833    0.000    4.000    0.000    0.000 
#    0.000    0.000    0.000    0.000    0.000    0.000 
#
# Total GULP energy -297346.858944 kJ/mol
# GULP energy per Si atom -12389.452456 kJ/mol
# Density = 2.018451 g / cm^3
# Si number density = 20.230558 Si / 1000 Ang^3
#
#
#
# Elastic Constant Matrix: (Units=GPa)
#
#
# Indices 1 2 3 4 5 6 
#
# 1 106.8502 52.0326 33.0018 0.0000 0.0000 0.0000
# 2 52.0326 124.9817 29.6041 0.0000 0.0000 0.0000
# 3 33.0018 29.6041 77.4286 0.0000 0.0000 0.0000
# 4 0.0000 0.0000 0.0000 -12.8455 0.0000 0.0000
# 5 0.0000 0.0000 0.0000 0.0000 14.1324 0.0000
# 6 0.0000 0.0000 0.0000 0.0000 0.0000 48.5489
#
#
#
# Elastic Compliance Matrix: (Units=1/GPa)
#
#
# Indices 1 2 3 4 5 6 
#
# 1 0.012640 -0.004383 -0.003711 0.000000 0.000000 0.000000
# 2 -0.004383 0.010318 -0.002077 0.000000 0.000000 0.000000
# 3 -0.003711 -0.002077 0.015291 0.000000 0.000000 0.000000
# 4 0.000000 0.000000 0.000000 -0.077849 0.000000 0.000000
# 5 0.000000 0.000000 0.000000 0.000000 0.070759 0.000000
# 6 0.000000 0.000000 0.000000 0.000000 0.000000 0.020598
#
#
# Mechanical properties :
#
#
# Convention : Reuss Voigt Hill
#
# Bulk Modulus (GPa) = 55.84730 59.83748 57.84239
# Shear Modulus (GPa) = 64.04643 22.94198 43.49420
#
# Velocity S-wave (km/s) = 5.63267 3.37118 4.64176
# Velocity P-wave (km/s) = 8.36469 6.69292 7.57506
#
# Compressibility (1/GPa) = 0.01790597
#
# Stress axis : x y z
#
# Youngs Moduli (GPa) = 79.11635 96.91946 65.39757
#
# Poissons Ratio (x) = 0.42480 0.24272
# Poissons Ratio (y) = 0.34677 0.13582
# Poissons Ratio (z) = 0.29364 0.20128
#
# Static dielectric constant tensor:
#      x y z
#    x 4.069270 0.000000 0.000000 
#    y 0.000000 3.843840 0.000000 
#    z 0.000000 0.000000 3.282310 
# 
# 
# High freq. dielectric constant tensor:
#      x y z
#    x 1.814090 0.000000 0.000000 
#    y 0.000000 1.783620 0.000000 
#    z 0.000000 0.000000 1.745360 
# 
# From -- ./inp_files/6392.got.cif
#   From: 2010.03.12/outbox.cif.g09.slc.cpg/sg34_4_cif.got.tgz:6392.got - 2010.04.14 01:56:33.
