data_PCOD8171843
_publ_section_title
;
Structure prediction by ZEFSAII (Michael W. Deem and Ramdas Pophale) SiO2 
 PCOD8171843
Probable space group: P N N 2
;
_chemical_formula_sum "Si O2"
_cell_formula_units_Z 32
_cell_length_a 8.945613
_cell_length_b 16.366126
_cell_length_c 11.506559
_cell_angle_alpha 90.000000
_cell_angle_beta 90.000000
_cell_angle_gamma 90.000000
_cell_volume 1684.618110
_symmetry_space_group_name_H-M "P N N 2"
_symmetry_group_IT_number 34
_symmetry_cell_setting 'orthorhombic'
loop_
_space_group_symop_operation_xyz
x,y,z
-x,-y,z
1/2-x,1/2+y,1/2+z
1/2+x,1/2-y,1/2+z
loop_
_atom_site_type_symbol
_atom_site_label
_atom_site_fract_x
_atom_site_fract_y
_atom_site_fract_z
Si Si1 0.026853 0.831066 0.564770
Si Si2 0.645506 0.102510 0.237906
Si Si3 0.231615 0.202761 0.006063
Si Si4 0.695821 0.929518 0.176266
Si Si5 0.218990 0.215550 0.732152
Si Si6 0.715218 0.057789 0.500519
Si Si7 0.021478 0.675669 0.065663
Si Si8 0.264960 0.620376 0.917849
O O1 0.121506 0.749043 0.550405
O O2 0.133284 0.909985 0.560396
O O3 0.928900 0.829693 0.682692
O O4 0.915279 0.835338 0.456160
O O5 0.469892 0.095153 0.215957
O O6 0.708681 0.189047 0.195668
O O7 0.687977 0.095843 0.373107
O O8 0.718876 0.027347 0.165477
O O9 0.223331 0.198732 0.868178
O O10 0.247070 0.111240 0.057376
O O11 0.085981 0.246037 0.058860
O O12 0.794710 0.896634 0.283238
O O13 0.371030 0.180124 0.677528
O O14 0.575219 0.091627 0.575828
O O15 0.728434 0.960880 0.494164
O O16 0.122356 0.677384 0.947689
#
# Coordination Sequence:
#
# PCOD8171843 Si02
#       8
#     4   4   4   4   4   4   4   4
#     4  10  21  33  56  85 116 154 191 243 294 349
#     4  10  18  35  59  87 117 146 190 247 299 342
#     4  11  22  37  57  86 125 154 194 240 301 355
#     4  10  20  33  61  88 116 151 187 250 309 345
#     4  11  21  38  56  84 124 157 196 242 291 364
#     4  10  18  36  58  89 111 141 191 256 298 336
#     4  10  21  34  57  84 114 155 190 241 299 351
#     4  10  19  34  60  89 113 140 197 251 297 346
#
# _framework density 18.995401000000001
#
# number of rings (size 3 to 8) (size 9 to 14) (size 15 to 20)
#    0.000    1.750    5.000    0.750    1.750    0.000 
#    0.000    0.625   11.000    3.000    0.000    0.000 
#    0.000    0.000    0.000    0.000    0.000    0.000 
#
# Total GULP energy -396633.499366 kJ/mol
# GULP energy per Si atom -12394.796855 kJ/mol
# Density = 1.895217 g / cm^3
# Si number density = 18.995401 Si / 1000 Ang^3
#
#
#
# Elastic Constant Matrix: (Units=GPa)
#
#
# Indices 1 2 3 4 5 6 
#
# 1 112.5969 29.6783 39.5040 0.0000 0.0000 0.0000
# 2 29.6783 91.5923 39.3857 0.0000 0.0000 0.0000
# 3 39.5040 39.3857 101.6267 0.0000 0.0000 0.0000
# 4 0.0000 0.0000 0.0000 30.1366 0.0000 0.0000
# 5 0.0000 0.0000 0.0000 0.0000 16.0265 0.0000
# 6 0.0000 0.0000 0.0000 0.0000 0.0000 19.2391
#
#
#
# Elastic Compliance Matrix: (Units=1/GPa)
#
#
# Indices 1 2 3 4 5 6 
#
# 1 0.010578 -0.001991 -0.003340 0.000000 0.000000 0.000000
# 2 -0.001991 0.013476 -0.004449 0.000000 0.000000 0.000000
# 3 -0.003340 -0.004449 0.012862 0.000000 0.000000 0.000000
# 4 0.000000 0.000000 0.000000 0.033182 0.000000 0.000000
# 5 0.000000 0.000000 0.000000 0.000000 0.062397 0.000000
# 6 0.000000 0.000000 0.000000 0.000000 0.000000 0.051977
#
#
# Mechanical properties :
#
#
# Convention : Reuss Voigt Hill
#
# Bulk Modulus (GPa) = 57.61562 58.10575 57.86069
# Shear Modulus (GPa) = 23.83013 26.23031 25.03022
#
# Velocity S-wave (km/s) = 3.54576 3.72005 3.63395
# Velocity P-wave (km/s) = 6.86735 7.00767 6.93786
#
# Compressibility (1/GPa) = 0.01735640
#
# Stress axis : x y z
#
# Youngs Moduli (GPa) = 94.53629 74.20518 77.74606
#
# Poissons Ratio (x) = 0.14776 0.25968
# Poissons Ratio (y) = 0.18824 0.34587
# Poissons Ratio (z) = 0.31576 0.33012
#
# Static dielectric constant tensor:
#      x y z
#    x 3.632750 0.000000 0.000000 
#    y 0.000000 3.607520 0.000000 
#    z 0.000000 0.000000 3.226040 
# 
# 
# High freq. dielectric constant tensor:
#      x y z
#    x 1.750620 0.000000 0.000000 
#    y 0.000000 1.733260 0.000000 
#    z 0.000000 0.000000 1.707950 
# 
# From -- ./inp_files/5157.got.cif
#   From: 2010.03.12/outbox.cif.g09.slc.cpg/sg34_3_cif.got.tgz:5157.got - 2010.04.14 01:56:33.
