data_PCOD8171953
_publ_section_title
;
Structure prediction by ZEFSAII (Michael W. Deem and Ramdas Pophale) SiO2 
 PCOD8171953
Probable space group: P N N 2
;
_chemical_formula_sum "Si O2"
_cell_formula_units_Z 32
_cell_length_a 5.010304
_cell_length_b 12.873056
_cell_length_c 23.963396
_cell_angle_alpha 90.000000
_cell_angle_beta 90.000000
_cell_angle_gamma 90.000000
_cell_volume 1545.589293
_symmetry_space_group_name_H-M "P N N 2"
_symmetry_group_IT_number 34
_symmetry_cell_setting 'orthorhombic'
loop_
_space_group_symop_operation_xyz
x,y,z
-x,-y,z
1/2-x,1/2+y,1/2+z
1/2+x,1/2-y,1/2+z
loop_
_atom_site_type_symbol
_atom_site_label
_atom_site_fract_x
_atom_site_fract_y
_atom_site_fract_z
Si Si1 0.743823 0.932193 0.420340
Si Si2 0.940512 0.121391 0.129196
Si Si3 0.455856 0.622229 0.505378
Si Si4 0.565936 0.816106 0.195385
Si Si5 0.812219 0.902612 0.297644
Si Si6 0.525166 0.385221 0.260594
Si Si7 0.063420 0.286538 0.448838
Si Si8 0.478035 0.814312 0.821435
O O1 0.655826 0.901046 0.357216
O O2 0.847071 0.834626 0.456974
O O3 0.500000 0.000000 0.447705
O O4 0.000000 0.000000 0.411511
O O5 0.642786 0.138180 0.151530
O O6 0.143918 0.185784 0.167110
O O7 0.000000 0.000000 0.132055
O O8 0.964847 0.165309 0.066342
O O9 0.500000 0.500000 0.507025
O O10 0.660080 0.656376 0.458292
O O11 0.162788 0.669172 0.490869
O O12 0.583373 0.890144 0.250395
O O13 0.493592 0.697748 0.210726
O O14 0.001977 0.801378 0.295743
O O15 0.000000 0.000000 0.284998
O O16 0.500000 0.500000 0.234226
O O17 0.310162 0.362657 0.308897
O O18 0.807477 0.384991 0.291235
O O19 0.962080 0.310492 0.387070
#
# Coordination Sequence:
#
# PCOD8171953 Si02
#       8
#     4   4   4   4   4   4   4   4
#     4  10  21  36  57  87 123 158 192 235 290 352
#     4  11  24  40  60  87 115 143 185 242 297 346
#     4  11  24  41  61  86 115 152 197 247 302 350
#     4  11  22  38  60  85 114 153 192 228 284 346
#     4   9  20  35  55  87 124 154 186 228 283 353
#     4  11  23  39  57  82 119 155 191 234 277 334
#     4  11  22  39  62  86 118 157 198 242 291 353
#     4  10  22  36  56  88 118 152 193 230 279 342
#
# _framework density 20.704076000000001
#
# number of rings (size 3 to 8) (size 9 to 14) (size 15 to 20)
#    0.000    1.500    0.000    5.250    0.000   17.000 
#    0.000    0.000    0.000    7.500    0.000    0.000 
#    0.000    0.000    0.000    0.000    0.000    0.000 
#
# Total GULP energy -396696.162393 kJ/mol
# GULP energy per Si atom -12396.755075 kJ/mol
# Density = 2.065695 g / cm^3
# Si number density = 20.704076 Si / 1000 Ang^3
#
#
#
# Elastic Constant Matrix: (Units=GPa)
#
#
# Indices 1 2 3 4 5 6 
#
# 1 94.7527 25.6006 20.1227 0.0000 0.0000 0.0000
# 2 25.6006 118.0058 33.3839 0.0000 0.0000 0.0000
# 3 20.1227 33.3839 76.4898 0.0000 0.0000 0.0000
# 4 0.0000 0.0000 0.0000 24.9356 0.0000 0.0000
# 5 0.0000 0.0000 0.0000 0.0000 148.8729 0.0000
# 6 0.0000 0.0000 0.0000 0.0000 0.0000 36.2093
#
#
#
# Elastic Compliance Matrix: (Units=1/GPa)
#
#
# Indices 1 2 3 4 5 6 
#
# 1 0.011531 -0.001875 -0.002215 0.000000 0.000000 0.000000
# 2 -0.001875 0.009973 -0.003859 0.000000 0.000000 0.000000
# 3 -0.002215 -0.003859 0.015341 0.000000 0.000000 0.000000
# 4 0.000000 0.000000 0.000000 0.040103 0.000000 0.000000
# 5 0.000000 0.000000 0.000000 0.000000 0.006717 0.000000
# 6 0.000000 0.000000 0.000000 0.000000 0.000000 0.027617
#
#
# Mechanical properties :
#
#
# Convention : Reuss Voigt Hill
#
# Bulk Modulus (GPa) = 47.74295 49.71808 48.73051
# Shear Modulus (GPa) = 37.26819 56.01296 46.64058
#
# Velocity S-wave (km/s) = 4.24729 5.20700 4.75144
# Velocity P-wave (km/s) = 6.86749 7.75991 7.32730
#
# Compressibility (1/GPa) = 0.02094550
#
# Stress axis : x y z
#
# Youngs Moduli (GPa) = 86.72436 100.27375 65.18555
#
# Poissons Ratio (x) = 0.18800 0.14440
# Poissons Ratio (y) = 0.16259 0.25157
# Poissons Ratio (z) = 0.19211 0.38699
#
# Static dielectric constant tensor:
#      x y z
#    x 3.607450 0.000000 0.000000 
#    y 0.000000 3.865450 0.000000 
#    z 0.000000 0.000000 3.861550 
# 
# 
# High freq. dielectric constant tensor:
#      x y z
#    x 1.822680 0.000000 0.000000 
#    y 0.000000 1.810770 0.000000 
#    z 0.000000 0.000000 1.789510 
# 
# From -- ./inp_files/8353.got.cif
#   From: 2010.03.12/outbox.cif.g09.slc.cpg/sg34_5_cif.got.tgz:8353.got - 2010.04.14 01:56:33.
