data_PCOD8171010
_publ_section_title
;
Structure prediction by ZEFSAII (Michael W. Deem and Ramdas Pophale) SiO2 
 PCOD8171010
Probable space group: P N A 21
;
_chemical_formula_sum "Si O2"
_cell_formula_units_Z 28
_cell_length_a 12.037838
_cell_length_b 9.306787
_cell_length_c 11.026325
_cell_angle_alpha 90.000000
_cell_angle_beta 90.000000
_cell_angle_gamma 90.000000
_cell_volume 1235.318821
_symmetry_space_group_name_H-M "P N A 21"
_symmetry_group_IT_number 33
_symmetry_cell_setting 'orthorhombic'
loop_
_space_group_symop_operation_xyz
x,y,z
-x,-y,1/2+z
1/2-x,1/2+y,1/2+z
1/2+x,1/2-y,z
loop_
_atom_site_type_symbol
_atom_site_label
_atom_site_fract_x
_atom_site_fract_y
_atom_site_fract_z
Si Si1 0.699319 0.238822 0.371590
Si Si2 0.418689 0.536012 0.012546
Si Si3 0.441121 0.729130 0.415088
Si Si4 0.113865 0.540000 0.424613
Si Si5 0.141820 0.845486 0.076750
Si Si6 0.219186 0.119774 0.724091
Si Si7 0.274428 0.654286 0.609514
O O1 0.655504 0.396199 0.405996
O O2 0.807411 0.185158 0.444396
O O3 0.733345 0.249424 0.230317
O O4 0.597971 0.132323 0.418603
O O5 0.509411 0.652757 0.058742
O O6 0.331868 0.510728 0.123794
O O7 0.469925 0.389800 0.959918
O O8 0.501359 0.880569 0.389340
O O9 0.386964 0.695127 0.285914
O O10 0.346245 0.750201 0.515813
O O11 0.214580 0.537287 0.326839
O O12 0.154512 0.614308 0.550418
O O13 0.190595 0.730523 0.170170
O O14 0.167082 0.002280 0.131521
#
# Coordination Sequence:
#
# PCOD8171010 Si02
#       7
#     4   4   4   4   4   4   4
#     4  10  22  40  59  93 121 160 201 257 317 368
#     4  10  22  38  66  87 116 164 216 242 312 380
#     4  10  22  39  63  92 121 162 211 255 309 384
#     4  10  22  40  58  90 130 150 205 260 307 377
#     4   9  20  42  61  87 123 158 210 261 296 386
#     4  10  21  39  63  88 121 165 203 256 320 362
#     4   9  21  40  62  87 124 163 206 253 317 371
#
# _framework density 22.666212999999999
#
# number of rings (size 3 to 8) (size 9 to 14) (size 15 to 20)
#    0.000    2.286    0.000    1.714    8.000    1.143 
#   12.857    0.000    0.000    0.000    0.000    0.000 
#    0.000    0.000    0.000    0.000    0.000    0.000 
#
# Total GULP energy -346873.643687 kJ/mol
# GULP energy per Si atom -12388.344417 kJ/mol
# Density = 2.261462 g / cm^3
# Si number density = 22.666213 Si / 1000 Ang^3
#
#
#
# Elastic Constant Matrix: (Units=GPa)
#
#
# Indices 1 2 3 4 5 6 
#
# 1 29.0435 0.1607 11.8400 0.0000 0.0000 0.0000
# 2 0.1607 41.7114 22.9846 0.0000 0.0000 0.0000
# 3 11.8400 22.9846 112.7620 0.0000 0.0000 0.0000
# 4 0.0000 0.0000 0.0000 29.8411 0.0000 0.0000
# 5 0.0000 0.0000 0.0000 0.0000 18.6494 0.0000
# 6 0.0000 0.0000 0.0000 0.0000 0.0000 29.5698
#
#
#
# Elastic Compliance Matrix: (Units=1/GPa)
#
#
# Indices 1 2 3 4 5 6 
#
# 1 0.036149 0.002199 -0.004244 0.000000 0.000000 0.000000
# 2 0.002199 0.027142 -0.005763 0.000000 0.000000 0.000000
# 3 -0.004244 -0.005763 0.010489 0.000000 0.000000 0.000000
# 4 0.000000 0.000000 0.000000 0.033511 0.000000 0.000000
# 5 0.000000 0.000000 0.000000 0.000000 0.053621 0.000000
# 6 0.000000 0.000000 0.000000 0.000000 0.000000 0.033818
#
#
# Mechanical properties :
#
#
# Convention : Reuss Voigt Hill
#
# Bulk Modulus (GPa) = 17.19295 28.16529 22.67912
# Shear Modulus (GPa) = 21.76440 25.51417 23.63928
#
# Velocity S-wave (km/s) = 3.10209 3.35871 3.23295
# Velocity P-wave (km/s) = 4.52022 5.24350 4.89524
#
# Compressibility (1/GPa) = 0.05816336
#
# Stress axis : x y z
#
# Youngs Moduli (GPa) = 27.66325 36.84383 95.34169
#
# Poissons Ratio (x) = -0.08103 0.40462
# Poissons Ratio (y) = -0.06084 0.54948
# Poissons Ratio (z) = 0.11740 0.21234
#
# Static dielectric constant tensor:
#      x y z
#    x 3.978680 0.000000 0.000000 
#    y 0.000000 3.897470 0.000000 
#    z 0.000000 0.000000 4.050300 
# 
# 
# High freq. dielectric constant tensor:
#      x y z
#    x 1.883900 0.000000 0.000000 
#    y 0.000000 1.887370 0.000000 
#    z 0.000000 0.000000 1.898430 
# 
# From -- ./inp_files/6356.got.cif
#   From: 2010.03.12/outbox.cif.g09.slc.cpg/sg33_4_cif.got.tgz:6356.got - 2010.04.14 01:49:19.
