data_PCOD8171281
_publ_section_title
;
Structure prediction by ZEFSAII (Michael W. Deem and Ramdas Pophale) SiO2 
 PCOD8171281
Probable space group: P N A 21
;
_chemical_formula_sum "Si O2"
_cell_formula_units_Z 28
_cell_length_a 10.639941
_cell_length_b 13.772038
_cell_length_c 8.427035
_cell_angle_alpha 90.000000
_cell_angle_beta 90.000000
_cell_angle_gamma 90.000000
_cell_volume 1234.844381
_symmetry_space_group_name_H-M "P N A 21"
_symmetry_group_IT_number 33
_symmetry_cell_setting 'orthorhombic'
loop_
_space_group_symop_operation_xyz
x,y,z
-x,-y,1/2+z
1/2-x,1/2+y,1/2+z
1/2+x,1/2-y,z
loop_
_atom_site_type_symbol
_atom_site_label
_atom_site_fract_x
_atom_site_fract_y
_atom_site_fract_z
Si Si1 0.862817 0.494845 0.118950
Si Si2 0.999428 0.707066 0.635844
Si Si3 0.693548 0.140150 0.898231
Si Si4 0.832100 0.218817 0.624712
Si Si5 0.610039 0.519311 0.977915
Si Si6 0.614677 0.588222 0.625789
Si Si7 0.932808 0.682264 0.981268
O O1 0.864007 0.563992 0.274010
O O2 0.725423 0.462217 0.058461
O O3 0.920456 0.564856 0.982754
O O4 0.934539 0.396639 0.147831
O O5 0.911885 0.709293 0.478758
O O6 0.095721 0.795972 0.637709
O O7 0.926413 0.719281 0.801507
O O8 0.802659 0.206920 0.813658
O O9 0.752140 0.075451 0.039113
O O10 0.899608 0.123723 0.557640
O O11 0.691446 0.234830 0.553591
O O12 0.936369 0.299111 0.579577
O O13 0.487503 0.457651 0.010511
O O14 0.622838 0.531405 0.789798
#
# Coordination Sequence:
#
# PCOD8171281 Si02
#       7
#     4   4   4   4   4   4   4
#     4  10  24  46  71  99 149 175 238 290 363 420
#     4  12  25  43  71 104 135 191 233 296 350 437
#     4  10  24  43  66 106 140 178 241 293 351 430
#     4  10  22  45  68 101 144 185 243 290 357 426
#     4  10  22  46  66 101 136 190 228 296 348 425
#     4  12  25  43  72  97 142 182 245 284 357 421
#     4  10  22  44  72  98 144 189 234 293 358 429
#
# _framework density 22.674924000000001
#
# number of rings (size 3 to 8) (size 9 to 14) (size 15 to 20)
#    0.000    1.714    1.429    4.286    6.000    0.000 
#    5.143    0.000    0.000    0.000    0.000    0.000 
#    0.000    0.000    0.000    0.000    0.000    0.000 
#
# Total GULP energy -346965.517129 kJ/mol
# GULP energy per Si atom -12391.625612 kJ/mol
# Density = 2.262331 g / cm^3
# Si number density = 22.674924 Si / 1000 Ang^3
#
#
#
# Elastic Constant Matrix: (Units=GPa)
#
#
# Indices 1 2 3 4 5 6 
#
# 1 85.6097 15.0065 7.7160 0.0000 0.0000 0.0000
# 2 15.0065 43.2707 8.1383 0.0000 0.0000 0.0000
# 3 7.7160 8.1383 115.7489 0.0000 0.0000 0.0000
# 4 0.0000 0.0000 0.0000 26.9693 0.0000 0.0000
# 5 0.0000 0.0000 0.0000 0.0000 33.0025 0.0000
# 6 0.0000 0.0000 0.0000 0.0000 0.0000 16.9400
#
#
#
# Elastic Compliance Matrix: (Units=1/GPa)
#
#
# Indices 1 2 3 4 5 6 
#
# 1 0.012469 -0.004224 -0.000534 0.000000 0.000000 0.000000
# 2 -0.004224 0.024851 -0.001466 0.000000 0.000000 0.000000
# 3 -0.000534 -0.001466 0.008778 0.000000 0.000000 0.000000
# 4 0.000000 0.000000 0.000000 0.037079 0.000000 0.000000
# 5 0.000000 0.000000 0.000000 0.000000 0.030301 0.000000
# 6 0.000000 0.000000 0.000000 0.000000 0.000000 0.059032
#
#
# Mechanical properties :
#
#
# Convention : Reuss Voigt Hill
#
# Bulk Modulus (GPa) = 29.71720 34.03902 31.87811
# Shear Modulus (GPa) = 25.48746 29.63359 27.56052
#
# Velocity S-wave (km/s) = 3.35630 3.61901 3.49013
# Velocity P-wave (km/s) = 5.30603 5.70152 5.50732
#
# Compressibility (1/GPa) = 0.03365055
#
# Stress axis : x y z
#
# Youngs Moduli (GPa) = 80.19575 40.24003 113.92044
#
# Poissons Ratio (x) = 0.16997 0.06086
# Poissons Ratio (y) = 0.33875 0.16697
# Poissons Ratio (z) = 0.04284 0.05898
#
# Static dielectric constant tensor:
#      x y z
#    x 4.215970 0.000000 0.000000 
#    y 0.000000 3.884360 0.000000 
#    z 0.000000 0.000000 4.435980 
# 
# 
# High freq. dielectric constant tensor:
#      x y z
#    x 1.897320 0.000000 0.000000 
#    y 0.000000 1.872600 0.000000 
#    z 0.000000 0.000000 1.913110 
# 
# From -- ./inp_files/3899.got.cif
#   From: 2010.03.12/outbox.cif.g09.slc.cpg/sg33_2_cif.got.tgz:3899.got - 2010.04.14 01:49:19.
