data_PCOD8171177
_publ_section_title
;
Structure prediction by ZEFSAII (Michael W. Deem and Ramdas Pophale) SiO2 
 PCOD8171177
Probable space group: P N A 21
;
_chemical_formula_sum "Si O2"
_cell_formula_units_Z 32
_cell_length_a 13.120154
_cell_length_b 5.287635
_cell_length_c 21.358301
_cell_angle_alpha 90.000000
_cell_angle_beta 90.000000
_cell_angle_gamma 90.000000
_cell_volume 1481.723279
_symmetry_space_group_name_H-M "P N A 21"
_symmetry_group_IT_number 33
_symmetry_cell_setting 'orthorhombic'
loop_
_space_group_symop_operation_xyz
x,y,z
-x,-y,1/2+z
1/2-x,1/2+y,1/2+z
1/2+x,1/2-y,z
loop_
_atom_site_type_symbol
_atom_site_label
_atom_site_fract_x
_atom_site_fract_y
_atom_site_fract_z
Si Si1 0.428641 0.295323 0.831990
Si Si2 0.290656 0.916419 0.896571
Si Si3 0.936496 0.953248 0.957776
Si Si4 0.653514 0.571932 0.009276
Si Si5 0.646550 0.647146 0.681907
Si Si6 0.413747 0.857652 0.236546
Si Si7 0.230014 0.109465 0.281153
Si Si8 0.761495 0.087963 0.047253
O O1 0.478568 0.406039 0.895491
O O2 0.504499 0.120116 0.792687
O O3 0.387548 0.515750 0.784668
O O4 0.328861 0.144310 0.853736
O O5 0.386395 0.812261 0.937362
O O6 0.242662 0.709781 0.850209
O O7 0.198126 0.990378 0.941127
O O8 0.847652 0.114902 0.992975
O O9 0.031117 0.904713 0.004423
O O10 0.685288 0.327466 0.050021
O O11 0.697631 0.829055 0.039330
O O12 0.576912 0.410073 0.702084
O O13 0.747111 0.682132 0.726641
O O14 0.680103 0.586372 0.612389
O O15 0.576320 0.901686 0.688785
O O16 0.303078 0.869303 0.268941
#
# Coordination Sequence:
#
# PCOD8171177 Si02
#       8
#     4   4   4   4   4   4   4   4
#     4  11  22  39  65  98 141 164 221 277 334 405
#     4  10  22  40  63  99 140 165 216 283 329 404
#     4  10  25  39  66 102 136 176 223 274 343 395
#     4  11  25  41  71  96 128 182 221 273 339 391
#     4  10  23  46  67  91 135 175 224 276 323 393
#     4  10  24  40  67  95 126 177 217 268 337 390
#     4   9  23  38  65  97 128 174 211 269 331 392
#     4  11  24  49  66  96 138 175 231 280 318 400
#
# _framework density 21.596475999999999
#
# number of rings (size 3 to 8) (size 9 to 14) (size 15 to 20)
#    0.750    1.000    1.250    1.500   10.500    0.000 
#    2.250    0.000    0.000    0.000    0.000    0.000 
#    0.000    0.000    0.000    0.000    0.000    0.000 
#
# Total GULP energy -396492.608595 kJ/mol
# GULP energy per Si atom -12390.394019 kJ/mol
# Density = 2.154732 g / cm^3
# Si number density = 21.596476 Si / 1000 Ang^3
#
#
#
# Elastic Constant Matrix: (Units=GPa)
#
#
# Indices 1 2 3 4 5 6 
#
# 1 52.9248 14.7530 14.8300 0.0000 0.0000 0.0000
# 2 14.7530 118.2611 15.4244 0.0000 0.0000 0.0000
# 3 14.8300 15.4244 68.4104 0.0000 0.0000 0.0000
# 4 0.0000 0.0000 0.0000 32.6240 0.0000 0.0000
# 5 0.0000 0.0000 0.0000 0.0000 25.7595 0.0000
# 6 0.0000 0.0000 0.0000 0.0000 0.0000 20.6468
#
#
#
# Elastic Compliance Matrix: (Units=1/GPa)
#
#
# Indices 1 2 3 4 5 6 
#
# 1 0.020586 -0.002046 -0.004001 0.000000 0.000000 0.000000
# 2 -0.002046 0.008915 -0.001567 0.000000 0.000000 0.000000
# 3 -0.004001 -0.001567 0.015838 0.000000 0.000000 0.000000
# 4 0.000000 0.000000 0.000000 0.030652 0.000000 0.000000
# 5 0.000000 0.000000 0.000000 0.000000 0.038821 0.000000
# 6 0.000000 0.000000 0.000000 0.000000 0.000000 0.048434
#
#
# Mechanical properties :
#
#
# Convention : Reuss Voigt Hill
#
# Bulk Modulus (GPa) = 33.20960 36.62345 34.91653
# Shear Modulus (GPa) = 26.52349 28.77867 27.65108
#
# Velocity S-wave (km/s) = 3.50828 3.65439 3.58208
# Velocity P-wave (km/s) = 5.64105 5.89923 5.77159
#
# Compressibility (1/GPa) = 0.03011177
#
# Stress axis : x y z
#
# Youngs Moduli (GPa) = 48.57587 112.16477 63.13820
#
# Poissons Ratio (x) = 0.22952 0.25264
# Poissons Ratio (y) = 0.09940 0.09891
# Poissons Ratio (z) = 0.19437 0.17571
#
# Static dielectric constant tensor:
#      x y z
#    x 3.557280 0.000000 0.000000 
#    y 0.000000 3.937380 0.000000 
#    z 0.000000 0.000000 3.767140 
# 
# 
# High freq. dielectric constant tensor:
#      x y z
#    x 1.826140 0.000000 0.000000 
#    y 0.000000 1.854400 0.000000 
#    z 0.000000 0.000000 1.840080 
# 
# From -- ./inp_files/9295.got.cif
#   From: 2010.03.12/outbox.cif.g09.slc.cpg/sg33_5_cif.got.tgz:9295.got - 2010.04.14 01:49:19.
