data_PCOD8171742
_publ_section_title
;
Structure prediction by ZEFSAII (Michael W. Deem and Ramdas Pophale) SiO2 
 PCOD8171742
Probable space group: P N A 21
;
_chemical_formula_sum "Si O2"
_cell_formula_units_Z 24
_cell_length_a 9.010193
_cell_length_b 8.525061
_cell_length_c 11.119634
_cell_angle_alpha 90.000000
_cell_angle_beta 90.000000
_cell_angle_gamma 90.000000
_cell_volume 854.126274
_symmetry_space_group_name_H-M "P N A 21"
_symmetry_group_IT_number 33
_symmetry_cell_setting 'orthorhombic'
loop_
_space_group_symop_operation_xyz
x,y,z
-x,-y,1/2+z
1/2-x,1/2+y,1/2+z
1/2+x,1/2-y,z
loop_
_atom_site_type_symbol
_atom_site_label
_atom_site_fract_x
_atom_site_fract_y
_atom_site_fract_z
Si Si1 0.893529 0.281703 0.432150
Si Si2 0.280027 0.429589 0.856681
Si Si3 0.249704 0.154885 0.678791
Si Si4 0.801339 0.299705 0.073366
Si Si5 0.834914 0.549422 0.885516
Si Si6 0.997127 0.929006 0.686775
O O1 0.838249 0.432152 0.358128
O O2 0.852985 0.291268 0.571392
O O3 0.835197 0.112659 0.386401
O O4 0.070159 0.290702 0.405356
O O5 0.214712 0.305901 0.760367
O O6 0.438113 0.504219 0.814884
O O7 0.287009 0.352924 0.988375
O O8 0.348655 0.032793 0.756724
O O9 0.095652 0.073784 0.633152
O O10 0.645909 0.378439 0.108971
O O11 0.899707 0.232030 0.186295
O O12 0.882245 0.432689 0.993636
#
# Coordination Sequence:
#
# PCOD8171742 Si02
#       6
#     4   4   4   4   4   4
#     4  12  28  51  80 119 165 222 280 354 424 520
#     4  11  28  48  85 118 170 219 286 355 431 518
#     4  11  29  50  82 121 164 220 285 350 435 518
#     4  11  27  53  83 121 171 225 283 362 434 520
#     4  11  30  49  81 119 170 216 286 349 431 521
#     4  12  28  51  87 122 166 230 288 352 443 521
#
# _framework density 28.098891999999999
#
# number of rings (size 3 to 8) (size 9 to 14) (size 15 to 20)
#    0.000    0.667    1.667    2.000   18.667    1.333 
#    0.000    0.000    0.000    0.000    0.000    0.000 
#    0.000    0.000    0.000    0.000    0.000    0.000 
#
# Total GULP energy -297423.904997 kJ/mol
# GULP energy per Si atom -12392.662708 kJ/mol
# Density = 2.803494 g / cm^3
# Si number density = 28.098892 Si / 1000 Ang^3
#
#
#
# Elastic Constant Matrix: (Units=GPa)
#
#
# Indices 1 2 3 4 5 6 
#
# 1 81.6100 2.8235 21.0966 0.0000 0.0000 0.0000
# 2 2.8235 97.1804 35.0400 0.0000 0.0000 0.0000
# 3 21.0966 35.0400 98.0938 0.0000 0.0000 0.0000
# 4 0.0000 0.0000 0.0000 60.6796 0.0000 0.0000
# 5 0.0000 0.0000 0.0000 0.0000 27.6244 0.0000
# 6 0.0000 0.0000 0.0000 0.0000 0.0000 57.8893
#
#
#
# Elastic Compliance Matrix: (Units=1/GPa)
#
#
# Indices 1 2 3 4 5 6 
#
# 1 0.013019 0.000725 -0.003059 0.000000 0.000000 0.000000
# 2 0.000725 0.011852 -0.004389 0.000000 0.000000 0.000000
# 3 -0.003059 -0.004389 0.012420 0.000000 0.000000 0.000000
# 4 0.000000 0.000000 0.000000 0.016480 0.000000 0.000000
# 5 0.000000 0.000000 0.000000 0.000000 0.036200 0.000000
# 6 0.000000 0.000000 0.000000 0.000000 0.000000 0.017274
#
#
# Mechanical properties :
#
#
# Convention : Reuss Voigt Hill
#
# Bulk Modulus (GPa) = 41.93965 43.86716 42.90341
# Shear Modulus (GPa) = 38.86813 43.76695 41.31754
#
# Velocity S-wave (km/s) = 3.72326 3.95093 3.83878
# Velocity P-wave (km/s) = 5.78288 6.03811 5.91187
#
# Compressibility (1/GPa) = 0.02384378
#
# Stress axis : x y z
#
# Youngs Moduli (GPa) = 76.81061 84.37568 80.51470
#
# Poissons Ratio (x) = -0.06114 0.24628
# Poissons Ratio (y) = -0.05566 0.35341
# Poissons Ratio (z) = 0.23495 0.37036
#
# Static dielectric constant tensor:
#      x y z
#    x 5.067620 0.000000 0.000000 
#    y 0.000000 5.474320 0.000000 
#    z 0.000000 0.000000 5.175180 
# 
# 
# High freq. dielectric constant tensor:
#      x y z
#    x 2.128340 0.000000 0.000000 
#    y 0.000000 2.162340 0.000000 
#    z 0.000000 0.000000 2.148690 
# 
# From -- ./inp_files/5754.got.cif
#   From: 2010.03.12/outbox.cif.g09.slc.cpg/sg33_3_cif.got.tgz:5754.got - 2010.04.14 01:49:19.
