data_PCOD8171276
_publ_section_title
;
Structure prediction by ZEFSAII (Michael W. Deem and Ramdas Pophale) SiO2 
 PCOD8171276
Probable space group: P N A 21
;
_chemical_formula_sum "Si O2"
_cell_formula_units_Z 32
_cell_length_a 17.161670
_cell_length_b 6.636066
_cell_length_c 11.734879
_cell_angle_alpha 90.000000
_cell_angle_beta 90.000000
_cell_angle_gamma 90.000000
_cell_volume 1336.438134
_symmetry_space_group_name_H-M "P N A 21"
_symmetry_group_IT_number 33
_symmetry_cell_setting 'orthorhombic'
loop_
_space_group_symop_operation_xyz
x,y,z
-x,-y,1/2+z
1/2-x,1/2+y,1/2+z
1/2+x,1/2-y,z
loop_
_atom_site_type_symbol
_atom_site_label
_atom_site_fract_x
_atom_site_fract_y
_atom_site_fract_z
Si Si1 0.101122 0.304404 0.593370
Si Si2 0.772919 0.350511 0.583225
Si Si3 0.977805 0.404642 0.945761
Si Si4 0.107240 0.572031 0.798980
Si Si5 0.760601 0.651391 0.401689
Si Si6 0.152104 0.940355 0.905431
Si Si7 0.615081 0.679281 0.265672
Si Si8 0.025287 0.041570 0.080792
O O1 0.187647 0.227108 0.618444
O O2 0.089523 0.431834 0.476619
O O3 0.072150 0.465646 0.688181
O O4 0.043745 0.116688 0.590766
O O5 0.770084 0.580778 0.534410
O O6 0.799885 0.216230 0.478878
O O7 0.834619 0.331729 0.685927
O O8 0.955003 0.290659 0.829442
O O9 0.057155 0.522090 0.913359
O O10 0.991017 0.264960 0.059190
O O11 0.192962 0.483725 0.813480
O O12 0.119640 0.817316 0.793151
O O13 0.670905 0.609430 0.368438
O O14 0.788978 0.879143 0.378762
O O15 0.075319 0.018078 0.966668
O O16 0.580798 0.490387 0.192302
#
# Coordination Sequence:
#
# PCOD8171276 Si02
#       8
#     4   4   4   4   4   4   4   4
#     4  12  24  46  69 107 148 188 250 310 375 461
#     4  10  24  44  71 102 143 186 244 312 366 452
#     4  12  25  44  72 105 148 199 245 312 381 453
#     4  11  23  42  71 101 146 190 241 312 373 446
#     4  11  22  46  72  98 143 190 241 314 376 440
#     4  10  22  44  70 102 139 190 247 300 375 452
#     4  11  24  46  71 107 148 190 250 310 377 458
#     4  11  24  42  72 104 145 191 250 304 369 462
#
# _framework density 23.944243
#
# number of rings (size 3 to 8) (size 9 to 14) (size 15 to 20)
#    0.000    1.000    5.000    1.500    0.000    2.000 
#    6.750    3.750    0.000    0.000    0.000    0.000 
#    0.000    0.000    0.000    0.000    0.000    0.000 
#
# Total GULP energy -396476.308928 kJ/mol
# GULP energy per Si atom -12389.884654 kJ/mol
# Density = 2.388975 g / cm^3
# Si number density = 23.944243 Si / 1000 Ang^3
#
#
#
# Elastic Constant Matrix: (Units=GPa)
#
#
# Indices 1 2 3 4 5 6 
#
# 1 101.1509 34.9568 17.9350 0.0000 0.0000 0.0000
# 2 34.9568 119.6983 34.1022 0.0000 0.0000 0.0000
# 3 17.9350 34.1022 71.4560 0.0000 0.0000 0.0000
# 4 0.0000 0.0000 0.0000 37.5026 0.0000 0.0000
# 5 0.0000 0.0000 0.0000 0.0000 43.3676 0.0000
# 6 0.0000 0.0000 0.0000 0.0000 0.0000 29.7333
#
#
#
# Elastic Compliance Matrix: (Units=1/GPa)
#
#
# Indices 1 2 3 4 5 6 
#
# 1 0.011122 -0.002839 -0.001437 0.000000 0.000000 0.000000
# 2 -0.002839 0.010394 -0.004248 0.000000 0.000000 0.000000
# 3 -0.001437 -0.004248 0.016382 0.000000 0.000000 0.000000
# 4 0.000000 0.000000 0.000000 0.026665 0.000000 0.000000
# 5 0.000000 0.000000 0.000000 0.000000 0.023059 0.000000
# 6 0.000000 0.000000 0.000000 0.000000 0.000000 0.033632
#
#
# Mechanical properties :
#
#
# Convention : Reuss Voigt Hill
#
# Bulk Modulus (GPa) = 47.95830 51.81035 49.88433
# Shear Modulus (GPa) = 34.42316 35.80811 35.11563
#
# Velocity S-wave (km/s) = 3.79573 3.87134 3.83372
# Velocity P-wave (km/s) = 6.26760 6.45507 6.36202
#
# Compressibility (1/GPa) = 0.02085145
#
# Stress axis : x y z
#
# Youngs Moduli (GPa) = 89.91172 96.21328 61.04076
#
# Poissons Ratio (x) = 0.27312 0.08770
# Poissons Ratio (y) = 0.25524 0.25929
# Poissons Ratio (z) = 0.12918 0.40869
#
# Static dielectric constant tensor:
#      x y z
#    x 4.364540 0.000000 0.000000 
#    y 0.000000 4.608770 0.000000 
#    z 0.000000 0.000000 4.328910 
# 
# 
# High freq. dielectric constant tensor:
#      x y z
#    x 1.962220 0.000000 0.000000 
#    y 0.000000 1.942050 0.000000 
#    z 0.000000 0.000000 1.941240 
# 
# From -- ./inp_files/7251.got.cif
#   From: 2010.03.12/outbox.cif.g09.slc.cpg/sg33_4_cif.got.tgz:7251.got - 2010.04.14 01:49:19.
