data_PCOD8171874
_publ_section_title
;
Structure prediction by ZEFSAII (Michael W. Deem and Ramdas Pophale) SiO2 
 PCOD8171874
Probable space group: P N N 2
;
_chemical_formula_sum "Si O2"
_cell_formula_units_Z 24
_cell_length_a 28.524562
_cell_length_b 8.640161
_cell_length_c 5.007938
_cell_angle_alpha 90.000000
_cell_angle_beta 90.000000
_cell_angle_gamma 90.000000
_cell_volume 1234.240415
_symmetry_space_group_name_H-M "P N N 2"
_symmetry_group_IT_number 34
_symmetry_cell_setting 'orthorhombic'
loop_
_space_group_symop_operation_xyz
x,y,z
-x,-y,z
1/2-x,1/2+y,1/2+z
1/2+x,1/2-y,1/2+z
loop_
_atom_site_type_symbol
_atom_site_label
_atom_site_fract_x
_atom_site_fract_y
_atom_site_fract_z
Si Si1 0.977982 0.164852 0.740320
Si Si2 0.886491 0.011403 0.823511
Si Si3 0.110273 0.190551 0.324134
Si Si4 0.784220 0.786493 0.268785
Si Si5 0.780851 0.994692 0.766840
Si Si6 0.514842 0.170577 0.738920
O O1 0.990817 0.207704 0.438487
O O2 0.921469 0.154147 0.767251
O O3 0.997700 0.294164 0.940105
O O4 0.000000 0.000000 0.818393
O O5 0.898225 0.869481 0.624261
O O6 0.833126 0.066564 0.781004
O O7 0.894330 0.955050 0.125431
O O8 0.161597 0.265951 0.294908
O O9 0.071261 0.318667 0.257087
O O10 0.771283 0.919544 0.479942
O O11 0.754494 0.633551 0.319147
O O12 0.773681 0.857822 0.979897
O O13 0.500000 0.000000 0.822958
#
# Coordination Sequence:
#
# PCOD8171874 Si02
#       6
#     4   4   4   4   4   4
#     4  12  21  38  63  81 110 153 194 228 264 339
#     4  10  20  35  61  84 106 147 199 229 265 331
#     4  10  19  37  57  81 112 153 181 223 287 340
#     4  10  21  38  61  81 114 147 186 233 283 333
#     4  10  21  39  59  86 114 145 188 236 280 337
#     4  12  24  38  55  86 122 145 184 236 287 331
#
# _framework density 19.445159
#
# number of rings (size 3 to 8) (size 9 to 14) (size 15 to 20)
#    0.000    1.333    3.333    3.000    0.000    0.000 
#    6.000    0.000    0.000    0.000    0.000    0.000 
#    0.000    0.000    0.000    0.000    0.000    0.000 
#
# Total GULP energy -297727.680683 kJ/mol
# GULP energy per Si atom -12405.320028 kJ/mol
# Density = 1.940090 g / cm^3
# Si number density = 19.445159 Si / 1000 Ang^3
#
#
#
# Elastic Constant Matrix: (Units=GPa)
#
#
# Indices 1 2 3 4 5 6 
#
# 1 136.3044 61.7227 18.6009 0.0000 0.0000 0.0000
# 2 61.7227 70.6347 6.0352 0.0000 0.0000 0.0000
# 3 18.6009 6.0352 77.7446 0.0000 0.0000 0.0000
# 4 0.0000 0.0000 0.0000 21.3479 0.0000 0.0000
# 5 0.0000 0.0000 0.0000 0.0000 25.4450 0.0000
# 6 0.0000 0.0000 0.0000 0.0000 0.0000 30.0823
#
#
#
# Elastic Compliance Matrix: (Units=1/GPa)
#
#
# Indices 1 2 3 4 5 6 
#
# 1 0.012489 -0.010729 -0.002155 0.000000 0.000000 0.000000
# 2 -0.010729 0.023469 0.000745 0.000000 0.000000 0.000000
# 3 -0.002155 0.000745 0.013320 0.000000 0.000000 0.000000
# 4 0.000000 0.000000 0.000000 0.046843 0.000000 0.000000
# 5 0.000000 0.000000 0.000000 0.000000 0.039300 0.000000
# 6 0.000000 0.000000 0.000000 0.000000 0.000000 0.033242
#
#
# Mechanical properties :
#
#
# Convention : Reuss Voigt Hill
#
# Bulk Modulus (GPa) = 39.99966 50.82236 45.41101
# Shear Modulus (GPa) = 24.84147 28.59670 26.71908
#
# Velocity S-wave (km/s) = 3.57811 3.83904 3.71087
# Velocity P-wave (km/s) = 6.13886 6.77082 6.46257
#
# Compressibility (1/GPa) = 0.02500021
#
# Stress axis : x y z
#
# Youngs Moduli (GPa) = 80.06947 42.60906 75.07258
#
# Poissons Ratio (x) = 0.45716 0.16180
# Poissons Ratio (y) = 0.85908 -0.05594
# Poissons Ratio (z) = 0.17257 -0.03175
#
# Static dielectric constant tensor:
#      x y z
#    x 3.839850 0.000000 0.000000 
#    y 0.000000 3.061130 0.000000 
#    z 0.000000 0.000000 3.674630 
# 
# 
# High freq. dielectric constant tensor:
#      x y z
#    x 1.770480 0.000000 0.000000 
#    y 0.000000 1.716020 0.000000 
#    z 0.000000 0.000000 1.779080 
# 
# From -- ./inp_files/563.got.cif
#   From: 2010.03.12/outbox.cif.g09.slc.cpg/sg34_1_cif.got.tgz:563.got - 2010.04.14 01:56:33.
