data_PCOD8171903
_publ_section_title
;
Structure prediction by ZEFSAII (Michael W. Deem and Ramdas Pophale) SiO2 
 PCOD8171903
Probable space group: P N N 2
;
_chemical_formula_sum "Si O2"
_cell_formula_units_Z 26
_cell_length_a 14.415998
_cell_length_b 4.978318
_cell_length_c 18.323007
_cell_angle_alpha 90.000000
_cell_angle_beta 90.000000
_cell_angle_gamma 90.000000
_cell_volume 1314.994982
_symmetry_space_group_name_H-M "P N N 2"
_symmetry_group_IT_number 34
_symmetry_cell_setting 'orthorhombic'
loop_
_space_group_symop_operation_xyz
x,y,z
-x,-y,z
1/2-x,1/2+y,1/2+z
1/2+x,1/2-y,1/2+z
loop_
_atom_site_type_symbol
_atom_site_label
_atom_site_fract_x
_atom_site_fract_y
_atom_site_fract_z
Si Si1 0.399581 0.081682 0.477460
Si Si2 0.809871 0.627292 0.300065
Si Si3 0.333515 0.594588 0.399059
Si Si4 0.500000 0.000000 0.753820
Si Si5 0.561181 0.256064 0.252402
Si Si6 0.746677 0.627229 0.713592
Si Si7 0.417843 0.317845 0.624578
O O1 0.381316 0.382913 0.452095
O O2 0.397441 0.081470 0.566128
O O3 0.500000 0.000000 0.447244
O O4 0.324882 0.871750 0.444651
O O5 0.767688 0.518223 0.376249
O O6 0.783909 0.427554 0.234510
O O7 0.921864 0.635208 0.305601
O O8 0.768167 0.920520 0.280958
O O9 0.392769 0.630939 0.325857
O O10 0.543231 0.774479 0.702232
O O11 0.500000 0.500000 0.218058
O O12 0.642718 0.153591 0.196909
O O13 0.500000 0.000000 0.272187
O O14 0.681908 0.539199 0.644238
O O15 0.500000 0.500000 0.589493
#
# Coordination Sequence:
#
# PCOD8171903 Si02
#       7
#     4   4   4   2   4   4   4
#     4  12  23  34  53  79 115 154 183 221 284 362
#     4  10  20  35  56  80 112 147 183 247 288 349
#     4  11  22  35  51  80 114 149 189 222 283 346
#     4  10  20  36  58  84 116 142 196 242 310 348
#     4  11  20  34  54  77 108 145 186 234 277 337
#     4  10  21  34  54  82 111 143 186 239 298 341
#     4  11  21  36  55  84 121 144 192 237 305 364
#
# _framework density 19.771937999999999
#
# number of rings (size 3 to 8) (size 9 to 14) (size 15 to 20)
#    0.000    1.231    2.308    7.385    0.000    0.000 
#    0.000    0.000    0.000    0.000    6.000    0.000 
#    0.000    0.000    0.000    0.000    0.000    0.000 
#
# Total GULP energy -322215.391678 kJ/mol
# GULP energy per Si atom -12392.899680 kJ/mol
# Density = 1.972694 g / cm^3
# Si number density = 19.771938 Si / 1000 Ang^3
#
#
#
# Elastic Constant Matrix: (Units=GPa)
#
#
# Indices 1 2 3 4 5 6 
#
# 1 146.3008 36.0546 47.0115 0.0000 0.0000 0.0000
# 2 36.0546 88.0993 17.9180 0.0000 0.0000 0.0000
# 3 47.0115 17.9180 64.3462 0.0000 0.0000 0.0000
# 4 0.0000 0.0000 0.0000 29.1221 0.0000 0.0000
# 5 0.0000 0.0000 0.0000 0.0000 20.7750 0.0000
# 6 0.0000 0.0000 0.0000 0.0000 0.0000 28.0881
#
#
#
# Elastic Compliance Matrix: (Units=1/GPa)
#
#
# Indices 1 2 3 4 5 6 
#
# 1 0.009469 -0.002616 -0.006189 0.000000 0.000000 0.000000
# 2 -0.002616 0.012755 -0.001640 0.000000 0.000000 0.000000
# 3 -0.006189 -0.001640 0.020520 0.000000 0.000000 0.000000
# 4 0.000000 0.000000 0.000000 0.034338 0.000000 0.000000
# 5 0.000000 0.000000 0.000000 0.000000 0.048135 0.000000
# 6 0.000000 0.000000 0.000000 0.000000 0.000000 0.035602
#
#
# Mechanical properties :
#
#
# Convention : Reuss Voigt Hill
#
# Bulk Modulus (GPa) = 45.76327 55.63493 50.69910
# Shear Modulus (GPa) = 26.45570 28.78117 27.61844
#
# Velocity S-wave (km/s) = 3.66190 3.81945 3.74150
# Velocity P-wave (km/s) = 6.40899 6.90292 6.66053
#
# Compressibility (1/GPa) = 0.02185159
#
# Stress axis : x y z
#
# Youngs Moduli (GPa) = 105.60906 78.39957 48.73354
#
# Poissons Ratio (x) = 0.20512 0.30163
# Poissons Ratio (y) = 0.27631 0.07994
# Poissons Ratio (z) = 0.65366 0.12860
#
# Static dielectric constant tensor:
#      x y z
#    x 4.301640 0.000000 0.000000 
#    y 0.000000 3.673500 0.000000 
#    z 0.000000 0.000000 3.344490 
# 
# 
# High freq. dielectric constant tensor:
#      x y z
#    x 1.771280 0.000000 0.000000 
#    y 0.000000 1.786490 0.000000 
#    z 0.000000 0.000000 1.714400 
# 
# From -- ./inp_files/8176.got.cif
#   From: 2010.03.12/outbox.cif.g09.slc.cpg/sg34_5_cif.got.tgz:8176.got - 2010.04.14 01:56:33.
