data_PCOD8171333
_publ_section_title
;
Structure prediction by ZEFSAII (Michael W. Deem and Ramdas Pophale) SiO2 
 PCOD8171333
Probable space group: P N A 21
;
_chemical_formula_sum "Si O2"
_cell_formula_units_Z 32
_cell_length_a 13.021160
_cell_length_b 5.195918
_cell_length_c 19.924957
_cell_angle_alpha 90.000000
_cell_angle_beta 90.000000
_cell_angle_gamma 90.000000
_cell_volume 1348.060417
_symmetry_space_group_name_H-M "P N A 21"
_symmetry_group_IT_number 33
_symmetry_cell_setting 'orthorhombic'
loop_
_space_group_symop_operation_xyz
x,y,z
-x,-y,1/2+z
1/2-x,1/2+y,1/2+z
1/2+x,1/2-y,z
loop_
_atom_site_type_symbol
_atom_site_label
_atom_site_fract_x
_atom_site_fract_y
_atom_site_fract_z
Si Si1 0.076528 0.628962 0.357170
Si Si2 0.186244 0.484154 0.664251
Si Si3 0.148266 0.592812 0.982494
Si Si4 0.668167 0.504021 0.578790
Si Si5 0.935289 0.282176 0.281123
Si Si6 0.250170 0.283586 0.358992
Si Si7 0.624087 0.514455 0.248778
Si Si8 0.487398 0.595791 0.475372
O O1 0.179333 0.508211 0.391851
O O2 0.038477 0.872305 0.401409
O O3 0.985735 0.423443 0.346008
O O4 0.105459 0.706119 0.280790
O O5 0.175526 0.724432 0.615352
O O6 0.120239 0.516028 0.731831
O O7 0.307943 0.458902 0.681957
O O8 0.144073 0.224224 0.630866
O O9 0.216455 0.574574 0.914906
O O10 0.062507 0.373840 0.990550
O O11 0.223817 0.568682 0.045281
O O12 0.098268 0.876788 0.979098
O O13 0.575637 0.522235 0.526909
O O14 0.848861 0.104424 0.317913
O O15 0.013274 0.116641 0.235306
O O16 0.178572 0.150230 0.305321
#
# Coordination Sequence:
#
# PCOD8171333 Si02
#       8
#     4   4   4   4   4   4   4   4
#     4  11  24  42  76 107 151 184 244 313 380 450
#     4  11  28  47  75 100 148 199 249 302 372 434
#     4  12  27  47  77 107 147 196 246 309 372 446
#     4  12  29  52  71 106 150 201 255 314 358 447
#     4  10  23  45  71 111 143 191 243 309 375 453
#     4  10  23  41  71 108 146 185 234 305 383 437
#     4  10  24  42  71 106 142 190 239 301 368 452
#     4  12  28  48  78 113 145 196 252 307 380 439
#
# _framework density 23.73781
#
# number of rings (size 3 to 8) (size 9 to 14) (size 15 to 20)
#    0.000    1.000    1.250    3.000   15.750    4.000 
#    0.000    0.000    0.000    0.000    0.000    0.000 
#    0.000    0.000    0.000    0.000    0.000    0.000 
#
# Total GULP energy -396735.221348 kJ/mol
# GULP energy per Si atom -12397.975667 kJ/mol
# Density = 2.368378 g / cm^3
# Si number density = 23.737810 Si / 1000 Ang^3
#
#
#
# Elastic Constant Matrix: (Units=GPa)
#
#
# Indices 1 2 3 4 5 6 
#
# 1 126.9454 23.6784 27.1129 0.0000 0.0000 0.0000
# 2 23.6784 66.5755 -7.1227 0.0000 0.0000 0.0000
# 3 27.1129 -7.1227 52.2938 0.0000 0.0000 0.0000
# 4 0.0000 0.0000 0.0000 38.1118 0.0000 0.0000
# 5 0.0000 0.0000 0.0000 0.0000 34.3082 0.0000
# 6 0.0000 0.0000 0.0000 0.0000 0.0000 34.2363
#
#
#
# Elastic Compliance Matrix: (Units=1/GPa)
#
#
# Indices 1 2 3 4 5 6 
#
# 1 0.009855 -0.004112 -0.005670 0.000000 0.000000 0.000000
# 2 -0.004112 0.016958 0.004442 0.000000 0.000000 0.000000
# 3 -0.005670 0.004442 0.022667 0.000000 0.000000 0.000000
# 4 0.000000 0.000000 0.000000 0.026239 0.000000 0.000000
# 5 0.000000 0.000000 0.000000 0.000000 0.029148 0.000000
# 6 0.000000 0.000000 0.000000 0.000000 0.000000 0.029209
#
#
# Mechanical properties :
#
#
# Convention : Reuss Voigt Hill
#
# Bulk Modulus (GPa) = 25.77256 37.01688 31.39472
# Shear Modulus (GPa) = 31.70799 34.80767 33.25783
#
# Velocity S-wave (km/s) = 3.65877 3.83343 3.74712
# Velocity P-wave (km/s) = 5.35999 5.93477 5.65469
#
# Compressibility (1/GPa) = 0.03880096
#
# Stress axis : x y z
#
# Youngs Moduli (GPa) = 101.46843 58.96880 44.11646
#
# Poissons Ratio (x) = 0.24246 0.25013
# Poissons Ratio (y) = 0.41721 -0.19595
# Poissons Ratio (z) = 0.57530 -0.26192
#
# Static dielectric constant tensor:
#      x y z
#    x 4.777570 0.000000 0.000000 
#    y 0.000000 4.250630 0.000000 
#    z 0.000000 0.000000 4.229940 
# 
# 
# High freq. dielectric constant tensor:
#      x y z
#    x 1.967390 0.000000 0.000000 
#    y 0.000000 1.936210 0.000000 
#    z 0.000000 0.000000 1.928800 
# 
# From -- ./inp_files/9127.got.cif
#   From: 2010.03.12/outbox.cif.g09.slc.cpg/sg33_5_cif.got.tgz:9127.got - 2010.04.14 01:49:19.
