data_PCOD8171877
_publ_section_title
;
Structure prediction by ZEFSAII (Michael W. Deem and Ramdas Pophale) SiO2 
 PCOD8171877
Probable space group: P N N 2
;
_chemical_formula_sum "Si O2"
_cell_formula_units_Z 24
_cell_length_a 24.192709
_cell_length_b 7.733310
_cell_length_c 5.350371
_cell_angle_alpha 90.000000
_cell_angle_beta 90.000000
_cell_angle_gamma 90.000000
_cell_volume 1000.999404
_symmetry_space_group_name_H-M "P N N 2"
_symmetry_group_IT_number 34
_symmetry_cell_setting 'orthorhombic'
loop_
_space_group_symop_operation_xyz
x,y,z
-x,-y,z
1/2-x,1/2+y,1/2+z
1/2+x,1/2-y,1/2+z
loop_
_atom_site_type_symbol
_atom_site_label
_atom_site_fract_x
_atom_site_fract_y
_atom_site_fract_z
Si Si1 0.165757 0.940187 0.656050
Si Si2 0.000301 0.301111 0.154304
Si Si3 0.873299 0.719837 0.163112
Si Si4 0.205801 0.945080 0.157389
Si Si5 0.173810 0.343411 0.661805
Si Si6 0.958859 0.148189 0.643656
O O1 0.190772 0.842887 0.413007
O O2 0.100513 0.939530 0.640509
O O3 0.188153 0.138403 0.663672
O O4 0.187755 0.843081 0.905412
O O5 0.967031 0.283959 0.416604
O O6 0.000000 0.500000 0.086473
O O7 0.062538 0.222767 0.166395
O O8 0.968842 0.214230 0.923120
O O9 0.861953 0.608887 0.414740
O O10 0.830533 0.879595 0.164446
O O11 0.861451 0.609062 0.911005
O O12 0.271892 0.963836 0.154742
O O13 0.000000 0.000000 0.565088
#
# Coordination Sequence:
#
# PCOD8171877 Si02
#       6
#     4   4   4   4   4   4
#     4  10  21  37  58  93 124 160 216 272 328 397
#     4  12  26  46  69 103 143 183 228 288 350 410
#     4  10  21  40  62  89 126 170 217 270 330 401
#     4  10  19  37  60  87 124 169 215 270 332 394
#     4  10  20  37  61  88 123 165 213 278 332 387
#     4  12  23  43  74 102 134 181 230 282 343 415
#
# _framework density 23.976037999999999
#
# number of rings (size 3 to 8) (size 9 to 14) (size 15 to 20)
#    0.000    1.333    0.000    8.000    0.000    0.000 
#    0.000   20.000    0.000    0.000    0.000    0.000 
#    0.000    0.000    0.000    0.000    0.000    0.000 
#
# Total GULP energy -297384.485905 kJ/mol
# GULP energy per Si atom -12391.020246 kJ/mol
# Density = 2.392147 g / cm^3
# Si number density = 23.976038 Si / 1000 Ang^3
#
#
#
# Elastic Constant Matrix: (Units=GPa)
#
#
# Indices 1 2 3 4 5 6 
#
# 1 79.2866 12.7414 43.9901 0.0000 0.0000 0.0000
# 2 12.7414 44.3813 -5.2285 0.0000 0.0000 0.0000
# 3 43.9901 -5.2285 263.0909 0.0000 0.0000 0.0000
# 4 0.0000 0.0000 0.0000 3.5465 0.0000 0.0000
# 5 0.0000 0.0000 0.0000 0.0000 96.5659 0.0000
# 6 0.0000 0.0000 0.0000 0.0000 0.0000 33.6658
#
#
#
# Elastic Compliance Matrix: (Units=1/GPa)
#
#
# Indices 1 2 3 4 5 6 
#
# 1 0.014761 -0.004539 -0.002558 0.000000 0.000000 0.000000
# 2 -0.004539 0.023981 0.001236 0.000000 0.000000 0.000000
# 3 -0.002558 0.001236 0.004253 0.000000 0.000000 0.000000
# 4 0.000000 0.000000 0.000000 0.281967 0.000000 0.000000
# 5 0.000000 0.000000 0.000000 0.000000 0.010356 0.000000
# 6 0.000000 0.000000 0.000000 0.000000 0.000000 0.029704
#
#
# Mechanical properties :
#
#
# Convention : Reuss Voigt Hill
#
# Bulk Modulus (GPa) = 31.97819 54.41829 43.19824
# Shear Modulus (GPa) = 12.91425 49.10604 31.01014
#
# Velocity S-wave (km/s) = 2.32336 4.53054 3.60026
# Velocity P-wave (km/s) = 4.53474 7.07912 5.94465
#
# Compressibility (1/GPa) = 0.03127132
#
# Stress axis : x y z
#
# Youngs Moduli (GPa) = 67.74434 41.70014 235.11176
#
# Poissons Ratio (x) = 0.18929 0.60151
# Poissons Ratio (y) = 0.30751 -0.29049
# Poissons Ratio (z) = 0.17332 -0.05152
#
# Static dielectric constant tensor:
#      x y z
#    x 2.478700 0.000000 0.000000 
#    y 0.000000 3.881890 0.000000 
#    z 0.000000 0.000000 6.281700 
# 
# 
# High freq. dielectric constant tensor:
#      x y z
#    x 1.954310 0.000000 0.000000 
#    y 0.000000 1.891210 0.000000 
#    z 0.000000 0.000000 2.001590 
# 
# From -- ./inp_files/481.got.cif
#   From: 2010.03.12/outbox.cif.g09.slc.cpg/sg34_1_cif.got.tgz:481.got - 2010.04.14 01:56:33.
