data_PCOD8171015
_publ_section_title
;
Structure prediction by ZEFSAII (Michael W. Deem and Ramdas Pophale) SiO2 
 PCOD8171015
Probable space group: P N A 21
;
_chemical_formula_sum "Si O2"
_cell_formula_units_Z 32
_cell_length_a 30.585802
_cell_length_b 5.323343
_cell_length_c 8.680950
_cell_angle_alpha 90.000000
_cell_angle_beta 90.000000
_cell_angle_gamma 90.000000
_cell_volume 1413.421124
_symmetry_space_group_name_H-M "P N A 21"
_symmetry_group_IT_number 33
_symmetry_cell_setting 'orthorhombic'
loop_
_space_group_symop_operation_xyz
x,y,z
-x,-y,1/2+z
1/2-x,1/2+y,1/2+z
1/2+x,1/2-y,z
loop_
_atom_site_type_symbol
_atom_site_label
_atom_site_fract_x
_atom_site_fract_y
_atom_site_fract_z
Si Si1 0.019358 0.772769 0.847880
Si Si2 0.256782 0.733744 0.679166
Si Si3 0.853864 0.661403 0.609883
Si Si4 0.378188 0.754661 0.942093
Si Si5 0.281253 0.723949 0.033886
Si Si6 0.540021 0.022646 0.568165
Si Si7 0.447449 0.372438 0.820937
Si Si8 0.399111 0.319836 0.528450
O O1 0.024848 0.527044 0.741527
O O2 0.988383 0.964740 0.755365
O O3 0.068945 0.858849 0.882091
O O4 0.992075 0.736191 0.005096
O O5 0.231516 0.990498 0.641773
O O6 0.303329 0.767861 0.597130
O O7 0.260857 0.699885 0.863140
O O8 0.233048 0.487940 0.610008
O O9 0.866542 0.593064 0.785904
O O10 0.864636 0.411518 0.507255
O O11 0.878331 0.908178 0.549890
O O12 0.333569 0.697094 0.030488
O O13 0.405300 0.511231 0.893273
O O14 0.408501 0.913316 0.058203
O O15 0.531595 0.792885 0.453822
O O16 0.428751 0.227759 0.672507
#
# Coordination Sequence:
#
# PCOD8171015 Si02
#       8
#     4   4   4   4   4   4   4   4
#     4  11  25  37  61  93 129 176 216 281 327 393
#     4  11  24  45  72 103 140 180 231 286 350 421
#     4  10  22  43  69  92 130 173 224 265 338 407
#     4   9  22  40  65  95 125 179 217 273 328 415
#     4  11  24  45  73 104 139 184 229 284 353 420
#     4  11  22  42  61  91 131 170 227 269 333 391
#     4  10  21  39  64  88 126 170 230 265 327 391
#     4  11  22  41  65  94 124 174 222 273 324 398
#
# _framework density 22.640101999999999
#
# number of rings (size 3 to 8) (size 9 to 14) (size 15 to 20)
#    0.000    1.500    1.250    3.000    7.000    3.000 
#    6.750    0.000    0.000    0.000    0.000    0.000 
#    0.000    0.000    0.000    0.000    0.000    0.000 
#
# Total GULP energy -396527.980308 kJ/mol
# GULP energy per Si atom -12391.499385 kJ/mol
# Density = 2.258857 g / cm^3
# Si number density = 22.640102 Si / 1000 Ang^3
#
#
#
# Elastic Constant Matrix: (Units=GPa)
#
#
# Indices 1 2 3 4 5 6 
#
# 1 83.8496 3.0040 12.2795 0.0000 0.0000 0.0000
# 2 3.0040 87.0012 6.2433 0.0000 0.0000 0.0000
# 3 12.2795 6.2433 48.6221 0.0000 0.0000 0.0000
# 4 0.0000 0.0000 0.0000 28.5216 0.0000 0.0000
# 5 0.0000 0.0000 0.0000 0.0000 25.2369 0.0000
# 6 0.0000 0.0000 0.0000 0.0000 0.0000 23.2210
#
#
#
# Elastic Compliance Matrix: (Units=1/GPa)
#
#
# Indices 1 2 3 4 5 6 
#
# 1 0.012388 -0.000205 -0.003102 0.000000 0.000000 0.000000
# 2 -0.000205 0.011604 -0.001438 0.000000 0.000000 0.000000
# 3 -0.003102 -0.001438 0.021535 0.000000 0.000000 0.000000
# 4 0.000000 0.000000 0.000000 0.035061 0.000000 0.000000
# 5 0.000000 0.000000 0.000000 0.000000 0.039624 0.000000
# 6 0.000000 0.000000 0.000000 0.000000 0.000000 0.043065
#
#
# Mechanical properties :
#
#
# Convention : Reuss Voigt Hill
#
# Bulk Modulus (GPa) = 27.75005 29.16960 28.45982
# Shear Modulus (GPa) = 27.05916 28.59230 27.82573
#
# Velocity S-wave (km/s) = 3.46090 3.55759 3.50958
# Velocity P-wave (km/s) = 5.31546 5.45777 5.38708
#
# Compressibility (1/GPa) = 0.03603597
#
# Stress axis : x y z
#
# Youngs Moduli (GPa) = 80.72473 86.17427 46.43619
#
# Poissons Ratio (x) = 0.01768 0.14405
# Poissons Ratio (y) = 0.01656 0.06679
# Poissons Ratio (z) = 0.25042 0.12394
#
# Static dielectric constant tensor:
#      x y z
#    x 4.274790 0.000000 0.000000 
#    y 0.000000 3.989670 0.000000 
#    z 0.000000 0.000000 3.922140 
# 
# 
# High freq. dielectric constant tensor:
#      x y z
#    x 1.906410 0.000000 0.000000 
#    y 0.000000 1.892360 0.000000 
#    z 0.000000 0.000000 1.878050 
# 
# From -- ./inp_files/5353.got.cif
#   From: 2010.03.12/outbox.cif.g09.slc.cpg/sg33_3_cif.got.tgz:5353.got - 2010.04.14 01:49:19.
