data_PCOD8171939
_publ_section_title
;
Structure prediction by ZEFSAII (Michael W. Deem and Ramdas Pophale) SiO2 
 PCOD8171939
Probable space group: P N N 2
;
_chemical_formula_sum "Si O2"
_cell_formula_units_Z 32
_cell_length_a 18.032127
_cell_length_b 9.648733
_cell_length_c 9.089455
_cell_angle_alpha 90.000000
_cell_angle_beta 90.000000
_cell_angle_gamma 90.000000
_cell_volume 1581.448633
_symmetry_space_group_name_H-M "P N N 2"
_symmetry_group_IT_number 34
_symmetry_cell_setting 'orthorhombic'
loop_
_space_group_symop_operation_xyz
x,y,z
-x,-y,z
1/2-x,1/2+y,1/2+z
1/2+x,1/2-y,1/2+z
loop_
_atom_site_type_symbol
_atom_site_label
_atom_site_fract_x
_atom_site_fract_y
_atom_site_fract_z
Si Si1 0.327968 0.185113 0.073370
Si Si2 0.981277 0.343085 0.729808
Si Si3 0.780262 0.011571 0.232854
Si Si4 0.438538 0.611820 0.073948
Si Si5 0.719738 0.511571 0.071801
Si Si6 0.938538 0.888180 0.230707
Si Si7 0.172032 0.685112 0.231285
Si Si8 0.518723 0.843085 0.574847
O O1 0.405601 0.203310 0.154027
O O2 0.283991 0.053086 0.133817
O O3 0.280290 0.323954 0.100459
O O4 0.344598 0.163093 0.902327
O O5 0.000000 0.500000 0.689756
O O6 0.048358 0.250627 0.667316
O O7 0.973590 0.319391 0.902327
O O8 0.762338 0.978512 0.402327
O O9 0.858853 0.947604 0.186882
O O10 0.780289 0.176047 0.204196
O O11 0.500000 0.500000 0.118967
O O12 0.358853 0.552396 0.117773
O O13 0.443892 0.647941 0.902328
O O14 0.783991 0.446914 0.170838
O O15 0.951642 0.749373 0.137338
O O16 0.000000 0.000000 0.185689
O O17 0.094398 0.703310 0.150628
O O18 0.500000 0.000000 0.614899
#
# Coordination Sequence:
#
# PCOD8171939 Si02
#       8
#     4   4   4   4   4   4   4   4
#     4  11  24  43  65  90 124 165 207 251 306 369
#     4  11  25  42  62  92 128 161 204 260 309 361
#     4  10  23  42  63  91 127 161 203 256 305 363
#     4  10  20  41  67  90 119 159 205 253 306 365
#     4  10  23  42  63  91 127 161 203 256 305 363
#     4  10  20  41  67  90 119 159 205 253 306 365
#     4  11  24  43  65  90 124 165 207 251 306 369
#     4  11  25  42  62  92 128 161 204 260 309 361
#
# _framework density 20.234613
#
# number of rings (size 3 to 8) (size 9 to 14) (size 15 to 20)
#    0.000    1.500    2.500    1.500    3.500    5.500 
#    0.000    0.000    0.000    0.000    0.000    0.000 
#    0.000    0.000    0.000    0.000    0.000    0.000 
#
# Total GULP energy -397019.344418 kJ/mol
# GULP energy per Si atom -12406.854513 kJ/mol
# Density = 2.018856 g / cm^3
# Si number density = 20.234613 Si / 1000 Ang^3
#
#
#
# Elastic Constant Matrix: (Units=GPa)
#
#
# Indices 1 2 3 4 5 6 
#
# 1 40.4808 0.4808 11.3602 0.0000 0.0000 0.0000
# 2 0.4808 80.7951 44.1590 0.0000 0.0000 0.0000
# 3 11.3602 44.1590 68.6749 0.0000 0.0000 0.0000
# 4 0.0000 0.0000 0.0000 34.9275 0.0000 0.0000
# 5 0.0000 0.0000 0.0000 0.0000 11.5552 0.0000
# 6 0.0000 0.0000 0.0000 0.0000 0.0000 36.0737
#
#
#
# Elastic Compliance Matrix: (Units=1/GPa)
#
#
# Indices 1 2 3 4 5 6 
#
# 1 0.026516 0.003453 -0.006607 0.000000 0.000000 0.000000
# 2 0.003453 0.019534 -0.013132 0.000000 0.000000 0.000000
# 3 -0.006607 -0.013132 0.024098 0.000000 0.000000 0.000000
# 4 0.000000 0.000000 0.000000 0.028631 0.000000 0.000000
# 5 0.000000 0.000000 0.000000 0.000000 0.086541 0.000000
# 6 0.000000 0.000000 0.000000 0.000000 0.000000 0.027721
#
#
# Mechanical properties :
#
#
# Convention : Reuss Voigt Hill
#
# Bulk Modulus (GPa) = 26.61175 33.55009 30.08092
# Shear Modulus (GPa) = 19.36956 25.44135 22.40546
#
# Velocity S-wave (km/s) = 3.09730 3.54972 3.33120
# Velocity P-wave (km/s) = 5.09619 5.78076 5.44924
#
# Compressibility (1/GPa) = 0.03757739
#
# Stress axis : x y z
#
# Youngs Moduli (GPa) = 37.71297 51.19387 41.49712
#
# Poissons Ratio (x) = -0.17678 0.27416
# Poissons Ratio (y) = -0.13023 0.54492
# Poissons Ratio (z) = 0.24916 0.67226
#
# Static dielectric constant tensor:
#      x y z
#    x 3.640110 0.000000 0.000000 
#    y 0.000000 3.782470 0.000000 
#    z 0.000000 0.000000 3.605180 
# 
# 
# High freq. dielectric constant tensor:
#      x y z
#    x 1.792980 0.000000 0.000000 
#    y 0.000000 1.801790 0.000000 
#    z 0.000000 0.000000 1.790090 
# 
# From -- ./inp_files/4017.got.cif
#   From: 2010.03.12/outbox.cif.g09.slc.cpg/sg34_3_cif.got.tgz:4017.got - 2010.04.14 01:56:33.
