data_PCOD8171592
_publ_section_title
;
Structure prediction by ZEFSAII (Michael W. Deem and Ramdas Pophale) SiO2 
 PCOD8171592
Probable space group: P N A 21
;
_chemical_formula_sum "Si O2"
_cell_formula_units_Z 32
_cell_length_a 10.250790
_cell_length_b 11.904229
_cell_length_c 11.338429
_cell_angle_alpha 90.000000
_cell_angle_beta 90.000000
_cell_angle_gamma 90.000000
_cell_volume 1383.602997
_symmetry_space_group_name_H-M "P N A 21"
_symmetry_group_IT_number 33
_symmetry_cell_setting 'orthorhombic'
loop_
_space_group_symop_operation_xyz
x,y,z
-x,-y,1/2+z
1/2-x,1/2+y,1/2+z
1/2+x,1/2-y,z
loop_
_atom_site_type_symbol
_atom_site_label
_atom_site_fract_x
_atom_site_fract_y
_atom_site_fract_z
Si Si1 0.332008 0.224402 0.411050
Si Si2 0.079317 0.956599 0.183662
Si Si3 0.300882 0.920355 0.009563
Si Si4 0.285260 0.986867 0.370054
Si Si5 0.044512 0.802944 0.688647
Si Si6 0.930722 0.472441 0.800893
Si Si7 0.175168 0.357752 0.111524
Si Si8 0.509869 0.784017 0.144807
O O1 0.237789 0.331666 0.407827
O O2 0.448658 0.244397 0.317285
O O3 0.390441 0.207301 0.538931
O O4 0.240818 0.115571 0.391686
O O5 0.172814 0.973495 0.069728
O O6 0.168719 0.930830 0.297389
O O7 0.984109 0.848038 0.171034
O O8 0.990905 0.065674 0.197906
O O9 0.381077 0.854450 0.110713
O O10 0.379499 0.015478 0.936525
O O11 0.417349 0.005381 0.295642
O O12 0.317513 0.914126 0.484011
O O13 0.188977 0.793371 0.633883
O O14 0.939081 0.735894 0.610836
O O15 0.850810 0.547351 0.708610
O O16 0.922743 0.342406 0.758915
#
# Coordination Sequence:
#
# PCOD8171592 Si02
#       8
#     4   4   4   4   4   4   4   4
#     4  11  23  41  74 100 141 193 245 307 373 461
#     4  11  29  44  69 113 154 195 249 318 375 456
#     4  11  23  45  73 105 141 201 246 311 379 451
#     4  12  25  43  73 107 153 193 250 316 382 449
#     4  12  27  49  76 114 152 197 263 308 382 456
#     4  12  22  45  77 109 140 196 258 310 378 453
#     4  12  27  47  77 115 145 207 253 323 378 455
#     4  11  24  44  71 105 148 196 248 307 383 453
#
# _framework density 23.128018999999998
#
# number of rings (size 3 to 8) (size 9 to 14) (size 15 to 20)
#    0.000    0.500    6.250    0.750    3.500    3.000 
#    0.000    0.000    0.000    0.000    0.000    0.000 
#    0.000    0.000    0.000    0.000    0.000    0.000 
#
# Total GULP energy -396729.819400 kJ/mol
# GULP energy per Si atom -12397.806856 kJ/mol
# Density = 2.307538 g / cm^3
# Si number density = 23.128019 Si / 1000 Ang^3
#
#
#
# Elastic Constant Matrix: (Units=GPa)
#
#
# Indices 1 2 3 4 5 6 
#
# 1 101.8142 29.6466 31.1601 0.0000 0.0000 0.0000
# 2 29.6466 124.5029 52.6946 0.0000 0.0000 0.0000
# 3 31.1601 52.6946 100.0801 0.0000 0.0000 0.0000
# 4 0.0000 0.0000 0.0000 42.3539 0.0000 0.0000
# 5 0.0000 0.0000 0.0000 0.0000 23.3195 0.0000
# 6 0.0000 0.0000 0.0000 0.0000 0.0000 29.1215
#
#
#
# Elastic Compliance Matrix: (Units=1/GPa)
#
#
# Indices 1 2 3 4 5 6 
#
# 1 0.011074 -0.001515 -0.002650 0.000000 0.000000 0.000000
# 2 -0.001515 0.010542 -0.005079 0.000000 0.000000 0.000000
# 3 -0.002650 -0.005079 0.013491 0.000000 0.000000 0.000000
# 4 0.000000 0.000000 0.000000 0.023611 0.000000 0.000000
# 5 0.000000 0.000000 0.000000 0.000000 0.042883 0.000000
# 6 0.000000 0.000000 0.000000 0.000000 0.000000 0.034339
#
#
# Mechanical properties :
#
#
# Convention : Reuss Voigt Hill
#
# Bulk Modulus (GPa) = 60.17225 61.48887 60.83056
# Shear Modulus (GPa) = 31.25614 33.15203 32.20408
#
# Velocity S-wave (km/s) = 3.68018 3.79015 3.73557
# Velocity P-wave (km/s) = 6.64318 6.76740 6.70558
#
# Compressibility (1/GPa) = 0.01661896
#
# Stress axis : x y z
#
# Youngs Moduli (GPa) = 90.30073 94.85477 74.12156
#
# Poissons Ratio (x) = 0.14374 0.19643
# Poissons Ratio (y) = 0.13684 0.37647
# Poissons Ratio (z) = 0.23930 0.48177
#
# Static dielectric constant tensor:
#      x y z
#    x 4.263170 0.000000 0.000000 
#    y 0.000000 4.439360 0.000000 
#    z 0.000000 0.000000 4.184130 
# 
# 
# High freq. dielectric constant tensor:
#      x y z
#    x 1.908310 0.000000 0.000000 
#    y 0.000000 1.918060 0.000000 
#    z 0.000000 0.000000 1.914340 
# 
# From -- ./inp_files/6457.got.cif
#   From: 2010.03.12/outbox.cif.g09.slc.cpg/sg33_4_cif.got.tgz:6457.got - 2010.04.14 01:49:19.
