data_PCOD8171205
_publ_section_title
;
Structure prediction by ZEFSAII (Michael W. Deem and Ramdas Pophale) SiO2 
 PCOD8171205
Probable space group: P N A 21
;
_chemical_formula_sum "Si O2"
_cell_formula_units_Z 20
_cell_length_a 10.855329
_cell_length_b 15.847308
_cell_length_c 4.974437
_cell_angle_alpha 90.000000
_cell_angle_beta 90.000000
_cell_angle_gamma 90.000000
_cell_volume 855.741165
_symmetry_space_group_name_H-M "P N A 21"
_symmetry_group_IT_number 33
_symmetry_cell_setting 'orthorhombic'
loop_
_space_group_symop_operation_xyz
x,y,z
-x,-y,1/2+z
1/2-x,1/2+y,1/2+z
1/2+x,1/2-y,z
loop_
_atom_site_type_symbol
_atom_site_label
_atom_site_fract_x
_atom_site_fract_y
_atom_site_fract_z
Si Si1 0.420894 0.273317 0.309660
Si Si2 0.011605 0.055384 0.295376
Si Si3 0.241783 0.156510 0.523402
Si Si4 0.931535 0.726520 0.310671
Si Si5 0.019519 0.555479 0.164641
O O1 0.405103 0.373419 0.253393
O O2 0.297117 0.217363 0.285978
O O3 0.462153 0.263919 0.619210
O O4 0.528045 0.236968 0.118960
O O5 0.137166 0.098998 0.391679
O O6 0.963228 0.987520 0.509094
O O7 0.191835 0.219789 0.755092
O O8 0.344297 0.095876 0.652529
O O9 0.918507 0.626479 0.248016
O O10 0.019987 0.479622 0.375907
#
# Coordination Sequence:
#
# PCOD8171205 Si02
#       5
#     4   4   4   4   4
#     4  10  22  41  65  93 127 175 224 266 334 420
#     4  11  24  42  65 100 131 166 225 281 331 400
#     4  10  24  44  68  92 140 186 216 280 346 398
#     4  10  22  41  65  93 127 175 224 266 334 420
#     4  11  24  42  65 100 131 166 225 281 331 400
#
# _framework density 23.371552999999999
#
# number of rings (size 3 to 8) (size 9 to 14) (size 15 to 20)
#    0.000    1.600    0.000    4.800    0.000   17.600 
#    0.000    0.000    0.000    0.000    0.000    0.000 
#    0.000    0.000    0.000    0.000    0.000    0.000 
#
# Total GULP energy -247935.625740 kJ/mol
# GULP energy per Si atom -12396.781287 kJ/mol
# Density = 2.331836 g / cm^3
# Si number density = 23.371553 Si / 1000 Ang^3
#
#
#
# Elastic Constant Matrix: (Units=GPa)
#
#
# Indices 1 2 3 4 5 6 
#
# 1 104.4947 38.9376 13.2415 0.0000 0.0000 0.0000
# 2 38.9376 137.0981 14.2288 0.0000 0.0000 0.0000
# 3 13.2415 14.2288 68.2969 0.0000 0.0000 0.0000
# 4 0.0000 0.0000 0.0000 42.2977 0.0000 0.0000
# 5 0.0000 0.0000 0.0000 0.0000 30.5775 0.0000
# 6 0.0000 0.0000 0.0000 0.0000 0.0000 50.5230
#
#
#
# Elastic Compliance Matrix: (Units=1/GPa)
#
#
# Indices 1 2 3 4 5 6 
#
# 1 0.010850 -0.002926 -0.001494 0.000000 0.000000 0.000000
# 2 -0.002926 0.008245 -0.001150 0.000000 0.000000 0.000000
# 3 -0.001494 -0.001150 0.015171 0.000000 0.000000 0.000000
# 4 0.000000 0.000000 0.000000 0.023642 0.000000 0.000000
# 5 0.000000 0.000000 0.000000 0.000000 0.032704 0.000000
# 6 0.000000 0.000000 0.000000 0.000000 0.000000 0.019793
#
#
# Mechanical properties :
#
#
# Convention : Reuss Voigt Hill
#
# Bulk Modulus (GPa) = 43.24447 49.18951 46.21699
# Shear Modulus (GPa) = 38.68375 40.91177 39.79776
#
# Velocity S-wave (km/s) = 4.07278 4.18843 4.13101
# Velocity P-wave (km/s) = 6.37652 6.66956 6.52468
#
# Compressibility (1/GPa) = 0.02312435
#
# Stress axis : x y z
#
# Youngs Moduli (GPa) = 92.16915 121.29205 65.91426
#
# Poissons Ratio (x) = 0.35495 0.09847
# Poissons Ratio (y) = 0.26972 0.07582
# Poissons Ratio (z) = 0.13769 0.13952
#
# Static dielectric constant tensor:
#      x y z
#    x 4.119710 0.000000 0.000000 
#    y 0.000000 4.728850 0.000000 
#    z 0.000000 0.000000 4.124270 
# 
# 
# High freq. dielectric constant tensor:
#      x y z
#    x 1.898550 0.000000 0.000000 
#    y 0.000000 1.946630 0.000000 
#    z 0.000000 0.000000 1.930490 
# 
# From -- ./inp_files/739.got.cif
#   From: 2010.03.12/outbox.cif.g09.slc.cpg/sg33_1_cif.got.tgz:739.got - 2010.04.14 01:49:19.
