data_PCOD8171185
_publ_section_title
;
Structure prediction by ZEFSAII (Michael W. Deem and Ramdas Pophale) SiO2 
 PCOD8171185
Probable space group: P N A 21
;
_chemical_formula_sum "Si O2"
_cell_formula_units_Z 28
_cell_length_a 5.156086
_cell_length_b 20.012196
_cell_length_c 10.631768
_cell_angle_alpha 90.000000
_cell_angle_beta 90.000000
_cell_angle_gamma 90.000000
_cell_volume 1097.034767
_symmetry_space_group_name_H-M "P N A 21"
_symmetry_group_IT_number 33
_symmetry_cell_setting 'orthorhombic'
loop_
_space_group_symop_operation_xyz
x,y,z
-x,-y,1/2+z
1/2-x,1/2+y,1/2+z
1/2+x,1/2-y,z
loop_
_atom_site_type_symbol
_atom_site_label
_atom_site_fract_x
_atom_site_fract_y
_atom_site_fract_z
Si Si1 0.304606 0.482772 0.226310
Si Si2 0.804603 0.017227 0.947098
Si Si3 0.655005 0.291905 0.941474
Si Si4 0.974111 0.390950 0.373067
Si Si5 0.090671 0.294559 0.586704
Si Si6 0.155006 0.208095 0.231934
Si Si7 0.974109 0.390951 0.800341
O O1 0.500002 0.500000 0.336704
O O2 0.163894 0.412633 0.258762
O O3 0.099025 0.543441 0.220665
O O4 0.431407 0.475759 0.086704
O O5 0.663891 0.087366 0.914647
O O6 0.599023 0.956559 0.952744
O O7 0.374215 0.263246 0.906224
O O8 0.714284 0.357987 0.860014
O O9 0.675240 0.311506 0.086704
O O10 0.124348 0.339760 0.463288
O O11 0.714285 0.357987 0.313394
O O12 0.304180 0.237087 0.586705
O O13 0.124348 0.339761 0.710120
O O14 0.374216 0.263246 0.267185
#
# Coordination Sequence:
#
# PCOD8171185 Si02
#       7
#     4   4   4   4   4   4   4
#     4  11  27  46  75 107 152 209 264 337 388 475
#     4  11  27  46  75 107 152 209 264 337 388 475
#     4  10  22  40  66  99 140 186 242 308 380 461
#     4  11  25  45  70 104 152 193 270 308 409 459
#     4  12  28  46  82 116 160 206 260 332 408 484
#     4  10  22  40  66  99 140 186 242 308 380 461
#     4  11  25  45  70 104 152 193 270 308 409 459
#
# _framework density 25.523347999999999
#
# number of rings (size 3 to 8) (size 9 to 14) (size 15 to 20)
#    0.000    1.143    1.429    2.571   10.000    2.286 
#    0.000    0.000    0.000    0.000    0.000    0.000 
#    0.000    0.000    0.000    0.000    0.000    0.000 
#
# Total GULP energy -347274.279716 kJ/mol
# GULP energy per Si atom -12402.652847 kJ/mol
# Density = 2.546526 g / cm^3
# Si number density = 25.523348 Si / 1000 Ang^3
#
#
#
# Elastic Constant Matrix: (Units=GPa)
#
#
# Indices 1 2 3 4 5 6 
#
# 1 53.8475 2.2944 23.1920 0.0000 0.0000 0.0000
# 2 2.2944 108.2612 44.1041 0.0000 0.0000 0.0000
# 3 23.1920 44.1041 176.7395 0.0000 0.0000 0.0000
# 4 0.0000 0.0000 0.0000 35.8577 0.0000 0.0000
# 5 0.0000 0.0000 0.0000 0.0000 35.9198 0.0000
# 6 0.0000 0.0000 0.0000 0.0000 0.0000 15.9630
#
#
#
# Elastic Compliance Matrix: (Units=1/GPa)
#
#
# Indices 1 2 3 4 5 6 
#
# 1 0.019732 0.000709 -0.002766 0.000000 0.000000 0.000000
# 2 0.000709 0.010308 -0.002665 0.000000 0.000000 0.000000
# 3 -0.002766 -0.002665 0.006686 0.000000 0.000000 0.000000
# 4 0.000000 0.000000 0.000000 0.027888 0.000000 0.000000
# 5 0.000000 0.000000 0.000000 0.000000 0.027840 0.000000
# 6 0.000000 0.000000 0.000000 0.000000 0.000000 0.062645
#
#
# Mechanical properties :
#
#
# Convention : Reuss Voigt Hill
#
# Bulk Modulus (GPa) = 36.65606 53.11438 44.88522
# Shear Modulus (GPa) = 28.79566 35.49862 32.14714
#
# Velocity S-wave (km/s) = 3.36253 3.73343 3.55282
# Velocity P-wave (km/s) = 5.42848 6.28012 5.86977
#
# Compressibility (1/GPa) = 0.02728062
#
# Stress axis : x y z
#
# Youngs Moduli (GPa) = 50.67879 97.01513 149.56399
#
# Poissons Ratio (x) = -0.06875 0.41371
# Poissons Ratio (y) = -0.03592 0.39862
# Poissons Ratio (z) = 0.14018 0.25857
#
# Static dielectric constant tensor:
#      x y z
#    x 4.342440 0.000000 0.000000 
#    y 0.000000 4.889510 0.000000 
#    z 0.000000 0.000000 4.750610 
# 
# 
# High freq. dielectric constant tensor:
#      x y z
#    x 2.003590 0.000000 0.000000 
#    y 0.000000 2.034690 0.000000 
#    z 0.000000 0.000000 2.028850 
# 
# From -- ./inp_files/5492.got.cif
#   From: 2010.03.12/outbox.cif.g09.slc.cpg/sg33_3_cif.got.tgz:5492.got - 2010.04.14 01:49:19.
