data_PCOD8171741
_publ_section_title
;
Structure prediction by ZEFSAII (Michael W. Deem and Ramdas Pophale) SiO2 
 PCOD8171741
Probable space group: P N A 21
;
_chemical_formula_sum "Si O2"
_cell_formula_units_Z 20
_cell_length_a 17.300159
_cell_length_b 4.788116
_cell_length_c 8.124772
_cell_angle_alpha 90.000000
_cell_angle_beta 90.000000
_cell_angle_gamma 90.000000
_cell_volume 673.016854
_symmetry_space_group_name_H-M "P N A 21"
_symmetry_group_IT_number 33
_symmetry_cell_setting 'orthorhombic'
loop_
_space_group_symop_operation_xyz
x,y,z
-x,-y,1/2+z
1/2-x,1/2+y,1/2+z
1/2+x,1/2-y,z
loop_
_atom_site_type_symbol
_atom_site_label
_atom_site_fract_x
_atom_site_fract_y
_atom_site_fract_z
Si Si1 0.409944 0.266245 0.321300
Si Si2 0.756626 0.527667 0.284926
Si Si3 0.393450 0.567447 0.638311
Si Si4 0.056936 0.551391 0.334976
Si Si5 0.855332 0.878860 0.061400
O O1 0.431340 0.476761 0.468303
O O2 0.464617 0.996158 0.343758
O O3 0.421789 0.417645 0.141306
O O4 0.319936 0.196253 0.337334
O O5 0.700179 0.434950 0.134304
O O6 0.802470 0.798523 0.220351
O O7 0.698707 0.562554 0.440180
O O8 0.418552 0.885092 0.669009
O O9 0.424129 0.377399 0.797446
O O10 0.106403 0.403029 0.483467
#
# Coordination Sequence:
#
# PCOD8171741 Si02
#       5
#     4   4   4   4   4
#     4  12  28  47  83 112 158 207 264 322 396 460
#     4  11  27  46  76 112 154 203 257 317 390 457
#     4  11  28  51  77 115 160 204 263 322 389 471
#     4  11  29  52  79 116 160 205 264 323 396 463
#     4  11  28  48  79 111 158 205 264 322 391 467
#
# _framework density 29.716940000000001
#
# number of rings (size 3 to 8) (size 9 to 14) (size 15 to 20)
#    0.000    0.800    2.000    1.200   22.400    0.000 
#    0.000    0.000    0.000    0.000    0.000    0.000 
#    0.000    0.000    0.000    0.000    0.000    0.000 
#
# Total GULP energy -247812.118253 kJ/mol
# GULP energy per Si atom -12390.605913 kJ/mol
# Density = 2.964930 g / cm^3
# Si number density = 29.716940 Si / 1000 Ang^3
#
#
#
# Elastic Constant Matrix: (Units=GPa)
#
#
# Indices 1 2 3 4 5 6 
#
# 1 93.5965 -9.2343 27.2967 0.0000 0.0000 0.0000
# 2 -9.2343 41.3031 -8.9956 0.0000 0.0000 0.0000
# 3 27.2967 -8.9956 106.3246 0.0000 0.0000 0.0000
# 4 0.0000 0.0000 0.0000 38.5231 0.0000 0.0000
# 5 0.0000 0.0000 0.0000 0.0000 32.3225 0.0000
# 6 0.0000 0.0000 0.0000 0.0000 0.0000 42.6509
#
#
#
# Elastic Compliance Matrix: (Units=1/GPa)
#
#
# Indices 1 2 3 4 5 6 
#
# 1 0.011709 0.002000 -0.002837 0.000000 0.000000 0.000000
# 2 0.002000 0.025007 0.001602 0.000000 0.000000 0.000000
# 3 -0.002837 0.001602 0.010269 0.000000 0.000000 0.000000
# 4 0.000000 0.000000 0.000000 0.025958 0.000000 0.000000
# 5 0.000000 0.000000 0.000000 0.000000 0.030938 0.000000
# 6 0.000000 0.000000 0.000000 0.000000 0.000000 0.023446
#
#
# Mechanical properties :
#
#
# Convention : Reuss Voigt Hill
#
# Bulk Modulus (GPa) = 20.61171 28.81754 24.71462
# Shear Modulus (GPa) = 35.21893 38.17647 36.69770
#
# Velocity S-wave (km/s) = 3.44633 3.58812 3.51794
# Velocity P-wave (km/s) = 4.77361 5.18503 4.98357
#
# Compressibility (1/GPa) = 0.04851612
#
# Stress axis : x y z
#
# Youngs Moduli (GPa) = 85.40583 39.98818 97.38036
#
# Poissons Ratio (x) = -0.07997 0.27625
# Poissons Ratio (y) = -0.17081 -0.15603
# Poissons Ratio (z) = 0.24228 -0.06407
#
# Static dielectric constant tensor:
#      x y z
#    x 5.590090 0.000000 0.000000 
#    y 0.000000 4.974380 0.000000 
#    z 0.000000 0.000000 5.709150 
# 
# 
# High freq. dielectric constant tensor:
#      x y z
#    x 2.226300 0.000000 0.000000 
#    y 0.000000 2.194980 0.000000 
#    z 0.000000 0.000000 2.224810 
# 
# From -- ./inp_files/4572.got.cif
#   From: 2010.03.12/outbox.cif.g09.slc.cpg/sg33_3_cif.got.tgz:4572.got - 2010.04.14 01:49:19.
