data_PCOD8171208
_publ_section_title
;
Structure prediction by ZEFSAII (Michael W. Deem and Ramdas Pophale) SiO2 
 PCOD8171208
Probable space group: P N A 21
;
_chemical_formula_sum "Si O2"
_cell_formula_units_Z 32
_cell_length_a 8.158071
_cell_length_b 4.704493
_cell_length_c 26.521833
_cell_angle_alpha 90.000000
_cell_angle_beta 90.000000
_cell_angle_gamma 90.000000
_cell_volume 1017.897021
_symmetry_space_group_name_H-M "P N A 21"
_symmetry_group_IT_number 33
_symmetry_cell_setting 'orthorhombic'
loop_
_space_group_symop_operation_xyz
x,y,z
-x,-y,1/2+z
1/2-x,1/2+y,1/2+z
1/2+x,1/2-y,z
loop_
_atom_site_type_symbol
_atom_site_label
_atom_site_fract_x
_atom_site_fract_y
_atom_site_fract_z
Si Si1 0.444472 0.003200 0.896060
Si Si2 0.659952 0.016671 0.207252
Si Si3 0.155670 0.886439 0.832980
Si Si4 0.143682 0.955702 0.272838
Si Si5 0.618200 0.589027 0.526507
Si Si6 0.345073 0.582533 0.457943
Si Si7 0.588458 0.002644 0.089506
Si Si8 0.483547 0.524401 0.153094
O O1 0.319155 0.067402 0.848695
O O2 0.570425 0.749472 0.884022
O O3 0.547772 0.281147 0.911767
O O4 0.312860 0.900327 0.939245
O O5 0.721821 0.857916 0.259296
O O6 0.533787 0.758518 0.195289
O O7 0.794077 0.031304 0.162902
O O8 0.593447 0.333352 0.223377
O O9 0.204579 0.618869 0.798224
O O10 0.015740 0.078388 0.807603
O O11 0.468872 0.417701 0.497286
O O12 0.532507 0.875255 0.547600
O O13 0.760508 0.655565 0.486847
O O14 0.720597 0.459214 0.573619
O O15 0.567766 0.206102 0.141972
O O16 0.524761 0.681872 0.099777
#
# Coordination Sequence:
#
# PCOD8171208 Si02
#       8
#     4   4   4   4   4   4   4   4
#     4  10  22  41  66  97 136 178 238 292 355 426
#     4  12  24  42  65  96 135 180 233 292 352 424
#     4  10  24  41  63 101 140 184 234 299 359 425
#     4  11  24  43  66  99 137 184 235 290 358 425
#     4   9  20  40  63  94 138 180 230 288 351 421
#     4   9  20  42  69  97 134 184 234 291 353 426
#     4  11  22  41  64  98 135 180 233 288 352 425
#     4  12  24  40  66  96 133 180 231 292 352 416
#
# _framework density 31.437366000000001
#
# number of rings (size 3 to 8) (size 9 to 14) (size 15 to 20)
#    0.000    1.500    0.000    4.500    0.000    8.000 
#    0.000   18.750    0.000    0.000    0.000    0.000 
#    0.000    0.000    0.000    0.000    0.000    0.000 
#
# Total GULP energy -396431.707408 kJ/mol
# GULP energy per Si atom -12388.490857 kJ/mol
# Density = 3.136581 g / cm^3
# Si number density = 31.437366 Si / 1000 Ang^3
#
#
#
# Elastic Constant Matrix: (Units=GPa)
#
#
# Indices 1 2 3 4 5 6 
#
# 1 148.2204 61.3704 27.9830 0.0000 0.0000 0.0000
# 2 61.3704 187.2772 26.7674 0.0000 0.0000 0.0000
# 3 27.9830 26.7674 104.4493 0.0000 0.0000 0.0000
# 4 0.0000 0.0000 0.0000 -130.6365 0.0000 0.0000
# 5 0.0000 0.0000 0.0000 0.0000 62.8639 0.0000
# 6 0.0000 0.0000 0.0000 0.0000 0.0000 45.0740
#
#
#
# Elastic Compliance Matrix: (Units=1/GPa)
#
#
# Indices 1 2 3 4 5 6 
#
# 1 0.008036 -0.002414 -0.001534 0.000000 0.000000 0.000000
# 2 -0.002414 0.006268 -0.000960 0.000000 0.000000 0.000000
# 3 -0.001534 -0.000960 0.010231 0.000000 0.000000 0.000000
# 4 0.000000 0.000000 0.000000 -0.007655 0.000000 0.000000
# 5 0.000000 0.000000 0.000000 0.000000 0.015907 0.000000
# 6 0.000000 0.000000 0.000000 0.000000 0.000000 0.022186
#
#
# Mechanical properties :
#
#
# Convention : Reuss Voigt Hill
#
# Bulk Modulus (GPa) = 67.93897 74.68762 71.31329
# Shear Modulus (GPa) = 71.74106 17.04869 44.39487
#
# Velocity S-wave (km/s) = 4.78224 2.33127 3.76196
# Velocity P-wave (km/s) = 7.22156 5.57276 6.45006
#
# Compressibility (1/GPa) = 0.01471909
#
# Stress axis : x y z
#
# Youngs Moduli (GPa) = 124.44154 159.54285 97.74249
#
# Poissons Ratio (x) = 0.38515 0.14996
# Poissons Ratio (y) = 0.30041 0.09379
# Poissons Ratio (z) = 0.19092 0.15309
#
# Static dielectric constant tensor:
#      x y z
#    x 5.933110 0.000000 0.000000 
#    y 0.000000 6.012210 0.000000 
#    z 0.000000 0.000000 7.447670 
# 
# 
# High freq. dielectric constant tensor:
#      x y z
#    x 2.316000 0.000000 0.000000 
#    y 0.000000 2.280960 0.000000 
#    z 0.000000 0.000000 2.364030 
# 
# From -- ./inp_files/9394.got.cif
#   From: 2010.03.12/outbox.cif.g09.slc.cpg/sg33_5_cif.got.tgz:9394.got - 2010.04.14 01:49:19.
