data_PCOD8171125
_publ_section_title
;
Structure prediction by ZEFSAII (Michael W. Deem and Ramdas Pophale) SiO2 
 PCOD8171125
Probable space group: P N A 21
;
_chemical_formula_sum "Si O2"
_cell_formula_units_Z 20
_cell_length_a 18.685281
_cell_length_b 6.540064
_cell_length_c 7.482566
_cell_angle_alpha 90.000000
_cell_angle_beta 90.000000
_cell_angle_gamma 90.000000
_cell_volume 914.391516
_symmetry_space_group_name_H-M "P N A 21"
_symmetry_group_IT_number 33
_symmetry_cell_setting 'orthorhombic'
loop_
_space_group_symop_operation_xyz
x,y,z
-x,-y,1/2+z
1/2-x,1/2+y,1/2+z
1/2+x,1/2-y,z
loop_
_atom_site_type_symbol
_atom_site_label
_atom_site_fract_x
_atom_site_fract_y
_atom_site_fract_z
Si Si1 0.332726 0.301894 0.525550
Si Si2 0.444361 0.621645 0.382373
Si Si3 0.785509 0.886167 0.793123
Si Si4 0.074732 0.152324 0.477588
Si Si5 0.393035 0.913316 0.671352
O O1 0.382045 0.459318 0.420563
O O2 0.277983 0.420630 0.658131
O O3 0.290115 0.163466 0.383224
O O4 0.384541 0.154770 0.641812
O O5 0.437639 0.707360 0.182399
O O6 0.521066 0.519015 0.405737
O O7 0.438648 0.815855 0.510835
O O8 0.813596 0.690437 0.678829
O O9 0.845547 0.939070 0.943479
O O10 0.066078 0.360556 0.358298
#
# Coordination Sequence:
#
# PCOD8171125 Si02
#       5
#     4   4   4   4   4
#     4  11  23  43  65  98 129 173 218 267 321 392
#     4  11  21  45  67  93 132 173 212 270 324 381
#     4   9  24  40  65  91 134 166 217 266 323 377
#     4  10  21  45  66  91 134 168 210 274 319 380
#     4   9  23  41  61  97 127 164 221 261 319 384
#
# _framework density 21.872467
#
# number of rings (size 3 to 8) (size 9 to 14) (size 15 to 20)
#    1.200    0.800    2.000    0.000    5.600    1.600 
#   10.800    0.000    0.000    0.000    0.000    0.000 
#    0.000    0.000    0.000    0.000    0.000    0.000 
#
# Total GULP energy -247892.242564 kJ/mol
# GULP energy per Si atom -12394.612128 kJ/mol
# Density = 2.182268 g / cm^3
# Si number density = 21.872467 Si / 1000 Ang^3
#
#
#
# Elastic Constant Matrix: (Units=GPa)
#
#
# Indices 1 2 3 4 5 6 
#
# 1 64.1125 8.4079 10.3512 0.0000 0.0000 0.0000
# 2 8.4079 61.6055 39.8014 0.0000 0.0000 0.0000
# 3 10.3512 39.8014 152.6284 0.0000 0.0000 0.0000
# 4 0.0000 0.0000 0.0000 24.6323 0.0000 0.0000
# 5 0.0000 0.0000 0.0000 0.0000 32.5612 0.0000
# 6 0.0000 0.0000 0.0000 0.0000 0.0000 16.1030
#
#
#
# Elastic Compliance Matrix: (Units=1/GPa)
#
#
# Indices 1 2 3 4 5 6 
#
# 1 0.015930 -0.001775 -0.000617 0.000000 0.000000 0.000000
# 2 -0.001775 0.019719 -0.005022 0.000000 0.000000 0.000000
# 3 -0.000617 -0.005022 0.007903 0.000000 0.000000 0.000000
# 4 0.000000 0.000000 0.000000 0.040597 0.000000 0.000000
# 5 0.000000 0.000000 0.000000 0.000000 0.030711 0.000000
# 6 0.000000 0.000000 0.000000 0.000000 0.000000 0.062100
#
#
# Mechanical properties :
#
#
# Convention : Reuss Voigt Hill
#
# Bulk Modulus (GPa) = 34.81472 43.94083 39.37777
# Shear Modulus (GPa) = 24.83057 29.31168 27.07113
#
# Velocity S-wave (km/s) = 3.37299 3.66473 3.52188
# Velocity P-wave (km/s) = 5.57863 6.16767 5.88053
#
# Compressibility (1/GPa) = 0.02872348
#
# Stress axis : x y z
#
# Youngs Moduli (GPa) = 62.77429 50.71243 126.52961
#
# Poissons Ratio (x) = 0.09003 0.07813
# Poissons Ratio (y) = 0.11144 0.63541
# Poissons Ratio (z) = 0.03876 0.25467
#
# Static dielectric constant tensor:
#      x y z
#    x 3.675790 0.000000 0.000000 
#    y 0.000000 3.615240 0.000000 
#    z 0.000000 0.000000 3.943150 
# 
# 
# High freq. dielectric constant tensor:
#      x y z
#    x 1.848580 0.000000 0.000000 
#    y 0.000000 1.843310 0.000000 
#    z 0.000000 0.000000 1.863890 
# 
# From -- ./inp_files/4896.got.cif
#   From: 2010.03.12/outbox.cif.g09.slc.cpg/sg33_3_cif.got.tgz:4896.got - 2010.04.14 01:49:19.
