data_PCOD8171632
_publ_section_title
;
Structure prediction by ZEFSAII (Michael W. Deem and Ramdas Pophale) SiO2 
 PCOD8171632
Probable space group: P N A 21
;
_chemical_formula_sum "Si O2"
_cell_formula_units_Z 32
_cell_length_a 9.473268
_cell_length_b 14.045677
_cell_length_c 11.089801
_cell_angle_alpha 90.000000
_cell_angle_beta 90.000000
_cell_angle_gamma 90.000000
_cell_volume 1475.591870
_symmetry_space_group_name_H-M "P N A 21"
_symmetry_group_IT_number 33
_symmetry_cell_setting 'orthorhombic'
loop_
_space_group_symop_operation_xyz
x,y,z
-x,-y,1/2+z
1/2-x,1/2+y,1/2+z
1/2+x,1/2-y,z
loop_
_atom_site_type_symbol
_atom_site_label
_atom_site_fract_x
_atom_site_fract_y
_atom_site_fract_z
Si Si1 0.420862 0.323692 0.977730
Si Si2 0.855742 0.914370 0.305427
Si Si3 0.309045 0.971516 0.437863
Si Si4 0.432431 0.252663 0.426458
Si Si5 0.302227 0.664518 0.057007
Si Si6 0.978162 0.110538 0.241120
Si Si7 0.892503 0.394168 0.974211
Si Si8 0.803821 0.393869 0.245853
O O1 0.549547 0.373778 0.911626
O O2 0.273734 0.372633 0.943497
O O3 0.419035 0.214702 0.936652
O O4 0.438080 0.334215 0.120333
O O5 0.834881 0.837834 0.198945
O O6 0.707833 0.940948 0.371214
O O7 0.935581 0.000570 0.237925
O O8 0.465146 0.954589 0.489589
O O9 0.226731 0.056566 0.508634
O O10 0.322802 0.999039 0.296875
O O11 0.584989 0.273991 0.482224
O O12 0.337162 0.228390 0.541162
O O13 0.387175 0.346933 0.352446
O O14 0.415176 0.169326 0.324178
O O15 0.141227 0.134456 0.270349
O O16 0.821683 0.393894 0.104268
#
# Coordination Sequence:
#
# PCOD8171632 Si02
#       8
#     4   4   4   4   4   4   4   4
#     4  12  24  47  74 104 145 190 240 302 363 433
#     4  12  27  47  69 106 150 195 236 290 388 431
#     4  11  25  46  69 105 146 185 241 301 358 434
#     4  11  23  46  76 102 140 187 244 298 350 429
#     4  11  26  46  69 109 147 187 239 298 364 437
#     4  12  23  46  77 102 138 191 248 297 353 442
#     4  12  28  44  72 110 145 190 238 311 364 425
#     4  11  24  46  72 108 139 183 252 295 358 429
#
# _framework density 21.686212000000001
#
# number of rings (size 3 to 8) (size 9 to 14) (size 15 to 20)
#    0.000    0.500    7.500    0.750    3.500    3.000 
#    0.000    0.000    0.000    0.000    0.000    0.000 
#    0.000    0.000    0.000    0.000    0.000    0.000 
#
# Total GULP energy -396533.573437 kJ/mol
# GULP energy per Si atom -12391.674170 kJ/mol
# Density = 2.163685 g / cm^3
# Si number density = 21.686212 Si / 1000 Ang^3
#
#
#
# Elastic Constant Matrix: (Units=GPa)
#
#
# Indices 1 2 3 4 5 6 
#
# 1 106.2730 43.5814 33.2582 0.0000 0.0000 0.0000
# 2 43.5814 55.0305 19.6668 0.0000 0.0000 0.0000
# 3 33.2582 19.6668 101.1263 0.0000 0.0000 0.0000
# 4 0.0000 0.0000 0.0000 36.8980 0.0000 0.0000
# 5 0.0000 0.0000 0.0000 0.0000 24.1968 0.0000
# 6 0.0000 0.0000 0.0000 0.0000 0.0000 40.5525
#
#
#
# Elastic Compliance Matrix: (Units=1/GPa)
#
#
# Indices 1 2 3 4 5 6 
#
# 1 0.014612 -0.010591 -0.002746 0.000000 0.000000 0.000000
# 2 -0.010591 0.027205 -0.001808 0.000000 0.000000 0.000000
# 3 -0.002746 -0.001808 0.011143 0.000000 0.000000 0.000000
# 4 0.000000 0.000000 0.000000 0.027102 0.000000 0.000000
# 5 0.000000 0.000000 0.000000 0.000000 0.041328 0.000000
# 6 0.000000 0.000000 0.000000 0.000000 0.000000 0.024659
#
#
# Mechanical properties :
#
#
# Convention : Reuss Voigt Hill
#
# Bulk Modulus (GPa) = 44.10784 50.60472 47.35628
# Shear Modulus (GPa) = 27.18931 31.39102 29.29016
#
# Velocity S-wave (km/s) = 3.54469 3.80874 3.67909
# Velocity P-wave (km/s) = 6.09396 6.53664 6.31918
#
# Compressibility (1/GPa) = 0.02267171
#
# Stress axis : x y z
#
# Youngs Moduli (GPa) = 68.43570 36.75775 89.74028
#
# Poissons Ratio (x) = 0.38929 0.24642
# Poissons Ratio (y) = 0.72479 0.16222
# Poissons Ratio (z) = 0.18792 0.06645
#
# Static dielectric constant tensor:
#      x y z
#    x 3.967650 0.000000 0.000000 
#    y 0.000000 3.969760 0.000000 
#    z 0.000000 0.000000 4.043170 
# 
# 
# High freq. dielectric constant tensor:
#      x y z
#    x 1.854030 0.000000 0.000000 
#    y 0.000000 1.843500 0.000000 
#    z 0.000000 0.000000 1.864600 
# 
# From -- ./inp_files/5968.got.cif
#   From: 2010.03.12/outbox.cif.g09.slc.cpg/sg33_3_cif.got.tgz:5968.got - 2010.04.14 01:49:19.
