data_PCOD8171546
_publ_section_title
;
Structure prediction by ZEFSAII (Michael W. Deem and Ramdas Pophale) SiO2 
 PCOD8171546
Probable space group: P N A 21
;
_chemical_formula_sum "Si O2"
_cell_formula_units_Z 32
_cell_length_a 9.741631
_cell_length_b 10.987873
_cell_length_c 14.665534
_cell_angle_alpha 90.000000
_cell_angle_beta 90.000000
_cell_angle_gamma 90.000000
_cell_volume 1569.795888
_symmetry_space_group_name_H-M "P N A 21"
_symmetry_group_IT_number 33
_symmetry_cell_setting 'orthorhombic'
loop_
_space_group_symop_operation_xyz
x,y,z
-x,-y,1/2+z
1/2-x,1/2+y,1/2+z
1/2+x,1/2-y,z
loop_
_atom_site_type_symbol
_atom_site_label
_atom_site_fract_x
_atom_site_fract_y
_atom_site_fract_z
Si Si1 0.130651 0.510211 0.346840
Si Si2 0.950038 0.997349 0.627896
Si Si3 0.569515 0.238486 0.427514
Si Si4 0.386897 0.516513 0.829942
Si Si5 0.713836 0.378864 0.690669
Si Si6 0.877542 0.889729 0.444502
Si Si7 0.816216 0.221089 0.548271
Si Si8 0.362637 0.830982 0.331268
O O1 0.068928 0.375190 0.357695
O O2 0.221957 0.518620 0.255610
O O3 0.231712 0.539863 0.432398
O O4 0.012147 0.609253 0.332777
O O5 0.099465 0.057509 0.628431
O O6 0.840638 0.100261 0.605117
O O7 0.916566 0.942305 0.726290
O O8 0.937890 0.898233 0.546808
O O9 0.634910 0.357775 0.382246
O O10 0.660229 0.208596 0.515125
O O11 0.415322 0.264442 0.461121
O O12 0.514642 0.441800 0.870263
O O13 0.251275 0.435217 0.834533
O O14 0.828432 0.333532 0.618640
O O15 0.655010 0.261725 0.746223
O O16 0.851178 0.747926 0.423899
#
# Coordination Sequence:
#
# PCOD8171546 Si02
#       8
#     4   4   4   4   4   4   4   4
#     4  11  23  42  65  98 133 166 220 280 330 391
#     4  12  22  39  68  98 128 176 227 262 332 400
#     4  12  25  42  65  97 139 175 211 275 348 391
#     4  12  23  43  68  96 135 180 216 270 340 404
#     4  11  22  40  70 102 124 174 230 276 317 398
#     4  11  22  42  67  95 131 177 218 276 330 391
#     4  12  22  41  67  97 127 173 232 271 314 405
#     4  11  23  39  70  97 129 165 230 276 329 380
#
# _framework density 20.384815
#
# number of rings (size 3 to 8) (size 9 to 14) (size 15 to 20)
#    0.000    0.500    7.500    3.000    0.000    0.000 
#    0.000    5.000    0.000    0.000    0.000    0.000 
#    0.000    0.000    0.000    0.000    0.000    0.000 
#
# Total GULP energy -396754.531837 kJ/mol
# GULP energy per Si atom -12398.579120 kJ/mol
# Density = 2.033842 g / cm^3
# Si number density = 20.384815 Si / 1000 Ang^3
#
#
#
# Elastic Constant Matrix: (Units=GPa)
#
#
# Indices 1 2 3 4 5 6 
#
# 1 82.9145 11.7637 24.0624 0.0000 0.0000 0.0000
# 2 11.7637 72.0258 28.2188 0.0000 0.0000 0.0000
# 3 24.0624 28.2188 118.3814 0.0000 0.0000 0.0000
# 4 0.0000 0.0000 0.0000 38.5378 0.0000 0.0000
# 5 0.0000 0.0000 0.0000 0.0000 33.5606 0.0000
# 6 0.0000 0.0000 0.0000 0.0000 0.0000 23.0742
#
#
#
# Elastic Compliance Matrix: (Units=1/GPa)
#
#
# Indices 1 2 3 4 5 6 
#
# 1 0.012909 -0.001192 -0.002340 0.000000 0.000000 0.000000
# 2 -0.001192 0.015424 -0.003434 0.000000 0.000000 0.000000
# 3 -0.002340 -0.003434 0.009742 0.000000 0.000000 0.000000
# 4 0.000000 0.000000 0.000000 0.025949 0.000000 0.000000
# 5 0.000000 0.000000 0.000000 0.000000 0.029797 0.000000
# 6 0.000000 0.000000 0.000000 0.000000 0.000000 0.043338
#
#
# Mechanical properties :
#
#
# Convention : Reuss Voigt Hill
#
# Bulk Modulus (GPa) = 41.42057 44.60128 43.01092
# Shear Modulus (GPa) = 31.41936 32.98631 32.20284
#
# Velocity S-wave (km/s) = 3.93021 4.02703 3.97891
# Velocity P-wave (km/s) = 6.39991 6.59922 6.50033
#
# Compressibility (1/GPa) = 0.02414259
#
# Stress axis : x y z
#
# Youngs Moduli (GPa) = 77.46707 64.83351 102.65317
#
# Poissons Ratio (x) = 0.07726 0.24019
# Poissons Ratio (y) = 0.09231 0.35256
# Poissons Ratio (z) = 0.18126 0.22267
#
# Static dielectric constant tensor:
#      x y z
#    x 3.760760 0.000000 0.000000 
#    y 0.000000 3.644250 0.000000 
#    z 0.000000 0.000000 3.787670 
# 
# 
# High freq. dielectric constant tensor:
#      x y z
#    x 1.805520 0.000000 0.000000 
#    y 0.000000 1.784640 0.000000 
#    z 0.000000 0.000000 1.795740 
# 
# From -- ./inp_files/7640.got.cif
#   From: 2010.03.12/outbox.cif.g09.slc.cpg/sg33_4_cif.got.tgz:7640.got - 2010.04.14 01:49:19.
