data_PCOD8171234
_publ_section_title
;
Structure prediction by ZEFSAII (Michael W. Deem and Ramdas Pophale) SiO2 
 PCOD8171234
Probable space group: P N A 21
;
_chemical_formula_sum "Si O2"
_cell_formula_units_Z 32
_cell_length_a 9.004799
_cell_length_b 14.924218
_cell_length_c 11.260105
_cell_angle_alpha 90.000000
_cell_angle_beta 90.000000
_cell_angle_gamma 90.000000
_cell_volume 1513.240819
_symmetry_space_group_name_H-M "P N A 21"
_symmetry_group_IT_number 33
_symmetry_cell_setting 'orthorhombic'
loop_
_space_group_symop_operation_xyz
x,y,z
-x,-y,1/2+z
1/2-x,1/2+y,1/2+z
1/2+x,1/2-y,z
loop_
_atom_site_type_symbol
_atom_site_label
_atom_site_fract_x
_atom_site_fract_y
_atom_site_fract_z
Si Si1 0.907113 0.673919 0.883470
Si Si2 0.322784 0.917111 0.650052
Si Si3 0.425737 0.976351 0.067960
Si Si4 0.090883 0.836737 0.965881
Si Si5 0.833158 0.114258 0.712059
Si Si6 0.180784 0.635486 0.419914
Si Si7 0.099965 0.003078 0.805083
Si Si8 0.852056 0.693792 0.416684
O O1 0.900030 0.650113 0.744351
O O2 0.751699 0.699797 0.938536
O O3 0.989630 0.767003 0.898129
O O4 0.968758 0.588445 0.957604
O O5 0.157466 0.943134 0.694351
O O6 0.308087 0.873771 0.520950
O O7 0.423474 0.006706 0.640949
O O8 0.300421 0.938985 0.152777
O O9 0.366146 0.073699 0.029331
O O10 0.073282 0.938678 0.918636
O O11 0.070941 0.835293 0.109460
O O12 0.756590 0.181132 0.804134
O O13 0.943347 0.048139 0.780378
O O14 0.263893 0.572361 0.324592
O O15 0.306982 0.706725 0.460588
O O16 0.025649 0.683927 0.377389
#
# Coordination Sequence:
#
# PCOD8171234 Si02
#       8
#     4   4   4   4   4   4   4   4
#     4  10  22  44  63  95 131 167 223 268 334 390
#     4  10  23  41  66 100 127 179 219 275 337 404
#     4  10  22  42  68  87 135 174 220 274 336 399
#     4  10  24  43  63  96 128 176 215 276 334 391
#     4  11  24  40  65 102 132 175 222 275 340 407
#     4  11  22  46  62  94 136 169 223 273 332 403
#     4  11  23  42  67  90 139 169 223 280 333 404
#     4  11  26  38  70 100 130 179 221 275 344 402
#
# _framework density 21.146667000000001
#
# number of rings (size 3 to 8) (size 9 to 14) (size 15 to 20)
#    0.000    1.500    3.750    1.500    3.500   13.000 
#    0.000    0.000    0.000    0.000    0.000    0.000 
#    0.000    0.000    0.000    0.000    0.000    0.000 
#
# Total GULP energy -396577.659186 kJ/mol
# GULP energy per Si atom -12393.051850 kJ/mol
# Density = 2.109854 g / cm^3
# Si number density = 21.146667 Si / 1000 Ang^3
#
#
#
# Elastic Constant Matrix: (Units=GPa)
#
#
# Indices 1 2 3 4 5 6 
#
# 1 50.3365 39.9139 23.8486 0.0000 0.0000 0.0000
# 2 39.9139 78.4779 3.8927 0.0000 0.0000 0.0000
# 3 23.8486 3.8927 73.7356 0.0000 0.0000 0.0000
# 4 0.0000 0.0000 0.0000 20.5455 0.0000 0.0000
# 5 0.0000 0.0000 0.0000 0.0000 25.9623 0.0000
# 6 0.0000 0.0000 0.0000 0.0000 0.0000 38.2936
#
#
#
# Elastic Compliance Matrix: (Units=1/GPa)
#
#
# Indices 1 2 3 4 5 6 
#
# 1 0.042493 -0.020985 -0.012636 0.000000 0.000000 0.000000
# 2 -0.020985 0.023139 0.005566 0.000000 0.000000 0.000000
# 3 -0.012636 0.005566 0.017355 0.000000 0.000000 0.000000
# 4 0.000000 0.000000 0.000000 0.048673 0.000000 0.000000
# 5 0.000000 0.000000 0.000000 0.000000 0.038517 0.000000
# 6 0.000000 0.000000 0.000000 0.000000 0.000000 0.026114
#
#
# Mechanical properties :
#
#
# Convention : Reuss Voigt Hill
#
# Bulk Modulus (GPa) = 37.20671 37.54006 37.37339
# Shear Modulus (GPa) = 19.13066 25.95326 22.54196
#
# Velocity S-wave (km/s) = 3.01103 3.50708 3.26848
# Velocity P-wave (km/s) = 5.45171 5.84724 5.65294
#
# Compressibility (1/GPa) = 0.02687687
#
# Stress axis : x y z
#
# Youngs Moduli (GPa) = 23.53336 43.21634 57.62030
#
# Poissons Ratio (x) = 0.90690 0.72808
# Poissons Ratio (y) = 0.49385 -0.32070
# Poissons Ratio (z) = 0.29736 -0.24053
#
# Static dielectric constant tensor:
#      x y z
#    x 3.844610 0.000000 0.000000 
#    y 0.000000 3.853180 0.000000 
#    z 0.000000 0.000000 3.880620 
# 
# 
# High freq. dielectric constant tensor:
#      x y z
#    x 1.830770 0.000000 0.000000 
#    y 0.000000 1.829260 0.000000 
#    z 0.000000 0.000000 1.827230 
# 
# From -- ./inp_files/6001.got.cif
#   From: 2010.03.12/outbox.cif.g09.slc.cpg/sg33_4_cif.got.tgz:6001.got - 2010.04.14 01:49:19.
