data_PCOD8171038
_publ_section_title
;
Structure prediction by ZEFSAII (Michael W. Deem and Ramdas Pophale) SiO2 
 PCOD8171038
Probable space group: P N A 21
;
_chemical_formula_sum "Si O2"
_cell_formula_units_Z 32
_cell_length_a 13.664335
_cell_length_b 13.360167
_cell_length_c 8.909632
_cell_angle_alpha 90.000000
_cell_angle_beta 90.000000
_cell_angle_gamma 90.000000
_cell_volume 1626.522795
_symmetry_space_group_name_H-M "P N A 21"
_symmetry_group_IT_number 33
_symmetry_cell_setting 'orthorhombic'
loop_
_space_group_symop_operation_xyz
x,y,z
-x,-y,1/2+z
1/2-x,1/2+y,1/2+z
1/2+x,1/2-y,z
loop_
_atom_site_type_symbol
_atom_site_label
_atom_site_fract_x
_atom_site_fract_y
_atom_site_fract_z
Si Si1 0.058382 0.898518 0.592840
Si Si2 0.929452 0.374132 0.851153
Si Si3 0.058430 0.713864 0.034047
Si Si4 0.947763 0.074304 0.439883
Si Si5 0.730077 0.656893 0.072633
Si Si6 0.907637 0.604627 0.867086
Si Si7 0.420143 0.789674 0.564118
Si Si8 0.279734 0.292219 0.911145
O O1 0.071401 0.934128 0.762561
O O2 0.162483 0.865841 0.523962
O O3 0.980864 0.809894 0.590559
O O4 0.019905 0.987570 0.489333
O O5 0.970699 0.324847 0.698804
O O6 0.897003 0.488142 0.832019
O O7 0.835117 0.312731 0.901590
O O8 0.013964 0.370215 0.975936
O O9 0.176027 0.737362 0.022207
O O10 0.004182 0.819285 0.992667
O O11 0.019566 0.630965 0.916312
O O12 0.840666 0.065770 0.518865
O O13 0.735325 0.652783 0.252098
O O14 0.836015 0.643779 0.998873
O O15 0.881578 0.662901 0.717136
O O16 0.325545 0.761910 0.470085
#
# Coordination Sequence:
#
# PCOD8171038 Si02
#       8
#     4   4   4   4   4   4   4   4
#     4  11  22  40  65  93 122 162 206 259 312 366
#     4  10  23  40  64  89 122 172 200 254 307 375
#     4   9  21  42  59  88 126 157 204 254 309 361
#     4  10  21  40  64  88 120 158 203 258 307 367
#     4   9  21  39  63  86 124 162 206 254 299 367
#     4  12  21  40  65  92 124 166 207 253 311 367
#     4  11  23  38  62  93 128 157 207 258 305 366
#     4  10  22  41  60  91 128 162 207 252 306 369
#
# _framework density 19.673871999999999
#
# number of rings (size 3 to 8) (size 9 to 14) (size 15 to 20)
#    0.750    1.000    1.250    3.000    3.500    0.000 
#    0.000    2.500    0.000    0.000    0.000    0.000 
#    0.000    0.000    0.000    0.000    0.000    0.000 
#
# Total GULP energy -396632.816297 kJ/mol
# GULP energy per Si atom -12394.775509 kJ/mol
# Density = 1.962909 g / cm^3
# Si number density = 19.673872 Si / 1000 Ang^3
#
#
#
# Elastic Constant Matrix: (Units=GPa)
#
#
# Indices 1 2 3 4 5 6 
#
# 1 70.3727 17.5195 29.3889 0.0000 0.0000 0.0000
# 2 17.5195 89.6332 35.9011 0.0000 0.0000 0.0000
# 3 29.3889 35.9011 122.0727 0.0000 0.0000 0.0000
# 4 0.0000 0.0000 0.0000 27.4997 0.0000 0.0000
# 5 0.0000 0.0000 0.0000 0.0000 28.4451 0.0000
# 6 0.0000 0.0000 0.0000 0.0000 0.0000 7.8890
#
#
#
# Elastic Compliance Matrix: (Units=1/GPa)
#
#
# Indices 1 2 3 4 5 6 
#
# 1 0.016051 -0.001802 -0.003334 0.000000 0.000000 0.000000
# 2 -0.001802 0.012849 -0.003345 0.000000 0.000000 0.000000
# 3 -0.003334 -0.003345 0.009978 0.000000 0.000000 0.000000
# 4 0.000000 0.000000 0.000000 0.036364 0.000000 0.000000
# 5 0.000000 0.000000 0.000000 0.000000 0.035155 0.000000
# 6 0.000000 0.000000 0.000000 0.000000 0.000000 0.126758
#
#
# Mechanical properties :
#
#
# Convention : Reuss Voigt Hill
#
# Bulk Modulus (GPa) = 45.62926 49.74418 47.68672
# Shear Modulus (GPa) = 19.12608 26.05136 22.58872
#
# Velocity S-wave (km/s) = 3.12133 3.64285 3.39212
# Velocity P-wave (km/s) = 6.01942 6.55996 6.29549
#
# Compressibility (1/GPa) = 0.02191576
#
# Stress axis : x y z
#
# Youngs Moduli (GPa) = 62.30094 77.83004 100.21717
#
# Poissons Ratio (x) = 0.14023 0.33416
# Poissons Ratio (y) = 0.11225 0.33522
# Poissons Ratio (z) = 0.20774 0.26034
#
# Static dielectric constant tensor:
#      x y z
#    x 3.456360 0.000000 0.000000 
#    y 0.000000 3.414680 0.000000 
#    z 0.000000 0.000000 3.707180 
# 
# 
# High freq. dielectric constant tensor:
#      x y z
#    x 1.757950 0.000000 0.000000 
#    y 0.000000 1.753400 0.000000 
#    z 0.000000 0.000000 1.782540 
# 
# From -- ./inp_files/4500.got.cif
#   From: 2010.03.12/outbox.cif.g09.slc.cpg/sg33_3_cif.got.tgz:4500.got - 2010.04.14 01:49:19.
