data_PCOD8171565
_publ_section_title
;
Structure prediction by ZEFSAII (Michael W. Deem and Ramdas Pophale) SiO2 
 PCOD8171565
Probable space group: P N A 21
;
_chemical_formula_sum "Si O2"
_cell_formula_units_Z 32
_cell_length_a 13.935920
_cell_length_b 9.325552
_cell_length_c 10.949382
_cell_angle_alpha 90.000000
_cell_angle_beta 90.000000
_cell_angle_gamma 90.000000
_cell_volume 1422.983290
_symmetry_space_group_name_H-M "P N A 21"
_symmetry_group_IT_number 33
_symmetry_cell_setting 'orthorhombic'
loop_
_space_group_symop_operation_xyz
x,y,z
-x,-y,1/2+z
1/2-x,1/2+y,1/2+z
1/2+x,1/2-y,z
loop_
_atom_site_type_symbol
_atom_site_label
_atom_site_fract_x
_atom_site_fract_y
_atom_site_fract_z
Si Si1 0.812875 0.100077 0.434960
Si Si2 0.954683 0.769268 0.777661
Si Si3 0.541641 0.039089 0.093059
Si Si4 0.394555 0.494409 0.198027
Si Si5 0.749895 0.878980 0.798871
Si Si6 0.984215 0.214124 0.556439
Si Si7 0.334971 0.095972 0.042152
Si Si8 0.247429 0.392957 0.999235
O O1 0.853394 0.987174 0.334791
O O2 0.802274 0.258704 0.379671
O O3 0.889138 0.115359 0.545547
O O4 0.711607 0.047052 0.485256
O O5 0.962255 0.606748 0.728867
O O6 0.849249 0.824259 0.743329
O O7 0.029476 0.864421 0.699937
O O8 0.969148 0.773872 0.922369
O O9 0.448320 0.088893 0.015362
O O10 0.633938 0.098736 0.021940
O O11 0.543802 0.868373 0.109510
O O12 0.442879 0.640785 0.151294
O O13 0.304742 0.458086 0.112955
O O14 0.678867 0.910535 0.687756
O O15 0.770860 0.020978 0.876481
O O16 0.283878 0.231388 0.978971
#
# Coordination Sequence:
#
# PCOD8171565 Si02
#       8
#     4   4   4   4   4   4   4   4
#     4  11  24  46  73 106 145 190 232 300 361 422
#     4  11  22  44  74 101 143 192 235 296 357 425
#     4  12  25  42  71 106 140 188 242 293 355 427
#     4  11  23  47  73 106 142 190 239 291 362 424
#     4  12  23  48  74 101 144 193 235 292 367 425
#     4  11  24  43  72 108 145 189 242 295 356 430
#     4  12  26  46  72 108 142 189 244 297 357 430
#     4  12  25  46  73 102 145 189 235 300 361 425
#
# _framework density 22.487967000000001
#
# number of rings (size 3 to 8) (size 9 to 14) (size 15 to 20)
#    0.000    0.500    6.250    2.250    0.000    1.000 
#    0.000    2.500    0.000    0.000    0.000    0.000 
#    0.000    0.000    0.000    0.000    0.000    0.000 
#
# Total GULP energy -396924.308986 kJ/mol
# GULP energy per Si atom -12403.884656 kJ/mol
# Density = 2.243678 g / cm^3
# Si number density = 22.487967 Si / 1000 Ang^3
#
#
#
# Elastic Constant Matrix: (Units=GPa)
#
#
# Indices 1 2 3 4 5 6 
#
# 1 158.5257 32.4682 27.3682 0.0000 0.0000 0.0000
# 2 32.4682 110.3295 54.3473 0.0000 0.0000 0.0000
# 3 27.3682 54.3473 74.5270 0.0000 0.0000 0.0000
# 4 0.0000 0.0000 0.0000 43.5021 0.0000 0.0000
# 5 0.0000 0.0000 0.0000 0.0000 29.4456 0.0000
# 6 0.0000 0.0000 0.0000 0.0000 0.0000 34.4728
#
#
#
# Elastic Compliance Matrix: (Units=1/GPa)
#
#
# Indices 1 2 3 4 5 6 
#
# 1 0.006837 -0.001210 -0.001628 0.000000 0.000000 0.000000
# 2 -0.001210 0.014359 -0.010027 0.000000 0.000000 0.000000
# 3 -0.001628 -0.010027 0.021328 0.000000 0.000000 0.000000
# 4 0.000000 0.000000 0.000000 0.022987 0.000000 0.000000
# 5 0.000000 0.000000 0.000000 0.000000 0.033961 0.000000
# 6 0.000000 0.000000 0.000000 0.000000 0.000000 0.029008
#
#
# Mechanical properties :
#
#
# Convention : Reuss Voigt Hill
#
# Bulk Modulus (GPa) = 59.54617 63.52774 61.53696
# Shear Modulus (GPa) = 31.28756 36.76400 34.02578
#
# Velocity S-wave (km/s) = 3.73406 4.04769 3.89403
# Velocity P-wave (km/s) = 6.71771 7.08209 6.90230
#
# Compressibility (1/GPa) = 0.01679369
#
# Stress axis : x y z
#
# Youngs Moduli (GPa) = 146.26153 69.64368 46.88746
#
# Poissons Ratio (x) = 0.08426 0.07636
# Poissons Ratio (y) = 0.17696 0.47012
# Poissons Ratio (z) = 0.23818 0.69829
#
# Static dielectric constant tensor:
#      x y z
#    x 4.336520 0.000000 0.000000 
#    y 0.000000 4.065940 0.000000 
#    z 0.000000 0.000000 3.856630 
# 
# 
# High freq. dielectric constant tensor:
#      x y z
#    x 1.911010 0.000000 0.000000 
#    y 0.000000 1.882090 0.000000 
#    z 0.000000 0.000000 1.870870 
# 
# From -- ./inp_files/6777.got.cif
#   From: 2010.03.12/outbox.cif.g09.slc.cpg/sg33_4_cif.got.tgz:6777.got - 2010.04.14 01:49:19.
