data_PCOD8171907
_publ_section_title
;
Structure prediction by ZEFSAII (Michael W. Deem and Ramdas Pophale) SiO2 
 PCOD8171907
Probable space group: P N N 2
;
_chemical_formula_sum "Si O2"
_cell_formula_units_Z 26
_cell_length_a 8.211142
_cell_length_b 17.354026
_cell_length_c 9.059765
_cell_angle_alpha 90.000000
_cell_angle_beta 90.000000
_cell_angle_gamma 90.000000
_cell_volume 1290.983641
_symmetry_space_group_name_H-M "P N N 2"
_symmetry_group_IT_number 34
_symmetry_cell_setting 'orthorhombic'
loop_
_space_group_symop_operation_xyz
x,y,z
-x,-y,z
1/2-x,1/2+y,1/2+z
1/2+x,1/2-y,1/2+z
loop_
_atom_site_type_symbol
_atom_site_label
_atom_site_fract_x
_atom_site_fract_y
_atom_site_fract_z
Si Si1 0.259132 0.031143 0.617360
Si Si2 0.500000 0.000000 0.366412
Si Si3 0.952391 0.353844 0.659997
Si Si4 0.196601 0.269111 0.133181
Si Si5 0.445446 0.145102 0.824220
Si Si6 0.556790 0.610598 0.163125
Si Si7 0.116550 0.227701 0.832962
O O1 0.394046 0.072685 0.720685
O O2 0.107256 0.086805 0.572634
O O3 0.340385 0.996771 0.470170
O O4 0.175243 0.960421 0.705798
O O5 0.521526 0.925699 0.266059
O O6 0.773881 0.313508 0.682016
O O7 0.978699 0.382240 0.491828
O O8 0.085349 0.290284 0.705976
O O9 0.342807 0.324602 0.074021
O O10 0.107005 0.312728 0.265907
O O11 0.072937 0.259246 0.996181
O O12 0.306527 0.209174 0.825597
O O13 0.492851 0.650823 0.313878
#
# Coordination Sequence:
#
# PCOD8171907 Si02
#       7
#     4   2   4   4   4   4   4
#     4  10  20  36  59  85 114 154 191 229 291 350
#     4  12  24  38  58  82 114 154 194 238 286 344
#     4  10  23  38  55  85 119 147 190 242 284 333
#     4  10  20  37  60  85 113 151 193 235 286 341
#     4  10  21  37  61  87 114 151 191 234 285 344
#     4   9  19  34  57  84 115 147 189 239 281 338
#     4   9  19  36  57  84 114 148 189 235 284 340
#
# _framework density 20.139681
#
# number of rings (size 3 to 8) (size 9 to 14) (size 15 to 20)
#    0.000    2.154    0.000    2.769    0.000    9.231 
#    0.000    0.000    0.000    7.385    0.000    0.000 
#    0.000    0.000    0.000    0.000    0.000    0.000 
#
# Total GULP energy -322168.702880 kJ/mol
# GULP energy per Si atom -12391.103957 kJ/mol
# Density = 2.009384 g / cm^3
# Si number density = 20.139681 Si / 1000 Ang^3
#
#
#
# Elastic Constant Matrix: (Units=GPa)
#
#
# Indices 1 2 3 4 5 6 
#
# 1 91.5667 54.8522 62.8185 0.0000 0.0000 0.0000
# 2 54.8522 122.2577 65.2526 0.0000 0.0000 0.0000
# 3 62.8185 65.2526 132.0406 0.0000 0.0000 0.0000
# 4 0.0000 0.0000 0.0000 33.6199 0.0000 0.0000
# 5 0.0000 0.0000 0.0000 0.0000 25.9280 0.0000
# 6 0.0000 0.0000 0.0000 0.0000 0.0000 29.8821
#
#
#
# Elastic Compliance Matrix: (Units=1/GPa)
#
#
# Indices 1 2 3 4 5 6 
#
# 1 0.018056 -0.004776 -0.006230 0.000000 0.000000 0.000000
# 2 -0.004776 0.012373 -0.003842 0.000000 0.000000 0.000000
# 3 -0.006230 -0.003842 0.012436 0.000000 0.000000 0.000000
# 4 0.000000 0.000000 0.000000 0.029744 0.000000 0.000000
# 5 0.000000 0.000000 0.000000 0.000000 0.038568 0.000000
# 6 0.000000 0.000000 0.000000 0.000000 0.000000 0.033465
#
#
# Mechanical properties :
#
#
# Convention : Reuss Voigt Hill
#
# Bulk Modulus (GPa) = 75.93809 79.07907 77.50858
# Shear Modulus (GPa) = 27.97534 28.74878 28.36206
#
# Velocity S-wave (km/s) = 3.73106 3.78229 3.75676
# Velocity P-wave (km/s) = 7.50657 7.64361 7.57540
#
# Compressibility (1/GPa) = 0.01316862
#
# Stress axis : x y z
#
# Youngs Moduli (GPa) = 55.38337 80.82103 80.41020
#
# Poissons Ratio (x) = 0.38599 0.50095
# Poissons Ratio (y) = 0.26450 0.30897
# Poissons Ratio (z) = 0.34504 0.31055
#
# Static dielectric constant tensor:
#      x y z
#    x 3.795620 0.000000 0.000000 
#    y 0.000000 3.921790 0.000000 
#    z 0.000000 0.000000 3.561480 
# 
# 
# High freq. dielectric constant tensor:
#      x y z
#    x 1.790950 0.000000 0.000000 
#    y 0.000000 1.798220 0.000000 
#    z 0.000000 0.000000 1.759480 
# 
# From -- ./inp_files/2759.got.cif
#   From: 2010.03.12/outbox.cif.g09.slc.cpg/sg34_2_cif.got.tgz:2759.got - 2010.04.14 01:56:33.
