data_PCOD8171332
_publ_section_title
;
Structure prediction by ZEFSAII (Michael W. Deem and Ramdas Pophale) SiO2 
 PCOD8171332
Probable space group: P N A 21
;
_chemical_formula_sum "Si O2"
_cell_formula_units_Z 28
_cell_length_a 18.765692
_cell_length_b 13.085991
_cell_length_c 5.141633
_cell_angle_alpha 90.000000
_cell_angle_beta 90.000000
_cell_angle_gamma 90.000000
_cell_volume 1262.618870
_symmetry_space_group_name_H-M "P N A 21"
_symmetry_group_IT_number 33
_symmetry_cell_setting 'orthorhombic'
loop_
_space_group_symop_operation_xyz
x,y,z
-x,-y,1/2+z
1/2-x,1/2+y,1/2+z
1/2+x,1/2-y,z
loop_
_atom_site_type_symbol
_atom_site_label
_atom_site_fract_x
_atom_site_fract_y
_atom_site_fract_z
Si Si1 0.237499 0.522091 0.140920
Si Si2 0.984308 0.560356 0.282005
Si Si3 0.355626 0.380673 0.261735
Si Si4 0.674627 0.069993 0.667329
Si Si5 0.278910 0.251856 0.642061
Si Si6 0.970370 0.050308 0.591756
Si Si7 0.565956 0.736668 0.370283
O O1 0.310445 0.459326 0.086268
O O2 0.197512 0.479753 0.395446
O O3 0.256902 0.641138 0.155498
O O4 0.186358 0.512558 0.893379
O O5 0.908756 0.597175 0.168904
O O6 0.974662 0.486405 0.531902
O O7 0.029957 0.653924 0.399581
O O8 0.302570 0.290548 0.356135
O O9 0.387478 0.451774 0.496766
O O10 0.426747 0.330465 0.133796
O O11 0.718554 0.171093 0.745123
O O12 0.350361 0.251055 0.810755
O O13 0.981770 0.170241 0.668946
O O14 0.021920 0.017598 0.354024
#
# Coordination Sequence:
#
# PCOD8171332 Si02
#       7
#     4   4   4   4   4   4   4
#     4  11  24  43  72  95 140 173 231 290 345 405
#     4  12  28  45  69 103 140 189 232 286 357 419
#     4  10  23  43  69 102 132 184 234 279 347 419
#     4  11  24  45  63 105 133 175 237 284 337 428
#     4  10  23  41  69  99 132 180 225 291 348 399
#     4  11  23  41  67  99 137 180 225 279 341 416
#     4  11  23  44  71  99 140 183 234 279 357 416
#
# _framework density 22.176129
#
# number of rings (size 3 to 8) (size 9 to 14) (size 15 to 20)
#    0.000    1.143    2.857    2.571    8.000    1.143 
#    0.000    0.000    3.143    0.000    0.000    0.000 
#    0.000    0.000    0.000    0.000    0.000    0.000 
#
# Total GULP energy -346918.932868 kJ/mol
# GULP energy per Si atom -12389.961888 kJ/mol
# Density = 2.212566 g / cm^3
# Si number density = 22.176129 Si / 1000 Ang^3
#
#
#
# Elastic Constant Matrix: (Units=GPa)
#
#
# Indices 1 2 3 4 5 6 
#
# 1 99.9449 61.1121 30.2934 0.0000 0.0000 0.0000
# 2 61.1121 130.5213 36.1045 0.0000 0.0000 0.0000
# 3 30.2934 36.1045 118.0790 0.0000 0.0000 0.0000
# 4 0.0000 0.0000 0.0000 28.5411 0.0000 0.0000
# 5 0.0000 0.0000 0.0000 0.0000 29.1296 0.0000
# 6 0.0000 0.0000 0.0000 0.0000 0.0000 38.8599
#
#
#
# Elastic Compliance Matrix: (Units=1/GPa)
#
#
# Indices 1 2 3 4 5 6 
#
# 1 0.014353 -0.006228 -0.001778 0.000000 0.000000 0.000000
# 2 -0.006228 0.011072 -0.001788 0.000000 0.000000 0.000000
# 3 -0.001778 -0.001788 0.009472 0.000000 0.000000 0.000000
# 4 0.000000 0.000000 0.000000 0.035037 0.000000 0.000000
# 5 0.000000 0.000000 0.000000 0.000000 0.034329 0.000000
# 6 0.000000 0.000000 0.000000 0.000000 0.000000 0.025733
#
#
# Mechanical properties :
#
#
# Convention : Reuss Voigt Hill
#
# Bulk Modulus (GPa) = 65.32100 67.06280 66.19190
# Shear Modulus (GPa) = 32.32326 34.04180 33.18253
#
# Velocity S-wave (km/s) = 3.82196 3.92224 3.87242
# Velocity P-wave (km/s) = 6.99971 7.12872 7.06451
#
# Compressibility (1/GPa) = 0.01530901
#
# Stress axis : x y z
#
# Youngs Moduli (GPa) = 69.67291 90.31537 105.57880
#
# Poissons Ratio (x) = 0.56252 0.18770
# Poissons Ratio (y) = 0.43395 0.18873
# Poissons Ratio (z) = 0.12386 0.16145
#
# Static dielectric constant tensor:
#      x y z
#    x 3.883800 0.000000 0.000000 
#    y 0.000000 4.008360 0.000000 
#    z 0.000000 0.000000 4.156500 
# 
# 
# High freq. dielectric constant tensor:
#      x y z
#    x 1.861240 0.000000 0.000000 
#    y 0.000000 1.868460 0.000000 
#    z 0.000000 0.000000 1.883940 
# 
# From -- ./inp_files/1730.got.cif
#   From: 2010.03.12/outbox.cif.g09.slc.cpg/sg33_1_cif.got.tgz:1730.got - 2010.04.14 01:49:19.
