data_PCOD8171640
_publ_section_title
;
Structure prediction by ZEFSAII (Michael W. Deem and Ramdas Pophale) SiO2 
 PCOD8171640
Probable space group: P N A 21
;
_chemical_formula_sum "Si O2"
_cell_formula_units_Z 28
_cell_length_a 8.470573
_cell_length_b 15.845999
_cell_length_c 9.276788
_cell_angle_alpha 90.000000
_cell_angle_beta 90.000000
_cell_angle_gamma 90.000000
_cell_volume 1245.174005
_symmetry_space_group_name_H-M "P N A 21"
_symmetry_group_IT_number 33
_symmetry_cell_setting 'orthorhombic'
loop_
_space_group_symop_operation_xyz
x,y,z
-x,-y,1/2+z
1/2-x,1/2+y,1/2+z
1/2+x,1/2-y,z
loop_
_atom_site_type_symbol
_atom_site_label
_atom_site_fract_x
_atom_site_fract_y
_atom_site_fract_z
Si Si1 0.857664 0.586290 0.414890
Si Si2 0.444938 0.183435 0.693720
Si Si3 0.288829 0.837757 0.711051
Si Si4 0.065563 0.165056 0.284545
Si Si5 0.412612 0.936864 0.965054
Si Si6 0.096674 0.149931 0.614833
Si Si7 0.355651 0.486032 0.669263
O O1 0.771223 0.630500 0.548264
O O2 0.722505 0.557808 0.306638
O O3 0.980328 0.651050 0.342604
O O4 0.950889 0.505472 0.472150
O O5 0.534679 0.142320 0.559534
O O6 0.260350 0.161226 0.699344
O O7 0.468402 0.283619 0.676133
O O8 0.369768 0.746891 0.704057
O O9 0.392565 0.904878 0.801559
O O10 0.122539 0.830048 0.790654
O O11 0.132133 0.162058 0.446213
O O12 0.122702 0.084783 0.194276
O O13 0.249942 0.974945 0.026446
O O14 0.026342 0.056834 0.642693
#
# Coordination Sequence:
#
# PCOD8171640 Si02
#       7
#     4   4   4   4   4   4   4
#     4  11  27  45  72 109 145 184 240 304 361 423
#     4  11  24  44  75 101 140 191 237 295 350 441
#     4  12  27  47  72 109 144 191 237 302 366 435
#     4  12  28  45  76 105 144 188 245 302 362 438
#     4  11  23  47  74 102 141 192 236 284 366 429
#     4  12  24  47  74 103 140 192 246 288 365 436
#     4  11  27  47  71 107 142 188 243 295 360 442
#
# _framework density 22.486818
#
# number of rings (size 3 to 8) (size 9 to 14) (size 15 to 20)
#    0.000    0.571    2.857    5.143   10.000    2.286 
#    0.000    0.000    0.000    0.000    0.000    0.000 
#    0.000    0.000    0.000    0.000    0.000    0.000 
#
# Total GULP energy -347473.655296 kJ/mol
# GULP energy per Si atom -12409.773403 kJ/mol
# Density = 2.243564 g / cm^3
# Si number density = 22.486818 Si / 1000 Ang^3
#
#
#
# Elastic Constant Matrix: (Units=GPa)
#
#
# Indices 1 2 3 4 5 6 
#
# 1 89.5566 13.8662 6.6606 0.0000 0.0000 0.0000
# 2 13.8662 118.4030 27.3287 0.0000 0.0000 0.0000
# 3 6.6606 27.3287 98.4581 0.0000 0.0000 0.0000
# 4 0.0000 0.0000 0.0000 34.9722 0.0000 0.0000
# 5 0.0000 0.0000 0.0000 0.0000 26.1616 0.0000
# 6 0.0000 0.0000 0.0000 0.0000 0.0000 37.1902
#
#
#
# Elastic Compliance Matrix: (Units=1/GPa)
#
#
# Indices 1 2 3 4 5 6 
#
# 1 0.011389 -0.001235 -0.000428 0.000000 0.000000 0.000000
# 2 -0.001235 0.009158 -0.002458 0.000000 0.000000 0.000000
# 3 -0.000428 -0.002458 0.010868 0.000000 0.000000 0.000000
# 4 0.000000 0.000000 0.000000 0.028594 0.000000 0.000000
# 5 0.000000 0.000000 0.000000 0.000000 0.038224 0.000000
# 6 0.000000 0.000000 0.000000 0.000000 0.000000 0.026889
#
#
# Mechanical properties :
#
#
# Convention : Reuss Voigt Hill
#
# Bulk Modulus (GPa) = 43.15425 44.68095 43.91760
# Shear Modulus (GPa) = 35.43886 36.90229 36.17057
#
# Velocity S-wave (km/s) = 3.97417 4.05540 4.01499
# Velocity P-wave (km/s) = 6.34754 6.46849 6.40830
#
# Compressibility (1/GPa) = 0.02317269
#
# Stress axis : x y z
#
# Youngs Moduli (GPa) = 87.80286 109.19672 92.01416
#
# Poissons Ratio (x) = 0.13487 0.03935
# Poissons Ratio (y) = 0.10844 0.22620
# Poissons Ratio (z) = 0.03755 0.26844
#
# Static dielectric constant tensor:
#      x y z
#    x 4.008400 0.000000 0.000000 
#    y 0.000000 4.216660 0.000000 
#    z 0.000000 0.000000 3.981350 
# 
# 
# High freq. dielectric constant tensor:
#      x y z
#    x 1.892200 0.000000 0.000000 
#    y 0.000000 1.899000 0.000000 
#    z 0.000000 0.000000 1.884520 
# 
# From -- ./inp_files/3203.got.cif
#   From: 2010.03.12/outbox.cif.g09.slc.cpg/sg33_2_cif.got.tgz:3203.got - 2010.04.14 01:49:19.
