data_PCOD8171475
_publ_section_title
;
Structure prediction by ZEFSAII (Michael W. Deem and Ramdas Pophale) SiO2 
 PCOD8171475
Probable space group: P N A 21
;
_chemical_formula_sum "Si O2"
_cell_formula_units_Z 12
_cell_length_a 9.014612
_cell_length_b 9.190836
_cell_length_c 4.763165
_cell_angle_alpha 90.000000
_cell_angle_beta 90.000000
_cell_angle_gamma 90.000000
_cell_volume 394.636892
_symmetry_space_group_name_H-M "P N A 21"
_symmetry_group_IT_number 33
_symmetry_cell_setting 'orthorhombic'
loop_
_space_group_symop_operation_xyz
x,y,z
-x,-y,1/2+z
1/2-x,1/2+y,1/2+z
1/2+x,1/2-y,z
loop_
_atom_site_type_symbol
_atom_site_label
_atom_site_fract_x
_atom_site_fract_y
_atom_site_fract_z
Si Si1 0.872027 0.838296 0.020820
Si Si2 0.077059 0.435082 0.210475
Si Si3 0.311388 0.420447 0.637963
O O1 0.765694 0.735346 0.215556
O O2 0.011743 0.909496 0.176701
O O3 0.947997 0.734866 0.779400
O O4 0.766842 0.957833 0.868625
O O5 0.247342 0.474064 0.329634
O O6 0.959183 0.536243 0.383597
#
# Coordination Sequence:
#
# PCOD8171475 Si02
#       3
#     4   4   4
#     4  10  24  47  77 120 162 215 280 338 423 497
#     4  10  24  48  79 115 165 211 266 347 415 484
#     4  10  24  47  80 121 161 220 276 351 416 509
#
# _framework density 30.407696000000001
#
# number of rings (size 3 to 8) (size 9 to 14) (size 15 to 20)
#    2.000    0.000    0.000    2.000    0.000    8.000 
#    6.000    0.000    0.000    0.000    0.000    0.000 
#    0.000    0.000    0.000    0.000    0.000    0.000 
#
# Total GULP energy -148690.436808 kJ/mol
# GULP energy per Si atom -12390.869734 kJ/mol
# Density = 3.033849 g / cm^3
# Si number density = 30.407696 Si / 1000 Ang^3
#
#
#
# Elastic Constant Matrix: (Units=GPa)
#
#
# Indices 1 2 3 4 5 6 
#
# 1 170.7934 33.4900 -14.1269 0.0000 0.0000 0.0000
# 2 33.4900 165.8818 18.9299 0.0000 0.0000 0.0000
# 3 -14.1269 18.9299 80.7011 0.0000 0.0000 0.0000
# 4 0.0000 0.0000 0.0000 46.2818 0.0000 0.0000
# 5 0.0000 0.0000 0.0000 0.0000 22.8256 0.0000
# 6 0.0000 0.0000 0.0000 0.0000 0.0000 48.0937
#
#
#
# Elastic Compliance Matrix: (Units=1/GPa)
#
#
# Indices 1 2 3 4 5 6 
#
# 1 0.006253 -0.001425 0.001429 0.000000 0.000000 0.000000
# 2 -0.001425 0.006519 -0.001779 0.000000 0.000000 0.000000
# 3 0.001429 -0.001779 0.013059 0.000000 0.000000 0.000000
# 4 0.000000 0.000000 0.000000 0.021607 0.000000 0.000000
# 5 0.000000 0.000000 0.000000 0.000000 0.043810 0.000000
# 6 0.000000 0.000000 0.000000 0.000000 0.000000 0.020793
#
#
# Mechanical properties :
#
#
# Convention : Reuss Voigt Hill
#
# Bulk Modulus (GPa) = 44.88291 54.88469 49.88380
# Shear Modulus (GPa) = 40.64455 48.71245 44.67850
#
# Velocity S-wave (km/s) = 3.65999 4.00681 3.83732
# Velocity P-wave (km/s) = 5.71429 6.28449 6.00616
#
# Compressibility (1/GPa) = 0.02228020
#
# Stress axis : x y z
#
# Youngs Moduli (GPa) = 159.93037 153.39425 76.57689
#
# Poissons Ratio (x) = 0.21865 -0.10942
# Poissons Ratio (y) = 0.22797 0.13621
# Poissons Ratio (z) = -0.22853 0.27284
#
# Static dielectric constant tensor:
#      x y z
#    x 5.295980 0.000000 0.000000 
#    y 0.000000 5.793360 0.000000 
#    z 0.000000 0.000000 4.856380 
# 
# 
# High freq. dielectric constant tensor:
#      x y z
#    x 2.279590 0.000000 0.000000 
#    y 0.000000 2.252710 0.000000 
#    z 0.000000 0.000000 2.221980 
# 
# From -- ./inp_files/242.got.cif
#   From: 2010.03.12/outbox.cif.g09.slc.cpg/sg33_1_cif.got.tgz:242.got - 2010.04.14 01:49:19.
