data_PCOD8171352
_publ_section_title
;
Structure prediction by ZEFSAII (Michael W. Deem and Ramdas Pophale) SiO2 
 PCOD8171352
Probable space group: P N A 21
;
_chemical_formula_sum "Si O2"
_cell_formula_units_Z 24
_cell_length_a 7.960924
_cell_length_b 15.299869
_cell_length_c 8.361230
_cell_angle_alpha 90.000000
_cell_angle_beta 90.000000
_cell_angle_gamma 90.000000
_cell_volume 1018.406964
_symmetry_space_group_name_H-M "P N A 21"
_symmetry_group_IT_number 33
_symmetry_cell_setting 'orthorhombic'
loop_
_space_group_symop_operation_xyz
x,y,z
-x,-y,1/2+z
1/2-x,1/2+y,1/2+z
1/2+x,1/2-y,z
loop_
_atom_site_type_symbol
_atom_site_label
_atom_site_fract_x
_atom_site_fract_y
_atom_site_fract_z
Si Si1 0.398005 0.614901 0.555680
Si Si2 0.060994 0.646838 0.695993
Si Si3 0.301054 0.688451 0.243048
Si Si4 0.789563 0.531434 0.200714
Si Si5 0.253572 0.341858 0.976760
Si Si6 0.488603 0.821572 0.049076
O O1 0.246550 0.676422 0.628726
O O2 0.382997 0.616310 0.360950
O O3 0.375157 0.516505 0.624022
O O4 0.584020 0.652638 0.596391
O O5 0.062847 0.541455 0.717049
O O6 0.918981 0.674232 0.570489
O O7 0.025808 0.693517 0.863504
O O8 0.221116 0.765597 0.349232
O O9 0.436940 0.726982 0.118908
O O10 0.152663 0.643590 0.142406
O O11 0.754379 0.567054 0.378185
O O12 0.843256 0.607313 0.077666
#
# Coordination Sequence:
#
# PCOD8171352 Si02
#       6
#     4   4   4   4   4   4
#     4  10  23  42  70 100 133 189 234 284 357 420
#     4  10  24  43  69 100 138 179 236 293 352 418
#     4  11  23  44  69  96 139 189 229 296 358 428
#     4   9  23  43  67 103 132 185 232 290 353 415
#     4  11  22  46  71  99 143 183 238 286 363 425
#     4  11  23  44  66 100 141 177 235 293 363 418
#
# _framework density 23.566217999999999
#
# number of rings (size 3 to 8) (size 9 to 14) (size 15 to 20)
#    1.000    0.667    1.667    3.000    2.333    2.667 
#    6.000    0.000    0.000    0.000    0.000    0.000 
#    0.000    0.000    0.000    0.000    0.000    0.000 
#
# Total GULP energy -297508.869690 kJ/mol
# GULP energy per Si atom -12396.202904 kJ/mol
# Density = 2.351258 g / cm^3
# Si number density = 23.566218 Si / 1000 Ang^3
#
#
#
# Elastic Constant Matrix: (Units=GPa)
#
#
# Indices 1 2 3 4 5 6 
#
# 1 130.7930 11.9037 40.4009 0.0000 0.0000 0.0000
# 2 11.9037 32.7623 24.4157 0.0000 0.0000 0.0000
# 3 40.4009 24.4157 135.3403 0.0000 0.0000 0.0000
# 4 0.0000 0.0000 0.0000 38.0754 0.0000 0.0000
# 5 0.0000 0.0000 0.0000 0.0000 38.7877 0.0000
# 6 0.0000 0.0000 0.0000 0.0000 0.0000 32.0565
#
#
#
# Elastic Compliance Matrix: (Units=1/GPa)
#
#
# Indices 1 2 3 4 5 6 
#
# 1 0.008476 -0.001379 -0.002281 0.000000 0.000000 0.000000
# 2 -0.001379 0.035488 -0.005990 0.000000 0.000000 0.000000
# 3 -0.002281 -0.005990 0.009150 0.000000 0.000000 0.000000
# 4 0.000000 0.000000 0.000000 0.026264 0.000000 0.000000
# 5 0.000000 0.000000 0.000000 0.000000 0.025781 0.000000
# 6 0.000000 0.000000 0.000000 0.000000 0.000000 0.031195
#
#
# Mechanical properties :
#
#
# Convention : Reuss Voigt Hill
#
# Bulk Modulus (GPa) = 29.57496 50.25957 39.91727
# Shear Modulus (GPa) = 29.95306 36.59561 33.27433
#
# Velocity S-wave (km/s) = 3.56900 3.94494 3.76167
# Velocity P-wave (km/s) = 5.43697 6.49025 5.98682
#
# Compressibility (1/GPa) = 0.03381238
#
# Stress axis : x y z
#
# Youngs Moduli (GPa) = 117.98162 28.17822 109.28407
#
# Poissons Ratio (x) = 0.03887 0.24931
# Poissons Ratio (y) = 0.16275 0.65465
# Poissons Ratio (z) = 0.26915 0.16880
#
# Static dielectric constant tensor:
#      x y z
#    x 4.196020 0.000000 0.000000 
#    y 0.000000 4.038080 0.000000 
#    z 0.000000 0.000000 4.086930 
# 
# 
# High freq. dielectric constant tensor:
#      x y z
#    x 1.931910 0.000000 0.000000 
#    y 0.000000 1.919740 0.000000 
#    z 0.000000 0.000000 1.923080 
# 
# From -- ./inp_files/3277.got.cif
#   From: 2010.03.12/outbox.cif.g09.slc.cpg/sg33_2_cif.got.tgz:3277.got - 2010.04.14 01:49:19.
