data_PCOD8171575
_publ_section_title
;
Structure prediction by ZEFSAII (Michael W. Deem and Ramdas Pophale) SiO2 
 PCOD8171575
Probable space group: P N A 21
;
_chemical_formula_sum "Si O2"
_cell_formula_units_Z 28
_cell_length_a 11.545512
_cell_length_b 9.140167
_cell_length_c 11.397495
_cell_angle_alpha 90.000000
_cell_angle_beta 90.000000
_cell_angle_gamma 90.000000
_cell_volume 1202.753801
_symmetry_space_group_name_H-M "P N A 21"
_symmetry_group_IT_number 33
_symmetry_cell_setting 'orthorhombic'
loop_
_space_group_symop_operation_xyz
x,y,z
-x,-y,1/2+z
1/2-x,1/2+y,1/2+z
1/2+x,1/2-y,z
loop_
_atom_site_type_symbol
_atom_site_label
_atom_site_fract_x
_atom_site_fract_y
_atom_site_fract_z
Si Si1 0.085347 0.271747 0.621380
Si Si2 0.450860 0.018354 0.743136
Si Si3 0.172380 0.521134 0.473545
Si Si4 0.789708 0.414984 0.537971
Si Si5 0.560521 0.538889 0.012586
Si Si6 0.631063 0.669750 0.577088
Si Si7 0.410388 0.250837 0.324984
O O1 0.091112 0.387015 0.513046
O O2 0.205651 0.183139 0.620979
O O3 0.059012 0.363841 0.741995
O O4 0.975846 0.161579 0.608384
O O5 0.350491 0.052273 0.836704
O O6 0.401535 0.038508 0.611916
O O7 0.497694 0.856446 0.764886
O O8 0.303226 0.485158 0.507905
O O9 0.135409 0.664150 0.541036
O O10 0.722018 0.565684 0.509013
O O11 0.824393 0.332020 0.417134
O O12 0.497013 0.387710 0.041678
O O13 0.522689 0.615299 0.889347
O O14 0.657875 0.670669 0.717482
#
# Coordination Sequence:
#
# PCOD8171575 Si02
#       7
#     4   4   4   4   4   4   4
#     4  11  22  48  72 107 150 201 247 309 381 456
#     4  12  24  42  81 103 148 197 255 313 380 452
#     4  12  24  45  73 108 150 194 254 315 376 456
#     4  11  26  47  73 111 149 202 253 313 390 450
#     4  11  25  49  70 106 152 193 251 307 381 448
#     4  11  29  45  75 112 150 196 257 315 382 463
#     4  12  24  48  78 107 155 199 249 322 382 449
#
# _framework density 23.279910999999998
#
# number of rings (size 3 to 8) (size 9 to 14) (size 15 to 20)
#    0.000    0.571    5.714    0.857    2.000    4.571 
#    2.571    0.000    0.000    0.000    0.000    0.000 
#    0.000    0.000    0.000    0.000    0.000    0.000 
#
# Total GULP energy -346936.851640 kJ/mol
# GULP energy per Si atom -12390.601844 kJ/mol
# Density = 2.322693 g / cm^3
# Si number density = 23.279911 Si / 1000 Ang^3
#
#
#
# Elastic Constant Matrix: (Units=GPa)
#
#
# Indices 1 2 3 4 5 6 
#
# 1 123.5112 46.2453 45.8858 0.0000 0.0000 0.0000
# 2 46.2453 129.1720 40.1675 0.0000 0.0000 0.0000
# 3 45.8858 40.1675 98.5044 0.0000 0.0000 0.0000
# 4 0.0000 0.0000 0.0000 43.0540 0.0000 0.0000
# 5 0.0000 0.0000 0.0000 0.0000 28.9145 0.0000
# 6 0.0000 0.0000 0.0000 0.0000 0.0000 30.8639
#
#
#
# Elastic Compliance Matrix: (Units=1/GPa)
#
#
# Indices 1 2 3 4 5 6 
#
# 1 0.010481 -0.002558 -0.003839 0.000000 0.000000 0.000000
# 2 -0.002558 0.009490 -0.002678 0.000000 0.000000 0.000000
# 3 -0.003839 -0.002678 0.013032 0.000000 0.000000 0.000000
# 4 0.000000 0.000000 0.000000 0.023227 0.000000 0.000000
# 5 0.000000 0.000000 0.000000 0.000000 0.034585 0.000000
# 6 0.000000 0.000000 0.000000 0.000000 0.000000 0.032400
#
#
# Mechanical properties :
#
#
# Convention : Reuss Voigt Hill
#
# Bulk Modulus (GPa) = 67.33002 68.42053 67.87528
# Shear Modulus (GPa) = 34.17254 35.15907 34.66581
#
# Velocity S-wave (km/s) = 3.83547 3.89044 3.86306
# Velocity P-wave (km/s) = 6.97131 7.04520 7.00836
#
# Compressibility (1/GPa) = 0.01485222
#
# Stress axis : x y z
#
# Youngs Moduli (GPa) = 95.41493 105.36997 76.73345
#
# Poissons Ratio (x) = 0.26958 0.29457
# Poissons Ratio (y) = 0.24411 0.20550
# Poissons Ratio (z) = 0.36628 0.28220
#
# Static dielectric constant tensor:
#      x y z
#    x 4.185720 0.000000 0.000000 
#    y 0.000000 4.597770 0.000000 
#    z 0.000000 0.000000 4.227490 
# 
# 
# High freq. dielectric constant tensor:
#      x y z
#    x 1.920820 0.000000 0.000000 
#    y 0.000000 1.941430 0.000000 
#    z 0.000000 0.000000 1.900110 
# 
# From -- ./inp_files/6360.got.cif
#   From: 2010.03.12/outbox.cif.g09.slc.cpg/sg33_4_cif.got.tgz:6360.got - 2010.04.14 01:49:19.
