data_PCOD8171163
_publ_section_title
;
Structure prediction by ZEFSAII (Michael W. Deem and Ramdas Pophale) SiO2 
 PCOD8171163
Probable space group: P N A 21
;
_chemical_formula_sum "Si O2"
_cell_formula_units_Z 28
_cell_length_a 19.455232
_cell_length_b 5.110849
_cell_length_c 12.938934
_cell_angle_alpha 90.000000
_cell_angle_beta 90.000000
_cell_angle_gamma 90.000000
_cell_volume 1286.553829
_symmetry_space_group_name_H-M "P N A 21"
_symmetry_group_IT_number 33
_symmetry_cell_setting 'orthorhombic'
loop_
_space_group_symop_operation_xyz
x,y,z
-x,-y,1/2+z
1/2-x,1/2+y,1/2+z
1/2+x,1/2-y,z
loop_
_atom_site_type_symbol
_atom_site_label
_atom_site_fract_x
_atom_site_fract_y
_atom_site_fract_z
Si Si1 0.811578 0.124452 0.480590
Si Si2 0.772046 0.586694 0.785471
Si Si3 0.471666 0.932674 0.945619
Si Si4 0.458129 0.558698 0.528258
Si Si5 0.080242 0.163172 0.263425
Si Si6 0.857039 0.219161 0.907135
Si Si7 0.753949 0.102228 0.063126
O O1 0.806946 0.391564 0.546260
O O2 0.778988 0.205685 0.370688
O O3 0.890618 0.044692 0.469834
O O4 0.769727 0.895056 0.536726
O O5 0.840051 0.752582 0.758053
O O6 0.797230 0.305795 0.827412
O O7 0.725928 0.572788 0.682853
O O8 0.471215 0.868657 0.820871
O O9 0.393508 0.035538 0.966330
O O10 0.484697 0.667454 0.011529
O O11 0.524377 0.161638 0.977470
O O12 0.447495 0.592659 0.650898
O O13 0.081934 0.917718 0.342378
O O14 0.821396 0.035751 0.994028
#
# Coordination Sequence:
#
# PCOD8171163 Si02
#       7
#     4   4   4   4   4   4   4
#     4  11  23  40  65 101 135 164 226 280 333 410
#     4  10  22  39  69 101 130 178 217 279 345 405
#     4  11  26  44  66 100 136 182 238 284 331 405
#     4  12  25  43  71  99 136 186 232 284 341 417
#     4  11  22  46  74  91 135 188 232 272 352 409
#     4  10  22  44  68 100 138 176 230 278 338 412
#     4  11  22  40  67 100 132 170 219 277 340 400
#
# _framework density 21.763566000000001
#
# number of rings (size 3 to 8) (size 9 to 14) (size 15 to 20)
#    0.000    1.143    4.286    1.714    4.000    0.000 
#    2.571    1.429    0.000    0.000    0.000    0.000 
#    0.000    0.000    0.000    0.000    0.000    0.000 
#
# Total GULP energy -346942.578693 kJ/mol
# GULP energy per Si atom -12390.806382 kJ/mol
# Density = 2.171403 g / cm^3
# Si number density = 21.763566 Si / 1000 Ang^3
#
#
#
# Elastic Constant Matrix: (Units=GPa)
#
#
# Indices 1 2 3 4 5 6 
#
# 1 70.1634 30.4536 64.6034 0.0000 0.0000 0.0000
# 2 30.4536 110.1388 56.6181 0.0000 0.0000 0.0000
# 3 64.6034 56.6181 170.6342 0.0000 0.0000 0.0000
# 4 0.0000 0.0000 0.0000 28.7293 0.0000 0.0000
# 5 0.0000 0.0000 0.0000 0.0000 36.4274 0.0000
# 6 0.0000 0.0000 0.0000 0.0000 0.0000 38.4655
#
#
#
# Elastic Compliance Matrix: (Units=1/GPa)
#
#
# Indices 1 2 3 4 5 6 
#
# 1 0.022314 -0.002203 -0.007718 0.000000 0.000000 0.000000
# 2 -0.002203 0.011164 -0.002870 0.000000 0.000000 0.000000
# 3 -0.007718 -0.002870 0.009735 0.000000 0.000000 0.000000
# 4 0.000000 0.000000 0.000000 0.034808 0.000000 0.000000
# 5 0.000000 0.000000 0.000000 0.000000 0.027452 0.000000
# 6 0.000000 0.000000 0.000000 0.000000 0.000000 0.025997
#
#
# Mechanical properties :
#
#
# Convention : Reuss Voigt Hill
#
# Bulk Modulus (GPa) = 56.71476 72.69851 64.70664
# Shear Modulus (GPa) = 30.68824 34.00854 32.34839
#
# Velocity S-wave (km/s) = 3.75917 3.95731 3.85951
# Velocity P-wave (km/s) = 6.70506 7.37270 7.04679
#
# Compressibility (1/GPa) = 0.01763209
#
# Stress axis : x y z
#
# Youngs Moduli (GPa) = 44.81393 89.57318 102.72390
#
# Poissons Ratio (x) = 0.19730 0.79278
# Poissons Ratio (y) = 0.09871 0.29486
# Poissons Ratio (z) = 0.34585 0.25711
#
# Static dielectric constant tensor:
#      x y z
#    x 3.871730 0.000000 0.000000 
#    y 0.000000 4.098230 0.000000 
#    z 0.000000 0.000000 4.002020 
# 
# 
# High freq. dielectric constant tensor:
#      x y z
#    x 1.834620 0.000000 0.000000 
#    y 0.000000 1.868670 0.000000 
#    z 0.000000 0.000000 1.851520 
# 
# From -- ./inp_files/7125.got.cif
#   From: 2010.03.12/outbox.cif.g09.slc.cpg/sg33_4_cif.got.tgz:7125.got - 2010.04.14 01:49:19.
