data_PCOD8171571
_publ_section_title
;
Structure prediction by ZEFSAII (Michael W. Deem and Ramdas Pophale) SiO2 
 PCOD8171571
Probable space group: P N A 21
;
_chemical_formula_sum "Si O2"
_cell_formula_units_Z 28
_cell_length_a 9.737014
_cell_length_b 10.579757
_cell_length_c 12.846161
_cell_angle_alpha 90.000000
_cell_angle_beta 90.000000
_cell_angle_gamma 90.000000
_cell_volume 1323.350385
_symmetry_space_group_name_H-M "P N A 21"
_symmetry_group_IT_number 33
_symmetry_cell_setting 'orthorhombic'
loop_
_space_group_symop_operation_xyz
x,y,z
-x,-y,1/2+z
1/2-x,1/2+y,1/2+z
1/2+x,1/2-y,z
loop_
_atom_site_type_symbol
_atom_site_label
_atom_site_fract_x
_atom_site_fract_y
_atom_site_fract_z
Si Si1 0.000026 0.972464 0.781000
Si Si2 0.291615 0.515837 0.602296
Si Si3 0.750191 0.250071 0.964577
Si Si4 0.000027 0.158660 0.492094
Si Si5 0.500031 0.102467 0.615765
Si Si6 0.291551 0.484148 0.102293
Si Si7 0.499832 0.758556 0.331661
O O1 0.862212 0.958586 0.713215
O O2 0.000057 0.863377 0.868311
O O3 0.137917 0.958779 0.713272
O O4 0.999911 0.107176 0.837489
O O5 0.314262 0.640892 0.534921
O O6 0.363639 0.399175 0.544347
O O7 0.131578 0.487915 0.618688
O O8 0.814285 0.141005 0.035070
O O9 0.633696 0.189224 0.891000
O O10 0.867044 0.311015 0.891384
O O11 0.000074 0.309258 0.512986
O O12 0.136443 0.100757 0.544255
O O13 0.368506 0.012052 0.618594
O O14 0.499956 0.196252 0.713585
#
# Coordination Sequence:
#
# PCOD8171571 Si02
#       7
#     4   4   4   4   4   4   4
#     4  11  22  46  67  92 132 180 212 254 344 389
#     4  11  24  44  66  97 132 172 217 270 324 392
#     4  12  24  44  66  96 132 170 216 270 326 386
#     4  11  23  43  68  94 132 173 214 270 327 389
#     4  12  25  41  70 102 130 161 228 278 315 382
#     4  11  24  44  66  97 132 172 217 270 324 392
#     4  12  22  40  71  96 122 172 226 260 312 396
#
# _framework density 21.158417
#
# number of rings (size 3 to 8) (size 9 to 14) (size 15 to 20)
#    0.000    0.571    5.714    4.286    0.000    0.000 
#    5.143    0.000    0.000    0.000    0.000    0.000 
#    0.000    0.000    0.000    0.000    0.000    0.000 
#
# Total GULP energy -347423.868526 kJ/mol
# GULP energy per Si atom -12407.995305 kJ/mol
# Density = 2.111026 g / cm^3
# Si number density = 21.158417 Si / 1000 Ang^3
#
#
#
# Elastic Constant Matrix: (Units=GPa)
#
#
# Indices 1 2 3 4 5 6 
#
# 1 162.0828 10.7511 47.0965 0.0000 0.0000 0.0000
# 2 10.7511 54.0556 27.7893 0.0000 0.0000 0.0000
# 3 47.0965 27.7893 136.6261 0.0000 0.0000 0.0000
# 4 0.0000 0.0000 0.0000 30.3010 0.0000 0.0000
# 5 0.0000 0.0000 0.0000 0.0000 27.7852 0.0000
# 6 0.0000 0.0000 0.0000 0.0000 0.0000 80.1568
#
#
#
# Elastic Compliance Matrix: (Units=1/GPa)
#
#
# Indices 1 2 3 4 5 6 
#
# 1 0.006858 -0.000166 -0.002330 0.000000 0.000000 0.000000
# 2 -0.000166 0.020664 -0.004146 0.000000 0.000000 0.000000
# 3 -0.002330 -0.004146 0.008966 0.000000 0.000000 0.000000
# 4 0.000000 0.000000 0.000000 0.033002 0.000000 0.000000
# 5 0.000000 0.000000 0.000000 0.000000 0.035990 0.000000
# 6 0.000000 0.000000 0.000000 0.000000 0.000000 0.012476
#
#
# Mechanical properties :
#
#
# Convention : Reuss Voigt Hill
#
# Bulk Modulus (GPa) = 43.09713 58.22649 50.66181
# Shear Modulus (GPa) = 35.97804 45.45711 40.71757
#
# Velocity S-wave (km/s) = 4.12808 4.64013 4.39157
# Velocity P-wave (km/s) = 6.56768 7.50245 7.05057
#
# Compressibility (1/GPa) = 0.02320340
#
# Stress axis : x y z
#
# Youngs Moduli (GPa) = 145.81979 48.39394 111.53610
#
# Poissons Ratio (x) = 0.00803 0.25990
# Poissons Ratio (y) = 0.02421 0.46240
# Poissons Ratio (z) = 0.33979 0.20063
#
# Static dielectric constant tensor:
#      x y z
#    x 3.884080 0.000000 0.000000 
#    y 0.000000 3.521360 0.000000 
#    z 0.000000 0.000000 3.915220 
# 
# 
# High freq. dielectric constant tensor:
#      x y z
#    x 1.843450 0.000000 0.000000 
#    y 0.000000 1.809030 0.000000 
#    z 0.000000 0.000000 1.837630 
# 
# From -- ./inp_files/5852.got.cif
#   From: 2010.03.12/outbox.cif.g09.slc.cpg/sg33_3_cif.got.tgz:5852.got - 2010.04.14 01:49:19.
