data_PCOD8171407
_publ_section_title
;
Structure prediction by ZEFSAII (Michael W. Deem and Ramdas Pophale) SiO2 
 PCOD8171407
Probable space group: P N A 21
;
_chemical_formula_sum "Si O2"
_cell_formula_units_Z 28
_cell_length_a 13.392360
_cell_length_b 9.109081
_cell_length_c 9.790046
_cell_angle_alpha 90.000000
_cell_angle_beta 90.000000
_cell_angle_gamma 90.000000
_cell_volume 1194.308193
_symmetry_space_group_name_H-M "P N A 21"
_symmetry_group_IT_number 33
_symmetry_cell_setting 'orthorhombic'
loop_
_space_group_symop_operation_xyz
x,y,z
-x,-y,1/2+z
1/2-x,1/2+y,1/2+z
1/2+x,1/2-y,z
loop_
_atom_site_type_symbol
_atom_site_label
_atom_site_fract_x
_atom_site_fract_y
_atom_site_fract_z
Si Si1 0.771052 0.862923 0.685470
Si Si2 0.586435 0.963200 0.534597
Si Si3 0.237208 0.575330 0.095790
Si Si4 0.418380 0.737165 0.164186
Si Si5 0.249965 0.396880 0.358059
Si Si6 0.878550 0.672913 0.462530
Si Si7 0.871982 0.140802 0.619473
O O1 0.771847 0.775243 0.827850
O O2 0.845838 0.789329 0.575953
O O3 0.657872 0.864113 0.629175
O O4 0.810455 0.028153 0.715671
O O5 0.545844 0.101744 0.619431
O O6 0.650059 0.022089 0.406952
O O7 0.494390 0.866691 0.484519
O O8 0.333141 0.677893 0.058920
O O9 0.279252 0.470056 0.214854
O O10 0.191022 0.474291 0.974476
O O11 0.154969 0.690326 0.150679
O O12 0.369963 0.749439 0.315542
O O13 0.510943 0.624860 0.151848
O O14 0.341803 0.403744 0.463945
#
# Coordination Sequence:
#
# PCOD8171407 Si02
#       7
#     4   4   4   4   4   4   4
#     4  10  24  46  70 103 139 182 239 294 348 411
#     4  11  23  42  69  99 136 185 227 281 362 414
#     4  11  23  46  70 100 139 190 230 292 360 421
#     4  12  24  42  73 102 139 184 237 287 355 424
#     4  10  23  46  69  99 145 178 236 290 348 428
#     4  11  26  45  72 103 142 186 235 292 357 433
#     4  11  23  45  67 108 138 183 240 288 354 419
#
# _framework density 23.444534999999998
#
# number of rings (size 3 to 8) (size 9 to 14) (size 15 to 20)
#    0.000    1.143    4.286    2.571    4.000    2.286 
#    5.143    0.000    0.000    0.000    0.000    0.000 
#    0.000    0.000    0.000    0.000    0.000    0.000 
#
# Total GULP energy -347126.034802 kJ/mol
# GULP energy per Si atom -12397.358386 kJ/mol
# Density = 2.339117 g / cm^3
# Si number density = 23.444535 Si / 1000 Ang^3
#
#
#
# Elastic Constant Matrix: (Units=GPa)
#
#
# Indices 1 2 3 4 5 6 
#
# 1 148.9428 33.0272 30.2775 0.0000 0.0000 0.0000
# 2 33.0272 88.4901 15.5775 0.0000 0.0000 0.0000
# 3 30.2775 15.5775 50.9641 0.0000 0.0000 0.0000
# 4 0.0000 0.0000 0.0000 40.8251 0.0000 0.0000
# 5 0.0000 0.0000 0.0000 0.0000 31.3493 0.0000
# 6 0.0000 0.0000 0.0000 0.0000 0.0000 42.9936
#
#
#
# Elastic Compliance Matrix: (Units=1/GPa)
#
#
# Indices 1 2 3 4 5 6 
#
# 1 0.008051 -0.002286 -0.004084 0.000000 0.000000 0.000000
# 2 -0.002286 0.012592 -0.002491 0.000000 0.000000 0.000000
# 3 -0.004084 -0.002491 0.022810 0.000000 0.000000 0.000000
# 4 0.000000 0.000000 0.000000 0.024495 0.000000 0.000000
# 5 0.000000 0.000000 0.000000 0.000000 0.031899 0.000000
# 6 0.000000 0.000000 0.000000 0.000000 0.000000 0.023259
#
#
# Mechanical properties :
#
#
# Convention : Reuss Voigt Hill
#
# Bulk Modulus (GPa) = 38.86424 49.57349 44.21887
# Shear Modulus (GPa) = 33.46607 37.00127 35.23367
#
# Velocity S-wave (km/s) = 3.78227 3.97703 3.88087
# Velocity P-wave (km/s) = 5.97387 6.50230 6.24368
#
# Compressibility (1/GPa) = 0.02573060
#
# Stress axis : x y z
#
# Youngs Moduli (GPa) = 124.20542 79.41318 43.84125
#
# Poissons Ratio (x) = 0.18153 0.17907
# Poissons Ratio (y) = 0.28393 0.10920
# Poissons Ratio (z) = 0.50731 0.19781
#
# Static dielectric constant tensor:
#      x y z
#    x 4.008300 0.000000 0.000000 
#    y 0.000000 4.604690 0.000000 
#    z 0.000000 0.000000 4.046190 
# 
# 
# High freq. dielectric constant tensor:
#      x y z
#    x 1.920470 0.000000 0.000000 
#    y 0.000000 1.944910 0.000000 
#    z 0.000000 0.000000 1.916600 
# 
# From -- ./inp_files/6317.got.cif
#   From: 2010.03.12/outbox.cif.g09.slc.cpg/sg33_4_cif.got.tgz:6317.got - 2010.04.14 01:49:19.
