data_PCOD8171569
_publ_section_title
;
Structure prediction by ZEFSAII (Michael W. Deem and Ramdas Pophale) SiO2 
 PCOD8171569
Probable space group: P N A 21
;
_chemical_formula_sum "Si O2"
_cell_formula_units_Z 28
_cell_length_a 17.844784
_cell_length_b 11.299631
_cell_length_c 5.559928
_cell_angle_alpha 90.000000
_cell_angle_beta 90.000000
_cell_angle_gamma 90.000000
_cell_volume 1121.100960
_symmetry_space_group_name_H-M "P N A 21"
_symmetry_group_IT_number 33
_symmetry_cell_setting 'orthorhombic'
loop_
_space_group_symop_operation_xyz
x,y,z
-x,-y,1/2+z
1/2-x,1/2+y,1/2+z
1/2+x,1/2-y,z
loop_
_atom_site_type_symbol
_atom_site_label
_atom_site_fract_x
_atom_site_fract_y
_atom_site_fract_z
Si Si1 0.187065 0.589720 0.477860
Si Si2 0.288540 0.471145 0.142777
Si Si3 0.793608 0.798677 0.863908
Si Si4 0.025554 0.560652 0.612454
Si Si5 0.544632 0.309232 0.192541
Si Si6 0.074370 0.951002 0.952845
Si Si7 0.691870 0.681214 0.217097
O O1 0.222300 0.476111 0.342369
O O2 0.252561 0.642688 0.640030
O O3 0.115505 0.551998 0.633538
O O4 0.161656 0.689730 0.287221
O O5 0.369469 0.427223 0.232111
O O6 0.302169 0.606071 0.071794
O O7 0.260640 0.382524 0.931347
O O8 0.876257 0.757750 0.785417
O O9 0.743618 0.691181 0.975599
O O10 0.003073 0.495674 0.362894
O O11 0.000177 0.697046 0.590171
O O12 0.499871 0.373291 0.410172
O O13 0.554949 0.410463 0.987838
O O14 0.119335 0.902634 0.184610
#
# Coordination Sequence:
#
# PCOD8171569 Si02
#       7
#     4   4   4   4   4   4   4
#     4  11  26  50  77 110 158 213 278 334 416 503
#     4  11  22  45  73 116 153 203 265 333 424 485
#     4  11  24  47  74 115 156 207 271 335 411 515
#     4  12  33  57  81 119 175 234 282 340 417 523
#     4  12  27  50  82 122 161 219 281 347 435 491
#     4  12  26  49  79 122 162 198 271 361 424 487
#     4  11  24  44  78 110 161 202 264 350 419 498
#
# _framework density 24.975448
#
# number of rings (size 3 to 8) (size 9 to 14) (size 15 to 20)
#    0.000    0.571    2.857    3.429    8.000    4.571 
#    2.571    0.000    0.000    0.000    0.000    0.000 
#    0.000    0.000    0.000    0.000    0.000    0.000 
#
# Total GULP energy -347133.041907 kJ/mol
# GULP energy per Si atom -12397.608640 kJ/mol
# Density = 2.491860 g / cm^3
# Si number density = 24.975448 Si / 1000 Ang^3
#
#
#
# Elastic Constant Matrix: (Units=GPa)
#
#
# Indices 1 2 3 4 5 6 
#
# 1 158.4617 39.2007 42.4624 0.0000 0.0000 0.0000
# 2 39.2007 121.6072 39.3389 0.0000 0.0000 0.0000
# 3 42.4624 39.3389 113.4567 0.0000 0.0000 0.0000
# 4 0.0000 0.0000 0.0000 54.3039 0.0000 0.0000
# 5 0.0000 0.0000 0.0000 0.0000 36.3359 0.0000
# 6 0.0000 0.0000 0.0000 0.0000 0.0000 37.4544
#
#
#
# Elastic Compliance Matrix: (Units=1/GPa)
#
#
# Indices 1 2 3 4 5 6 
#
# 1 0.007298 -0.001655 -0.002158 0.000000 0.000000 0.000000
# 2 -0.001655 0.009637 -0.002722 0.000000 0.000000 0.000000
# 3 -0.002158 -0.002722 0.010565 0.000000 0.000000 0.000000
# 4 0.000000 0.000000 0.000000 0.018415 0.000000 0.000000
# 5 0.000000 0.000000 0.000000 0.000000 0.027521 0.000000
# 6 0.000000 0.000000 0.000000 0.000000 0.000000 0.026699
#
#
# Mechanical properties :
#
#
# Convention : Reuss Voigt Hill
#
# Bulk Modulus (GPa) = 69.29243 70.61441 69.95342
# Shear Modulus (GPa) = 42.36733 43.78708 43.07721
#
# Velocity S-wave (km/s) = 4.12316 4.19167 4.15756
# Velocity P-wave (km/s) = 7.10434 7.19456 7.14959
#
# Compressibility (1/GPa) = 0.01443159
#
# Stress axis : x y z
#
# Youngs Moduli (GPa) = 137.02019 103.76460 94.64871
#
# Poissons Ratio (x) = 0.17169 0.20423
# Poissons Ratio (y) = 0.22671 0.25766
# Poissons Ratio (z) = 0.29565 0.28247
#
# Static dielectric constant tensor:
#      x y z
#    x 4.531810 0.000000 0.000000 
#    y 0.000000 4.864700 0.000000 
#    z 0.000000 0.000000 4.474000 
# 
# 
# High freq. dielectric constant tensor:
#      x y z
#    x 1.995160 0.000000 0.000000 
#    y 0.000000 2.014980 0.000000 
#    z 0.000000 0.000000 1.996880 
# 
# From -- ./inp_files/1759.got.cif
#   From: 2010.03.12/outbox.cif.g09.slc.cpg/sg33_1_cif.got.tgz:1759.got - 2010.04.14 01:49:19.
