data_PCOD8171494
_publ_section_title
;
Structure prediction by ZEFSAII (Michael W. Deem and Ramdas Pophale) SiO2 
 PCOD8171494
Probable space group: P N A 21
;
_chemical_formula_sum "Si O2"
_cell_formula_units_Z 28
_cell_length_a 10.849593
_cell_length_b 9.168346
_cell_length_c 12.812067
_cell_angle_alpha 90.000000
_cell_angle_beta 90.000000
_cell_angle_gamma 90.000000
_cell_volume 1274.452468
_symmetry_space_group_name_H-M "P N A 21"
_symmetry_group_IT_number 33
_symmetry_cell_setting 'orthorhombic'
loop_
_space_group_symop_operation_xyz
x,y,z
-x,-y,1/2+z
1/2-x,1/2+y,1/2+z
1/2+x,1/2-y,z
loop_
_atom_site_type_symbol
_atom_site_label
_atom_site_fract_x
_atom_site_fract_y
_atom_site_fract_z
Si Si1 0.544316 0.474360 0.903690
Si Si2 0.829037 0.701872 0.443871
Si Si3 0.317614 0.445705 0.768016
Si Si4 0.802203 0.005840 0.208810
Si Si5 0.324039 0.177206 0.128524
Si Si6 0.060513 0.509667 0.096997
Si Si7 0.009174 0.832535 0.099091
O O1 0.548133 0.302197 0.934215
O O2 0.415127 0.514045 0.849665
O O3 0.664209 0.490706 0.830047
O O4 0.561038 0.578756 0.001488
O O5 0.778481 0.657730 0.329453
O O6 0.734539 0.798633 0.513774
O O7 0.861595 0.548884 0.498515
O O8 0.259296 0.579009 0.704708
O O9 0.389685 0.340715 0.689665
O O10 0.656416 0.979543 0.193590
O O11 0.877294 0.891398 0.136796
O O12 0.845028 0.166790 0.179104
O O13 0.457472 0.106620 0.123933
O O14 0.996533 0.662728 0.069163
#
# Coordination Sequence:
#
# PCOD8171494 Si02
#       7
#     4   4   4   4   4   4   4
#     4  11  23  44  70  97 143 183 230 293 360 416
#     4  11  23  46  70 103 138 188 234 291 366 427
#     4  11  25  43  73 100 139 185 240 292 356 428
#     4  10  25  44  70  97 138 184 231 285 352 420
#     4  11  25  47  70 101 141 187 239 293 354 432
#     4  11  25  43  71 101 140 179 237 287 352 426
#     4  11  24  45  68 105 139 180 235 299 348 427
#
# _framework density 21.970219
#
# number of rings (size 3 to 8) (size 9 to 14) (size 15 to 20)
#    0.000    1.143    1.429    4.286   14.000    0.000 
#    5.143    0.000    0.000    0.000    0.000    0.000 
#    0.000    0.000    0.000    0.000    0.000    0.000 
#
# Total GULP energy -347241.152893 kJ/mol
# GULP energy per Si atom -12401.469746 kJ/mol
# Density = 2.192021 g / cm^3
# Si number density = 21.970219 Si / 1000 Ang^3
#
#
#
# Elastic Constant Matrix: (Units=GPa)
#
#
# Indices 1 2 3 4 5 6 
#
# 1 103.0463 44.5588 23.6220 0.0000 0.0000 0.0000
# 2 44.5588 140.0050 33.9518 0.0000 0.0000 0.0000
# 3 23.6220 33.9518 95.2344 0.0000 0.0000 0.0000
# 4 0.0000 0.0000 0.0000 30.2750 0.0000 0.0000
# 5 0.0000 0.0000 0.0000 0.0000 22.4611 0.0000
# 6 0.0000 0.0000 0.0000 0.0000 0.0000 40.6307
#
#
#
# Elastic Compliance Matrix: (Units=1/GPa)
#
#
# Indices 1 2 3 4 5 6 
#
# 1 0.011497 -0.003248 -0.001694 0.000000 0.000000 0.000000
# 2 -0.003248 0.008736 -0.002309 0.000000 0.000000 0.000000
# 3 -0.001694 -0.002309 0.011744 0.000000 0.000000 0.000000
# 4 0.000000 0.000000 0.000000 0.033031 0.000000 0.000000
# 5 0.000000 0.000000 0.000000 0.000000 0.044521 0.000000
# 6 0.000000 0.000000 0.000000 0.000000 0.000000 0.024612
#
#
# Mechanical properties :
#
#
# Convention : Reuss Voigt Hill
#
# Bulk Modulus (GPa) = 57.22354 60.28343 58.75349
# Shear Modulus (GPa) = 32.36911 34.41692 33.39301
#
# Velocity S-wave (km/s) = 3.84255 3.96223 3.90285
# Velocity P-wave (km/s) = 6.76679 6.95921 6.86367
#
# Compressibility (1/GPa) = 0.01747532
#
# Stress axis : x y z
#
# Youngs Moduli (GPa) = 86.97677 114.46388 85.15259
#
# Poissons Ratio (x) = 0.37183 0.14422
# Poissons Ratio (y) = 0.28254 0.19660
# Poissons Ratio (z) = 0.14731 0.26428
#
# Static dielectric constant tensor:
#      x y z
#    x 3.907080 0.000000 0.000000 
#    y 0.000000 3.994430 0.000000 
#    z 0.000000 0.000000 4.130510 
# 
# 
# High freq. dielectric constant tensor:
#      x y z
#    x 1.864070 0.000000 0.000000 
#    y 0.000000 1.873600 0.000000 
#    z 0.000000 0.000000 1.866940 
# 
# From -- ./inp_files/6334.got.cif
#   From: 2010.03.12/outbox.cif.g09.slc.cpg/sg33_4_cif.got.tgz:6334.got - 2010.04.14 01:49:19.
