data_PCOD8171379
_publ_section_title
;
Structure prediction by ZEFSAII (Michael W. Deem and Ramdas Pophale) SiO2 
 PCOD8171379
Probable space group: P N A 21
;
_chemical_formula_sum "Si O2"
_cell_formula_units_Z 32
_cell_length_a 15.879671
_cell_length_b 8.116172
_cell_length_c 11.641775
_cell_angle_alpha 90.000000
_cell_angle_beta 90.000000
_cell_angle_gamma 90.000000
_cell_volume 1500.416889
_symmetry_space_group_name_H-M "P N A 21"
_symmetry_group_IT_number 33
_symmetry_cell_setting 'orthorhombic'
loop_
_space_group_symop_operation_xyz
x,y,z
-x,-y,1/2+z
1/2-x,1/2+y,1/2+z
1/2+x,1/2-y,z
loop_
_atom_site_type_symbol
_atom_site_label
_atom_site_fract_x
_atom_site_fract_y
_atom_site_fract_z
Si Si1 0.251731 0.040217 0.992800
Si Si2 0.699754 0.593507 0.523800
Si Si3 0.179693 0.962681 0.773750
Si Si4 0.886005 0.968338 0.658732
Si Si5 0.233385 0.602522 0.809770
Si Si6 0.021227 0.765945 0.522353
Si Si7 0.978743 0.822040 0.270491
Si Si8 0.893998 0.543326 0.132484
O O1 0.240078 0.067720 0.857124
O O2 0.265239 0.222821 0.042955
O O3 0.169151 0.960792 0.052483
O O4 0.332567 0.924613 0.022286
O O5 0.714079 0.506656 0.646433
O O6 0.750131 0.487414 0.431053
O O7 0.599377 0.608901 0.502949
O O8 0.188102 0.778127 0.824355
O O9 0.083192 0.021677 0.784055
O O10 0.823090 0.876362 0.746638
O O11 0.953031 0.844418 0.605630
O O12 0.930572 0.115845 0.727693
O O13 0.167870 0.493972 0.738390
O O14 0.985937 0.729322 0.393873
O O15 0.044535 0.602345 0.592670
O O16 0.946871 0.701207 0.169708
#
# Coordination Sequence:
#
# PCOD8171379 Si02
#       8
#     4   4   4   4   4   4   4   4
#     4  10  23  44  65  94 137 172 225 283 330 412
#     4  11  22  44  67  96 136 178 218 285 342 401
#     4  12  23  42  69  97 130 185 226 280 348 403
#     4  11  21  42  67  97 133 175 223 282 345 399
#     4  11  23  42  70 100 131 178 231 277 339 419
#     4  11  22  45  66  96 142 175 221 289 345 403
#     4  12  24  42  70 100 137 184 221 287 352 408
#     4  10  24  47  64  96 140 175 223 281 337 409
#
# _framework density 21.327406
#
# number of rings (size 3 to 8) (size 9 to 14) (size 15 to 20)
#    0.000    1.000    7.500    0.750    1.750    0.000 
#    6.750    0.000    0.000    0.000    0.000    0.000 
#    0.000    0.000    0.000    0.000    0.000    0.000 
#
# Total GULP energy -396596.199718 kJ/mol
# GULP energy per Si atom -12393.631241 kJ/mol
# Density = 2.127886 g / cm^3
# Si number density = 21.327406 Si / 1000 Ang^3
#
#
#
# Elastic Constant Matrix: (Units=GPa)
#
#
# Indices 1 2 3 4 5 6 
#
# 1 104.2909 50.9646 48.8181 0.0000 0.0000 0.0000
# 2 50.9646 74.9824 34.1575 0.0000 0.0000 0.0000
# 3 48.8181 34.1575 148.9830 0.0000 0.0000 0.0000
# 4 0.0000 0.0000 0.0000 37.9102 0.0000 0.0000
# 5 0.0000 0.0000 0.0000 0.0000 32.8071 0.0000
# 6 0.0000 0.0000 0.0000 0.0000 0.0000 27.9376
#
#
#
# Elastic Compliance Matrix: (Units=1/GPa)
#
#
# Indices 1 2 3 4 5 6 
#
# 1 0.015447 -0.009149 -0.002964 0.000000 0.000000 0.000000
# 2 -0.009149 0.020310 -0.001659 0.000000 0.000000 0.000000
# 3 -0.002964 -0.001659 0.008064 0.000000 0.000000 0.000000
# 4 0.000000 0.000000 0.000000 0.026378 0.000000 0.000000
# 5 0.000000 0.000000 0.000000 0.000000 0.030481 0.000000
# 6 0.000000 0.000000 0.000000 0.000000 0.000000 0.035794
#
#
# Mechanical properties :
#
#
# Convention : Reuss Voigt Hill
#
# Bulk Modulus (GPa) = 61.43313 66.23739 63.83526
# Shear Modulus (GPa) = 29.50841 32.68539 31.09690
#
# Velocity S-wave (km/s) = 3.72370 3.91903 3.82261
# Velocity P-wave (km/s) = 6.88151 7.18354 7.03415
#
# Compressibility (1/GPa) = 0.01627786
#
# Stress axis : x y z
#
# Youngs Moduli (GPa) = 64.73847 49.23594 124.01247
#
# Poissons Ratio (x) = 0.45045 0.36757
# Poissons Ratio (y) = 0.59228 0.20571
# Poissons Ratio (z) = 0.19188 0.08167
#
# Static dielectric constant tensor:
#      x y z
#    x 4.078530 0.000000 0.000000 
#    y 0.000000 3.535640 0.000000 
#    z 0.000000 0.000000 4.154060 
# 
# 
# High freq. dielectric constant tensor:
#      x y z
#    x 1.842330 0.000000 0.000000 
#    y 0.000000 1.809110 0.000000 
#    z 0.000000 0.000000 1.856350 
# 
# From -- ./inp_files/6806.got.cif
#   From: 2010.03.12/outbox.cif.g09.slc.cpg/sg33_4_cif.got.tgz:6806.got - 2010.04.14 01:49:19.
