data_PCOD8171809
_publ_section_title
;
Structure prediction by ZEFSAII (Michael W. Deem and Ramdas Pophale) SiO2 
 PCOD8171809
Probable space group: P N A 21
;
_chemical_formula_sum "Si O2"
_cell_formula_units_Z 12
_cell_length_a 17.138816
_cell_length_b 5.007303
_cell_length_c 5.008330
_cell_angle_alpha 90.000000
_cell_angle_beta 90.000000
_cell_angle_gamma 90.000000
_cell_volume 429.811098
_symmetry_space_group_name_H-M "P N A 21"
_symmetry_group_IT_number 33
_symmetry_cell_setting 'orthorhombic'
loop_
_space_group_symop_operation_xyz
x,y,z
-x,-y,1/2+z
1/2-x,1/2+y,1/2+z
1/2+x,1/2-y,z
loop_
_atom_site_type_symbol
_atom_site_label
_atom_site_fract_x
_atom_site_fract_y
_atom_site_fract_z
Si Si1 0.173838 0.417410 0.245000
Si Si2 0.151978 0.919257 0.579914
Si Si3 0.549926 0.948634 0.876729
O O1 0.152068 0.716014 0.331121
O O2 0.265796 0.374767 0.229066
O O3 0.140331 0.215408 0.467209
O O4 0.126655 0.373550 0.964981
O O5 0.081008 0.841660 0.777775
O O6 0.504433 0.094464 0.636297
#
# Coordination Sequence:
#
# PCOD8171809 Si02
#       3
#     4   4   4
#     4  12  27  51  86 122 163 221 287 348 417 510
#     4  12  27  51  86 122 163 221 287 348 417 510
#     4  12  28  56  80 128 174 224 280 360 430 500
#
# _framework density 27.919238
#
# number of rings (size 3 to 8) (size 9 to 14) (size 15 to 20)
#    0.000    0.000    6.667    2.000    0.000    0.000 
#   12.000    0.000    0.000    0.000    0.000    0.000 
#    0.000    0.000    0.000    0.000    0.000    0.000 
#
# Total GULP energy -148818.625796 kJ/mol
# GULP energy per Si atom -12401.552150 kJ/mol
# Density = 2.785569 g / cm^3
# Si number density = 27.919238 Si / 1000 Ang^3
#
#
#
# Elastic Constant Matrix: (Units=GPa)
#
#
# Indices 1 2 3 4 5 6 
#
# 1 119.3411 -5.5173 30.1422 0.0000 0.0000 0.0000
# 2 -5.5173 46.4948 0.7008 0.0000 0.0000 0.0000
# 3 30.1422 0.7008 143.0805 0.0000 0.0000 0.0000
# 4 0.0000 0.0000 0.0000 40.7443 0.0000 0.0000
# 5 0.0000 0.0000 0.0000 0.0000 65.5667 0.0000
# 6 0.0000 0.0000 0.0000 0.0000 0.0000 34.1544
#
#
#
# Elastic Compliance Matrix: (Units=1/GPa)
#
#
# Indices 1 2 3 4 5 6 
#
# 1 0.008905 0.001085 -0.001881 0.000000 0.000000 0.000000
# 2 0.001085 0.021642 -0.000335 0.000000 0.000000 0.000000
# 3 -0.001881 -0.000335 0.007387 0.000000 0.000000 0.000000
# 4 0.000000 0.000000 0.000000 0.024543 0.000000 0.000000
# 5 0.000000 0.000000 0.000000 0.000000 0.015252 0.000000
# 6 0.000000 0.000000 0.000000 0.000000 0.000000 0.029279
#
#
# Mechanical properties :
#
#
# Convention : Reuss Voigt Hill
#
# Bulk Modulus (GPa) = 28.03341 39.95197 33.99269
# Shear Modulus (GPa) = 41.26803 46.99912 44.13358
#
# Velocity S-wave (km/s) = 3.84881 4.10737 3.98019
# Velocity P-wave (km/s) = 5.46020 6.06918 5.77272
#
# Compressibility (1/GPa) = 0.03567172
#
# Stress axis : x y z
#
# Youngs Moduli (GPa) = 112.30093 46.20731 135.37255
#
# Poissons Ratio (x) = -0.05014 0.25467
# Poissons Ratio (y) = -0.12185 0.04529
# Poissons Ratio (z) = 0.21126 0.01546
#
# Static dielectric constant tensor:
#      x y z
#    x 5.629260 0.000000 0.000000 
#    y 0.000000 4.637350 0.000000 
#    z 0.000000 0.000000 5.200830 
# 
# 
# High freq. dielectric constant tensor:
#      x y z
#    x 2.150700 0.000000 0.000000 
#    y 0.000000 2.103980 0.000000 
#    z 0.000000 0.000000 2.148380 
# 
# From -- ./inp_files/1575.got.cif
#   From: 2010.03.12/outbox.cif.g09.slc.cpg/sg33_1_cif.got.tgz:1575.got - 2010.04.14 01:49:19.
