data_PCOD8171651
_publ_section_title
;
Structure prediction by ZEFSAII (Michael W. Deem and Ramdas Pophale) SiO2 
 PCOD8171651
Probable space group: P N A 21
;
_chemical_formula_sum "Si O2"
_cell_formula_units_Z 20
_cell_length_a 21.941201
_cell_length_b 5.494417
_cell_length_c 7.356207
_cell_angle_alpha 90.000000
_cell_angle_beta 90.000000
_cell_angle_gamma 90.000000
_cell_volume 886.820971
_symmetry_space_group_name_H-M "P N A 21"
_symmetry_group_IT_number 33
_symmetry_cell_setting 'orthorhombic'
loop_
_space_group_symop_operation_xyz
x,y,z
-x,-y,1/2+z
1/2-x,1/2+y,1/2+z
1/2+x,1/2-y,z
loop_
_atom_site_type_symbol
_atom_site_label
_atom_site_fract_x
_atom_site_fract_y
_atom_site_fract_z
Si Si1 0.411715 0.581173 0.213310
Si Si2 0.285231 0.547055 0.059134
Si Si3 0.692277 0.937711 0.357721
Si Si4 0.522411 0.296315 0.060479
Si Si5 0.436183 0.935439 0.915592
O O1 0.341936 0.493167 0.196772
O O2 0.458604 0.429728 0.090248
O O3 0.430224 0.569284 0.425871
O O4 0.415510 0.841642 0.113970
O O5 0.220667 0.552442 0.158551
O O6 0.278349 0.305900 0.938801
O O7 0.293961 0.802147 0.953970
O O8 0.619301 0.894495 0.345820
O O9 0.555042 0.260019 0.253504
O O10 0.501923 0.059786 0.944775
#
# Coordination Sequence:
#
# PCOD8171651 Si02
#       5
#     4   4   4   4   4
#     4  11  24  41  67  97 136 171 225 280 336 406
#     4  11  25  47  70  99 136 177 230 282 336 402
#     4  11  25  47  70  99 136 177 230 282 336 402
#     4  12  22  42  64  98 132 176 216 280 346 400
#     4  11  24  41  67  97 136 171 225 280 336 406
#
# _framework density 22.552467
#
# number of rings (size 3 to 8) (size 9 to 14) (size 15 to 20)
#    0.000    0.800    6.000    1.200    2.800    0.000 
#    7.200    0.000    0.000    0.000    0.000    0.000 
#    0.000    0.000    0.000    0.000    0.000    0.000 
#
# Total GULP energy -247779.309805 kJ/mol
# GULP energy per Si atom -12388.965490 kJ/mol
# Density = 2.250114 g / cm^3
# Si number density = 22.552467 Si / 1000 Ang^3
#
#
#
# Elastic Constant Matrix: (Units=GPa)
#
#
# Indices 1 2 3 4 5 6 
#
# 1 49.8649 -4.5727 8.1079 0.0000 0.0000 0.0000
# 2 -4.5727 98.0026 12.9408 0.0000 0.0000 0.0000
# 3 8.1079 12.9408 79.4231 0.0000 0.0000 0.0000
# 4 0.0000 0.0000 0.0000 34.6609 0.0000 0.0000
# 5 0.0000 0.0000 0.0000 0.0000 37.5044 0.0000
# 6 0.0000 0.0000 0.0000 0.0000 0.0000 23.1144
#
#
#
# Elastic Compliance Matrix: (Units=1/GPa)
#
#
# Indices 1 2 3 4 5 6 
#
# 1 0.020544 0.001263 -0.002303 0.000000 0.000000 0.000000
# 2 0.001263 0.010506 -0.001841 0.000000 0.000000 0.000000
# 3 -0.002303 -0.001841 0.013126 0.000000 0.000000 0.000000
# 4 0.000000 0.000000 0.000000 0.028851 0.000000 0.000000
# 5 0.000000 0.000000 0.000000 0.000000 0.026664 0.000000
# 6 0.000000 0.000000 0.000000 0.000000 0.000000 0.043263
#
#
# Mechanical properties :
#
#
# Convention : Reuss Voigt Hill
#
# Bulk Modulus (GPa) = 26.03215 28.91586 27.47400
# Shear Modulus (GPa) = 30.95588 33.11025 32.03306
#
# Velocity S-wave (km/s) = 3.70890 3.83579 3.77288
# Velocity P-wave (km/s) = 5.46894 5.69800 5.58464
#
# Compressibility (1/GPa) = 0.03841404
#
# Stress axis : x y z
#
# Youngs Moduli (GPa) = 48.67497 95.18576 76.18579
#
# Poissons Ratio (x) = -0.12019 0.17546
# Poissons Ratio (y) = -0.06146 0.14023
# Poissons Ratio (z) = 0.11210 0.17520
#
# Static dielectric constant tensor:
#      x y z
#    x 4.260690 0.000000 0.000000 
#    y 0.000000 4.080350 0.000000 
#    z 0.000000 0.000000 3.818170 
# 
# 
# High freq. dielectric constant tensor:
#      x y z
#    x 1.895390 0.000000 0.000000 
#    y 0.000000 1.883250 0.000000 
#    z 0.000000 0.000000 1.883240 
# 
# From -- ./inp_files/1608.got.cif
#   From: 2010.03.12/outbox.cif.g09.slc.cpg/sg33_1_cif.got.tgz:1608.got - 2010.04.14 01:49:19.
