data_PCOD8171026
_publ_section_title
;
Structure prediction by ZEFSAII (Michael W. Deem and Ramdas Pophale) SiO2 
 PCOD8171026
Probable space group: P N A 21
;
_chemical_formula_sum "Si O2"
_cell_formula_units_Z 28
_cell_length_a 12.311415
_cell_length_b 17.349972
_cell_length_c 6.499634
_cell_angle_alpha 90.000000
_cell_angle_beta 90.000000
_cell_angle_gamma 90.000000
_cell_volume 1388.339407
_symmetry_space_group_name_H-M "P N A 21"
_symmetry_group_IT_number 33
_symmetry_cell_setting 'orthorhombic'
loop_
_space_group_symop_operation_xyz
x,y,z
-x,-y,1/2+z
1/2-x,1/2+y,1/2+z
1/2+x,1/2-y,z
loop_
_atom_site_type_symbol
_atom_site_label
_atom_site_fract_x
_atom_site_fract_y
_atom_site_fract_z
Si Si1 0.256603 0.862114 0.469130
Si Si2 0.023765 0.590712 0.914969
Si Si3 0.450304 0.272871 0.965688
Si Si4 0.097435 0.287791 0.639336
Si Si5 0.340418 0.995582 0.720457
Si Si6 0.318439 0.122876 0.046273
Si Si7 0.145406 0.226457 0.230501
O O1 0.129222 0.845205 0.430919
O O2 0.325832 0.850459 0.257947
O O3 0.303315 0.802770 0.633879
O O4 0.260520 0.948775 0.565282
O O5 0.102940 0.589257 0.720168
O O6 0.901917 0.566508 0.858126
O O7 0.067319 0.534035 0.085488
O O8 0.003831 0.673369 0.019276
O O9 0.546127 0.273053 0.797760
O O10 0.380466 0.194714 0.943784
O O11 0.516004 0.279362 0.181256
O O12 0.164058 0.235830 0.475931
O O13 0.286339 0.059589 0.871527
O O14 0.206924 0.149984 0.152986
#
# Coordination Sequence:
#
# PCOD8171026 Si02
#       7
#     4   4   4   4   4   4   4
#     4  10  23  36  60  91 122 158 207 258 314 379
#     4  12  21  34  59  90 122 157 197 255 321 365
#     4  10  21  40  59  88 120 161 208 257 310 370
#     4  11  20  36  60  92 122 158 206 262 310 375
#     4  12  22  37  58  91 128 157 201 258 315 376
#     4  11  23  36  61  92 120 164 203 254 316 375
#     4  10  22  39  61  88 124 157 210 260 306 374
#
# _framework density 20.167978999999999
#
# number of rings (size 3 to 8) (size 9 to 14) (size 15 to 20)
#    0.000    1.143    5.714    1.714    2.000    1.143 
#    0.000    0.000    3.143    0.000    0.000    0.000 
#    0.000    0.000    0.000    0.000    0.000    0.000 
#
# Total GULP energy -347027.739202 kJ/mol
# GULP energy per Si atom -12393.847829 kJ/mol
# Density = 2.012208 g / cm^3
# Si number density = 20.167979 Si / 1000 Ang^3
#
#
#
# Elastic Constant Matrix: (Units=GPa)
#
#
# Indices 1 2 3 4 5 6 
#
# 1 70.9487 40.1366 30.5098 0.0000 0.0000 0.0000
# 2 40.1366 84.9510 43.3103 0.0000 0.0000 0.0000
# 3 30.5098 43.3103 119.8754 0.0000 0.0000 0.0000
# 4 0.0000 0.0000 0.0000 36.7030 0.0000 0.0000
# 5 0.0000 0.0000 0.0000 0.0000 21.0341 0.0000
# 6 0.0000 0.0000 0.0000 0.0000 0.0000 31.1781
#
#
#
# Elastic Compliance Matrix: (Units=1/GPa)
#
#
# Indices 1 2 3 4 5 6 
#
# 1 0.019626 -0.008245 -0.002016 0.000000 0.000000 0.000000
# 2 -0.008245 0.017893 -0.004366 0.000000 0.000000 0.000000
# 3 -0.002016 -0.004366 0.010433 0.000000 0.000000 0.000000
# 4 0.000000 0.000000 0.000000 0.027246 0.000000 0.000000
# 5 0.000000 0.000000 0.000000 0.000000 0.047542 0.000000
# 6 0.000000 0.000000 0.000000 0.000000 0.000000 0.032074
#
#
# Mechanical properties :
#
#
# Convention : Reuss Voigt Hill
#
# Bulk Modulus (GPa) = 53.48430 55.96538 54.72484
# Shear Modulus (GPa) = 26.27441 28.57094 27.42267
#
# Velocity S-wave (km/s) = 3.61332 3.76792 3.69143
# Velocity P-wave (km/s) = 6.63212 6.83663 6.73515
#
# Compressibility (1/GPa) = 0.01869708
#
# Stress axis : x y z
#
# Youngs Moduli (GPa) = 50.95325 55.88838 95.85286
#
# Poissons Ratio (x) = 0.46078 0.19327
# Poissons Ratio (y) = 0.42009 0.41851
# Poissons Ratio (z) = 0.10274 0.24402
#
# Static dielectric constant tensor:
#      x y z
#    x 3.587260 0.000000 0.000000 
#    y 0.000000 3.563360 0.000000 
#    z 0.000000 0.000000 3.915500 
# 
# 
# High freq. dielectric constant tensor:
#      x y z
#    x 1.762170 0.000000 0.000000 
#    y 0.000000 1.761670 0.000000 
#    z 0.000000 0.000000 1.804000 
# 
# From -- ./inp_files/903.got.cif
#   From: 2010.03.12/outbox.cif.g09.slc.cpg/sg33_1_cif.got.tgz:903.got - 2010.04.14 01:49:19.
