data_PCOD8171625
_publ_section_title
;
Structure prediction by ZEFSAII (Michael W. Deem and Ramdas Pophale) SiO2 
 PCOD8171625
Probable space group: P N A 21
;
_chemical_formula_sum "Si O2"
_cell_formula_units_Z 24
_cell_length_a 27.898925
_cell_length_b 6.901223
_cell_length_c 5.587205
_cell_angle_alpha 90.000000
_cell_angle_beta 90.000000
_cell_angle_gamma 90.000000
_cell_volume 1075.742029
_symmetry_space_group_name_H-M "P N A 21"
_symmetry_group_IT_number 33
_symmetry_cell_setting 'orthorhombic'
loop_
_space_group_symop_operation_xyz
x,y,z
-x,-y,1/2+z
1/2-x,1/2+y,1/2+z
1/2+x,1/2-y,z
loop_
_atom_site_type_symbol
_atom_site_label
_atom_site_fract_x
_atom_site_fract_y
_atom_site_fract_z
Si Si1 0.455377 0.100012 0.552710
Si Si2 0.882964 0.436447 0.943874
Si Si3 0.893493 0.100293 0.264765
Si Si4 0.707892 0.156127 0.330747
Si Si5 0.054718 0.282425 0.698060
Si Si6 0.798529 0.888427 0.337429
O O1 0.434092 0.073424 0.813440
O O2 0.416549 0.236280 0.427578
O O3 0.507678 0.196468 0.532341
O O4 0.459595 0.882254 0.448591
O O5 0.835644 0.502743 0.803642
O O6 0.872862 0.219481 0.038536
O O7 0.895757 0.607814 0.129655
O O8 0.934655 0.945303 0.204139
O O9 0.849169 0.992117 0.385769
O O10 0.702347 0.279468 0.578273
O O11 0.757905 0.048799 0.343524
O O12 0.708724 0.263702 0.076741
#
# Coordination Sequence:
#
# PCOD8171625 Si02
#       6
#     4   4   4   4   4   4
#     4  11  25  40  69  95 141 189 241 301 356 434
#     4  11  25  45  70  99 142 185 237 295 361 431
#     4  11  27  42  69 105 140 185 244 293 365 433
#     4  12  27  48  78 106 148 187 239 300 364 432
#     4  11  23  46  62 100 139 187 240 298 363 419
#     4  12  27  49  76 109 146 189 237 303 361 435
#
# _framework density 22.310181
#
# number of rings (size 3 to 8) (size 9 to 14) (size 15 to 20)
#    0.000    0.667    3.333    3.000    9.333    1.333 
#    0.000    0.000    0.000    0.000    0.000    0.000 
#    0.000    0.000    0.000    0.000    0.000    0.000 
#
# Total GULP energy -297323.191553 kJ/mol
# GULP energy per Si atom -12388.466315 kJ/mol
# Density = 2.225940 g / cm^3
# Si number density = 22.310181 Si / 1000 Ang^3
#
#
#
# Elastic Constant Matrix: (Units=GPa)
#
#
# Indices 1 2 3 4 5 6 
#
# 1 121.4777 38.9053 24.7092 0.0000 0.0000 0.0000
# 2 38.9053 123.3554 45.7526 0.0000 0.0000 0.0000
# 3 24.7092 45.7526 109.0669 0.0000 0.0000 0.0000
# 4 0.0000 0.0000 0.0000 28.9211 0.0000 0.0000
# 5 0.0000 0.0000 0.0000 0.0000 33.8356 0.0000
# 6 0.0000 0.0000 0.0000 0.0000 0.0000 49.6771
#
#
#
# Elastic Compliance Matrix: (Units=1/GPa)
#
#
# Indices 1 2 3 4 5 6 
#
# 1 0.009254 -0.002536 -0.001033 0.000000 0.000000 0.000000
# 2 -0.002536 0.010295 -0.003744 0.000000 0.000000 0.000000
# 3 -0.001033 -0.003744 0.010973 0.000000 0.000000 0.000000
# 4 0.000000 0.000000 0.000000 0.034577 0.000000 0.000000
# 5 0.000000 0.000000 0.000000 0.000000 0.029555 0.000000
# 6 0.000000 0.000000 0.000000 0.000000 0.000000 0.020130
#
#
# Mechanical properties :
#
#
# Convention : Reuss Voigt Hill
#
# Bulk Modulus (GPa) = 62.90435 63.62601 63.26518
# Shear Modulus (GPa) = 37.11717 38.78897 37.95307
#
# Velocity S-wave (km/s) = 4.08326 4.17420 4.12898
# Velocity P-wave (km/s) = 7.10544 7.19810 7.15192
#
# Compressibility (1/GPa) = 0.01589715
#
# Stress axis : x y z
#
# Youngs Moduli (GPa) = 108.06002 97.13351 91.12974
#
# Poissons Ratio (x) = 0.24629 0.09413
# Poissons Ratio (y) = 0.27399 0.34121
# Poissons Ratio (z) = 0.11161 0.36369
#
# Static dielectric constant tensor:
#      x y z
#    x 4.231350 0.000000 0.000000 
#    y 0.000000 4.080680 0.000000 
#    z 0.000000 0.000000 4.236600 
# 
# 
# High freq. dielectric constant tensor:
#      x y z
#    x 1.903750 0.000000 0.000000 
#    y 0.000000 1.885040 0.000000 
#    z 0.000000 0.000000 1.872520 
# 
# From -- ./inp_files/2370.got.cif
#   From: 2010.03.12/outbox.cif.g09.slc.cpg/sg33_2_cif.got.tgz:2370.got - 2010.04.14 01:49:19.
