data_PCOD8171078
_publ_section_title
;
Structure prediction by ZEFSAII (Michael W. Deem and Ramdas Pophale) SiO2 
 PCOD8171078
Probable space group: P N A 21
;
_chemical_formula_sum "Si O2"
_cell_formula_units_Z 28
_cell_length_a 9.830057
_cell_length_b 9.265385
_cell_length_c 14.424017
_cell_angle_alpha 90.000000
_cell_angle_beta 90.000000
_cell_angle_gamma 90.000000
_cell_volume 1313.728833
_symmetry_space_group_name_H-M "P N A 21"
_symmetry_group_IT_number 33
_symmetry_cell_setting 'orthorhombic'
loop_
_space_group_symop_operation_xyz
x,y,z
-x,-y,1/2+z
1/2-x,1/2+y,1/2+z
1/2+x,1/2-y,z
loop_
_atom_site_type_symbol
_atom_site_label
_atom_site_fract_x
_atom_site_fract_y
_atom_site_fract_z
Si Si1 0.695608 0.096869 0.939570
Si Si2 0.417016 0.687435 0.821011
Si Si3 0.167952 0.153305 0.524854
Si Si4 0.931091 0.272173 0.005408
Si Si5 0.494346 0.452484 0.146785
Si Si6 0.131515 0.584229 0.772795
Si Si7 0.288933 0.976388 0.082829
O O1 0.587568 0.212300 0.976769
O O2 0.845908 0.168836 0.936460
O O3 0.703021 0.951051 0.003452
O O4 0.653779 0.054615 0.837017
O O5 0.425703 0.653339 0.930972
O O6 0.492313 0.562872 0.758485
O O7 0.259080 0.694959 0.787572
O O8 0.489882 0.838784 0.799032
O O9 0.217804 0.311651 0.550563
O O10 0.090101 0.092641 0.615299
O O11 0.860293 0.428827 0.003141
O O12 0.925955 0.195228 0.107094
O O13 0.639251 0.466289 0.098683
O O14 0.120109 0.508981 0.673180
#
# Coordination Sequence:
#
# PCOD8171078 Si02
#       7
#     4   4   4   4   4   4   4
#     4  10  23  42  63  92 125 166 218 261 317 390
#     4  10  21  41  67  89 130 172 211 257 327 391
#     4  10  24  40  65  95 129 166 212 276 324 378
#     4  11  20  41  66  89 126 174 210 254 326 382
#     4  10  22  41  64  94 125 169 219 262 313 396
#     4  10  22  42  62  95 128 162 220 261 317 396
#     4  11  22  39  65  94 129 167 208 269 324 379
#
# _framework density 21.313378
#
# number of rings (size 3 to 8) (size 9 to 14) (size 15 to 20)
#    0.000    1.714    2.857    0.857    6.000    0.000 
#   10.286    0.000    0.000    0.000    0.000    0.000 
#    0.000    0.000    0.000    0.000    0.000    0.000 
#
# Total GULP energy -347016.128285 kJ/mol
# GULP energy per Si atom -12393.433153 kJ/mol
# Density = 2.126487 g / cm^3
# Si number density = 21.313378 Si / 1000 Ang^3
#
#
#
# Elastic Constant Matrix: (Units=GPa)
#
#
# Indices 1 2 3 4 5 6 
#
# 1 61.5351 35.8481 12.3267 0.0000 0.0000 0.0000
# 2 35.8481 127.0925 34.7999 0.0000 0.0000 0.0000
# 3 12.3267 34.7999 85.4598 0.0000 0.0000 0.0000
# 4 0.0000 0.0000 0.0000 31.0187 0.0000 0.0000
# 5 0.0000 0.0000 0.0000 0.0000 22.9846 0.0000
# 6 0.0000 0.0000 0.0000 0.0000 0.0000 32.2188
#
#
#
# Elastic Compliance Matrix: (Units=1/GPa)
#
#
# Indices 1 2 3 4 5 6 
#
# 1 0.019478 -0.005318 -0.000644 0.000000 0.000000 0.000000
# 2 -0.005318 0.010307 -0.003430 0.000000 0.000000 0.000000
# 3 -0.000644 -0.003430 0.013191 0.000000 0.000000 0.000000
# 4 0.000000 0.000000 0.000000 0.032239 0.000000 0.000000
# 5 0.000000 0.000000 0.000000 0.000000 0.043507 0.000000
# 6 0.000000 0.000000 0.000000 0.000000 0.000000 0.031038
#
#
# Mechanical properties :
#
#
# Convention : Reuss Voigt Hill
#
# Bulk Modulus (GPa) = 41.33529 48.89301 45.11415
# Shear Modulus (GPa) = 28.31123 29.98523 29.14823
#
# Velocity S-wave (km/s) = 3.64858 3.75490 3.70212
# Velocity P-wave (km/s) = 6.09801 6.46443 6.28389
#
# Compressibility (1/GPa) = 0.02419240
#
# Stress axis : x y z
#
# Youngs Moduli (GPa) = 51.34065 97.01725 75.80839
#
# Poissons Ratio (x) = 0.51590 0.04883
# Poissons Ratio (y) = 0.27301 0.26004
# Poissons Ratio (z) = 0.03307 0.33280
#
# Static dielectric constant tensor:
#      x y z
#    x 3.786140 0.000000 0.000000 
#    y 0.000000 3.795720 0.000000 
#    z 0.000000 0.000000 3.825170 
# 
# 
# High freq. dielectric constant tensor:
#      x y z
#    x 1.830160 0.000000 0.000000 
#    y 0.000000 1.831710 0.000000 
#    z 0.000000 0.000000 1.824560 
# 
# From -- ./inp_files/7904.got.cif
#   From: 2010.03.12/outbox.cif.g09.slc.cpg/sg33_4_cif.got.tgz:7904.got - 2010.04.14 01:49:19.
