data_PCOD8171920
_publ_section_title
;
Structure prediction by ZEFSAII (Michael W. Deem and Ramdas Pophale) SiO2 
 PCOD8171920
Probable space group: P N N 2
;
_chemical_formula_sum "Si O2"
_cell_formula_units_Z 26
_cell_length_a 8.648626
_cell_length_b 12.502910
_cell_length_c 11.947390
_cell_angle_alpha 90.000000
_cell_angle_beta 90.000000
_cell_angle_gamma 90.000000
_cell_volume 1291.907033
_symmetry_space_group_name_H-M "P N N 2"
_symmetry_group_IT_number 34
_symmetry_cell_setting 'orthorhombic'
loop_
_space_group_symop_operation_xyz
x,y,z
-x,-y,z
1/2-x,1/2+y,1/2+z
1/2+x,1/2-y,1/2+z
loop_
_atom_site_type_symbol
_atom_site_label
_atom_site_fract_x
_atom_site_fract_y
_atom_site_fract_z
Si Si1 0.163446 0.032374 0.894790
Si Si2 0.103913 0.599782 0.856396
Si Si3 0.827019 0.735810 0.939436
Si Si4 0.151486 0.193781 0.190221
Si Si5 0.675722 0.534238 0.000681
Si Si6 0.500000 0.500000 0.610266
Si Si7 0.640468 0.072536 0.720885
O O1 0.198560 0.157538 0.866209
O O2 0.301415 0.966211 0.841290
O O3 0.000000 0.000000 0.837302
O O4 0.151180 0.000278 0.027756
O O5 0.195608 0.650111 0.752133
O O6 0.000000 0.500000 0.813571
O O7 0.997786 0.689980 0.914073
O O8 0.223703 0.562628 0.951509
O O9 0.809138 0.779233 0.063776
O O10 0.701449 0.640768 0.923326
O O11 0.090148 0.304592 0.243507
O O12 0.015154 0.103536 0.191136
O O13 0.500000 0.500000 0.998769
O O14 0.727584 0.561578 0.126769
O O15 0.500000 0.000000 0.678660
#
# Coordination Sequence:
#
# PCOD8171920 Si02
#       7
#     4   4   4   4   4   2   4
#     4   9  18  36  63  83 117 160 200 245 316 366
#     4  10  21  38  61  90 126 168 207 262 317 367
#     4   9  19  39  59  87 128 160 205 262 309 376
#     4  10  20  37  66  85 126 162 208 247 323 367
#     4  10  21  36  58  85 125 163 214 256 309 369
#     4   8  20  38  60  88 120 158 198 260 302 372
#     4  11  22  38  60  93 123 164 206 257 312 375
#
# _framework density 20.125288000000001
#
# number of rings (size 3 to 8) (size 9 to 14) (size 15 to 20)
#    0.462    1.846    0.000    3.692    1.077    2.462 
#    2.769    3.077   13.538    0.000    0.000    0.000 
#    0.000    0.000    0.000    0.000    0.000    0.000 
#
# Total GULP energy -322099.949542 kJ/mol
# GULP energy per Si atom -12388.459598 kJ/mol
# Density = 2.007948 g / cm^3
# Si number density = 20.125288 Si / 1000 Ang^3
#
#
#
# Elastic Constant Matrix: (Units=GPa)
#
#
# Indices 1 2 3 4 5 6 
#
# 1 104.8290 78.1440 34.9139 0.0000 0.0000 0.0000
# 2 78.1440 189.8993 51.8807 0.0000 0.0000 0.0000
# 3 34.9139 51.8807 68.6997 0.0000 0.0000 0.0000
# 4 0.0000 0.0000 0.0000 30.0056 0.0000 0.0000
# 5 0.0000 0.0000 0.0000 0.0000 20.6517 0.0000
# 6 0.0000 0.0000 0.0000 0.0000 0.0000 28.6428
#
#
#
# Elastic Compliance Matrix: (Units=1/GPa)
#
#
# Indices 1 2 3 4 5 6 
#
# 1 0.014430 -0.004957 -0.003590 0.000000 0.000000 0.000000
# 2 -0.004957 0.008338 -0.003777 0.000000 0.000000 0.000000
# 3 -0.003590 -0.003777 0.019233 0.000000 0.000000 0.000000
# 4 0.000000 0.000000 0.000000 0.033327 0.000000 0.000000
# 5 0.000000 0.000000 0.000000 0.000000 0.048422 0.000000
# 6 0.000000 0.000000 0.000000 0.000000 0.000000 0.034913
#
#
# Mechanical properties :
#
#
# Convention : Reuss Voigt Hill
#
# Bulk Modulus (GPa) = 57.62951 77.03390 67.33171
# Shear Modulus (GPa) = 26.44150 29.09264 27.76707
#
# Velocity S-wave (km/s) = 3.62863 3.80620 3.71848
# Velocity P-wave (km/s) = 6.80099 7.59450 7.20867
#
# Compressibility (1/GPa) = 0.01735222
#
# Stress axis : x y z
#
# Youngs Moduli (GPa) = 69.29791 119.93495 51.99385
#
# Poissons Ratio (x) = 0.59456 0.18666
# Poissons Ratio (y) = 0.34354 0.19639
# Poissons Ratio (z) = 0.24878 0.45302
#
# Static dielectric constant tensor:
#      x y z
#    x 3.437530 0.000000 0.000000 
#    y 0.000000 4.588160 0.000000 
#    z 0.000000 0.000000 3.423470 
# 
# 
# High freq. dielectric constant tensor:
#      x y z
#    x 1.757840 0.000000 0.000000 
#    y 0.000000 1.810180 0.000000 
#    z 0.000000 0.000000 1.767750 
# 
# From -- ./inp_files/6479.got.cif
#   From: 2010.03.12/outbox.cif.g09.slc.cpg/sg34_4_cif.got.tgz:6479.got - 2010.04.14 01:56:33.
