data_PCOD8171468
_publ_section_title
;
Structure prediction by ZEFSAII (Michael W. Deem and Ramdas Pophale) SiO2 
 PCOD8171468
Probable space group: P N A 21
;
_chemical_formula_sum "Si O2"
_cell_formula_units_Z 24
_cell_length_a 23.768527
_cell_length_b 6.665361
_cell_length_c 6.742692
_cell_angle_alpha 90.000000
_cell_angle_beta 90.000000
_cell_angle_gamma 90.000000
_cell_volume 1068.216461
_symmetry_space_group_name_H-M "P N A 21"
_symmetry_group_IT_number 33
_symmetry_cell_setting 'orthorhombic'
loop_
_space_group_symop_operation_xyz
x,y,z
-x,-y,1/2+z
1/2-x,1/2+y,1/2+z
1/2+x,1/2-y,z
loop_
_atom_site_type_symbol
_atom_site_label
_atom_site_fract_x
_atom_site_fract_y
_atom_site_fract_z
Si Si1 0.501573 0.777319 0.786310
Si Si2 0.824929 0.919766 0.201664
Si Si3 0.569889 0.555457 0.466336
Si Si4 0.250191 0.730303 0.856089
Si Si5 0.823787 0.619110 0.510318
Si Si6 0.927104 0.377307 0.640593
O O1 0.520335 0.655691 0.593222
O O2 0.451885 0.662243 0.901323
O O3 0.478454 0.993907 0.726985
O O4 0.556704 0.804846 0.921198
O O5 0.788302 0.071578 0.337082
O O6 0.854412 0.768650 0.356752
O O7 0.872398 0.040797 0.086017
O O8 0.788277 0.779663 0.054023
O O9 0.583883 0.685056 0.274353
O O10 0.288093 0.739118 0.658269
O O11 0.213146 0.529125 0.872963
O O12 0.869583 0.501241 0.637854
#
# Coordination Sequence:
#
# PCOD8171468 Si02
#       6
#     4   4   4   4   4   4
#     4  12  26  44  68  94 140 176 234 292 348 410
#     4  11  25  43  74 102 140 182 233 279 345 409
#     4  12  27  45  68 101 136 183 231 289 347 410
#     4  10  24  46  68 106 146 178 222 288 342 404
#     4  11  25  43  74 102 140 182 233 279 345 409
#     4  12  27  45  68 101 136 183 231 289 347 410
#
# _framework density 22.467357
#
# number of rings (size 3 to 8) (size 9 to 14) (size 15 to 20)
#    0.000    0.667    3.333    3.000    4.667   13.333 
#    0.000    0.000    0.000    0.000    0.000    0.000 
#    0.000    0.000    0.000    0.000    0.000    0.000 
#
# Total GULP energy -297621.657358 kJ/mol
# GULP energy per Si atom -12400.902390 kJ/mol
# Density = 2.241622 g / cm^3
# Si number density = 22.467357 Si / 1000 Ang^3
#
#
#
# Elastic Constant Matrix: (Units=GPa)
#
#
# Indices 1 2 3 4 5 6 
#
# 1 87.3468 17.1354 23.0952 0.0000 0.0000 0.0000
# 2 17.1354 76.8113 49.1895 0.0000 0.0000 0.0000
# 3 23.0952 49.1895 88.9613 0.0000 0.0000 0.0000
# 4 0.0000 0.0000 0.0000 55.1435 0.0000 0.0000
# 5 0.0000 0.0000 0.0000 0.0000 32.0025 0.0000
# 6 0.0000 0.0000 0.0000 0.0000 0.0000 28.8287
#
#
#
# Elastic Compliance Matrix: (Units=1/GPa)
#
#
# Indices 1 2 3 4 5 6 
#
# 1 0.012351 -0.001087 -0.002605 0.000000 0.000000 0.000000
# 2 -0.001087 0.020252 -0.010916 0.000000 0.000000 0.000000
# 3 -0.002605 -0.010916 0.017953 0.000000 0.000000 0.000000
# 4 0.000000 0.000000 0.000000 0.018134 0.000000 0.000000
# 5 0.000000 0.000000 0.000000 0.000000 0.031248 0.000000
# 6 0.000000 0.000000 0.000000 0.000000 0.000000 0.034688
#
#
# Mechanical properties :
#
#
# Convention : Reuss Voigt Hill
#
# Bulk Modulus (GPa) = 46.86141 47.99552 47.42846
# Shear Modulus (GPa) = 29.24768 34.10823 31.67796
#
# Velocity S-wave (km/s) = 3.61194 3.90054 3.75901
# Velocity P-wave (km/s) = 6.18851 6.45711 6.32424
#
# Compressibility (1/GPa) = 0.02133952
#
# Stress axis : x y z
#
# Youngs Moduli (GPa) = 80.96701 49.37873 55.70150
#
# Poissons Ratio (x) = 0.05366 0.14513
# Poissons Ratio (y) = 0.08799 0.60802
# Poissons Ratio (z) = 0.21096 0.53900
#
# Static dielectric constant tensor:
#      x y z
#    x 3.870610 0.000000 0.000000 
#    y 0.000000 4.045970 0.000000 
#    z 0.000000 0.000000 4.137850 
# 
# 
# High freq. dielectric constant tensor:
#      x y z
#    x 1.881340 0.000000 0.000000 
#    y 0.000000 1.894450 0.000000 
#    z 0.000000 0.000000 1.898900 
# 
# From -- ./inp_files/2373.got.cif
#   From: 2010.03.12/outbox.cif.g09.slc.cpg/sg33_2_cif.got.tgz:2373.got - 2010.04.14 01:49:19.
