data_PCOD8171224
_publ_section_title
;
Structure prediction by ZEFSAII (Michael W. Deem and Ramdas Pophale) SiO2 
 PCOD8171224
Probable space group: P N A 21
;
_chemical_formula_sum "Si O2"
_cell_formula_units_Z 32
_cell_length_a 26.954432
_cell_length_b 6.023502
_cell_length_c 8.384488
_cell_angle_alpha 90.000000
_cell_angle_beta 90.000000
_cell_angle_gamma 90.000000
_cell_volume 1361.306101
_symmetry_space_group_name_H-M "P N A 21"
_symmetry_group_IT_number 33
_symmetry_cell_setting 'orthorhombic'
loop_
_space_group_symop_operation_xyz
x,y,z
-x,-y,1/2+z
1/2-x,1/2+y,1/2+z
1/2+x,1/2-y,z
loop_
_atom_site_type_symbol
_atom_site_label
_atom_site_fract_x
_atom_site_fract_y
_atom_site_fract_z
Si Si1 0.530578 0.880895 0.471520
Si Si2 0.887141 0.655692 0.824908
Si Si3 0.255529 0.295827 0.121632
Si Si4 0.065674 0.394247 0.791128
Si Si5 0.851661 0.267452 0.294246
Si Si6 0.198990 0.658202 0.301596
Si Si7 0.585366 0.493546 0.582413
Si Si8 0.656691 0.477708 0.095937
O O1 0.472828 0.919045 0.435514
O O2 0.540611 0.615813 0.487774
O O3 0.564963 0.994153 0.332961
O O4 0.541533 0.985318 0.641150
O O5 0.835475 0.537511 0.867640
O O6 0.883886 0.795213 0.657410
O O7 0.887432 0.826737 0.968161
O O8 0.294042 0.189304 0.251329
O O9 0.239650 0.542601 0.182384
O O10 0.210699 0.127560 0.104915
O O11 0.277517 0.305180 0.942720
O O12 0.118607 0.506619 0.843865
O O13 0.069424 0.135398 0.743783
O O14 0.875677 0.183689 0.129599
O O15 0.857650 0.068963 0.422432
O O16 0.159604 0.806331 0.206113
#
# Coordination Sequence:
#
# PCOD8171224 Si02
#       8
#     4   4   4   4   4   4   4   4
#     4  10  22  42  65  98 130 180 223 280 337 414
#     4  10  22  43  65  94 133 178 226 272 349 400
#     4  11  23  42  62  96 131 179 227 276 348 414
#     4  10  24  42  69  96 136 176 225 284 343 410
#     4  11  24  44  64 101 136 175 230 282 351 416
#     4  11  24  40  65  95 130 178 224 278 341 410
#     4  10  22  42  69  93 134 180 220 282 339 404
#     4  11  25  41  67  99 130 180 221 288 342 412
#
# _framework density 23.506836
#
# number of rings (size 3 to 8) (size 9 to 14) (size 15 to 20)
#    0.000    1.500    1.250    3.750    1.750   11.000 
#    0.000    1.250    0.000    0.000    0.000    0.000 
#    0.000    0.000    0.000    0.000    0.000    0.000 
#
# Total GULP energy -396615.050622 kJ/mol
# GULP energy per Si atom -12394.220332 kJ/mol
# Density = 2.345333 g / cm^3
# Si number density = 23.506836 Si / 1000 Ang^3
#
#
#
# Elastic Constant Matrix: (Units=GPa)
#
#
# Indices 1 2 3 4 5 6 
#
# 1 90.7030 33.0553 16.2737 0.0000 0.0000 0.0000
# 2 33.0553 100.6580 17.0202 0.0000 0.0000 0.0000
# 3 16.2737 17.0202 66.3485 0.0000 0.0000 0.0000
# 4 0.0000 0.0000 0.0000 47.6729 0.0000 0.0000
# 5 0.0000 0.0000 0.0000 0.0000 39.2632 0.0000
# 6 0.0000 0.0000 0.0000 0.0000 0.0000 21.8176
#
#
#
# Elastic Compliance Matrix: (Units=1/GPa)
#
#
# Indices 1 2 3 4 5 6 
#
# 1 0.012812 -0.003843 -0.002157 0.000000 0.000000 0.000000
# 2 -0.003843 0.011538 -0.002017 0.000000 0.000000 0.000000
# 3 -0.002157 -0.002017 0.016118 0.000000 0.000000 0.000000
# 4 0.000000 0.000000 0.000000 0.020976 0.000000 0.000000
# 5 0.000000 0.000000 0.000000 0.000000 0.025469 0.000000
# 6 0.000000 0.000000 0.000000 0.000000 0.000000 0.045835
#
#
# Mechanical properties :
#
#
# Convention : Reuss Voigt Hill
#
# Bulk Modulus (GPa) = 40.92503 43.37866 42.15185
# Shear Modulus (GPa) = 31.86193 34.50807 33.18500
#
# Velocity S-wave (km/s) = 3.68561 3.83561 3.76136
# Velocity P-wave (km/s) = 5.96316 6.17329 6.06914
#
# Compressibility (1/GPa) = 0.02443492
#
# Stress axis : x y z
#
# Youngs Moduli (GPa) = 78.04934 86.67269 62.04085
#
# Poissons Ratio (x) = 0.33307 0.13381
# Poissons Ratio (y) = 0.29993 0.12515
# Poissons Ratio (z) = 0.16834 0.17483
#
# Static dielectric constant tensor:
#      x y z
#    x 4.252450 0.000000 0.000000 
#    y 0.000000 4.620710 0.000000 
#    z 0.000000 0.000000 4.211900 
# 
# 
# High freq. dielectric constant tensor:
#      x y z
#    x 1.921450 0.000000 0.000000 
#    y 0.000000 1.935320 0.000000 
#    z 0.000000 0.000000 1.928090 
# 
# From -- ./inp_files/5310.got.cif
#   From: 2010.03.12/outbox.cif.g09.slc.cpg/sg33_3_cif.got.tgz:5310.got - 2010.04.14 01:49:19.
