data_PCOD8171590
_publ_section_title
;
Structure prediction by ZEFSAII (Michael W. Deem and Ramdas Pophale) SiO2 
 PCOD8171590
Probable space group: P N A 21
;
_chemical_formula_sum "Si O2"
_cell_formula_units_Z 28
_cell_length_a 18.799181
_cell_length_b 5.026296
_cell_length_c 11.789024
_cell_angle_alpha 90.000000
_cell_angle_beta 90.000000
_cell_angle_gamma 90.000000
_cell_volume 1113.947805
_symmetry_space_group_name_H-M "P N A 21"
_symmetry_group_IT_number 33
_symmetry_cell_setting 'orthorhombic'
loop_
_space_group_symop_operation_xyz
x,y,z
-x,-y,1/2+z
1/2-x,1/2+y,1/2+z
1/2+x,1/2-y,z
loop_
_atom_site_type_symbol
_atom_site_label
_atom_site_fract_x
_atom_site_fract_y
_atom_site_fract_z
Si Si1 0.882269 0.053182 0.260130
Si Si2 0.538482 0.180130 0.920980
Si Si3 0.986717 0.710269 0.664621
Si Si4 0.325956 0.529577 0.022977
Si Si5 0.828224 0.319758 0.468684
Si Si6 0.615923 0.961260 0.404702
Si Si7 0.899236 0.197255 0.685725
O O1 0.823266 0.144036 0.353249
O O2 0.933101 0.293719 0.215412
O O3 0.941522 0.869933 0.318208
O O4 0.841239 0.908736 0.156128
O O5 0.469530 0.007879 0.881661
O O6 0.607702 0.016921 0.950386
O O7 0.512317 0.332106 0.035358
O O8 0.961846 0.405561 0.653098
O O9 0.931850 0.913838 0.728000
O O10 0.242452 0.514801 0.995405
O O11 0.361324 0.243354 0.002569
O O12 0.356257 0.751536 0.938534
O O13 0.846759 0.140905 0.579180
O O14 0.646532 0.836057 0.287238
#
# Coordination Sequence:
#
# PCOD8171590 Si02
#       7
#     4   4   4   4   4   4   4
#     4  12  26  48  77 115 153 209 253 334 388 472
#     4  11  25  45  82 111 153 194 267 313 393 456
#     4  11  23  41  72 116 143 187 249 321 375 454
#     4  12  32  48  75 111 163 202 259 317 401 462
#     4  11  29  49  74 111 155 212 256 315 396 477
#     4  12  27  49  75 114 150 200 257 328 378 465
#     4  11  24  44  75 106 149 194 253 316 381 452
#
# _framework density 25.135828
#
# number of rings (size 3 to 8) (size 9 to 14) (size 15 to 20)
#    0.000    0.571    4.286    1.714   12.000    0.000 
#    0.000    0.000    0.000    0.000    0.000    0.000 
#    0.000    0.000    0.000    0.000    0.000    0.000 
#
# Total GULP energy -347017.779919 kJ/mol
# GULP energy per Si atom -12393.492140 kJ/mol
# Density = 2.507862 g / cm^3
# Si number density = 25.135828 Si / 1000 Ang^3
#
#
#
# Elastic Constant Matrix: (Units=GPa)
#
#
# Indices 1 2 3 4 5 6 
#
# 1 123.8628 11.1240 27.5016 0.0000 0.0000 0.0000
# 2 11.1240 45.3866 -18.8227 0.0000 0.0000 0.0000
# 3 27.5016 -18.8227 144.8348 0.0000 0.0000 0.0000
# 4 0.0000 0.0000 0.0000 28.4995 0.0000 0.0000
# 5 0.0000 0.0000 0.0000 0.0000 28.1847 0.0000
# 6 0.0000 0.0000 0.0000 0.0000 0.0000 26.8144
#
#
#
# Elastic Compliance Matrix: (Units=1/GPa)
#
#
# Indices 1 2 3 4 5 6 
#
# 1 0.008802 -0.003013 -0.002063 0.000000 0.000000 0.000000
# 2 -0.003013 0.024319 0.003733 0.000000 0.000000 0.000000
# 3 -0.002063 0.003733 0.007781 0.000000 0.000000 0.000000
# 4 0.000000 0.000000 0.000000 0.035088 0.000000 0.000000
# 5 0.000000 0.000000 0.000000 0.000000 0.035480 0.000000
# 6 0.000000 0.000000 0.000000 0.000000 0.000000 0.037293
#
#
# Mechanical properties :
#
#
# Convention : Reuss Voigt Hill
#
# Bulk Modulus (GPa) = 26.16679 39.29888 32.73284
# Shear Modulus (GPa) = 30.45258 36.31847 33.38552
#
# Velocity S-wave (km/s) = 3.48447 3.80529 3.64841
# Velocity P-wave (km/s) = 5.15960 5.91401 5.54964
#
# Compressibility (1/GPa) = 0.03821637
#
# Stress axis : x y z
#
# Youngs Moduli (GPa) = 113.60968 41.11949 128.51446
#
# Poissons Ratio (x) = 0.12389 0.26511
# Poissons Ratio (y) = 0.34229 -0.47970
# Poissons Ratio (z) = 0.23437 -0.15348
#
# Static dielectric constant tensor:
#      x y z
#    x 4.281510 0.000000 0.000000 
#    y 0.000000 4.324270 0.000000 
#    z 0.000000 0.000000 5.713200 
# 
# 
# High freq. dielectric constant tensor:
#      x y z
#    x 1.978770 0.000000 0.000000 
#    y 0.000000 1.981910 0.000000 
#    z 0.000000 0.000000 2.039780 
# 
# From -- ./inp_files/6963.got.cif
#   From: 2010.03.12/outbox.cif.g09.slc.cpg/sg33_4_cif.got.tgz:6963.got - 2010.04.14 01:49:19.
