data_PCOD8171887
_publ_section_title
;
Structure prediction by ZEFSAII (Michael W. Deem and Ramdas Pophale) SiO2 
 PCOD8171887
Probable space group: P N N 2
;
_chemical_formula_sum "Si O2"
_cell_formula_units_Z 24
_cell_length_a 10.705677
_cell_length_b 13.691763
_cell_length_c 8.366772
_cell_angle_alpha 90.000000
_cell_angle_beta 90.000000
_cell_angle_gamma 90.000000
_cell_volume 1226.398028
_symmetry_space_group_name_H-M "P N N 2"
_symmetry_group_IT_number 34
_symmetry_cell_setting 'orthorhombic'
loop_
_space_group_symop_operation_xyz
x,y,z
-x,-y,z
1/2-x,1/2+y,1/2+z
1/2+x,1/2-y,1/2+z
loop_
_atom_site_type_symbol
_atom_site_label
_atom_site_fract_x
_atom_site_fract_y
_atom_site_fract_z
Si Si1 0.534571 0.401824 0.972060
Si Si2 0.928300 0.405694 0.401769
Si Si3 0.570104 0.254432 0.713038
Si Si4 0.846347 0.242180 0.630475
Si Si5 0.335466 0.543576 0.295338
Si Si6 0.952485 0.154956 0.923445
O O1 0.500000 0.500000 0.872126
O O2 0.608143 0.328681 0.855892
O O3 0.410763 0.347551 0.037348
O O4 0.619461 0.447875 0.112829
O O5 0.885759 0.345108 0.555868
O O6 0.811391 0.441766 0.298413
O O7 0.000000 0.500000 0.467980
O O8 0.016811 0.345028 0.284495
O O9 0.696971 0.228206 0.619670
O O10 0.460125 0.304343 0.604822
O O11 0.895899 0.240910 0.813153
O O12 0.402550 0.632861 0.385975
O O13 0.371061 0.442429 0.386716
#
# Coordination Sequence:
#
# PCOD8171887 Si02
#       6
#     4   4   4   4   4   4
#     4  10  21  38  63  89 120 160 209 259 311 374
#     4  11  24  40  61  92 130 166 210 263 321 374
#     4  11  24  38  65  95 124 163 215 257 319 381
#     4  10  21  42  59  90 126 161 210 260 306 384
#     4  10  19  40  62  84 124 166 202 258 313 376
#     4  10  20  39  66  87 120 167 205 255 317 370
#
# _framework density 19.569503999999998
#
# number of rings (size 3 to 8) (size 9 to 14) (size 15 to 20)
#    0.000    1.667    5.000    1.000    4.667    0.000 
#    3.000    2.500    0.000    0.000    0.000    0.000 
#    0.000    0.000    0.000    0.000    0.000    0.000 
#
# Total GULP energy -297408.131858 kJ/mol
# GULP energy per Si atom -12392.005494 kJ/mol
# Density = 1.952496 g / cm^3
# Si number density = 19.569504 Si / 1000 Ang^3
#
#
#
# Elastic Constant Matrix: (Units=GPa)
#
#
# Indices 1 2 3 4 5 6 
#
# 1 118.3208 62.4729 29.4255 0.0000 0.0000 0.0000
# 2 62.4729 125.9719 49.3713 0.0000 0.0000 0.0000
# 3 29.4255 49.3713 79.8099 0.0000 0.0000 0.0000
# 4 0.0000 0.0000 0.0000 26.7128 0.0000 0.0000
# 5 0.0000 0.0000 0.0000 0.0000 17.6345 0.0000
# 6 0.0000 0.0000 0.0000 0.0000 0.0000 22.7934
#
#
#
# Elastic Compliance Matrix: (Units=1/GPa)
#
#
# Indices 1 2 3 4 5 6 
#
# 1 0.011503 -0.005336 -0.000940 0.000000 0.000000 0.000000
# 2 -0.005336 0.012954 -0.006046 0.000000 0.000000 0.000000
# 3 -0.000940 -0.006046 0.016617 0.000000 0.000000 0.000000
# 4 0.000000 0.000000 0.000000 0.037435 0.000000 0.000000
# 5 0.000000 0.000000 0.000000 0.000000 0.056707 0.000000
# 6 0.000000 0.000000 0.000000 0.000000 0.000000 0.043872
#
#
# Mechanical properties :
#
#
# Convention : Reuss Voigt Hill
#
# Bulk Modulus (GPa) = 60.86839 67.40466 64.13652
# Shear Modulus (GPa) = 23.89949 25.61701 24.75825
#
# Velocity S-wave (km/s) = 3.49845 3.62197 3.56075
# Velocity P-wave (km/s) = 6.89130 7.21180 7.05337
#
# Compressibility (1/GPa) = 0.01642889
#
# Stress axis : x y z
#
# Youngs Moduli (GPa) = 86.93502 77.19456 60.18061
#
# Poissons Ratio (x) = 0.41192 0.05657
# Poissons Ratio (y) = 0.46390 0.36387
# Poissons Ratio (z) = 0.08172 0.46674
#
# Static dielectric constant tensor:
#      x y z
#    x 3.487880 0.000000 0.000000 
#    y 0.000000 3.701010 0.000000 
#    z 0.000000 0.000000 3.490370 
# 
# 
# High freq. dielectric constant tensor:
#      x y z
#    x 1.755380 0.000000 0.000000 
#    y 0.000000 1.770650 0.000000 
#    z 0.000000 0.000000 1.748150 
# 
# From -- ./inp_files/3158.got.cif
#   From: 2010.03.12/outbox.cif.g09.slc.cpg/sg34_2_cif.got.tgz:3158.got - 2010.04.14 01:56:33.
