data_PCOD8171291
_publ_section_title
;
Structure prediction by ZEFSAII (Michael W. Deem and Ramdas Pophale) SiO2 
 PCOD8171291
Probable space group: P N A 21
;
_chemical_formula_sum "Si O2"
_cell_formula_units_Z 28
_cell_length_a 17.566953
_cell_length_b 5.007055
_cell_length_c 14.258749
_cell_angle_alpha 90.000000
_cell_angle_beta 90.000000
_cell_angle_gamma 90.000000
_cell_volume 1254.181024
_symmetry_space_group_name_H-M "P N A 21"
_symmetry_group_IT_number 33
_symmetry_cell_setting 'orthorhombic'
loop_
_space_group_symop_operation_xyz
x,y,z
-x,-y,1/2+z
1/2-x,1/2+y,1/2+z
1/2+x,1/2-y,z
loop_
_atom_site_type_symbol
_atom_site_label
_atom_site_fract_x
_atom_site_fract_y
_atom_site_fract_z
Si Si1 0.631970 0.815289 0.403870
Si Si2 0.471652 0.530829 0.005713
Si Si3 0.756182 0.386637 0.221893
Si Si4 0.661760 0.183669 0.564044
Si Si5 0.341111 0.103384 0.704953
Si Si6 0.774081 0.473907 0.431533
Si Si7 0.070358 0.476231 0.027621
O O1 0.571617 0.571039 0.410917
O O2 0.719524 0.725675 0.417182
O O3 0.613696 0.010797 0.489374
O O4 0.623261 0.973325 0.306024
O O5 0.402370 0.586098 0.082024
O O6 0.520090 0.793191 0.979619
O O7 0.527149 0.301119 0.043743
O O8 0.822765 0.511362 0.157294
O O9 0.728804 0.100086 0.180333
O O10 0.782713 0.334619 0.329065
O O11 0.685985 0.591513 0.215123
O O12 0.740077 0.282141 0.513784
O O13 0.407119 0.086288 0.629461
O O14 0.856101 0.578176 0.463287
#
# Coordination Sequence:
#
# PCOD8171291 Si02
#       7
#     4   4   4   4   4   4   4
#     4  10  22  45  69  94 132 182 222 271 347 408
#     4  11  26  43  63  91 142 184 216 264 352 416
#     4  11  23  39  69 104 124 168 231 285 341 395
#     4  11  21  45  67  94 136 180 217 283 344 409
#     4  11  23  40  69 100 127 170 230 279 332 410
#     4  10  23  40  71  99 128 171 230 295 334 393
#     4  12  24  44  64 100 133 175 224 283 334 401
#
# _framework density 22.325326
#
# number of rings (size 3 to 8) (size 9 to 14) (size 15 to 20)
#    0.000    1.143    4.286    1.714    4.000    0.000 
#    2.571    1.429    0.000    0.000    0.000    0.000 
#    0.000    0.000    0.000    0.000    0.000    0.000 
#
# Total GULP energy -347069.139946 kJ/mol
# GULP energy per Si atom -12395.326427 kJ/mol
# Density = 2.227451 g / cm^3
# Si number density = 22.325326 Si / 1000 Ang^3
#
#
#
# Elastic Constant Matrix: (Units=GPa)
#
#
# Indices 1 2 3 4 5 6 
#
# 1 129.3095 34.0886 43.3436 0.0000 0.0000 0.0000
# 2 34.0886 81.6377 15.0190 0.0000 0.0000 0.0000
# 3 43.3436 15.0190 100.1343 0.0000 0.0000 0.0000
# 4 0.0000 0.0000 0.0000 29.9182 0.0000 0.0000
# 5 0.0000 0.0000 0.0000 0.0000 15.9486 0.0000
# 6 0.0000 0.0000 0.0000 0.0000 0.0000 39.9806
#
#
#
# Elastic Compliance Matrix: (Units=1/GPa)
#
#
# Indices 1 2 3 4 5 6 
#
# 1 0.009905 -0.003442 -0.003771 0.000000 0.000000 0.000000
# 2 -0.003442 0.013793 -0.000579 0.000000 0.000000 0.000000
# 3 -0.003771 -0.000579 0.011706 0.000000 0.000000 0.000000
# 4 0.000000 0.000000 0.000000 0.033424 0.000000 0.000000
# 5 0.000000 0.000000 0.000000 0.000000 0.062701 0.000000
# 6 0.000000 0.000000 0.000000 0.000000 0.000000 0.025012
#
#
# Mechanical properties :
#
#
# Convention : Reuss Voigt Hill
#
# Bulk Modulus (GPa) = 50.45533 55.10933 52.78233
# Shear Modulus (GPa) = 27.97482 31.74483 29.85982
#
# Velocity S-wave (km/s) = 3.54369 3.77493 3.66113
# Velocity P-wave (km/s) = 6.27636 6.61350 6.44713
#
# Compressibility (1/GPa) = 0.01981951
#
# Stress axis : x y z
#
# Youngs Moduli (GPa) = 100.96095 72.50053 85.42814
#
# Poissons Ratio (x) = 0.24955 0.32216
# Poissons Ratio (y) = 0.34752 0.04945
# Poissons Ratio (z) = 0.38073 0.04197
#
# Static dielectric constant tensor:
#      x y z
#    x 3.912250 0.000000 0.000000 
#    y 0.000000 4.096480 0.000000 
#    z 0.000000 0.000000 4.068130 
# 
# 
# High freq. dielectric constant tensor:
#      x y z
#    x 1.870110 0.000000 0.000000 
#    y 0.000000 1.889550 0.000000 
#    z 0.000000 0.000000 1.863400 
# 
# From -- ./inp_files/8193.got.cif
#   From: 2010.03.12/outbox.cif.g09.slc.cpg/sg33_5_cif.got.tgz:8193.got - 2010.04.14 01:49:19.
