data_PCOD8171982
_publ_section_title
;
Structure prediction by ZEFSAII (Michael W. Deem and Ramdas Pophale) SiO2 
 PCOD8171982
Probable space group: P N N 2
;
_chemical_formula_sum "Si O2"
_cell_formula_units_Z 30
_cell_length_a 18.420915
_cell_length_b 11.091821
_cell_length_c 6.596310
_cell_angle_alpha 90.000000
_cell_angle_beta 90.000000
_cell_angle_gamma 90.000000
_cell_volume 1347.767900
_symmetry_space_group_name_H-M "P N N 2"
_symmetry_group_IT_number 34
_symmetry_cell_setting 'orthorhombic'
loop_
_space_group_symop_operation_xyz
x,y,z
-x,-y,z
1/2-x,1/2+y,1/2+z
1/2+x,1/2-y,1/2+z
loop_
_atom_site_type_symbol
_atom_site_label
_atom_site_fract_x
_atom_site_fract_y
_atom_site_fract_z
Si Si1 0.758523 0.809686 0.366170
Si Si2 0.265815 0.886029 0.173961
Si Si3 0.882535 0.163361 0.380356
Si Si4 0.350351 0.720948 0.476877
Si Si5 0.965260 0.747379 0.305452
Si Si6 0.125623 0.075533 0.593421
Si Si7 0.641149 0.889434 0.148006
Si Si8 0.500000 0.000000 0.021037
O O1 0.777276 0.682711 0.463689
O O2 0.792038 0.915559 0.505614
O O3 0.670130 0.825060 0.354611
O O4 0.790469 0.816888 0.139408
O O5 0.180699 0.884211 0.233222
O O6 0.318021 0.830687 0.346287
O O7 0.292490 0.017679 0.113510
O O8 0.858778 0.291157 0.471255
O O9 0.957564 0.188249 0.261828
O O10 0.899400 0.062294 0.554555
O O11 0.423554 0.760825 0.592445
O O12 0.372591 0.608104 0.331592
O O13 0.922847 0.827095 0.471690
O O14 0.972819 0.610497 0.384603
O O15 0.564098 0.954802 0.169843
#
# Coordination Sequence:
#
# PCOD8171982 Si02
#       8
#     4   4   4   4   4   4   4   2
#     4  10  21  40  67  98 131 175 230 280 346 417
#     4  11  23  44  68 100 138 180 228 293 345 422
#     4  11  23  44  69 102 139 182 234 294 348 429
#     4  10  21  43  70  99 131 188 224 284 358 410
#     4  10  23  46  68  99 139 184 234 289 351 420
#     4  10  21  43  70  97 137 179 231 286 350 412
#     4  11  22  43  67  97 135 182 227 288 353 415
#     4  10  22  44  70  96 146 182 228 298 354 428
#
# _framework density 22.259024
#
# number of rings (size 3 to 8) (size 9 to 14) (size 15 to 20)
#    0.000    1.600    2.667    2.800    0.000    1.067 
#   16.800    3.333    0.000    0.000    0.000    0.000 
#    0.000    0.000    0.000    0.000    0.000    0.000 
#
# Total GULP energy -371717.774592 kJ/mol
# GULP energy per Si atom -12390.592486 kJ/mol
# Density = 2.220836 g / cm^3
# Si number density = 22.259024 Si / 1000 Ang^3
#
#
#
# Elastic Constant Matrix: (Units=GPa)
#
#
# Indices 1 2 3 4 5 6 
#
# 1 159.4953 49.9556 64.3051 0.0000 0.0000 0.0000
# 2 49.9556 127.1977 45.8223 0.0000 0.0000 0.0000
# 3 64.3051 45.8223 114.4292 0.0000 0.0000 0.0000
# 4 0.0000 0.0000 0.0000 8.1294 0.0000 0.0000
# 5 0.0000 0.0000 0.0000 0.0000 40.6760 0.0000
# 6 0.0000 0.0000 0.0000 0.0000 0.0000 37.9848
#
#
#
# Elastic Compliance Matrix: (Units=1/GPa)
#
#
# Indices 1 2 3 4 5 6 
#
# 1 0.008476 -0.001885 -0.004009 0.000000 0.000000 0.000000
# 2 -0.001885 0.009606 -0.002787 0.000000 0.000000 0.000000
# 3 -0.004009 -0.002787 0.012108 0.000000 0.000000 0.000000
# 4 0.000000 0.000000 0.000000 0.123011 0.000000 0.000000
# 5 0.000000 0.000000 0.000000 0.000000 0.024585 0.000000
# 6 0.000000 0.000000 0.000000 0.000000 0.000000 0.026326
#
#
# Mechanical properties :
#
#
# Convention : Reuss Voigt Hill
#
# Bulk Modulus (GPa) = 77.95138 80.14314 79.04726
# Shear Modulus (GPa) = 22.14838 33.42732 27.78785
#
# Velocity S-wave (km/s) = 3.15783 3.87944 3.53708
# Velocity P-wave (km/s) = 6.95644 7.49331 7.22986
#
# Compressibility (1/GPa) = 0.01282851
#
# Stress axis : x y z
#
# Youngs Moduli (GPa) = 117.97554 104.09897 82.59045
#
# Poissons Ratio (x) = 0.19622 0.33107
# Poissons Ratio (y) = 0.22237 0.23022
# Poissons Ratio (z) = 0.47292 0.29017
#
# Static dielectric constant tensor:
#      x y z
#    x 4.524900 0.000000 0.000000 
#    y 0.000000 4.201260 0.000000 
#    z 0.000000 0.000000 3.815330 
# 
# 
# High freq. dielectric constant tensor:
#      x y z
#    x 1.890620 0.000000 0.000000 
#    y 0.000000 1.891180 0.000000 
#    z 0.000000 0.000000 1.848680 
# 
# From -- ./inp_files/1605.got.cif
#   From: 2010.03.12/outbox.cif.g09.slc.cpg/sg34_1_cif.got.tgz:1605.got - 2010.04.14 01:56:33.
