data_PCOD8171217
_publ_section_title
;
Structure prediction by ZEFSAII (Michael W. Deem and Ramdas Pophale) SiO2 
 PCOD8171217
Probable space group: P N A 21
;
_chemical_formula_sum "Si O2"
_cell_formula_units_Z 32
_cell_length_a 8.596703
_cell_length_b 28.143610
_cell_length_c 6.247946
_cell_angle_alpha 90.000000
_cell_angle_beta 90.000000
_cell_angle_gamma 90.000000
_cell_volume 1511.642154
_symmetry_space_group_name_H-M "P N A 21"
_symmetry_group_IT_number 33
_symmetry_cell_setting 'orthorhombic'
loop_
_space_group_symop_operation_xyz
x,y,z
-x,-y,1/2+z
1/2-x,1/2+y,1/2+z
1/2+x,1/2-y,z
loop_
_atom_site_type_symbol
_atom_site_label
_atom_site_fract_x
_atom_site_fract_y
_atom_site_fract_z
Si Si1 0.145803 0.790097 0.480260
Si Si2 0.401238 0.758333 0.181226
Si Si3 0.155397 0.716044 0.872124
Si Si4 0.268102 0.978889 0.506539
Si Si5 0.817963 0.935211 0.245981
Si Si6 0.049994 0.895814 0.568328
Si Si7 0.384128 0.029582 0.130252
Si Si8 0.747796 0.386087 0.349759
O O1 0.310081 0.790800 0.353634
O O2 0.149062 0.755042 0.684485
O O3 0.112038 0.842506 0.561347
O O4 0.013537 0.775961 0.313143
O O5 0.284225 0.725909 0.049666
O O6 0.493570 0.788703 0.002407
O O7 0.197955 0.665547 0.767501
O O8 0.201094 0.929082 0.592103
O O9 0.438390 0.985954 0.608144
O O10 0.150482 0.020549 0.586362
O O11 0.289341 0.986445 0.248984
O O12 0.691088 0.955349 0.407998
O O13 0.974395 0.915969 0.351662
O O14 0.756570 0.890103 0.107830
O O15 0.923196 0.899033 0.756591
O O16 0.377683 0.076554 0.276629
#
# Coordination Sequence:
#
# PCOD8171217 Si02
#       8
#     4   4   4   4   4   4   4   4
#     4  11  23  43  63  99 136 174 225 275 329 401
#     4  10  23  39  66  94 130 182 216 267 339 386
#     4  11  22  42  68  93 139 172 223 275 331 395
#     4  11  23  40  64  90 126 169 217 267 327 389
#     4  10  23  42  63  88 129 162 218 268 330 390
#     4  11  25  39  66  95 129 169 220 269 329 395
#     4  10  22  42  62  91 126 170 210 269 330 384
#     4  10  23  41  64  96 123 172 215 270 329 392
#
# _framework density 21.169029999999999
#
# number of rings (size 3 to 8) (size 9 to 14) (size 15 to 20)
#    0.000    1.500    1.250    3.000    5.250    7.000 
#    0.000    0.000    0.000    0.000    0.000    0.000 
#    0.000    0.000    0.000    0.000    0.000    0.000 
#
# Total GULP energy -396590.603798 kJ/mol
# GULP energy per Si atom -12393.456369 kJ/mol
# Density = 2.112085 g / cm^3
# Si number density = 21.169030 Si / 1000 Ang^3
#
#
#
# Elastic Constant Matrix: (Units=GPa)
#
#
# Indices 1 2 3 4 5 6 
#
# 1 88.3575 35.6341 39.8713 0.0000 0.0000 0.0000
# 2 35.6341 122.1915 38.5791 0.0000 0.0000 0.0000
# 3 39.8713 38.5791 116.7998 0.0000 0.0000 0.0000
# 4 0.0000 0.0000 0.0000 30.9967 0.0000 0.0000
# 5 0.0000 0.0000 0.0000 0.0000 37.0180 0.0000
# 6 0.0000 0.0000 0.0000 0.0000 0.0000 33.3290
#
#
#
# Elastic Compliance Matrix: (Units=1/GPa)
#
#
# Indices 1 2 3 4 5 6 
#
# 1 0.014258 -0.002926 -0.003901 0.000000 0.000000 0.000000
# 2 -0.002926 0.009737 -0.002217 0.000000 0.000000 0.000000
# 3 -0.003901 -0.002217 0.010626 0.000000 0.000000 0.000000
# 4 0.000000 0.000000 0.000000 0.032262 0.000000 0.000000
# 5 0.000000 0.000000 0.000000 0.000000 0.027014 0.000000
# 6 0.000000 0.000000 0.000000 0.000000 0.000000 0.030004
#
#
# Mechanical properties :
#
#
# Convention : Reuss Voigt Hill
#
# Bulk Modulus (GPa) = 60.48764 61.72420 61.10592
# Shear Modulus (GPa) = 33.89840 34.48636 34.19238
#
# Velocity S-wave (km/s) = 4.00599 4.04058 4.02332
# Velocity P-wave (km/s) = 7.07340 7.14069 7.10713
#
# Compressibility (1/GPa) = 0.01653230
#
# Stress axis : x y z
#
# Youngs Moduli (GPa) = 70.13596 102.69727 94.11290
#
# Poissons Ratio (x) = 0.30054 0.36709
# Poissons Ratio (y) = 0.20525 0.20867
# Poissons Ratio (z) = 0.27357 0.22771
#
# Static dielectric constant tensor:
#      x y z
#    x 3.945240 0.000000 0.000000 
#    y 0.000000 3.709650 0.000000 
#    z 0.000000 0.000000 4.172640 
# 
# 
# High freq. dielectric constant tensor:
#      x y z
#    x 1.828160 0.000000 0.000000 
#    y 0.000000 1.821130 0.000000 
#    z 0.000000 0.000000 1.844230 
# 
# From -- ./inp_files/586.got.cif
#   From: 2010.03.12/outbox.cif.g09.slc.cpg/sg33_1_cif.got.tgz:586.got - 2010.04.14 01:49:19.
