data_PCOD8171368
_publ_section_title
;
Structure prediction by ZEFSAII (Michael W. Deem and Ramdas Pophale) SiO2 
 PCOD8171368
Probable space group: P N A 21
;
_chemical_formula_sum "Si O2"
_cell_formula_units_Z 32
_cell_length_a 12.313263
_cell_length_b 11.650387
_cell_length_c 10.669552
_cell_angle_alpha 90.000000
_cell_angle_beta 90.000000
_cell_angle_gamma 90.000000
_cell_volume 1530.592891
_symmetry_space_group_name_H-M "P N A 21"
_symmetry_group_IT_number 33
_symmetry_cell_setting 'orthorhombic'
loop_
_space_group_symop_operation_xyz
x,y,z
-x,-y,1/2+z
1/2-x,1/2+y,1/2+z
1/2+x,1/2-y,z
loop_
_atom_site_type_symbol
_atom_site_label
_atom_site_fract_x
_atom_site_fract_y
_atom_site_fract_z
Si Si1 0.587671 0.755649 0.585070
Si Si2 0.087670 0.755648 0.933135
Si Si3 0.033264 0.166356 0.650821
Si Si4 0.016328 0.082959 0.254489
Si Si5 0.298206 0.611978 0.944400
Si Si6 0.016328 0.417042 0.263715
Si Si7 0.298206 0.888022 0.573804
Si Si8 0.533264 0.166357 0.867383
O O1 0.491968 0.669561 0.635866
O O2 0.574366 0.874971 0.662252
O O3 0.704227 0.700559 0.610611
O O4 0.573620 0.781799 0.436898
O O5 0.204227 0.700559 0.907594
O O6 0.991968 0.669559 0.882338
O O7 0.074365 0.874970 0.855952
O O8 0.073619 0.781799 0.081307
O O9 0.124313 0.169866 0.545152
O O10 0.072207 0.249999 0.759103
O O11 0.012193 0.042811 0.708288
O O12 0.135799 0.082034 0.317340
O O13 0.250000 0.500000 0.009102
O O14 0.987807 0.542812 0.309914
O O15 0.135798 0.417966 0.200864
O O16 0.375687 0.830135 0.473052
#
# Coordination Sequence:
#
# PCOD8171368 Si02
#       8
#     4   4   4   4   4   4   4   4
#     4  10  23  43  68  94 135 175 225 268 348 398
#     4  10  23  43  68  94 135 175 225 268 348 398
#     4  11  24  41  68  99 136 170 229 284 332 398
#     4  10  23  43  69  97 136 174 220 286 332 404
#     4  11  22  43  70  95 134 177 223 275 341 405
#     4  10  23  43  69  97 136 174 220 286 332 404
#     4  11  22  43  70  95 134 177 223 275 341 405
#     4  11  24  41  68  99 136 170 229 284 332 398
#
# _framework density 20.906932000000001
#
# number of rings (size 3 to 8) (size 9 to 14) (size 15 to 20)
#    0.000    1.500    2.500    1.500    3.500   11.000 
#    0.000    1.250    0.000    0.000    0.000    0.000 
#    0.000    0.000    0.000    0.000    0.000    0.000 
#
# Total GULP energy -396685.967686 kJ/mol
# GULP energy per Si atom -12396.436490 kJ/mol
# Density = 2.085935 g / cm^3
# Si number density = 20.906932 Si / 1000 Ang^3
#
#
#
# Elastic Constant Matrix: (Units=GPa)
#
#
# Indices 1 2 3 4 5 6 
#
# 1 113.8103 43.3185 41.1395 0.0000 0.0000 0.0000
# 2 43.3185 122.8330 67.0120 0.0000 0.0000 0.0000
# 3 41.1395 67.0120 113.7822 0.0000 0.0000 0.0000
# 4 0.0000 0.0000 0.0000 47.7242 0.0000 0.0000
# 5 0.0000 0.0000 0.0000 0.0000 33.9970 0.0000
# 6 0.0000 0.0000 0.0000 0.0000 0.0000 27.3850
#
#
#
# Elastic Compliance Matrix: (Units=1/GPa)
#
#
# Indices 1 2 3 4 5 6 
#
# 1 0.010575 -0.002421 -0.002397 0.000000 0.000000 0.000000
# 2 -0.002421 0.012550 -0.006516 0.000000 0.000000 0.000000
# 3 -0.002397 -0.006516 0.013493 0.000000 0.000000 0.000000
# 4 0.000000 0.000000 0.000000 0.020954 0.000000 0.000000
# 5 0.000000 0.000000 0.000000 0.000000 0.029414 0.000000
# 6 0.000000 0.000000 0.000000 0.000000 0.000000 0.036516
#
#
# Mechanical properties :
#
#
# Convention : Reuss Voigt Hill
#
# Bulk Modulus (GPa) = 71.69217 72.59618 72.14417
# Shear Modulus (GPa) = 33.15205 35.08494 34.11850
#
# Velocity S-wave (km/s) = 3.98640 4.10097 4.04409
# Velocity P-wave (km/s) = 7.45346 7.56457 7.50922
#
# Compressibility (1/GPa) = 0.01394853
#
# Stress axis : x y z
#
# Youngs Moduli (GPa) = 94.56463 79.68301 74.11293
#
# Poissons Ratio (x) = 0.19295 0.17768
# Poissons Ratio (y) = 0.22898 0.48289
# Poissons Ratio (z) = 0.22671 0.51919
#
# Static dielectric constant tensor:
#      x y z
#    x 4.062970 0.000000 0.000000 
#    y 0.000000 4.003420 0.000000 
#    z 0.000000 0.000000 4.212480 
# 
# 
# High freq. dielectric constant tensor:
#      x y z
#    x 1.803200 0.000000 0.000000 
#    y 0.000000 1.824910 0.000000 
#    z 0.000000 0.000000 1.832450 
# 
# From -- ./inp_files/6492.got.cif
#   From: 2010.03.12/outbox.cif.g09.slc.cpg/sg33_4_cif.got.tgz:6492.got - 2010.04.14 01:49:19.
