data_PCOD8171587
_publ_section_title
;
Structure prediction by ZEFSAII (Michael W. Deem and Ramdas Pophale) SiO2 
 PCOD8171587
Probable space group: P N A 21
;
_chemical_formula_sum "Si O2"
_cell_formula_units_Z 32
_cell_length_a 8.994778
_cell_length_b 21.702859
_cell_length_c 7.532574
_cell_angle_alpha 90.000000
_cell_angle_beta 90.000000
_cell_angle_gamma 90.000000
_cell_volume 1470.451839
_symmetry_space_group_name_H-M "P N A 21"
_symmetry_group_IT_number 33
_symmetry_cell_setting 'orthorhombic'
loop_
_space_group_symop_operation_xyz
x,y,z
-x,-y,1/2+z
1/2-x,1/2+y,1/2+z
1/2+x,1/2-y,z
loop_
_atom_site_type_symbol
_atom_site_label
_atom_site_fract_x
_atom_site_fract_y
_atom_site_fract_z
Si Si1 0.469766 0.616750 0.080250
Si Si2 0.167442 0.986790 0.587580
Si Si3 0.939379 0.887760 0.494644
Si Si4 0.525330 0.173032 0.281010
Si Si5 0.581173 0.084426 0.950880
Si Si6 0.186382 0.390124 0.591692
Si Si7 0.210495 0.518259 0.454366
Si Si8 0.824847 0.802227 0.782379
O O1 0.422880 0.547080 0.021853
O O2 0.428406 0.628567 0.285933
O O3 0.644304 0.628077 0.045168
O O4 0.379485 0.665405 0.963138
O O5 0.325288 0.978011 0.491324
O O6 0.092653 0.921399 0.539504
O O7 0.190374 0.989995 0.797161
O O8 0.812832 0.934667 0.562621
O O9 0.913722 0.827354 0.611178
O O10 0.563767 0.140233 0.466127
O O11 0.352838 0.191414 0.270266
O O12 0.634620 0.230957 0.279095
O O13 0.565629 0.126520 0.123907
O O14 0.650228 0.127195 0.795460
O O15 0.425842 0.057928 0.880390
O O16 0.163788 0.463904 0.585130
#
# Coordination Sequence:
#
# PCOD8171587 Si02
#       8
#     4   4   4   4   4   4   4   4
#     4  11  26  43  72 110 142 191 237 294 359 433
#     4  11  23  41  71 107 152 184 232 288 366 433
#     4  11  24  45  72 108 142 191 235 293 357 434
#     4  12  30  51  71 106 137 198 247 302 355 433
#     4  12  26  44  70 105 148 190 235 302 361 422
#     4  12  25  43  71 105 148 187 236 291 362 426
#     4  11  23  41  67 108 150 182 234 289 362 429
#     4  12  29  50  78  95 147 189 248 297 360 424
#
# _framework density 21.762018999999999
#
# number of rings (size 3 to 8) (size 9 to 14) (size 15 to 20)
#    0.000    0.500    5.000    2.250   10.500    1.000 
#    0.000    0.000    0.000    0.000    0.000    0.000 
#    0.000    0.000    0.000    0.000    0.000    0.000 
#
# Total GULP energy -396797.283801 kJ/mol
# GULP energy per Si atom -12399.915119 kJ/mol
# Density = 2.171249 g / cm^3
# Si number density = 21.762019 Si / 1000 Ang^3
#
#
#
# Elastic Constant Matrix: (Units=GPa)
#
#
# Indices 1 2 3 4 5 6 
#
# 1 101.4064 22.2675 24.5897 0.0000 0.0000 0.0000
# 2 22.2675 57.9488 21.6763 0.0000 0.0000 0.0000
# 3 24.5897 21.6763 108.4761 0.0000 0.0000 0.0000
# 4 0.0000 0.0000 0.0000 10.0816 0.0000 0.0000
# 5 0.0000 0.0000 0.0000 0.0000 27.4196 0.0000
# 6 0.0000 0.0000 0.0000 0.0000 0.0000 37.0694
#
#
#
# Elastic Compliance Matrix: (Units=1/GPa)
#
#
# Indices 1 2 3 4 5 6 
#
# 1 0.011085 -0.003588 -0.001796 0.000000 0.000000 0.000000
# 2 -0.003588 0.019812 -0.003146 0.000000 0.000000 0.000000
# 3 -0.001796 -0.003146 0.010254 0.000000 0.000000 0.000000
# 4 0.000000 0.000000 0.000000 0.099191 0.000000 0.000000
# 5 0.000000 0.000000 0.000000 0.000000 0.036470 0.000000
# 6 0.000000 0.000000 0.000000 0.000000 0.000000 0.026976
#
#
# Mechanical properties :
#
#
# Convention : Reuss Voigt Hill
#
# Bulk Modulus (GPa) = 41.50664 44.98871 43.24767
# Shear Modulus (GPa) = 21.84579 28.20065 25.02322
#
# Velocity S-wave (km/s) = 3.17180 3.60372 3.39463
# Velocity P-wave (km/s) = 5.70334 6.16714 5.93977
#
# Compressibility (1/GPa) = 0.02409253
#
# Stress axis : x y z
#
# Youngs Moduli (GPa) = 90.21563 50.47484 97.52025
#
# Poissons Ratio (x) = 0.18109 0.17512
# Poissons Ratio (y) = 0.32366 0.30677
# Poissons Ratio (z) = 0.16201 0.15878
#
# Static dielectric constant tensor:
#      x y z
#    x 4.107600 0.000000 0.000000 
#    y 0.000000 3.809250 0.000000 
#    z 0.000000 0.000000 3.903420 
# 
# 
# High freq. dielectric constant tensor:
#      x y z
#    x 1.876100 0.000000 0.000000 
#    y 0.000000 1.836050 0.000000 
#    z 0.000000 0.000000 1.862260 
# 
# From -- ./inp_files/3499.got.cif
#   From: 2010.03.12/outbox.cif.g09.slc.cpg/sg33_2_cif.got.tgz:3499.got - 2010.04.14 01:49:19.
