data_PCOD8171034
_publ_section_title
;
Structure prediction by ZEFSAII (Michael W. Deem and Ramdas Pophale) SiO2 
 PCOD8171034
Probable space group: P N A 21
;
_chemical_formula_sum "Si O2"
_cell_formula_units_Z 20
_cell_length_a 5.355079
_cell_length_b 7.863038
_cell_length_c 17.073583
_cell_angle_alpha 90.000000
_cell_angle_beta 90.000000
_cell_angle_gamma 90.000000
_cell_volume 718.920598
_symmetry_space_group_name_H-M "P N A 21"
_symmetry_group_IT_number 33
_symmetry_cell_setting 'orthorhombic'
loop_
_space_group_symop_operation_xyz
x,y,z
-x,-y,1/2+z
1/2-x,1/2+y,1/2+z
1/2+x,1/2-y,z
loop_
_atom_site_type_symbol
_atom_site_label
_atom_site_fract_x
_atom_site_fract_y
_atom_site_fract_z
Si Si1 0.117555 0.304888 0.037600
Si Si2 0.121901 0.697155 0.995885
Si Si3 0.902715 0.165861 0.666474
Si Si4 0.414343 0.668474 0.366284
Si Si5 0.970370 0.857864 0.769392
O O1 0.860639 0.265155 0.085221
O O2 0.143465 0.501884 0.018633
O O3 0.090917 0.189148 0.959770
O O4 0.365953 0.763733 0.947686
O O5 0.098915 0.818081 0.072535
O O6 0.132197 0.279725 0.700875
O O7 0.971514 0.974257 0.691086
O O8 0.642026 0.783607 0.330985
O O9 0.491655 0.476507 0.345910
O O10 0.699511 0.771780 0.770497
#
# Coordination Sequence:
#
# PCOD8171034 Si02
#       5
#     4   4   4   4   4
#     4  10  21  40  63  91 122 163 208 255 307 365
#     4  10  21  40  63  91 122 163 208 255 307 365
#     4  10  21  41  64  89 125 165 202 254 310 365
#     4  10  21  41  64  89 125 165 202 254 310 365
#     4  12  24  40  64  96 126 162 206 254 308 370
#
# _framework density 27.819479999999999
#
# number of rings (size 3 to 8) (size 9 to 14) (size 15 to 20)
#    0.000    1.600    0.000    4.800    0.000    0.000 
#    0.000   48.000    0.000    0.000    0.000    0.000 
#    0.000    0.000    0.000    0.000    0.000    0.000 
#
# Total GULP energy -247821.606206 kJ/mol
# GULP energy per Si atom -12391.080310 kJ/mol
# Density = 2.775616 g / cm^3
# Si number density = 27.819480 Si / 1000 Ang^3
#
#
#
# Elastic Constant Matrix: (Units=GPa)
#
#
# Indices 1 2 3 4 5 6 
#
# 1 299.3219 44.8804 -15.7202 0.0000 0.0000 0.0000
# 2 44.8804 120.6608 3.8353 0.0000 0.0000 0.0000
# 3 -15.7202 3.8353 39.1755 0.0000 0.0000 0.0000
# 4 0.0000 0.0000 0.0000 43.4972 0.0000 0.0000
# 5 0.0000 0.0000 0.0000 0.0000 10.0444 0.0000
# 6 0.0000 0.0000 0.0000 0.0000 0.0000 65.3564
#
#
#
# Elastic Compliance Matrix: (Units=1/GPa)
#
#
# Indices 1 2 3 4 5 6 
#
# 1 0.003635 -0.001403 0.001596 0.000000 0.000000 0.000000
# 2 -0.001403 0.008855 -0.001430 0.000000 0.000000 0.000000
# 3 0.001596 -0.001430 0.026307 0.000000 0.000000 0.000000
# 4 0.000000 0.000000 0.000000 0.022990 0.000000 0.000000
# 5 0.000000 0.000000 0.000000 0.000000 0.099558 0.000000
# 6 0.000000 0.000000 0.000000 0.000000 0.000000 0.015301
#
#
# Mechanical properties :
#
#
# Convention : Reuss Voigt Hill
#
# Bulk Modulus (GPa) = 27.53055 58.34990 42.94022
# Shear Modulus (GPa) = 26.14706 52.19046 39.16876
#
# Velocity S-wave (km/s) = 3.06908 4.33603 3.75635
# Velocity P-wave (km/s) = 4.74095 6.78883 5.85512
#
# Compressibility (1/GPa) = 0.03632328
#
# Stress axis : x y z
#
# Youngs Moduli (GPa) = 275.09994 112.93157 38.01334
#
# Poissons Ratio (x) = 0.15842 -0.06067
# Poissons Ratio (y) = 0.38591 0.05435
# Poissons Ratio (z) = -0.43906 0.16147
#
# Static dielectric constant tensor:
#      x y z
#    x 8.527800 0.000000 0.000000 
#    y 0.000000 4.899780 0.000000 
#    z 0.000000 0.000000 4.910030 
# 
# 
# High freq. dielectric constant tensor:
#      x y z
#    x 2.173250 0.000000 0.000000 
#    y 0.000000 2.118820 0.000000 
#    z 0.000000 0.000000 2.094120 
# 
# From -- ./inp_files/9181.got.cif
#   From: 2010.03.12/outbox.cif.g09.slc.cpg/sg33_5_cif.got.tgz:9181.got - 2010.04.14 01:49:19.
