data_PCOD8171209
_publ_section_title
;
Structure prediction by ZEFSAII (Michael W. Deem and Ramdas Pophale) SiO2 
 PCOD8171209
Probable space group: P N A 21
;
_chemical_formula_sum "Si O2"
_cell_formula_units_Z 24
_cell_length_a 16.649613
_cell_length_b 7.730730
_cell_length_c 8.991650
_cell_angle_alpha 90.000000
_cell_angle_beta 90.000000
_cell_angle_gamma 90.000000
_cell_volume 1157.348205
_symmetry_space_group_name_H-M "P N A 21"
_symmetry_group_IT_number 33
_symmetry_cell_setting 'orthorhombic'
loop_
_space_group_symop_operation_xyz
x,y,z
-x,-y,1/2+z
1/2-x,1/2+y,1/2+z
1/2+x,1/2-y,z
loop_
_atom_site_type_symbol
_atom_site_label
_atom_site_fract_x
_atom_site_fract_y
_atom_site_fract_z
Si Si1 0.999976 0.124272 0.872310
Si Si2 0.706302 0.169216 0.047095
Si Si3 0.894314 0.000238 0.622208
Si Si4 0.293788 0.168719 0.697312
Si Si5 0.861395 0.333119 0.018193
Si Si6 0.361315 0.832747 0.226274
O O1 0.948166 0.996190 0.770656
O O2 0.053358 0.248007 0.766145
O O3 0.946749 0.248441 0.978389
O O4 0.051609 0.995962 0.974046
O O5 0.659096 0.330480 0.115333
O O6 0.800277 0.195582 0.094102
O O7 0.671060 0.000373 0.122331
O O8 0.690706 0.126993 0.873908
O O9 0.841109 0.170322 0.628799
O O10 0.199818 0.195261 0.650340
O O11 0.309376 0.126761 0.870533
O O12 0.875962 0.500212 0.122219
#
# Coordination Sequence:
#
# PCOD8171209 Si02
#       6
#     4   4   4   4   4   4
#     4  10  24  38  64  94 136 166 212 268 328 372
#     4  10  22  41  68  92 124 167 214 261 314 379
#     4  10  22  44  60  98 130 164 216 262 312 392
#     4  10  22  41  68  92 124 167 214 261 314 379
#     4  10  22  42  63  96 126 164 217 261 313 384
#     4  10  22  42  63  96 126 164 217 261 313 384
#
# _framework density 20.737061000000001
#
# number of rings (size 3 to 8) (size 9 to 14) (size 15 to 20)
#    0.000    2.000    1.667    0.000    2.333    9.333 
#    0.000    1.667    0.000    0.000    0.000    0.000 
#    0.000    0.000    0.000    0.000    0.000    0.000 
#
# Total GULP energy -297388.204340 kJ/mol
# GULP energy per Si atom -12391.175181 kJ/mol
# Density = 2.068986 g / cm^3
# Si number density = 20.737061 Si / 1000 Ang^3
#
#
#
# Elastic Constant Matrix: (Units=GPa)
#
#
# Indices 1 2 3 4 5 6 
#
# 1 134.1148 58.0948 45.5341 0.0000 0.0000 0.0000
# 2 58.0948 150.8600 73.7742 0.0000 0.0000 0.0000
# 3 45.5341 73.7742 88.9126 0.0000 0.0000 0.0000
# 4 0.0000 0.0000 0.0000 47.1973 0.0000 0.0000
# 5 0.0000 0.0000 0.0000 0.0000 16.4889 0.0000
# 6 0.0000 0.0000 0.0000 0.0000 0.0000 18.6846
#
#
#
# Elastic Compliance Matrix: (Units=1/GPa)
#
#
# Indices 1 2 3 4 5 6 
#
# 1 0.009417 -0.002134 -0.003052 0.000000 0.000000 0.000000
# 2 -0.002134 0.011638 -0.008564 0.000000 0.000000 0.000000
# 3 -0.003052 -0.008564 0.019916 0.000000 0.000000 0.000000
# 4 0.000000 0.000000 0.000000 0.021188 0.000000 0.000000
# 5 0.000000 0.000000 0.000000 0.000000 0.060647 0.000000
# 6 0.000000 0.000000 0.000000 0.000000 0.000000 0.053520
#
#
# Mechanical properties :
#
#
# Convention : Reuss Voigt Hill
#
# Bulk Modulus (GPa) = 74.23170 80.96594 77.59882
# Shear Modulus (GPa) = 24.00196 29.57311 26.78753
#
# Velocity S-wave (km/s) = 3.40581 3.78047 3.59802
# Velocity P-wave (km/s) = 7.16522 7.62789 7.40018
#
# Compressibility (1/GPa) = 0.01347133
#
# Stress axis : x y z
#
# Youngs Moduli (GPa) = 106.19294 85.92233 50.21090
#
# Poissons Ratio (x) = 0.18334 0.15325
# Poissons Ratio (y) = 0.22659 0.43001
# Poissons Ratio (z) = 0.32411 0.73585
#
# Static dielectric constant tensor:
#      x y z
#    x 4.043220 0.000000 0.000000 
#    y 0.000000 3.602320 0.000000 
#    z 0.000000 0.000000 3.852580 
# 
# 
# High freq. dielectric constant tensor:
#      x y z
#    x 1.827950 0.000000 0.000000 
#    y 0.000000 1.802980 0.000000 
#    z 0.000000 0.000000 1.809150 
# 
# From -- ./inp_files/6902.got.cif
#   From: 2010.03.12/outbox.cif.g09.slc.cpg/sg33_4_cif.got.tgz:6902.got - 2010.04.14 01:49:19.
