data_PCOD8171326
_publ_section_title
;
Structure prediction by ZEFSAII (Michael W. Deem and Ramdas Pophale) SiO2 
 PCOD8171326
Probable space group: P N A 21
;
_chemical_formula_sum "Si O2"
_cell_formula_units_Z 32
_cell_length_a 15.260675
_cell_length_b 17.067115
_cell_length_c 5.463443
_cell_angle_alpha 90.000000
_cell_angle_beta 90.000000
_cell_angle_gamma 90.000000
_cell_volume 1422.984845
_symmetry_space_group_name_H-M "P N A 21"
_symmetry_group_IT_number 33
_symmetry_cell_setting 'orthorhombic'
loop_
_space_group_symop_operation_xyz
x,y,z
-x,-y,1/2+z
1/2-x,1/2+y,1/2+z
1/2+x,1/2-y,z
loop_
_atom_site_type_symbol
_atom_site_label
_atom_site_fract_x
_atom_site_fract_y
_atom_site_fract_z
Si Si1 0.443711 0.919023 0.674850
Si Si2 0.016919 0.594484 0.171899
Si Si3 0.457177 0.621699 0.768555
Si Si4 0.589788 0.535793 0.439309
Si Si5 0.811897 0.315456 0.663128
Si Si6 0.747673 0.117053 0.182439
Si Si7 0.786101 0.792939 0.642541
Si Si8 0.615553 0.656463 0.057947
O O1 0.471543 0.873133 0.423509
O O2 0.339770 0.934354 0.692537
O O3 0.494851 0.000995 0.673309
O O4 0.470639 0.872040 0.923847
O O5 0.118732 0.615062 0.155080
O O6 0.504390 0.561412 0.586821
O O7 0.404484 0.559007 0.938964
O O8 0.387326 0.680842 0.652139
O O9 0.534432 0.676634 0.876879
O O10 0.682745 0.569855 0.524374
O O11 0.577463 0.578859 0.181940
O O12 0.761416 0.312763 0.401392
O O13 0.865458 0.234266 0.715603
O O14 0.753298 0.335263 0.901592
O O15 0.719277 0.201418 0.075319
O O16 0.791315 0.132630 0.443711
#
# Coordination Sequence:
#
# PCOD8171326 Si02
#       8
#     4   4   4   4   4   4   4   4
#     4  10  23  41  66  94 125 164 223 259 321 395
#     4  10  23  42  64  95 125 167 215 267 322 389
#     4  11  25  40  68 102 132 182 228 283 339 420
#     4  11  22  43  66  95 138 172 226 276 344 397
#     4  11  24  45  65  96 136 173 214 283 336 388
#     4  10  24  42  65  95 129 177 215 279 334 402
#     4  11  26  42  66 101 132 170 231 268 336 409
#     4  10  23  43  64  92 137 169 220 273 336 396
#
# _framework density 22.487939999999998
#
# number of rings (size 3 to 8) (size 9 to 14) (size 15 to 20)
#    0.000    1.500    2.500    0.750    7.000    2.000 
#    0.000    0.000    0.000    0.000    0.000    0.000 
#    0.000    0.000    0.000    0.000    0.000    0.000 
#
# Total GULP energy -396455.925902 kJ/mol
# GULP energy per Si atom -12389.247684 kJ/mol
# Density = 2.243676 g / cm^3
# Si number density = 22.487940 Si / 1000 Ang^3
#
#
#
# Elastic Constant Matrix: (Units=GPa)
#
#
# Indices 1 2 3 4 5 6 
#
# 1 143.4865 19.0628 53.5504 0.0000 0.0000 0.0000
# 2 19.0628 36.0260 13.1362 0.0000 0.0000 0.0000
# 3 53.5504 13.1362 145.0307 0.0000 0.0000 0.0000
# 4 0.0000 0.0000 0.0000 21.0759 0.0000 0.0000
# 5 0.0000 0.0000 0.0000 0.0000 13.8239 0.0000
# 6 0.0000 0.0000 0.0000 0.0000 0.0000 30.3228
#
#
#
# Elastic Compliance Matrix: (Units=1/GPa)
#
#
# Indices 1 2 3 4 5 6 
#
# 1 0.008481 -0.003460 -0.002818 0.000000 0.000000 0.000000
# 2 -0.003460 0.030117 -0.001450 0.000000 0.000000 0.000000
# 3 -0.002818 -0.001450 0.008067 0.000000 0.000000 0.000000
# 4 0.000000 0.000000 0.000000 0.047448 0.000000 0.000000
# 5 0.000000 0.000000 0.000000 0.000000 0.072338 0.000000
# 6 0.000000 0.000000 0.000000 0.000000 0.000000 0.032978
#
#
# Mechanical properties :
#
#
# Convention : Reuss Voigt Hill
#
# Bulk Modulus (GPa) = 32.04261 55.11578 43.57919
# Shear Modulus (GPa) = 22.19375 28.96412 25.57894
#
# Velocity S-wave (km/s) = 3.14493 3.59274 3.37627
# Velocity P-wave (km/s) = 5.24092 6.46318 5.88387
#
# Compressibility (1/GPa) = 0.03120844
#
# Stress axis : x y z
#
# Youngs Moduli (GPa) = 117.91543 33.20343 123.96266
#
# Poissons Ratio (x) = 0.11488 0.34932
# Poissons Ratio (y) = 0.40798 0.17979
# Poissons Ratio (z) = 0.33228 0.04816
#
# Static dielectric constant tensor:
#      x y z
#    x 3.963420 0.000000 0.000000 
#    y 0.000000 4.098460 0.000000 
#    z 0.000000 0.000000 4.327090 
# 
# 
# High freq. dielectric constant tensor:
#      x y z
#    x 1.892760 0.000000 0.000000 
#    y 0.000000 1.870040 0.000000 
#    z 0.000000 0.000000 1.888870 
# 
# From -- ./inp_files/1056.got.cif
#   From: 2010.03.12/outbox.cif.g09.slc.cpg/sg33_1_cif.got.tgz:1056.got - 2010.04.14 01:49:19.
