data_PCOD8171912
_publ_section_title
;
Structure prediction by ZEFSAII (Michael W. Deem and Ramdas Pophale) SiO2 
 PCOD8171912
Probable space group: P N N 2
;
_chemical_formula_sum "Si O2"
_cell_formula_units_Z 30
_cell_length_a 10.169193
_cell_length_b 13.752776
_cell_length_c 10.150476
_cell_angle_alpha 90.000000
_cell_angle_beta 90.000000
_cell_angle_gamma 90.000000
_cell_volume 1419.591100
_symmetry_space_group_name_H-M "P N N 2"
_symmetry_group_IT_number 34
_symmetry_cell_setting 'orthorhombic'
loop_
_space_group_symop_operation_xyz
x,y,z
-x,-y,z
1/2-x,1/2+y,1/2+z
1/2+x,1/2-y,1/2+z
loop_
_atom_site_type_symbol
_atom_site_label
_atom_site_fract_x
_atom_site_fract_y
_atom_site_fract_z
Si Si1 0.121135 0.564406 0.187640
Si Si2 0.594770 0.860354 0.962900
Si Si3 0.720261 0.543520 0.753931
Si Si4 0.371452 0.283955 0.585752
Si Si5 0.849315 0.766089 0.400666
Si Si6 0.155598 0.151787 0.116388
Si Si7 0.500000 0.000000 0.180269
Si Si8 0.638565 0.472306 0.027136
O O1 0.126176 0.563221 0.346515
O O2 0.112558 0.673416 0.132557
O O3 0.249873 0.508517 0.135304
O O4 0.000000 0.500000 0.136650
O O5 0.491347 0.783649 0.906783
O O6 0.733702 0.815445 0.010972
O O7 0.529249 0.908295 0.089507
O O8 0.689675 0.651297 0.702810
O O9 0.662988 0.463111 0.652101
O O10 0.876527 0.526168 0.772236
O O11 0.655288 0.537743 0.896830
O O12 0.273926 0.294856 0.459893
O O13 0.515317 0.325395 0.549706
O O14 0.819783 0.786577 0.248653
O O15 0.859262 0.860618 0.488868
O O16 0.500000 0.500000 0.093140
#
# Coordination Sequence:
#
# PCOD8171912 Si02
#       8
#     4   4   4   4   4   4   2   4
#     4  11  25  43  63  92 136 178 217 271 348 404
#     4  11  21  42  63  90 133 175 219 264 341 396
#     4  10  20  38  68  96 132 173 222 274 327 395
#     4  11  21  41  66  97 131 173 218 276 332 402
#     4  10  21  42  63  96 133 168 219 276 327 403
#     4  10  22  39  65  99 128 172 220 276 328 392
#     4  10  20  36  64  98 124 172 222 266 320 404
#     4  10  23  42  64  96 132 166 219 279 334 392
#
# _framework density 21.132846000000001
#
# number of rings (size 3 to 8) (size 9 to 14) (size 15 to 20)
#    0.000    1.600    3.333    2.000    0.933    1.067 
#    4.800    2.667    0.000    0.000    0.000    0.000 
#    0.000    0.000    0.000    0.000    0.000    0.000 
#
# Total GULP energy -372011.032443 kJ/mol
# GULP energy per Si atom -12400.367748 kJ/mol
# Density = 2.108475 g / cm^3
# Si number density = 21.132846 Si / 1000 Ang^3
#
#
#
# Elastic Constant Matrix: (Units=GPa)
#
#
# Indices 1 2 3 4 5 6 
#
# 1 199.9148 49.0081 55.1641 0.0000 0.0000 0.0000
# 2 49.0081 79.9803 25.4954 0.0000 0.0000 0.0000
# 3 55.1641 25.4954 70.9693 0.0000 0.0000 0.0000
# 4 0.0000 0.0000 0.0000 14.7768 0.0000 0.0000
# 5 0.0000 0.0000 0.0000 0.0000 25.7093 0.0000
# 6 0.0000 0.0000 0.0000 0.0000 0.0000 31.1471
#
#
#
# Elastic Compliance Matrix: (Units=1/GPa)
#
#
# Indices 1 2 3 4 5 6 
#
# 1 0.006896 -0.002842 -0.004339 0.000000 0.000000 0.000000
# 2 -0.002842 0.015292 -0.003284 0.000000 0.000000 0.000000
# 3 -0.004339 -0.003284 0.018643 0.000000 0.000000 0.000000
# 4 0.000000 0.000000 0.000000 0.067674 0.000000 0.000000
# 5 0.000000 0.000000 0.000000 0.000000 0.038896 0.000000
# 6 0.000000 0.000000 0.000000 0.000000 0.000000 0.032106
#
#
# Mechanical properties :
#
#
# Convention : Reuss Voigt Hill
#
# Bulk Modulus (GPa) = 50.25215 67.79994 59.02605
# Shear Modulus (GPa) = 24.14618 29.07309 26.60964
#
# Velocity S-wave (km/s) = 3.38389 3.71311 3.55231
# Velocity P-wave (km/s) = 6.25287 7.10882 6.69454
#
# Compressibility (1/GPa) = 0.01989965
#
# Stress axis : x y z
#
# Youngs Moduli (GPa) = 145.00436 65.39508 53.63850
#
# Poissons Ratio (x) = 0.18589 0.23276
# Poissons Ratio (y) = 0.41217 0.17615
# Poissons Ratio (z) = 0.62922 0.21476
#
# Static dielectric constant tensor:
#      x y z
#    x 4.272030 0.000000 0.000000 
#    y 0.000000 3.733710 0.000000 
#    z 0.000000 0.000000 3.703300 
# 
# 
# High freq. dielectric constant tensor:
#      x y z
#    x 1.848780 0.000000 0.000000 
#    y 0.000000 1.820160 0.000000 
#    z 0.000000 0.000000 1.809960 
# 
# From -- ./inp_files/5068.got.cif
#   From: 2010.03.12/outbox.cif.g09.slc.cpg/sg34_3_cif.got.tgz:5068.got - 2010.04.14 01:56:33.
