data_PCOD8171440
_publ_section_title
;
Structure prediction by ZEFSAII (Michael W. Deem and Ramdas Pophale) SiO2 
 PCOD8171440
Probable space group: P N A 21
;
_chemical_formula_sum "Si O2"
_cell_formula_units_Z 20
_cell_length_a 22.010911
_cell_length_b 5.334486
_cell_length_c 7.252704
_cell_angle_alpha 90.000000
_cell_angle_beta 90.000000
_cell_angle_gamma 90.000000
_cell_volume 851.589995
_symmetry_space_group_name_H-M "P N A 21"
_symmetry_group_IT_number 33
_symmetry_cell_setting 'orthorhombic'
loop_
_space_group_symop_operation_xyz
x,y,z
-x,-y,1/2+z
1/2-x,1/2+y,1/2+z
1/2+x,1/2-y,z
loop_
_atom_site_type_symbol
_atom_site_label
_atom_site_fract_x
_atom_site_fract_y
_atom_site_fract_z
Si Si1 0.833050 0.369728 0.145770
Si Si2 0.944467 0.753127 0.591522
Si Si3 0.055493 0.752266 0.859260
Si Si4 0.833036 0.630355 0.804982
Si Si5 0.761490 0.499990 0.475373
O O1 0.882317 0.192633 0.245633
O O2 0.804409 0.561476 0.297722
O O3 0.868528 0.500056 0.975364
O O4 0.778722 0.232615 0.037367
O O5 0.935129 0.500821 0.474925
O O6 0.882255 0.807683 0.705157
O O7 0.999957 0.701399 0.725394
O O8 0.958605 0.000819 0.475857
O O9 0.804441 0.438587 0.652966
O O10 0.778666 0.767185 0.913395
#
# Coordination Sequence:
#
# PCOD8171440 Si02
#       5
#     4   4   4   4   4
#     4  11  24  43  73 106 152 192 247 299 371 433
#     4  12  28  49  76 107 148 196 254 309 373 438
#     4  12  28  49  76 107 148 196 254 309 373 438
#     4  11  24  43  73 106 152 192 247 299 371 433
#     4  10  24  42  70 112 150 192 244 294 372 438
#
# _framework density 23.485482000000001
#
# number of rings (size 3 to 8) (size 9 to 14) (size 15 to 20)
#    0.000    0.800    2.000    3.600    8.400    6.400 
#    0.000    0.000    0.000    0.000    0.000    0.000 
#    0.000    0.000    0.000    0.000    0.000    0.000 
#
# Total GULP energy -247820.175591 kJ/mol
# GULP energy per Si atom -12391.008780 kJ/mol
# Density = 2.343203 g / cm^3
# Si number density = 23.485482 Si / 1000 Ang^3
#
#
#
# Elastic Constant Matrix: (Units=GPa)
#
#
# Indices 1 2 3 4 5 6 
#
# 1 125.3440 14.1495 62.0773 0.0000 0.0000 0.0000
# 2 14.1495 98.1704 49.5490 0.0000 0.0000 0.0000
# 3 62.0773 49.5490 176.6716 0.0000 0.0000 0.0000
# 4 0.0000 0.0000 0.0000 30.1436 0.0000 0.0000
# 5 0.0000 0.0000 0.0000 0.0000 27.1385 0.0000
# 6 0.0000 0.0000 0.0000 0.0000 0.0000 62.8646
#
#
#
# Elastic Compliance Matrix: (Units=1/GPa)
#
#
# Indices 1 2 3 4 5 6 
#
# 1 0.009671 0.000374 -0.003503 0.000000 0.000000 0.000000
# 2 0.000374 0.011881 -0.003463 0.000000 0.000000 0.000000
# 3 -0.003503 -0.003463 0.007862 0.000000 0.000000 0.000000
# 4 0.000000 0.000000 0.000000 0.033175 0.000000 0.000000
# 5 0.000000 0.000000 0.000000 0.000000 0.036848 0.000000
# 6 0.000000 0.000000 0.000000 0.000000 0.000000 0.015907
#
#
# Mechanical properties :
#
#
# Convention : Reuss Voigt Hill
#
# Bulk Modulus (GPa) = 61.61759 72.41529 67.01644
# Shear Modulus (GPa) = 37.33085 42.32336 39.82710
#
# Velocity S-wave (km/s) = 3.99121 4.24973 4.12250
# Velocity P-wave (km/s) = 6.89443 7.41494 7.15941
#
# Compressibility (1/GPa) = 0.01622913
#
# Stress axis : x y z
#
# Youngs Moduli (GPa) = 103.40569 84.17125 127.18760
#
# Poissons Ratio (x) = -0.03149 0.44553
# Poissons Ratio (y) = -0.03869 0.44051
# Poissons Ratio (z) = 0.36222 0.29152
#
# Static dielectric constant tensor:
#      x y z
#    x 4.336890 0.000000 0.000000 
#    y 0.000000 3.733130 0.000000 
#    z 0.000000 0.000000 5.131870 
# 
# 
# High freq. dielectric constant tensor:
#      x y z
#    x 1.941910 0.000000 0.000000 
#    y 0.000000 1.893880 0.000000 
#    z 0.000000 0.000000 1.967050 
# 
# From -- ./inp_files/1936.got.cif
#   From: 2010.03.12/outbox.cif.g09.slc.cpg/sg33_1_cif.got.tgz:1936.got - 2010.04.14 01:49:19.
