data_PCOD8171447
_publ_section_title
;
Structure prediction by ZEFSAII (Michael W. Deem and Ramdas Pophale) SiO2 
 PCOD8171447
Probable space group: P N A 21
;
_chemical_formula_sum "Si O2"
_cell_formula_units_Z 20
_cell_length_a 21.903863
_cell_length_b 5.039613
_cell_length_c 7.867200
_cell_angle_alpha 90.000000
_cell_angle_beta 90.000000
_cell_angle_gamma 90.000000
_cell_volume 868.436549
_symmetry_space_group_name_H-M "P N A 21"
_symmetry_group_IT_number 33
_symmetry_cell_setting 'orthorhombic'
loop_
_space_group_symop_operation_xyz
x,y,z
-x,-y,1/2+z
1/2-x,1/2+y,1/2+z
1/2+x,1/2-y,z
loop_
_atom_site_type_symbol
_atom_site_label
_atom_site_fract_x
_atom_site_fract_y
_atom_site_fract_z
Si Si1 0.781448 0.007879 0.253240
Si Si2 0.980205 0.636677 0.446445
Si Si3 0.672093 0.248494 0.440184
Si Si4 0.648446 0.018121 0.780951
Si Si5 0.955962 0.851120 0.817905
O O1 0.713137 0.092891 0.302144
O O2 0.829079 0.224572 0.324220
O O3 0.801301 0.734135 0.346012
O O4 0.788036 0.965553 0.047992
O O5 0.915320 0.570841 0.367053
O O6 0.973069 0.738690 0.635579
O O7 0.018835 0.364406 0.452671
O O8 0.013618 0.862115 0.336625
O O9 0.643283 0.040829 0.575322
O O10 0.616947 0.387943 0.338997
#
# Coordination Sequence:
#
# PCOD8171447 Si02
#       5
#     4   4   4   4   4
#     4  10  25  40  72  95 144 175 239 281 347 408
#     4  12  26  47  71 105 140 183 237 289 361 416
#     4  10  26  44  70 101 139 186 235 284 350 415
#     4  10  24  43  69  99 138 180 231 290 338 423
#     4  12  27  44  74 102 141 186 232 296 350 426
#
# _framework density 23.029890000000002
#
# number of rings (size 3 to 8) (size 9 to 14) (size 15 to 20)
#    1.200    0.000    0.000    4.800   11.200    0.000 
#    0.000    0.000    0.000    0.000    0.000    0.000 
#    0.000    0.000    0.000    0.000    0.000    0.000 
#
# Total GULP energy -247892.174161 kJ/mol
# GULP energy per Si atom -12394.608708 kJ/mol
# Density = 2.297747 g / cm^3
# Si number density = 23.029890 Si / 1000 Ang^3
#
#
#
# Elastic Constant Matrix: (Units=GPa)
#
#
# Indices 1 2 3 4 5 6 
#
# 1 86.7054 0.3210 16.3426 0.0000 0.0000 0.0000
# 2 0.3210 95.8722 -5.7694 0.0000 0.0000 0.0000
# 3 16.3426 -5.7694 58.7305 0.0000 0.0000 0.0000
# 4 0.0000 0.0000 0.0000 29.4857 0.0000 0.0000
# 5 0.0000 0.0000 0.0000 0.0000 38.1023 0.0000
# 6 0.0000 0.0000 0.0000 0.0000 0.0000 36.6911
#
#
#
# Elastic Compliance Matrix: (Units=1/GPa)
#
#
# Indices 1 2 3 4 5 6 
#
# 1 0.012177 -0.000246 -0.003413 0.000000 0.000000 0.000000
# 2 -0.000246 0.010498 0.001100 0.000000 0.000000 0.000000
# 3 -0.003413 0.001100 0.018085 0.000000 0.000000 0.000000
# 4 0.000000 0.000000 0.000000 0.033915 0.000000 0.000000
# 5 0.000000 0.000000 0.000000 0.000000 0.026245 0.000000
# 6 0.000000 0.000000 0.000000 0.000000 0.000000 0.027255
#
#
# Mechanical properties :
#
#
# Convention : Reuss Voigt Hill
#
# Bulk Modulus (GPa) = 28.05733 29.23295 28.64514
# Shear Modulus (GPa) = 34.44171 36.21674 35.32923
#
# Velocity S-wave (km/s) = 3.87139 3.96990 3.92096
# Velocity P-wave (km/s) = 5.67389 5.80814 5.74141
#
# Compressibility (1/GPa) = 0.03564131
#
# Stress axis : x y z
#
# Youngs Moduli (GPa) = 82.11890 95.26026 55.29565
#
# Poissons Ratio (x) = 0.02345 0.18871
# Poissons Ratio (y) = 0.02021 -0.06081
# Poissons Ratio (z) = 0.28025 -0.10476
#
# Static dielectric constant tensor:
#      x y z
#    x 4.015580 0.000000 0.000000 
#    y 0.000000 4.294130 0.000000 
#    z 0.000000 0.000000 4.033270 
# 
# 
# High freq. dielectric constant tensor:
#      x y z
#    x 1.914330 0.000000 0.000000 
#    y 0.000000 1.914770 0.000000 
#    z 0.000000 0.000000 1.897880 
# 
# From -- ./inp_files/4908.got.cif
#   From: 2010.03.12/outbox.cif.g09.slc.cpg/sg33_3_cif.got.tgz:4908.got - 2010.04.14 01:49:19.
