data_PCOD8171300
_publ_section_title
;
Structure prediction by ZEFSAII (Michael W. Deem and Ramdas Pophale) SiO2 
 PCOD8171300
Probable space group: P N A 21
;
_chemical_formula_sum "Si O2"
_cell_formula_units_Z 24
_cell_length_a 8.333584
_cell_length_b 11.728747
_cell_length_c 10.847069
_cell_angle_alpha 90.000000
_cell_angle_beta 90.000000
_cell_angle_gamma 90.000000
_cell_volume 1060.219624
_symmetry_space_group_name_H-M "P N A 21"
_symmetry_group_IT_number 33
_symmetry_cell_setting 'orthorhombic'
loop_
_space_group_symop_operation_xyz
x,y,z
-x,-y,1/2+z
1/2-x,1/2+y,1/2+z
1/2+x,1/2-y,z
loop_
_atom_site_type_symbol
_atom_site_label
_atom_site_fract_x
_atom_site_fract_y
_atom_site_fract_z
Si Si1 0.270738 0.014934 0.601880
Si Si2 0.122912 0.470063 0.707205
Si Si3 0.628589 0.846844 0.882091
Si Si4 0.265744 0.886706 0.957505
Si Si5 0.271778 0.335750 0.911964
Si Si6 0.874394 0.895525 0.341190
O O1 0.442289 0.019801 0.664325
O O2 0.258115 0.095115 0.483388
O O3 0.146685 0.069908 0.697951
O O4 0.233566 0.885180 0.553330
O O5 0.178745 0.599548 0.747716
O O6 0.226600 0.400883 0.605899
O O7 0.131493 0.397212 0.832974
O O8 0.441971 0.877943 0.900341
O O9 0.657532 0.713593 0.900138
O O10 0.168057 0.996554 0.920913
O O11 0.239669 0.201724 0.899954
O O12 0.442324 0.360839 0.852024
#
# Coordination Sequence:
#
# PCOD8171300 Si02
#       6
#     4   4   4   4   4   4
#     4  10  23  47  72 102 143 191 244 302 364 436
#     4  10  22  46  71 100 143 189 239 298 366 428
#     4  10  23  43  69 101 138 186 243 294 363 427
#     4  11  25  42  71 100 143 187 236 300 363 433
#     4  11  27  44  76 106 145 194 249 300 370 440
#     4  12  26  46  69 107 146 191 245 300 370 434
#
# _framework density 22.636821000000001
#
# number of rings (size 3 to 8) (size 9 to 14) (size 15 to 20)
#    0.000    1.333    1.667    2.000   11.667    4.000 
#    0.000    0.000    0.000    0.000    0.000    0.000 
#    0.000    0.000    0.000    0.000    0.000    0.000 
#
# Total GULP energy -297372.659453 kJ/mol
# GULP energy per Si atom -12390.527477 kJ/mol
# Density = 2.258530 g / cm^3
# Si number density = 22.636821 Si / 1000 Ang^3
#
#
#
# Elastic Constant Matrix: (Units=GPa)
#
#
# Indices 1 2 3 4 5 6 
#
# 1 62.8855 18.6034 34.0548 0.0000 0.0000 0.0000
# 2 18.6034 158.4408 38.3472 0.0000 0.0000 0.0000
# 3 34.0548 38.3472 46.9174 0.0000 0.0000 0.0000
# 4 0.0000 0.0000 0.0000 44.6916 0.0000 0.0000
# 5 0.0000 0.0000 0.0000 0.0000 21.8783 0.0000
# 6 0.0000 0.0000 0.0000 0.0000 0.0000 33.2931
#
#
#
# Elastic Compliance Matrix: (Units=1/GPa)
#
#
# Indices 1 2 3 4 5 6 
#
# 1 0.026669 0.001937 -0.020941 0.000000 0.000000 0.000000
# 2 0.001937 0.008009 -0.007952 0.000000 0.000000 0.000000
# 3 -0.020941 -0.007952 0.043013 0.000000 0.000000 0.000000
# 4 0.000000 0.000000 0.000000 0.022376 0.000000 0.000000
# 5 0.000000 0.000000 0.000000 0.000000 0.045707 0.000000
# 6 0.000000 0.000000 0.000000 0.000000 0.000000 0.030036
#
#
# Mechanical properties :
#
#
# Convention : Reuss Voigt Hill
#
# Bulk Modulus (GPa) = 42.05261 50.02825 46.04043
# Shear Modulus (GPa) = 21.03962 31.78850 26.41406
#
# Velocity S-wave (km/s) = 3.05198 3.75144 3.41964
# Velocity P-wave (km/s) = 5.57108 6.39631 5.99790
#
# Compressibility (1/GPa) = 0.02377974
#
# Stress axis : x y z
#
# Youngs Moduli (GPa) = 37.49661 124.86598 23.24891
#
# Poissons Ratio (x) = -0.24185 0.48685
# Poissons Ratio (y) = -0.07263 0.18486
# Poissons Ratio (z) = 0.78520 0.99288
#
# Static dielectric constant tensor:
#      x y z
#    x 4.079960 0.000000 0.000000 
#    y 0.000000 4.419330 0.000000 
#    z 0.000000 0.000000 4.574520 
# 
# 
# High freq. dielectric constant tensor:
#      x y z
#    x 1.887500 0.000000 0.000000 
#    y 0.000000 1.899750 0.000000 
#    z 0.000000 0.000000 1.895850 
# 
# From -- ./inp_files/5807.got.cif
#   From: 2010.03.12/outbox.cif.g09.slc.cpg/sg33_3_cif.got.tgz:5807.got - 2010.04.14 01:49:19.
