data_PCOD8171320
_publ_section_title
;
Structure prediction by ZEFSAII (Michael W. Deem and Ramdas Pophale) SiO2 
 PCOD8171320
Probable space group: P N A 21
;
_chemical_formula_sum "Si O2"
_cell_formula_units_Z 32
_cell_length_a 28.299753
_cell_length_b 9.082088
_cell_length_c 5.483088
_cell_angle_alpha 90.000000
_cell_angle_beta 90.000000
_cell_angle_gamma 90.000000
_cell_volume 1409.267923
_symmetry_space_group_name_H-M "P N A 21"
_symmetry_group_IT_number 33
_symmetry_cell_setting 'orthorhombic'
loop_
_space_group_symop_operation_xyz
x,y,z
-x,-y,1/2+z
1/2-x,1/2+y,1/2+z
1/2+x,1/2-y,z
loop_
_atom_site_type_symbol
_atom_site_label
_atom_site_fract_x
_atom_site_fract_y
_atom_site_fract_z
Si Si1 0.694452 0.756046 0.998690
Si Si2 0.643197 0.500000 0.719789
Si Si3 0.380280 0.256820 0.892593
Si Si4 0.694452 0.243953 0.440889
Si Si5 0.524186 0.174506 0.221784
Si Si6 0.853476 0.500000 0.219789
Si Si7 0.024186 0.674506 0.217795
Si Si8 0.880280 0.756820 0.546986
O O1 0.675779 0.625275 0.832714
O O2 0.679541 0.917277 0.911235
O O3 0.672057 0.739362 0.269530
O O4 0.750000 0.750000 0.969791
O O5 0.611215 0.584939 0.521498
O O6 0.675778 0.374723 0.606864
O O7 0.611215 0.415061 0.918082
O O8 0.422037 0.234918 0.697724
O O9 0.385760 0.120080 0.081183
O O10 0.679542 0.082722 0.528344
O O11 0.672057 0.260637 0.170048
O O12 0.500000 0.234512 0.469790
O O13 0.577964 0.234917 0.241856
O O14 0.523896 1.000000 0.219790
O O15 0.500000 0.233263 0.969790
O O16 0.885760 0.620079 0.358395
#
# Coordination Sequence:
#
# PCOD8171320 Si02
#       8
#     4   4   4   4   4   4   4   4
#     4  11  25  41  69  96 139 183 236 289 355 425
#     4  10  26  42  70  96 144 184 228 292 358 426
#     4  11  24  45  70 104 142 184 236 295 365 426
#     4  11  25  41  69  96 139 183 236 289 355 425
#     4  10  23  40  74 110 143 180 238 303 365 427
#     4  10  24  38  70 102 136 178 234 290 354 420
#     4  10  23  40  74 110 143 180 238 303 365 427
#     4  11  24  45  70 104 142 184 236 295 365 426
#
# _framework density 22.706826
#
# number of rings (size 3 to 8) (size 9 to 14) (size 15 to 20)
#    0.000    1.500    0.000    3.000   19.250    2.000 
#    0.000    0.000    5.500    0.000    0.000    0.000 
#    0.000    0.000    0.000    0.000    0.000    0.000 
#
# Total GULP energy -396702.017530 kJ/mol
# GULP energy per Si atom -12396.938048 kJ/mol
# Density = 2.265514 g / cm^3
# Si number density = 22.706826 Si / 1000 Ang^3
#
#
#
# Elastic Constant Matrix: (Units=GPa)
#
#
# Indices 1 2 3 4 5 6 
#
# 1 133.9419 18.9488 54.0336 0.0000 0.0000 0.0000
# 2 18.9488 103.3819 33.8624 0.0000 0.0000 0.0000
# 3 54.0336 33.8624 138.1876 0.0000 0.0000 0.0000
# 4 0.0000 0.0000 0.0000 33.7487 0.0000 0.0000
# 5 0.0000 0.0000 0.0000 0.0000 32.3865 0.0000
# 6 0.0000 0.0000 0.0000 0.0000 0.0000 11.9603
#
#
#
# Elastic Compliance Matrix: (Units=1/GPa)
#
#
# Indices 1 2 3 4 5 6 
#
# 1 0.008891 -0.000534 -0.003346 0.000000 0.000000 0.000000
# 2 -0.000534 0.010549 -0.002376 0.000000 0.000000 0.000000
# 3 -0.003346 -0.002376 0.009127 0.000000 0.000000 0.000000
# 4 0.000000 0.000000 0.000000 0.029631 0.000000 0.000000
# 5 0.000000 0.000000 0.000000 0.000000 0.030877 0.000000
# 6 0.000000 0.000000 0.000000 0.000000 0.000000 0.083610
#
#
# Mechanical properties :
#
#
# Convention : Reuss Voigt Hill
#
# Bulk Modulus (GPa) = 62.28347 65.46677 63.87512
# Shear Modulus (GPa) = 26.23999 33.53021 29.88510
#
# Velocity S-wave (km/s) = 3.40310 3.84690 3.63178
# Velocity P-wave (km/s) = 6.55213 6.97319 6.76594
#
# Compressibility (1/GPa) = 0.01605562
#
# Stress axis : x y z
#
# Youngs Moduli (GPa) = 112.47122 94.79519 109.56378
#
# Poissons Ratio (x) = 0.05060 0.36658
# Poissons Ratio (y) = 0.06003 0.26036
# Poissons Ratio (z) = 0.37631 0.22526
#
# Static dielectric constant tensor:
#      x y z
#    x 3.880270 0.000000 0.000000 
#    y 0.000000 4.238390 0.000000 
#    z 0.000000 0.000000 4.597010 
# 
# 
# High freq. dielectric constant tensor:
#      x y z
#    x 1.878120 0.000000 0.000000 
#    y 0.000000 1.897260 0.000000 
#    z 0.000000 0.000000 1.907210 
# 
# From -- ./inp_files/2559.got.cif
#   From: 2010.03.12/outbox.cif.g09.slc.cpg/sg33_2_cif.got.tgz:2559.got - 2010.04.14 01:49:19.
