data_PCOD8171159
_publ_section_title
;
Structure prediction by ZEFSAII (Michael W. Deem and Ramdas Pophale) SiO2 
 PCOD8171159
Probable space group: P N A 21
;
_chemical_formula_sum "Si O2"
_cell_formula_units_Z 28
_cell_length_a 9.303935
_cell_length_b 16.670108
_cell_length_c 8.530749
_cell_angle_alpha 90.000000
_cell_angle_beta 90.000000
_cell_angle_gamma 90.000000
_cell_volume 1323.098707
_symmetry_space_group_name_H-M "P N A 21"
_symmetry_group_IT_number 33
_symmetry_cell_setting 'orthorhombic'
loop_
_space_group_symop_operation_xyz
x,y,z
-x,-y,1/2+z
1/2-x,1/2+y,1/2+z
1/2+x,1/2-y,z
loop_
_atom_site_type_symbol
_atom_site_label
_atom_site_fract_x
_atom_site_fract_y
_atom_site_fract_z
Si Si1 0.040709 0.570925 0.944140
Si Si2 0.341488 0.932263 0.247645
Si Si3 0.893361 0.839340 0.408028
Si Si4 0.283888 0.307243 0.963456
Si Si5 0.196530 0.084043 0.604604
Si Si6 0.216148 0.421459 0.244709
Si Si7 0.607507 0.519261 0.024458
O O1 0.090523 0.482158 0.890750
O O2 0.942917 0.606616 0.803673
O O3 0.189380 0.620792 0.977099
O O4 0.946540 0.569976 0.100939
O O5 0.308902 0.845410 0.321633
O O6 0.187616 0.968492 0.190688
O O7 0.779121 0.781331 0.493110
O O8 0.847215 0.847382 0.226221
O O9 0.050270 0.800412 0.415707
O O10 0.885211 0.925501 0.488182
O O11 0.274749 0.357695 0.122529
O O12 0.057552 0.044468 0.528781
O O13 0.291598 0.012055 0.679823
O O14 0.323598 0.424216 0.392297
#
# Coordination Sequence:
#
# PCOD8171159 Si02
#       7
#     4   4   4   4   4   4   4
#     4  11  21  35  66 100 128 168 230 275 328 389
#     4  11  21  39  66  96 133 174 217 282 324 397
#     4  11  26  40  70  99 127 181 218 279 337 406
#     4  12  24  44  66  94 140 168 220 280 350 404
#     4  11  20  41  68 100 128 177 239 265 323 404
#     4  10  22  39  66  98 131 173 221 281 334 395
#     4  10  22  42  72  95 127 177 237 268 320 399
#
# _framework density 21.162443
#
# number of rings (size 3 to 8) (size 9 to 14) (size 15 to 20)
#    0.000    1.143    5.714    0.000    4.000    1.143 
#    0.000    0.000   22.000    0.000    0.000    0.000 
#    0.000    0.000    0.000    0.000    0.000    0.000 
#
# Total GULP energy -347073.373562 kJ/mol
# GULP energy per Si atom -12395.477627 kJ/mol
# Density = 2.111428 g / cm^3
# Si number density = 21.162443 Si / 1000 Ang^3
#
#
#
# Elastic Constant Matrix: (Units=GPa)
#
#
# Indices 1 2 3 4 5 6 
#
# 1 168.0457 48.3189 52.4870 0.0000 0.0000 0.0000
# 2 48.3189 71.8047 34.7596 0.0000 0.0000 0.0000
# 3 52.4870 34.7596 84.4477 0.0000 0.0000 0.0000
# 4 0.0000 0.0000 0.0000 21.8533 0.0000 0.0000
# 5 0.0000 0.0000 0.0000 0.0000 43.3080 0.0000
# 6 0.0000 0.0000 0.0000 0.0000 0.0000 13.4274
#
#
#
# Elastic Compliance Matrix: (Units=1/GPa)
#
#
# Indices 1 2 3 4 5 6 
#
# 1 0.008129 -0.003777 -0.003498 0.000000 0.000000 0.000000
# 2 -0.003777 0.019147 -0.005534 0.000000 0.000000 0.000000
# 3 -0.003498 -0.005534 0.016293 0.000000 0.000000 0.000000
# 4 0.000000 0.000000 0.000000 0.045760 0.000000 0.000000
# 5 0.000000 0.000000 0.000000 0.000000 0.023090 0.000000
# 6 0.000000 0.000000 0.000000 0.000000 0.000000 0.074474
#
#
# Mechanical properties :
#
#
# Convention : Reuss Voigt Hill
#
# Bulk Modulus (GPa) = 55.70219 66.15877 60.93048
# Shear Modulus (GPa) = 22.88373 28.29992 25.59182
#
# Velocity S-wave (km/s) = 3.29194 3.66084 3.48128
# Velocity P-wave (km/s) = 6.38964 7.01421 6.70920
#
# Compressibility (1/GPa) = 0.01795262
#
# Stress axis : x y z
#
# Youngs Moduli (GPa) = 123.01099 52.22730 61.37454
#
# Poissons Ratio (x) = 0.19727 0.21469
# Poissons Ratio (y) = 0.46463 0.33962
# Poissons Ratio (z) = 0.43029 0.28900
#
# Static dielectric constant tensor:
#      x y z
#    x 4.294250 0.000000 0.000000 
#    y 0.000000 3.368530 0.000000 
#    z 0.000000 0.000000 4.076630 
# 
# 
# High freq. dielectric constant tensor:
#      x y z
#    x 1.858450 0.000000 0.000000 
#    y 0.000000 1.781150 0.000000 
#    z 0.000000 0.000000 1.837150 
# 
# From -- ./inp_files/3315.got.cif
#   From: 2010.03.12/outbox.cif.g09.slc.cpg/sg33_2_cif.got.tgz:3315.got - 2010.04.14 01:49:19.
