data_PCOD8171091
_publ_section_title
;
Structure prediction by ZEFSAII (Michael W. Deem and Ramdas Pophale) SiO2 
 PCOD8171091
Probable space group: P N A 21
;
_chemical_formula_sum "Si O2"
_cell_formula_units_Z 32
_cell_length_a 11.079064
_cell_length_b 15.111199
_cell_length_c 8.584017
_cell_angle_alpha 90.000000
_cell_angle_beta 90.000000
_cell_angle_gamma 90.000000
_cell_volume 1437.118450
_symmetry_space_group_name_H-M "P N A 21"
_symmetry_group_IT_number 33
_symmetry_cell_setting 'orthorhombic'
loop_
_space_group_symop_operation_xyz
x,y,z
-x,-y,1/2+z
1/2-x,1/2+y,1/2+z
1/2+x,1/2-y,z
loop_
_atom_site_type_symbol
_atom_site_label
_atom_site_fract_x
_atom_site_fract_y
_atom_site_fract_z
Si Si1 0.444822 0.914604 0.480770
Si Si2 0.888872 0.748370 0.006825
Si Si3 0.505114 0.086083 0.322081
Si Si4 0.250000 0.156917 0.253598
Si Si5 0.388872 0.251630 0.000371
Si Si6 0.494886 0.413917 0.185115
Si Si7 0.750000 0.646661 0.253598
Si Si8 0.444822 0.414604 0.526426
O O1 0.415859 0.924981 0.664481
O O2 0.521268 0.826485 0.453810
O O3 0.320522 0.911969 0.382207
O O4 0.523914 0.999422 0.427664
O O5 0.775247 0.781990 0.904773
O O6 0.959233 0.674973 0.909046
O O7 0.845616 0.708680 0.168505
O O8 0.978731 0.826485 0.053386
O O9 0.364298 0.094032 0.279468
O O10 0.135702 0.094032 0.227727
O O11 0.275247 0.218010 0.102422
O O12 0.345616 0.291320 0.838690
O O13 0.459233 0.325027 0.098149
O O14 0.415859 0.424981 0.342715
O O15 0.476086 0.500578 0.079532
O O16 0.679478 0.588031 0.124989
#
# Coordination Sequence:
#
# PCOD8171091 Si02
#       8
#     4   4   4   4   4   4   4   4
#     4  11  24  41  64  92 126 165 208 258 310 370
#     4  11  23  42  64  92 125 163 207 258 310 369
#     4  11  23  42  65  93 127 162 206 259 315 372
#     4  10  21  42  65  88 122 166 203 256 319 368
#     4  11  23  42  64  92 125 163 207 258 310 369
#     4  11  23  42  65  93 127 162 206 259 315 372
#     4  12  23  40  63  92 126 168 209 252 305 370
#     4  11  24  41  64  92 126 165 208 258 310 370
#
# _framework density 22.266780000000001
#
# number of rings (size 3 to 8) (size 9 to 14) (size 15 to 20)
#    0.000    1.000    0.000    9.000    0.000    4.000 
#    0.000    1.250    0.000    0.000    0.000    0.000 
#    0.000    0.000    0.000    0.000    0.000    0.000 
#
# Total GULP energy -396916.096100 kJ/mol
# GULP energy per Si atom -12403.628003 kJ/mol
# Density = 2.221610 g / cm^3
# Si number density = 22.266780 Si / 1000 Ang^3
#
#
#
# Elastic Constant Matrix: (Units=GPa)
#
#
# Indices 1 2 3 4 5 6 
#
# 1 72.7214 26.9311 44.4801 0.0000 0.0000 0.0000
# 2 26.9311 134.4646 46.0989 0.0000 0.0000 0.0000
# 3 44.4801 46.0989 104.4189 0.0000 0.0000 0.0000
# 4 0.0000 0.0000 0.0000 21.7256 0.0000 0.0000
# 5 0.0000 0.0000 0.0000 0.0000 44.9013 0.0000
# 6 0.0000 0.0000 0.0000 0.0000 0.0000 -1.6870
#
#
#
# Elastic Compliance Matrix: (Units=1/GPa)
#
#
# Indices 1 2 3 4 5 6 
#
# 1 0.018759 -0.001199 -0.007462 0.000000 0.000000 0.000000
# 2 -0.001199 0.008840 -0.003392 0.000000 0.000000 0.000000
# 3 -0.007462 -0.003392 0.014253 0.000000 0.000000 0.000000
# 4 0.000000 0.000000 0.000000 0.046029 0.000000 0.000000
# 5 0.000000 0.000000 0.000000 0.000000 0.022271 0.000000
# 6 0.000000 0.000000 0.000000 0.000000 0.000000 -0.592756
#
#
# Mechanical properties :
#
#
# Convention : Reuss Voigt Hill
#
# Bulk Modulus (GPa) = 56.34865 60.73612 58.54238
# Shear Modulus (GPa) = -11.04768 25.92762 7.43997
#
# Velocity S-wave (km/s) = -2.22986 3.41604 1.82990
# Velocity P-wave (km/s) = 4.32798 6.54942 5.55096
#
# Compressibility (1/GPa) = 0.01774666
#
# Stress axis : x y z
#
# Youngs Moduli (GPa) = 53.30760 113.12342 70.16207
#
# Poissons Ratio (x) = 0.13564 0.52352
# Poissons Ratio (y) = 0.06392 0.23798
# Poissons Ratio (z) = 0.39776 0.38370
#
# Static dielectric constant tensor:
#      x y z
#    x 5.776830 0.000000 0.000000 
#    y 0.000000 4.019170 0.000000 
#    z 0.000000 0.000000 4.232010 
# 
# 
# High freq. dielectric constant tensor:
#      x y z
#    x 1.864470 0.000000 0.000000 
#    y 0.000000 1.889220 0.000000 
#    z 0.000000 0.000000 1.889920 
# 
# From -- ./inp_files/3912.got.cif
#   From: 2010.03.12/outbox.cif.g09.slc.cpg/sg33_2_cif.got.tgz:3912.got - 2010.04.14 01:49:19.
