data_PCOD8171094
_publ_section_title
;
Structure prediction by ZEFSAII (Michael W. Deem and Ramdas Pophale) SiO2 
 PCOD8171094
Probable space group: P N A 21
;
_chemical_formula_sum "Si O2"
_cell_formula_units_Z 32
_cell_length_a 13.467456
_cell_length_b 12.100679
_cell_length_c 8.417423
_cell_angle_alpha 90.000000
_cell_angle_beta 90.000000
_cell_angle_gamma 90.000000
_cell_volume 1371.748386
_symmetry_space_group_name_H-M "P N A 21"
_symmetry_group_IT_number 33
_symmetry_cell_setting 'orthorhombic'
loop_
_space_group_symop_operation_xyz
x,y,z
-x,-y,1/2+z
1/2-x,1/2+y,1/2+z
1/2+x,1/2-y,z
loop_
_atom_site_type_symbol
_atom_site_label
_atom_site_fract_x
_atom_site_fract_y
_atom_site_fract_z
Si Si1 0.087746 0.602632 0.655400
Si Si2 0.794598 0.378401 0.655765
Si Si3 0.498547 0.328150 0.106758
Si Si4 0.489975 0.094953 0.502180
Si Si5 0.521024 0.335213 0.459999
Si Si6 0.332175 0.474471 0.954922
Si Si7 0.177184 0.869318 0.118156
Si Si8 0.783834 0.908772 0.500040
O O1 0.013307 0.696543 0.590178
O O2 0.203246 0.636478 0.628468
O O3 0.069071 0.498606 0.540727
O O4 0.072225 0.574072 0.840150
O O5 0.913426 0.395439 0.650728
O O6 0.758883 0.492046 0.568468
O O7 0.777294 0.252728 0.585912
O O8 0.747984 0.365996 0.828625
O O9 0.473486 0.358726 0.288007
O O10 0.607760 0.363143 0.048135
O O11 0.412308 0.386191 0.009382
O O12 0.551766 0.207804 0.483022
O O13 0.620871 0.403588 0.462143
O O14 0.442801 0.368869 0.597073
O O15 0.295025 0.427352 0.786819
O O16 0.218369 0.957518 0.991155
#
# Coordination Sequence:
#
# PCOD8171094 Si02
#       8
#     4   4   4   4   4   4   4   4
#     4  11  25  45  70  99 143 187 235 295 361 427
#     4  11  27  44  68 108 143 191 235 299 359 436
#     4  11  25  43  70 102 136 186 234 301 356 433
#     4  10  24  46  66 100 141 184 234 287 361 426
#     4  10  21  42  66  99 136 180 228 293 357 417
#     4  12  22  42  71 103 140 181 238 293 358 426
#     4  11  24  44  72 104 144 185 242 295 364 430
#     4  12  24  44  69 101 137 184 242 289 356 427
#
# _framework density 23.327895000000002
#
# number of rings (size 3 to 8) (size 9 to 14) (size 15 to 20)
#    0.000    1.000    2.500    3.000    3.500    4.000 
#    0.000    1.250    0.000    0.000    0.000    0.000 
#    0.000    0.000    0.000    0.000    0.000    0.000 
#
# Total GULP energy -396475.721368 kJ/mol
# GULP energy per Si atom -12389.866293 kJ/mol
# Density = 2.327480 g / cm^3
# Si number density = 23.327895 Si / 1000 Ang^3
#
#
#
# Elastic Constant Matrix: (Units=GPa)
#
#
# Indices 1 2 3 4 5 6 
#
# 1 70.0750 27.4189 14.4314 0.0000 0.0000 0.0000
# 2 27.4189 100.0046 31.1377 0.0000 0.0000 0.0000
# 3 14.4314 31.1377 64.4114 0.0000 0.0000 0.0000
# 4 0.0000 0.0000 0.0000 39.6745 0.0000 0.0000
# 5 0.0000 0.0000 0.0000 0.0000 31.9262 0.0000
# 6 0.0000 0.0000 0.0000 0.0000 0.0000 31.7824
#
#
#
# Elastic Compliance Matrix: (Units=1/GPa)
#
#
# Indices 1 2 3 4 5 6 
#
# 1 0.016149 -0.003886 -0.001740 0.000000 0.000000 0.000000
# 2 -0.003886 0.012706 -0.005272 0.000000 0.000000 0.000000
# 3 -0.001740 -0.005272 0.018463 0.000000 0.000000 0.000000
# 4 0.000000 0.000000 0.000000 0.025205 0.000000 0.000000
# 5 0.000000 0.000000 0.000000 0.000000 0.031322 0.000000
# 6 0.000000 0.000000 0.000000 0.000000 0.000000 0.031464
#
#
# Mechanical properties :
#
#
# Convention : Reuss Voigt Hill
#
# Bulk Modulus (GPa) = 39.17880 42.27411 40.72645
# Shear Modulus (GPa) = 30.19074 31.44348 30.81711
#
# Velocity S-wave (km/s) = 3.60139 3.67535 3.63856
# Velocity P-wave (km/s) = 5.84163 6.01431 5.92860
#
# Compressibility (1/GPa) = 0.02552401
#
# Stress axis : x y z
#
# Youngs Moduli (GPa) = 61.92249 78.70008 54.16100
#
# Poissons Ratio (x) = 0.30583 0.09422
# Poissons Ratio (y) = 0.24064 0.28553
# Poissons Ratio (z) = 0.10772 0.41490
#
# Static dielectric constant tensor:
#      x y z
#    x 4.303420 0.000000 0.000000 
#    y 0.000000 4.412340 0.000000 
#    z 0.000000 0.000000 4.143460 
# 
# 
# High freq. dielectric constant tensor:
#      x y z
#    x 1.917050 0.000000 0.000000 
#    y 0.000000 1.936060 0.000000 
#    z 0.000000 0.000000 1.915000 
# 
# From -- ./inp_files/4437.got.cif
#   From: 2010.03.12/outbox.cif.g09.slc.cpg/sg33_3_cif.got.tgz:4437.got - 2010.04.14 01:49:19.
