data_PCOD8171601
_publ_section_title
;
Structure prediction by ZEFSAII (Michael W. Deem and Ramdas Pophale) SiO2 
 PCOD8171601
Probable space group: P N A 21
;
_chemical_formula_sum "Si O2"
_cell_formula_units_Z 32
_cell_length_a 12.187508
_cell_length_b 5.274092
_cell_length_c 21.715995
_cell_angle_alpha 90.000000
_cell_angle_beta 90.000000
_cell_angle_gamma 90.000000
_cell_volume 1395.861561
_symmetry_space_group_name_H-M "P N A 21"
_symmetry_group_IT_number 33
_symmetry_cell_setting 'orthorhombic'
loop_
_space_group_symop_operation_xyz
x,y,z
-x,-y,1/2+z
1/2-x,1/2+y,1/2+z
1/2+x,1/2-y,z
loop_
_atom_site_type_symbol
_atom_site_label
_atom_site_fract_x
_atom_site_fract_y
_atom_site_fract_z
Si Si1 0.769513 0.678495 0.316250
Si Si2 0.942981 0.940758 0.839935
Si Si3 0.916657 0.765664 0.426784
Si Si4 0.868391 0.184294 0.258493
Si Si5 0.286745 0.535070 0.532350
Si Si6 0.401646 0.865752 0.947388
Si Si7 0.989286 0.217835 0.566977
Si Si8 0.399235 0.222098 0.116743
O O1 0.635635 0.674982 0.319647
O O2 0.818163 0.657723 0.385127
O O3 0.800949 0.413922 0.285897
O O4 0.809858 0.915970 0.275113
O O5 0.869269 0.750460 0.880848
O O6 0.004182 0.820606 0.780879
O O7 0.042607 0.992127 0.888036
O O8 0.876049 0.792174 0.497066
O O9 0.027597 0.609241 0.431940
O O10 0.868517 0.250342 0.187145
O O11 0.214718 0.420245 0.477886
O O12 0.356212 0.314222 0.567558
O O13 0.214793 0.697006 0.579592
O O14 0.470272 0.696727 0.996124
O O15 0.024618 0.477870 0.600933
O O16 0.040294 0.980336 0.601548
#
# Coordination Sequence:
#
# PCOD8171601 Si02
#       8
#     4   4   4   4   4   4   4   4
#     4  11  26  42  76 102 140 190 241 293 367 425
#     4  11  25  42  68 105 145 187 233 301 368 431
#     4  11  23  43  64 106 147 188 229 306 360 445
#     4  11  26  52  71 105 142 191 247 300 348 433
#     4  11  24  42  72 106 143 192 239 297 367 438
#     4  11  24  40  67 103 146 183 235 294 371 430
#     4  11  25  45  70 106 138 191 233 301 355 427
#     4  11  27  50  74 101 147 192 251 296 354 427
#
# _framework density 22.924907999999999
#
# number of rings (size 3 to 8) (size 9 to 14) (size 15 to 20)
#    0.000    1.000    2.500    3.000    8.750    4.000 
#    0.000    3.750    0.000    0.000    0.000    0.000 
#    0.000    0.000    0.000    0.000    0.000    0.000 
#
# Total GULP energy -396536.158950 kJ/mol
# GULP energy per Si atom -12391.754967 kJ/mol
# Density = 2.287273 g / cm^3
# Si number density = 22.924908 Si / 1000 Ang^3
#
#
#
# Elastic Constant Matrix: (Units=GPa)
#
#
# Indices 1 2 3 4 5 6 
#
# 1 103.4299 26.0973 49.3093 0.0000 0.0000 0.0000
# 2 26.0973 95.3529 29.1339 0.0000 0.0000 0.0000
# 3 49.3093 29.1339 125.1886 0.0000 0.0000 0.0000
# 4 0.0000 0.0000 0.0000 37.1274 0.0000 0.0000
# 5 0.0000 0.0000 0.0000 0.0000 28.3401 0.0000
# 6 0.0000 0.0000 0.0000 0.0000 0.0000 25.2353
#
#
#
# Elastic Compliance Matrix: (Units=1/GPa)
#
#
# Indices 1 2 3 4 5 6 
#
# 1 0.012256 -0.002023 -0.004356 0.000000 0.000000 0.000000
# 2 -0.002023 0.011624 -0.001908 0.000000 0.000000 0.000000
# 3 -0.004356 -0.001908 0.010148 0.000000 0.000000 0.000000
# 4 0.000000 0.000000 0.000000 0.026934 0.000000 0.000000
# 5 0.000000 0.000000 0.000000 0.000000 0.035286 0.000000
# 6 0.000000 0.000000 0.000000 0.000000 0.000000 0.039627
#
#
# Mechanical properties :
#
#
# Convention : Reuss Voigt Hill
#
# Bulk Modulus (GPa) = 57.30010 59.22803 58.26406
# Shear Modulus (GPa) = 31.59196 32.76930 32.18063
#
# Velocity S-wave (km/s) = 3.71625 3.78487 3.75072
# Velocity P-wave (km/s) = 6.59265 6.70761 6.65038
#
# Compressibility (1/GPa) = 0.01745198
#
# Stress axis : x y z
#
# Youngs Moduli (GPa) = 81.59414 86.02779 98.54200
#
# Poissons Ratio (x) = 0.17406 0.42929
# Poissons Ratio (y) = 0.16508 0.18804
# Poissons Ratio (z) = 0.35546 0.16416
#
# Static dielectric constant tensor:
#      x y z
#    x 4.397670 0.000000 0.000000 
#    y 0.000000 4.087900 0.000000 
#    z 0.000000 0.000000 4.505450 
# 
# 
# High freq. dielectric constant tensor:
#      x y z
#    x 1.918350 0.000000 0.000000 
#    y 0.000000 1.902180 0.000000 
#    z 0.000000 0.000000 1.904450 
# 
# From -- ./inp_files/9098.got.cif
#   From: 2010.03.12/outbox.cif.g09.slc.cpg/sg33_5_cif.got.tgz:9098.got - 2010.04.14 01:49:19.
