data_PCOD8171023
_publ_section_title
;
Structure prediction by ZEFSAII (Michael W. Deem and Ramdas Pophale) SiO2 
 PCOD8171023
Probable space group: P N A 21
;
_chemical_formula_sum "Si O2"
_cell_formula_units_Z 24
_cell_length_a 19.312009
_cell_length_b 11.684129
_cell_length_c 4.953013
_cell_angle_alpha 90.000000
_cell_angle_beta 90.000000
_cell_angle_gamma 90.000000
_cell_volume 1117.617687
_symmetry_space_group_name_H-M "P N A 21"
_symmetry_group_IT_number 33
_symmetry_cell_setting 'orthorhombic'
loop_
_space_group_symop_operation_xyz
x,y,z
-x,-y,1/2+z
1/2-x,1/2+y,1/2+z
1/2+x,1/2-y,z
loop_
_atom_site_type_symbol
_atom_site_label
_atom_site_fract_x
_atom_site_fract_y
_atom_site_fract_z
Si Si1 0.517685 0.817297 0.964930
Si Si2 0.973148 0.064961 0.660449
Si Si3 0.175427 0.872733 0.298185
Si Si4 0.660203 0.766976 0.800043
Si Si5 0.682446 0.009113 0.684502
Si Si6 0.410333 0.966780 0.682579
O O1 0.579148 0.795535 0.748612
O O2 0.452235 0.855725 0.785179
O O3 0.503244 0.698104 0.124694
O O4 0.539440 0.921298 0.168594
O O5 0.892954 0.050746 0.752047
O O6 0.978771 0.995473 0.381416
O O7 0.182747 0.837991 0.611093
O O8 0.245538 0.927500 0.197839
O O9 0.167023 0.759758 0.116405
O O10 0.704792 0.879257 0.747856
O O11 0.653229 0.013628 0.383842
O O12 0.624146 0.058264 0.890508
#
# Coordination Sequence:
#
# PCOD8171023 Si02
#       6
#     4   4   4   4   4   4
#     4  10  22  42  68  94 132 161 216 267 324 375
#     4  11  24  42  64  93 126 176 215 251 312 381
#     4  11  23  43  64  86 129 170 211 249 310 387
#     4  10  21  39  67  86 120 176 203 253 318 376
#     4  11  23  41  62  96 129 159 215 257 323 374
#     4  11  23  39  69 101 124 162 208 281 325 361
#
# _framework density 21.474249
#
# number of rings (size 3 to 8) (size 9 to 14) (size 15 to 20)
#    0.000    1.333    0.000    8.000    0.000    6.667 
#    9.000    0.000    0.000    0.000    0.000    0.000 
#    0.000    0.000    0.000    0.000    0.000    0.000 
#
# Total GULP energy -297548.253404 kJ/mol
# GULP energy per Si atom -12397.843892 kJ/mol
# Density = 2.142537 g / cm^3
# Si number density = 21.474249 Si / 1000 Ang^3
#
#
#
# Elastic Constant Matrix: (Units=GPa)
#
#
# Indices 1 2 3 4 5 6 
#
# 1 87.0682 35.2991 7.9367 0.0000 0.0000 0.0000
# 2 35.2991 96.0380 19.6401 0.0000 0.0000 0.0000
# 3 7.9367 19.6401 81.8001 0.0000 0.0000 0.0000
# 4 0.0000 0.0000 0.0000 28.7623 0.0000 0.0000
# 5 0.0000 0.0000 0.0000 0.0000 27.1552 0.0000
# 6 0.0000 0.0000 0.0000 0.0000 0.0000 24.5518
#
#
#
# Elastic Compliance Matrix: (Units=1/GPa)
#
#
# Indices 1 2 3 4 5 6 
#
# 1 0.013498 -0.004936 -0.000125 0.000000 0.000000 0.000000
# 2 -0.004936 0.012755 -0.002584 0.000000 0.000000 0.000000
# 3 -0.000125 -0.002584 0.012857 0.000000 0.000000 0.000000
# 4 0.000000 0.000000 0.000000 0.034768 0.000000 0.000000
# 5 0.000000 0.000000 0.000000 0.000000 0.036825 0.000000
# 6 0.000000 0.000000 0.000000 0.000000 0.000000 0.040730
#
#
# Mechanical properties :
#
#
# Convention : Reuss Voigt Hill
#
# Bulk Modulus (GPa) = 41.97733 43.40646 42.69190
# Shear Modulus (GPa) = 28.62679 29.56255 29.09467
#
# Velocity S-wave (km/s) = 3.65509 3.71435 3.68484
# Velocity P-wave (km/s) = 6.11581 6.21710 6.16666
#
# Compressibility (1/GPa) = 0.02382238
#
# Stress axis : x y z
#
# Youngs Moduli (GPa) = 74.08722 78.40063 77.77663
#
# Poissons Ratio (x) = 0.38696 0.00969
# Poissons Ratio (y) = 0.36567 0.20094
# Poissons Ratio (z) = 0.00923 0.20255
#
# Static dielectric constant tensor:
#      x y z
#    x 3.817540 0.000000 0.000000 
#    y 0.000000 3.924130 0.000000 
#    z 0.000000 0.000000 3.916040 
# 
# 
# High freq. dielectric constant tensor:
#      x y z
#    x 1.832120 0.000000 0.000000 
#    y 0.000000 1.833100 0.000000 
#    z 0.000000 0.000000 1.856500 
# 
# From -- ./inp_files/1961.got.cif
#   From: 2010.03.12/outbox.cif.g09.slc.cpg/sg33_1_cif.got.tgz:1961.got - 2010.04.14 01:49:19.
