data_PCOD8171872
_publ_section_title
;
Structure prediction by ZEFSAII (Michael W. Deem and Ramdas Pophale) SiO2 
 PCOD8171872
Probable space group: P N N 2
;
_chemical_formula_sum "Si O2"
_cell_formula_units_Z 32
_cell_length_a 14.266197
_cell_length_b 17.712583
_cell_length_c 6.798879
_cell_angle_alpha 90.000000
_cell_angle_beta 90.000000
_cell_angle_gamma 90.000000
_cell_volume 1718.016883
_symmetry_space_group_name_H-M "P N N 2"
_symmetry_group_IT_number 34
_symmetry_cell_setting 'orthorhombic'
loop_
_space_group_symop_operation_xyz
x,y,z
-x,-y,z
1/2-x,1/2+y,1/2+z
1/2+x,1/2-y,1/2+z
loop_
_atom_site_type_symbol
_atom_site_label
_atom_site_fract_x
_atom_site_fract_y
_atom_site_fract_z
Si Si1 0.979174 0.656312 0.954520
Si Si2 0.341682 0.061837 0.428739
Si Si3 0.848052 0.581534 0.680024
Si Si4 0.403791 0.960998 0.760678
Si Si5 0.512432 0.330660 0.522233
Si Si6 0.362935 0.581828 0.793331
Si Si7 0.361013 0.409599 0.782453
Si Si8 0.010906 0.914934 0.626180
O O1 0.086090 0.630626 0.926329
O O2 0.923959 0.643938 0.748382
O O3 0.926045 0.608290 0.118876
O O4 0.977768 0.741479 0.025199
O O5 0.242353 0.096330 0.366152
O O6 0.375137 0.999374 0.272096
O O7 0.339265 0.022047 0.644323
O O8 0.847096 0.571741 0.445336
O O9 0.747366 0.610945 0.755300
O O10 0.500000 0.000000 0.831874
O O11 0.608870 0.365445 0.609197
O O12 0.422777 0.354837 0.649188
O O13 0.495772 0.356115 0.300497
O O14 0.378790 0.496329 0.719398
O O15 0.429044 0.603257 0.973426
O O16 0.389893 0.402723 0.012709
O O17 0.000000 0.000000 0.707843
#
# Coordination Sequence:
#
# PCOD8171872 Si02
#       8
#     4   4   4   4   4   4   4   4
#     4  10  22  37  51  83 120 147 181 233 290 353
#     4   9  19  37  57  84 111 142 194 244 279 327
#     4  10  19  36  61  83 108 145 195 240 283 334
#     4   9  18  35  61  81 107 148 191 235 288 333
#     4  11  21  36  53  81 115 155 181 221 299 347
#     4   9  19  36  58  81 111 143 193 243 269 328
#     4   9  20  36  56  82 107 141 194 243 270 325
#     4   9  18  35  57  79 106 145 190 230 270 326
#
# _framework density 18.626125999999999
#
# number of rings (size 3 to 8) (size 9 to 14) (size 15 to 20)
#    0.000    2.500    0.000    3.750    0.000    8.000 
#    6.750    0.000    0.000    0.000    0.000    0.000 
#    0.000    0.000    0.000    0.000    0.000    0.000 
#
# Total GULP energy -396790.824905 kJ/mol
# GULP energy per Si atom -12399.713278 kJ/mol
# Density = 1.858373 g / cm^3
# Si number density = 18.626126 Si / 1000 Ang^3
#
#
#
# Elastic Constant Matrix: (Units=GPa)
#
#
# Indices 1 2 3 4 5 6 
#
# 1 118.9209 50.1553 49.3488 0.0000 0.0000 0.0000
# 2 50.1553 100.4978 33.7519 0.0000 0.0000 0.0000
# 3 49.3488 33.7519 94.8239 0.0000 0.0000 0.0000
# 4 0.0000 0.0000 0.0000 16.6255 0.0000 0.0000
# 5 0.0000 0.0000 0.0000 0.0000 26.2279 0.0000
# 6 0.0000 0.0000 0.0000 0.0000 0.0000 19.9940
#
#
#
# Elastic Compliance Matrix: (Units=1/GPa)
#
#
# Indices 1 2 3 4 5 6 
#
# 1 0.012310 -0.004534 -0.004793 0.000000 0.000000 0.000000
# 2 -0.004534 0.012971 -0.002257 0.000000 0.000000 0.000000
# 3 -0.004793 -0.002257 0.013844 0.000000 0.000000 0.000000
# 4 0.000000 0.000000 0.000000 0.060149 0.000000 0.000000
# 5 0.000000 0.000000 0.000000 0.000000 0.038127 0.000000
# 6 0.000000 0.000000 0.000000 0.000000 0.000000 0.050015
#
#
# Mechanical properties :
#
#
# Convention : Reuss Voigt Hill
#
# Bulk Modulus (GPa) = 62.66888 64.52828 63.59858
# Shear Modulus (GPa) = 23.15858 24.63526 23.89692
#
# Velocity S-wave (km/s) = 3.52993 3.64073 3.58575
# Velocity P-wave (km/s) = 7.09454 7.23826 7.16676
#
# Compressibility (1/GPa) = 0.01595688
#
# Stress axis : x y z
#
# Youngs Moduli (GPa) = 81.23517 77.09277 72.23561
#
# Poissons Ratio (x) = 0.34953 0.34620
# Poissons Ratio (y) = 0.36831 0.16307
# Poissons Ratio (z) = 0.38933 0.17404
#
# Static dielectric constant tensor:
#      x y z
#    x 3.506630 0.000000 0.000000 
#    y 0.000000 3.169900 0.000000 
#    z 0.000000 0.000000 3.426320 
# 
# 
# High freq. dielectric constant tensor:
#      x y z
#    x 1.726030 0.000000 0.000000 
#    y 0.000000 1.697760 0.000000 
#    z 0.000000 0.000000 1.723770 
# 
# From -- ./inp_files/1328.got.cif
#   From: 2010.03.12/outbox.cif.g09.slc.cpg/sg34_1_cif.got.tgz:1328.got - 2010.04.14 01:56:33.
