data_PCOD8171722
_publ_section_title
;
Structure prediction by ZEFSAII (Michael W. Deem and Ramdas Pophale) SiO2 
 PCOD8171722
Probable space group: P N A 21
;
_chemical_formula_sum "Si O2"
_cell_formula_units_Z 16
_cell_length_a 8.992196
_cell_length_b 12.399902
_cell_length_c 5.372781
_cell_angle_alpha 90.000000
_cell_angle_beta 90.000000
_cell_angle_gamma 90.000000
_cell_volume 599.077703
_symmetry_space_group_name_H-M "P N A 21"
_symmetry_group_IT_number 33
_symmetry_cell_setting 'orthorhombic'
loop_
_space_group_symop_operation_xyz
x,y,z
-x,-y,1/2+z
1/2-x,1/2+y,1/2+z
1/2+x,1/2-y,z
loop_
_atom_site_type_symbol
_atom_site_label
_atom_site_fract_x
_atom_site_fract_y
_atom_site_fract_z
Si Si1 0.908908 0.479735 0.407450
Si Si2 0.834994 0.088763 0.638876
Si Si3 0.320838 0.249870 0.257561
Si Si4 0.079063 0.146387 0.979167
O O1 0.771022 0.563240 0.375718
O O2 0.845361 0.359356 0.413719
O O3 0.984632 0.507390 0.667653
O O4 0.743246 0.165135 0.447446
O O5 0.876140 0.977319 0.507369
O O6 0.985945 0.152104 0.722944
O O7 0.226016 0.222264 0.005560
O O8 0.475143 0.308582 0.197922
#
# Coordination Sequence:
#
# PCOD8171722 Si02
#       4
#     4   4   4   4
#     4  11  28  49  76 117 161 203 269 333 391 483
#     4  11  25  47  78 111 159 205 266 327 404 468
#     4  11  26  46  75 114 148 212 259 320 409 467
#     4  11  25  46  77 108 156 202 262 326 394 478
#
# _framework density 26.707723999999999
#
# number of rings (size 3 to 8) (size 9 to 14) (size 15 to 20)
#    0.000    1.000    2.500    1.500   10.500    2.000 
#    0.000    0.000    0.000    0.000    0.000    0.000 
#    0.000    0.000    0.000    0.000    0.000    0.000 
#
# Total GULP energy -198312.933111 kJ/mol
# GULP energy per Si atom -12394.558319 kJ/mol
# Density = 2.664694 g / cm^3
# Si number density = 26.707724 Si / 1000 Ang^3
#
#
#
# Elastic Constant Matrix: (Units=GPa)
#
#
# Indices 1 2 3 4 5 6 
#
# 1 98.1985 44.6625 15.6010 0.0000 0.0000 0.0000
# 2 44.6625 173.9927 35.6271 0.0000 0.0000 0.0000
# 3 15.6010 35.6271 73.0624 0.0000 0.0000 0.0000
# 4 0.0000 0.0000 0.0000 35.6562 0.0000 0.0000
# 5 0.0000 0.0000 0.0000 0.0000 51.4427 0.0000
# 6 0.0000 0.0000 0.0000 0.0000 0.0000 21.2520
#
#
#
# Elastic Compliance Matrix: (Units=1/GPa)
#
#
# Indices 1 2 3 4 5 6 
#
# 1 0.011614 -0.002748 -0.001140 0.000000 0.000000 0.000000
# 2 -0.002748 0.007035 -0.002844 0.000000 0.000000 0.000000
# 3 -0.001140 -0.002844 0.015317 0.000000 0.000000 0.000000
# 4 0.000000 0.000000 0.000000 0.028046 0.000000 0.000000
# 5 0.000000 0.000000 0.000000 0.000000 0.019439 0.000000
# 6 0.000000 0.000000 0.000000 0.000000 0.000000 0.047054
#
#
# Mechanical properties :
#
#
# Convention : Reuss Voigt Hill
#
# Bulk Modulus (GPa) = 48.77307 59.67051 54.22179
# Shear Modulus (GPa) = 33.60146 38.29440 35.94793
#
# Velocity S-wave (km/s) = 3.55084 3.79071 3.67273
# Velocity P-wave (km/s) = 5.92560 6.44591 6.19123
#
# Compressibility (1/GPa) = 0.02050312
#
# Stress axis : x y z
#
# Youngs Moduli (GPa) = 86.10029 142.14640 65.28683
#
# Poissons Ratio (x) = 0.39060 0.07443
# Poissons Ratio (y) = 0.23659 0.18566
# Poissons Ratio (z) = 0.09816 0.40422
#
# Static dielectric constant tensor:
#      x y z
#    x 5.188130 0.000000 0.000000 
#    y 0.000000 5.067230 0.000000 
#    z 0.000000 0.000000 4.362250 
# 
# 
# High freq. dielectric constant tensor:
#      x y z
#    x 2.072350 0.000000 0.000000 
#    y 0.000000 2.097040 0.000000 
#    z 0.000000 0.000000 2.057680 
# 
# From -- ./inp_files/256.got.cif
#   From: 2010.03.12/outbox.cif.g09.slc.cpg/sg33_1_cif.got.tgz:256.got - 2010.04.14 01:49:19.
