data_PCOD8171511
_publ_section_title
;
Structure prediction by ZEFSAII (Michael W. Deem and Ramdas Pophale) SiO2 
 PCOD8171511
Probable space group: P N A 21
;
_chemical_formula_sum "Si O2"
_cell_formula_units_Z 32
_cell_length_a 28.851131
_cell_length_b 8.129951
_cell_length_c 6.471890
_cell_angle_alpha 90.000000
_cell_angle_beta 90.000000
_cell_angle_gamma 90.000000
_cell_volume 1518.035395
_symmetry_space_group_name_H-M "P N A 21"
_symmetry_group_IT_number 33
_symmetry_cell_setting 'orthorhombic'
loop_
_space_group_symop_operation_xyz
x,y,z
-x,-y,1/2+z
1/2-x,1/2+y,1/2+z
1/2+x,1/2-y,z
loop_
_atom_site_type_symbol
_atom_site_label
_atom_site_fract_x
_atom_site_fract_y
_atom_site_fract_z
Si Si1 0.462459 0.633792 0.476030
Si Si2 0.637767 0.842525 0.141885
Si Si3 0.838296 0.106504 0.299829
Si Si4 0.404533 0.625198 0.097224
Si Si5 0.290421 0.592957 0.606667
Si Si6 0.881060 0.710231 0.716476
Si Si7 0.557566 0.633197 0.296238
Si Si8 0.786043 0.184191 0.906630
O O1 0.450240 0.649795 0.232395
O O2 0.430951 0.758296 0.608281
O O3 0.516604 0.685055 0.456174
O O4 0.459432 0.451469 0.579765
O O5 0.590966 0.788097 0.260094
O O6 0.687662 0.796711 0.240085
O O7 0.636999 0.037841 0.130179
O O8 0.635510 0.755157 0.917181
O O9 0.869455 0.943123 0.270455
O O10 0.793939 0.044893 0.428515
O O11 0.825260 0.165980 0.076097
O O12 0.387356 0.787825 0.969260
O O13 0.410682 0.500147 0.908806
O O14 0.341669 0.657226 0.659309
O O15 0.257646 0.735132 0.520752
O O16 0.270747 0.492671 0.807378
#
# Coordination Sequence:
#
# PCOD8171511 Si02
#       8
#     4   4   4   4   4   4   4   4
#     4  11  21  39  66  94 119 169 216 261 315 381
#     4  11  25  43  61  96 132 167 213 266 324 387
#     4  11  21  43  68  85 125 169 209 261 314 380
#     4  11  19  41  67  87 121 168 214 257 317 376
#     4  11  25  41  64  94 124 162 217 258 317 391
#     4  11  25  42  60  93 135 166 210 266 323 385
#     4  11  21  39  67  94 122 162 221 262 311 387
#     4  11  25  42  65  95 124 167 212 265 317 385
#
# _framework density 21.079878000000001
#
# number of rings (size 3 to 8) (size 9 to 14) (size 15 to 20)
#    0.000    1.000    6.250    1.500    3.500    3.000 
#    2.250    0.000    0.000    0.000    0.000    0.000 
#    0.000    0.000    0.000    0.000    0.000    0.000 
#
# Total GULP energy -396456.082935 kJ/mol
# GULP energy per Si atom -12389.252592 kJ/mol
# Density = 2.103190 g / cm^3
# Si number density = 21.079878 Si / 1000 Ang^3
#
#
#
# Elastic Constant Matrix: (Units=GPa)
#
#
# Indices 1 2 3 4 5 6 
#
# 1 92.7274 22.2639 29.6270 0.0000 0.0000 0.0000
# 2 22.2639 86.3816 35.9143 0.0000 0.0000 0.0000
# 3 29.6270 35.9143 109.2884 0.0000 0.0000 0.0000
# 4 0.0000 0.0000 0.0000 25.7485 0.0000 0.0000
# 5 0.0000 0.0000 0.0000 0.0000 28.9970 0.0000
# 6 0.0000 0.0000 0.0000 0.0000 0.0000 21.7487
#
#
#
# Elastic Compliance Matrix: (Units=1/GPa)
#
#
# Indices 1 2 3 4 5 6 
#
# 1 0.012108 -0.002034 -0.002614 0.000000 0.000000 0.000000
# 2 -0.002034 0.013750 -0.003967 0.000000 0.000000 0.000000
# 3 -0.002614 -0.003967 0.011162 0.000000 0.000000 0.000000
# 4 0.000000 0.000000 0.000000 0.038837 0.000000 0.000000
# 5 0.000000 0.000000 0.000000 0.000000 0.034486 0.000000
# 6 0.000000 0.000000 0.000000 0.000000 0.000000 0.045980
#
#
# Mechanical properties :
#
#
# Convention : Reuss Voigt Hill
#
# Bulk Modulus (GPa) = 50.52968 51.55643 51.04306
# Shear Modulus (GPa) = 27.75459 28.67167 28.21313
#
# Velocity S-wave (km/s) = 3.63249 3.69201 3.66237
# Velocity P-wave (km/s) = 6.45104 6.53340 6.49235
#
# Compressibility (1/GPa) = 0.01979035
#
# Stress axis : x y z
#
# Youngs Moduli (GPa) = 82.59141 72.72638 89.58632
#
# Poissons Ratio (x) = 0.14792 0.23417
# Poissons Ratio (y) = 0.16798 0.35541
# Poissons Ratio (z) = 0.21589 0.28852
#
# Static dielectric constant tensor:
#      x y z
#    x 3.877330 0.000000 0.000000 
#    y 0.000000 3.578510 0.000000 
#    z 0.000000 0.000000 4.010110 
# 
# 
# High freq. dielectric constant tensor:
#      x y z
#    x 1.826780 0.000000 0.000000 
#    y 0.000000 1.791660 0.000000 
#    z 0.000000 0.000000 1.841950 
# 
# From -- ./inp_files/2522.got.cif
#   From: 2010.03.12/outbox.cif.g09.slc.cpg/sg33_2_cif.got.tgz:2522.got - 2010.04.14 01:49:19.
