data_PCOD8171040
_publ_section_title
;
Structure prediction by ZEFSAII (Michael W. Deem and Ramdas Pophale) SiO2 
 PCOD8171040
Probable space group: P N A 21
;
_chemical_formula_sum "Si O2"
_cell_formula_units_Z 32
_cell_length_a 15.150052
_cell_length_b 16.157331
_cell_length_c 6.527314
_cell_angle_alpha 90.000000
_cell_angle_beta 90.000000
_cell_angle_gamma 90.000000
_cell_volume 1597.784673
_symmetry_space_group_name_H-M "P N A 21"
_symmetry_group_IT_number 33
_symmetry_cell_setting 'orthorhombic'
loop_
_space_group_symop_operation_xyz
x,y,z
-x,-y,1/2+z
1/2-x,1/2+y,1/2+z
1/2+x,1/2-y,z
loop_
_atom_site_type_symbol
_atom_site_label
_atom_site_fract_x
_atom_site_fract_y
_atom_site_fract_z
Si Si1 0.679583 0.003329 0.808360
Si Si2 0.377844 0.660370 0.307430
Si Si3 0.306612 0.126773 0.647515
Si Si4 0.950373 0.280965 0.411511
Si Si5 0.372249 0.536096 0.655009
Si Si6 0.505669 0.597394 0.989361
Si Si7 0.418678 0.115592 0.030721
Si Si8 0.073880 0.342948 0.756117
O O1 0.661270 0.100940 0.780190
O O2 0.776944 0.990203 0.728514
O O3 0.602019 0.962939 0.671402
O O4 0.675765 0.962539 0.036846
O O5 0.296552 0.650643 0.147461
O O6 0.359095 0.619144 0.524814
O O7 0.462179 0.615548 0.208839
O O8 0.399702 0.755620 0.353847
O O9 0.359690 0.198410 0.529560
O O10 0.334346 0.127832 0.884891
O O11 0.939869 0.307094 0.176517
O O12 0.961326 0.183099 0.394232
O O13 0.033475 0.325894 0.527905
O O14 0.410708 0.462256 0.516335
O O15 0.436059 0.552701 0.843822
O O16 0.503274 0.104481 0.887234
#
# Coordination Sequence:
#
# PCOD8171040 Si02
#       8
#     4   4   4   4   4   4   4   4
#     4  11  24  38  64  96 126 164 209 262 319 381
#     4  11  22  43  61  91 127 166 210 268 318 374
#     4  10  21  40  64  91 127 161 207 264 319 377
#     4   9  22  41  63  92 123 167 209 260 317 378
#     4  12  23  41  65  93 124 171 211 265 324 377
#     4  11  23  41  66  89 127 164 217 262 315 385
#     4  10  21  41  63  91 125 165 205 258 322 376
#     4  10  24  39  64  91 125 168 212 257 316 388
#
# _framework density 20.027730999999999
#
# number of rings (size 3 to 8) (size 9 to 14) (size 15 to 20)
#    0.000    1.500    3.750    0.750    7.000    0.000 
#    0.000    1.250    0.000    0.000    0.000    0.000 
#    0.000    0.000    0.000    0.000    0.000    0.000 
#
# Total GULP energy -396714.015092 kJ/mol
# GULP energy per Si atom -12397.312972 kJ/mol
# Density = 1.998215 g / cm^3
# Si number density = 20.027731 Si / 1000 Ang^3
#
#
#
# Elastic Constant Matrix: (Units=GPa)
#
#
# Indices 1 2 3 4 5 6 
#
# 1 84.9709 59.6497 36.2603 0.0000 0.0000 0.0000
# 2 59.6497 121.6446 41.0519 0.0000 0.0000 0.0000
# 3 36.2603 41.0519 93.9505 0.0000 0.0000 0.0000
# 4 0.0000 0.0000 0.0000 25.2726 0.0000 0.0000
# 5 0.0000 0.0000 0.0000 0.0000 30.4189 0.0000
# 6 0.0000 0.0000 0.0000 0.0000 0.0000 26.6077
#
#
#
# Elastic Compliance Matrix: (Units=1/GPa)
#
#
# Indices 1 2 3 4 5 6 
#
# 1 0.019058 -0.008050 -0.003838 0.000000 0.000000 0.000000
# 2 -0.008050 0.013043 -0.002592 0.000000 0.000000 0.000000
# 3 -0.003838 -0.002592 0.013258 0.000000 0.000000 0.000000
# 4 0.000000 0.000000 0.000000 0.039569 0.000000 0.000000
# 5 0.000000 0.000000 0.000000 0.000000 0.032874 0.000000
# 6 0.000000 0.000000 0.000000 0.000000 0.000000 0.037583
#
#
# Mechanical properties :
#
#
# Convention : Reuss Voigt Hill
#
# Bulk Modulus (GPa) = 60.98224 63.83220 62.40722
# Shear Modulus (GPa) = 26.34211 27.36677 26.85444
#
# Velocity S-wave (km/s) = 3.63062 3.70055 3.66575
# Velocity P-wave (km/s) = 6.93471 7.08519 7.01035
#
# Compressibility (1/GPa) = 0.01639822
#
# Stress axis : x y z
#
# Youngs Moduli (GPa) = 52.47269 76.67043 75.42724
#
# Poissons Ratio (x) = 0.61719 0.28948
# Poissons Ratio (y) = 0.42240 0.19553
# Poissons Ratio (z) = 0.20138 0.19875
#
# Static dielectric constant tensor:
#      x y z
#    x 3.699460 0.000000 0.000000 
#    y 0.000000 3.602510 0.000000 
#    z 0.000000 0.000000 3.681110 
# 
# 
# High freq. dielectric constant tensor:
#      x y z
#    x 1.787040 0.000000 0.000000 
#    y 0.000000 1.775810 0.000000 
#    z 0.000000 0.000000 1.782260 
# 
# From -- ./inp_files/1838.got.cif
#   From: 2010.03.12/outbox.cif.g09.slc.cpg/sg33_1_cif.got.tgz:1838.got - 2010.04.14 01:49:19.
