data_PCOD8171330
_publ_section_title
;
Structure prediction by ZEFSAII (Michael W. Deem and Ramdas Pophale) SiO2 
 PCOD8171330
Probable space group: P N A 21
;
_chemical_formula_sum "Si O2"
_cell_formula_units_Z 32
_cell_length_a 9.187374
_cell_length_b 15.602540
_cell_length_c 11.120721
_cell_angle_alpha 90.000000
_cell_angle_beta 90.000000
_cell_angle_gamma 90.000000
_cell_volume 1594.114991
_symmetry_space_group_name_H-M "P N A 21"
_symmetry_group_IT_number 33
_symmetry_cell_setting 'orthorhombic'
loop_
_space_group_symop_operation_xyz
x,y,z
-x,-y,1/2+z
1/2-x,1/2+y,1/2+z
1/2+x,1/2-y,z
loop_
_atom_site_type_symbol
_atom_site_label
_atom_site_fract_x
_atom_site_fract_y
_atom_site_fract_z
Si Si1 0.294015 0.222817 0.522520
Si Si2 0.818453 0.899355 0.829211
Si Si3 0.862575 0.557019 0.374601
Si Si4 0.425805 0.845097 0.147034
Si Si5 0.174132 0.329573 0.097197
Si Si6 0.337458 0.167371 0.101148
Si Si7 0.354080 0.992524 0.971640
Si Si8 0.149644 0.870441 0.836563
O O1 0.214283 0.143067 0.458451
O O2 0.413677 0.185410 0.612729
O O3 0.181403 0.270595 0.607324
O O4 0.358356 0.287702 0.423072
O O5 0.731293 0.845765 0.731302
O O6 0.988234 0.896167 0.797234
O O7 0.768842 0.998587 0.825907
O O8 0.903219 0.637198 0.288615
O O9 0.814345 0.592419 0.504116
O O10 0.005154 0.496569 0.385202
O O11 0.393162 0.935868 0.086324
O O12 0.254276 0.247143 0.039997
O O13 0.252209 0.352869 0.221212
O O14 0.005589 0.309082 0.122286
O O15 0.311765 0.087175 0.014398
O O16 0.218002 0.952197 0.903124
#
# Coordination Sequence:
#
# PCOD8171330 Si02
#       8
#     4   4   4   4   4   4   4   4
#     4  11  23  40  67  96 129 171 222 279 329 400
#     4  12  22  39  67  97 129 170 225 275 333 394
#     4  11  25  44  66  95 136 181 213 280 342 405
#     4  11  23  43  65  98 135 170 224 273 341 396
#     4  11  25  41  66  97 132 170 226 268 335 396
#     4  11  23  41  65  95 130 174 214 275 327 397
#     4  10  23  41  67  92 132 171 221 270 333 396
#     4  11  24  39  65 102 127 169 225 280 324 396
#
# _framework density 20.073834000000002
#
# number of rings (size 3 to 8) (size 9 to 14) (size 15 to 20)
#    0.000    1.000    5.000    1.500    3.500    4.000 
#    0.000    1.250    0.000    0.000    0.000    0.000 
#    0.000    0.000    0.000    0.000    0.000    0.000 
#
# Total GULP energy -396920.147114 kJ/mol
# GULP energy per Si atom -12403.754597 kJ/mol
# Density = 2.002814 g / cm^3
# Si number density = 20.073834 Si / 1000 Ang^3
#
#
#
# Elastic Constant Matrix: (Units=GPa)
#
#
# Indices 1 2 3 4 5 6 
#
# 1 139.5034 55.5078 28.7125 0.0000 0.0000 0.0000
# 2 55.5078 94.4309 24.3033 0.0000 0.0000 0.0000
# 3 28.7125 24.3033 64.2105 0.0000 0.0000 0.0000
# 4 0.0000 0.0000 0.0000 25.2109 0.0000 0.0000
# 5 0.0000 0.0000 0.0000 0.0000 23.0352 0.0000
# 6 0.0000 0.0000 0.0000 0.0000 0.0000 26.2382
#
#
#
# Elastic Compliance Matrix: (Units=1/GPa)
#
#
# Indices 1 2 3 4 5 6 
#
# 1 0.009682 -0.005071 -0.002410 0.000000 0.000000 0.000000
# 2 -0.005071 0.014389 -0.003178 0.000000 0.000000 0.000000
# 3 -0.002410 -0.003178 0.017855 0.000000 0.000000 0.000000
# 4 0.000000 0.000000 0.000000 0.039665 0.000000 0.000000
# 5 0.000000 0.000000 0.000000 0.000000 0.043412 0.000000
# 6 0.000000 0.000000 0.000000 0.000000 0.000000 0.038112
#
#
# Mechanical properties :
#
#
# Convention : Reuss Voigt Hill
#
# Bulk Modulus (GPa) = 48.52938 57.24357 52.88647
# Shear Modulus (GPa) = 26.13660 27.53825 26.83742
#
# Velocity S-wave (km/s) = 3.61227 3.70786 3.66038
# Velocity P-wave (km/s) = 6.45182 6.84905 6.65340
#
# Compressibility (1/GPa) = 0.02060607
#
# Stress axis : x y z
#
# Youngs Moduli (GPa) = 103.28392 69.49963 56.00822
#
# Poissons Ratio (x) = 0.35243 0.13499
# Poissons Ratio (y) = 0.52375 0.17802
# Poissons Ratio (z) = 0.24893 0.22090
#
# Static dielectric constant tensor:
#      x y z
#    x 3.718960 0.000000 0.000000 
#    y 0.000000 3.753560 0.000000 
#    z 0.000000 0.000000 3.503640 
# 
# 
# High freq. dielectric constant tensor:
#      x y z
#    x 1.788610 0.000000 0.000000 
#    y 0.000000 1.791950 0.000000 
#    z 0.000000 0.000000 1.776720 
# 
# From -- ./inp_files/5944.got.cif
#   From: 2010.03.12/outbox.cif.g09.slc.cpg/sg33_3_cif.got.tgz:5944.got - 2010.04.14 01:49:19.
