data_PCOD8171834
_publ_section_title
;
Structure prediction by ZEFSAII (Michael W. Deem and Ramdas Pophale) SiO2 
 PCOD8171834
Probable space group: P N N 2
;
_chemical_formula_sum "Si O2"
_cell_formula_units_Z 28
_cell_length_a 13.211817
_cell_length_b 7.644304
_cell_length_c 17.105923
_cell_angle_alpha 90.000000
_cell_angle_beta 90.000000
_cell_angle_gamma 90.000000
_cell_volume 1727.615183
_symmetry_space_group_name_H-M "P N N 2"
_symmetry_group_IT_number 34
_symmetry_cell_setting 'orthorhombic'
loop_
_space_group_symop_operation_xyz
x,y,z
-x,-y,z
1/2-x,1/2+y,1/2+z
1/2+x,1/2-y,1/2+z
loop_
_atom_site_type_symbol
_atom_site_label
_atom_site_fract_x
_atom_site_fract_y
_atom_site_fract_z
Si Si1 0.887336 0.800252 0.306730
Si Si2 0.889177 0.999999 0.788068
Si Si3 0.887335 0.199747 0.306730
Si Si4 0.813289 0.690741 0.885929
Si Si5 0.813338 0.500000 0.200360
Si Si6 0.686711 0.809257 0.385930
Si Si7 0.119935 0.500000 0.026451
O O1 0.866206 0.673808 0.233632
O O2 0.806055 0.760381 0.375578
O O3 0.000000 0.763043 0.339967
O O4 0.879092 1.000000 0.276705
O O5 0.805820 0.000000 0.720355
O O6 0.882118 0.168408 0.843608
O O7 0.882118 0.831589 0.843607
O O8 0.000000 0.000000 0.748593
O O9 0.806055 0.239618 0.375577
O O10 0.866206 0.326191 0.233632
O O11 0.832761 0.499999 0.845898
O O12 0.844124 0.673218 0.977610
O O13 0.822494 0.500000 0.107812
O O14 0.655876 0.826782 0.477610
O O15 0.000000 0.500000 0.038952
#
# Coordination Sequence:
#
# PCOD8171834 Si02
#       7
#     4   4   4   4   4   4   4
#     4   9  16  30  50  70  92 124 158 190 227 272
#     4  10  18  32  52  69  89 125 164 194 225 273
#     4   9  16  30  50  70  92 124 158 190 227 272
#     4   8  18  31  47  72  94 119 159 193 225 278
#     4  10  20  32  46  72 100 120 155 193 235 282
#     4   8  18  31  47  72  94 119 159 193 225 278
#     4  10  18  32  48  67  99 127 145 191 248 273
#
# _framework density 16.207314
#
# number of rings (size 3 to 8) (size 9 to 14) (size 15 to 20)
#    0.857    2.000    0.000    2.143    0.000    0.000 
#    2.571    1.429    0.000    0.000    0.000    0.000 
#    0.000    0.000    0.000    0.000    0.000    0.000 
#
# Total GULP energy -346878.500492 kJ/mol
# GULP energy per Si atom -12388.517875 kJ/mol
# Density = 1.617043 g / cm^3
# Si number density = 16.207314 Si / 1000 Ang^3
#
#
#
# Elastic Constant Matrix: (Units=GPa)
#
#
# Indices 1 2 3 4 5 6 
#
# 1 136.4103 38.6045 53.4204 0.0000 0.0000 0.0000
# 2 38.6045 74.2510 28.0329 0.0000 0.0000 0.0000
# 3 53.4204 28.0329 104.7850 0.0000 0.0000 0.0000
# 4 0.0000 0.0000 0.0000 13.2827 0.0000 0.0000
# 5 0.0000 0.0000 0.0000 0.0000 16.9189 0.0000
# 6 0.0000 0.0000 0.0000 0.0000 0.0000 -2.2015
#
#
#
# Elastic Compliance Matrix: (Units=1/GPa)
#
#
# Indices 1 2 3 4 5 6 
#
# 1 0.009968 -0.003631 -0.004110 0.000000 0.000000 0.000000
# 2 -0.003631 0.016303 -0.002511 0.000000 0.000000 0.000000
# 3 -0.004110 -0.002511 0.012311 0.000000 0.000000 0.000000
# 4 0.000000 0.000000 0.000000 0.075286 0.000000 0.000000
# 5 0.000000 0.000000 0.000000 0.000000 0.059105 0.000000
# 6 0.000000 0.000000 0.000000 0.000000 0.000000 -0.454235
#
#
# Mechanical properties :
#
#
# Convention : Reuss Voigt Hill
#
# Bulk Modulus (GPa) = 55.31479 61.72910 58.52195
# Shear Modulus (GPa) = -19.62853 18.62592 -0.50130
#
# Velocity S-wave (km/s) = -3.48385 3.39371 -0.55676
# Velocity P-wave (km/s) = 4.24508 7.31616 5.98109
#
# Compressibility (1/GPa) = 0.01807835
#
# Stress axis : x y z
#
# Youngs Moduli (GPa) = 100.32048 61.33695 81.23091
#
# Poissons Ratio (x) = 0.22270 0.33390
# Poissons Ratio (y) = 0.36423 0.20394
# Poissons Ratio (z) = 0.41237 0.15400
#
# Static dielectric constant tensor:
#      x y z
#    x 3.235700 0.000000 0.000000 
#    y 0.000000 3.184920 0.000000 
#    z 0.000000 0.000000 2.666560 
# 
# 
# High freq. dielectric constant tensor:
#      x y z
#    x 1.640110 0.000000 0.000000 
#    y 0.000000 1.629790 0.000000 
#    z 0.000000 0.000000 1.574360 
# 
# From -- ./inp_files/7598.got.cif
#   From: 2010.03.12/outbox.cif.g09.slc.cpg/sg34_4_cif.got.tgz:7598.got - 2010.04.14 01:56:33.
