data_PCOD8171472
_publ_section_title
;
Structure prediction by ZEFSAII (Michael W. Deem and Ramdas Pophale) SiO2 
 PCOD8171472
Probable space group: P N A 21
;
_chemical_formula_sum "Si O2"
_cell_formula_units_Z 28
_cell_length_a 15.264540
_cell_length_b 13.525612
_cell_length_c 4.969048
_cell_angle_alpha 90.000000
_cell_angle_beta 90.000000
_cell_angle_gamma 90.000000
_cell_volume 1025.920808
_symmetry_space_group_name_H-M "P N A 21"
_symmetry_group_IT_number 33
_symmetry_cell_setting 'orthorhombic'
loop_
_space_group_symop_operation_xyz
x,y,z
-x,-y,1/2+z
1/2-x,1/2+y,1/2+z
1/2+x,1/2-y,z
loop_
_atom_site_type_symbol
_atom_site_label
_atom_site_fract_x
_atom_site_fract_y
_atom_site_fract_z
Si Si1 0.715527 0.560311 0.803230
Si Si2 0.108290 0.433211 0.964619
Si Si3 0.766850 0.355035 0.996755
Si Si4 0.810920 0.707630 0.107749
Si Si5 0.114843 0.649526 0.998141
Si Si6 0.028894 0.942333 0.544115
Si Si7 0.961607 0.746594 0.753023
O O1 0.799218 0.559147 0.613717
O O2 0.715875 0.459474 0.980086
O O3 0.630124 0.567070 0.620728
O O4 0.720983 0.660920 0.985634
O O5 0.128765 0.389025 0.668723
O O6 0.068971 0.542970 0.938734
O O7 0.040347 0.357353 0.096681
O O8 0.703484 0.267229 0.887274
O O9 0.851929 0.349203 0.803829
O O10 0.799281 0.336041 0.302745
O O11 0.868724 0.772447 0.898534
O O12 0.042650 0.734989 0.961805
O O13 0.981274 0.836635 0.553918
O O14 0.021172 0.981104 0.240321
#
# Coordination Sequence:
#
# PCOD8171472 Si02
#       7
#     4   4   4   4   4   4   4
#     4  10  24  47  68 105 142 193 246 300 362 446
#     4  10  25  44  75 103 146 188 244 304 371 439
#     4  11  25  43  74 100 143 190 247 295 365 440
#     4  11  24  44  73 103 142 194 245 300 369 450
#     4  11  26  47  72 111 140 191 240 313 368 440
#     4  12  30  49  74 109 153 197 247 309 369 444
#     4  11  28  44  74 109 150 195 249 307 388 435
#
# _framework density 27.292553000000002
#
# number of rings (size 3 to 8) (size 9 to 14) (size 15 to 20)
#    0.000    1.143    1.429    1.714   16.000    0.000 
#    0.000    0.000    0.000    0.000    0.000    0.000 
#    0.000    0.000    0.000    0.000    0.000    0.000 
#
# Total GULP energy -347260.330959 kJ/mol
# GULP energy per Si atom -12402.154677 kJ/mol
# Density = 2.723043 g / cm^3
# Si number density = 27.292553 Si / 1000 Ang^3
#
#
#
# Elastic Constant Matrix: (Units=GPa)
#
#
# Indices 1 2 3 4 5 6 
#
# 1 76.1048 12.0717 -14.0681 0.0000 0.0000 0.0000
# 2 12.0717 112.5255 -7.2505 0.0000 0.0000 0.0000
# 3 -14.0681 -7.2505 39.6097 0.0000 0.0000 0.0000
# 4 0.0000 0.0000 0.0000 44.3190 0.0000 0.0000
# 5 0.0000 0.0000 0.0000 0.0000 25.4983 0.0000
# 6 0.0000 0.0000 0.0000 0.0000 0.0000 33.8813
#
#
#
# Elastic Compliance Matrix: (Units=1/GPa)
#
#
# Indices 1 2 3 4 5 6 
#
# 1 0.014225 -0.001215 0.004830 0.000000 0.000000 0.000000
# 2 -0.001215 0.009097 0.001234 0.000000 0.000000 0.000000
# 3 0.004830 0.001234 0.027188 0.000000 0.000000 0.000000
# 4 0.000000 0.000000 0.000000 0.022564 0.000000 0.000000
# 5 0.000000 0.000000 0.000000 0.000000 0.039218 0.000000
# 6 0.000000 0.000000 0.000000 0.000000 0.000000 0.029515
#
#
# Mechanical properties :
#
#
# Convention : Reuss Voigt Hill
#
# Bulk Modulus (GPa) = 16.60932 23.30514 19.95723
# Shear Modulus (GPa) = 32.85629 36.57219 34.71424
#
# Velocity S-wave (km/s) = 3.47343 3.66458 3.57028
# Velocity P-wave (km/s) = 4.71011 5.14423 4.93195
#
# Compressibility (1/GPa) = 0.06020714
#
# Stress axis : x y z
#
# Youngs Moduli (GPa) = 70.29727 109.93004 36.78147
#
# Poissons Ratio (x) = 0.13355 -0.17765
# Poissons Ratio (y) = 0.08540 -0.04538
# Poissons Ratio (z) = -0.33953 -0.13562
#
# Static dielectric constant tensor:
#      x y z
#    x 4.669940 0.000000 0.000000 
#    y 0.000000 5.433660 0.000000 
#    z 0.000000 0.000000 4.705530 
# 
# 
# High freq. dielectric constant tensor:
#      x y z
#    x 2.098430 0.000000 0.000000 
#    y 0.000000 2.114300 0.000000 
#    z 0.000000 0.000000 2.090730 
# 
# From -- ./inp_files/1430.got.cif
#   From: 2010.03.12/outbox.cif.g09.slc.cpg/sg33_1_cif.got.tgz:1430.got - 2010.04.14 01:49:19.
