data_PCOD8171857
_publ_section_title
;
Structure prediction by ZEFSAII (Michael W. Deem and Ramdas Pophale) SiO2 
 PCOD8171857
Probable space group: P N N 2
;
_chemical_formula_sum "Si O2"
_cell_formula_units_Z 32
_cell_length_a 22.754701
_cell_length_b 8.189277
_cell_length_c 8.964643
_cell_angle_alpha 90.000000
_cell_angle_beta 90.000000
_cell_angle_gamma 90.000000
_cell_volume 1670.512362
_symmetry_space_group_name_H-M "P N N 2"
_symmetry_group_IT_number 34
_symmetry_cell_setting 'orthorhombic'
loop_
_space_group_symop_operation_xyz
x,y,z
-x,-y,z
1/2-x,1/2+y,1/2+z
1/2+x,1/2-y,1/2+z
loop_
_atom_site_type_symbol
_atom_site_label
_atom_site_fract_x
_atom_site_fract_y
_atom_site_fract_z
Si Si1 0.061094 0.553782 0.694980
Si Si2 0.297497 0.468577 0.696633
Si Si3 0.297497 0.531424 0.030655
Si Si4 0.938906 0.553782 0.032308
Si Si5 0.828981 0.644721 0.682985
Si Si6 0.129734 0.155697 0.958487
Si Si7 0.171019 0.644721 0.044302
Si Si8 0.129734 0.844303 0.768801
O O1 0.115538 0.457254 0.622022
O O2 0.074496 0.749777 0.691432
O O3 0.000000 0.500000 0.612897
O O4 0.054933 0.500000 0.863644
O O5 0.227021 0.474988 0.682654
O O6 0.324106 0.601344 0.583845
O O7 0.320668 0.289005 0.660720
O O8 0.319176 0.500000 0.863644
O O9 0.320668 0.710996 0.066568
O O10 0.227021 0.525012 0.044634
O O11 0.324106 0.398656 0.143443
O O12 0.884462 0.457254 0.105266
O O13 0.000000 0.500000 0.114391
O O14 0.925504 0.749777 0.035855
O O15 0.837779 0.714595 0.850502
O O16 0.106497 0.000000 0.863644
O O17 0.162221 0.714595 0.876786
#
# Coordination Sequence:
#
# PCOD8171857 Si02
#       8
#     4   4   4   4   4   4   4   4
#     4   9  17  32  53  75  99 129 169 213 253 294
#     4  10  19  32  51  75 103 134 166 205 256 307
#     4  10  19  32  51  75 103 134 166 205 256 307
#     4   9  17  32  53  75  99 129 169 213 253 294
#     4   9  19  33  50  75 103 129 166 211 254 301
#     4   9  18  33  52  77 103 130 166 209 254 303
#     4   9  19  33  50  75 103 129 166 211 254 301
#     4   9  18  33  52  77 103 130 166 209 254 303
#
# _framework density 19.155799999999999
#
# number of rings (size 3 to 8) (size 9 to 14) (size 15 to 20)
#    0.000    2.750    0.000    2.250    0.000    4.000 
#    0.000   25.000    0.000    4.500    0.000    0.000 
#    0.000    0.000    0.000    0.000    0.000    0.000 
#
# Total GULP energy -396611.726433 kJ/mol
# GULP energy per Si atom -12394.116451 kJ/mol
# Density = 1.911220 g / cm^3
# Si number density = 19.155800 Si / 1000 Ang^3
#
#
#
# Elastic Constant Matrix: (Units=GPa)
#
#
# Indices 1 2 3 4 5 6 
#
# 1 154.3615 82.2992 32.7519 0.0000 0.0000 0.0000
# 2 82.2992 113.9248 32.1497 0.0000 0.0000 0.0000
# 3 32.7519 32.1497 73.7653 0.0000 0.0000 0.0000
# 4 0.0000 0.0000 0.0000 21.3439 0.0000 0.0000
# 5 0.0000 0.0000 0.0000 0.0000 14.5644 0.0000
# 6 0.0000 0.0000 0.0000 0.0000 0.0000 30.3425
#
#
#
# Elastic Compliance Matrix: (Units=1/GPa)
#
#
# Indices 1 2 3 4 5 6 
#
# 1 0.010695 -0.007281 -0.001575 0.000000 0.000000 0.000000
# 2 -0.007281 0.014966 -0.003290 0.000000 0.000000 0.000000
# 3 -0.001575 -0.003290 0.015690 0.000000 0.000000 0.000000
# 4 0.000000 0.000000 0.000000 0.046852 0.000000 0.000000
# 5 0.000000 0.000000 0.000000 0.000000 0.068661 0.000000
# 6 0.000000 0.000000 0.000000 0.000000 0.000000 0.032957
#
#
# Mechanical properties :
#
#
# Convention : Reuss Voigt Hill
#
# Bulk Modulus (GPa) = 58.62326 70.71702 64.67014
# Shear Modulus (GPa) = 22.74814 26.24021 24.49417
#
# Velocity S-wave (km/s) = 3.44980 3.70514 3.57975
# Velocity P-wave (km/s) = 6.82188 7.43646 7.13579
#
# Compressibility (1/GPa) = 0.01705807
#
# Stress axis : x y z
#
# Youngs Moduli (GPa) = 93.50567 66.81757 63.73632
#
# Poissons Ratio (x) = 0.48652 0.10038
# Poissons Ratio (y) = 0.68084 0.20969
# Poissons Ratio (z) = 0.14727 0.21982
#
# Static dielectric constant tensor:
#      x y z
#    x 4.136770 0.000000 0.000000 
#    y 0.000000 3.718270 0.000000 
#    z 0.000000 0.000000 3.182610 
# 
# 
# High freq. dielectric constant tensor:
#      x y z
#    x 1.736010 0.000000 0.000000 
#    y 0.000000 1.757780 0.000000 
#    z 0.000000 0.000000 1.705360 
# 
# From -- ./inp_files/4083.got.cif
#   From: 2010.03.12/outbox.cif.g09.slc.cpg/sg34_3_cif.got.tgz:4083.got - 2010.04.14 01:56:33.
