data_PCOD8171465
_publ_section_title
;
Structure prediction by ZEFSAII (Michael W. Deem and Ramdas Pophale) SiO2 
 PCOD8171465
Probable space group: P N A 21
;
_chemical_formula_sum "Si O2"
_cell_formula_units_Z 32
_cell_length_a 12.145642
_cell_length_b 6.661180
_cell_length_c 17.997401
_cell_angle_alpha 90.000000
_cell_angle_beta 90.000000
_cell_angle_gamma 90.000000
_cell_volume 1456.067266
_symmetry_space_group_name_H-M "P N A 21"
_symmetry_group_IT_number 33
_symmetry_cell_setting 'orthorhombic'
loop_
_space_group_symop_operation_xyz
x,y,z
-x,-y,1/2+z
1/2-x,1/2+y,1/2+z
1/2+x,1/2-y,z
loop_
_atom_site_type_symbol
_atom_site_label
_atom_site_fract_x
_atom_site_fract_y
_atom_site_fract_z
Si Si1 0.506818 0.323966 0.918900
Si Si2 0.313292 0.034604 0.674916
Si Si3 0.011749 0.497280 0.296518
Si Si4 0.195492 0.387878 0.595350
Si Si5 0.165110 0.825586 0.952870
Si Si6 0.965619 0.498105 0.539054
Si Si7 0.350422 0.638878 0.855789
Si Si8 0.211111 0.650914 0.725091
O O1 0.526691 0.174898 0.850487
O O2 0.608732 0.476004 0.920259
O O3 0.396454 0.456523 0.905887
O O4 0.496470 0.201819 0.996561
O O5 0.375106 0.947348 0.601565
O O6 0.230627 0.887627 0.718184
O O7 0.405323 0.093164 0.736068
O O8 0.232101 0.209883 0.649795
O O9 0.061286 0.316684 0.346062
O O10 0.909001 0.402832 0.254013
O O11 0.259698 0.398100 0.519445
O O12 0.225866 0.585651 0.640290
O O13 0.066012 0.381715 0.578131
O O14 0.239349 0.727825 0.890075
O O15 0.078851 0.658372 0.978531
O O16 0.308837 0.556119 0.775964
#
# Coordination Sequence:
#
# PCOD8171465 Si02
#       8
#     4   4   4   4   4   4   4   4
#     4  12  24  42  72  94 138 186 224 296 348 398
#     4  10  24  46  64  98 142 178 226 292 346 408
#     4  11  24  44  67 102 137 178 239 281 345 429
#     4  11  23  42  68  97 135 182 231 284 350 416
#     4  11  25  44  65 102 138 179 235 290 344 417
#     4  11  24  44  67 102 137 178 239 281 345 429
#     4  11  25  44  65 102 138 179 235 290 344 417
#     4  11  23  42  68  97 135 182 231 284 350 416
#
# _framework density 21.977007
#
# number of rings (size 3 to 8) (size 9 to 14) (size 15 to 20)
#    0.000    1.000    1.250    5.250    0.000   10.000 
#    9.000    0.000    0.000    0.000    0.000    0.000 
#    0.000    0.000    0.000    0.000    0.000    0.000 
#
# Total GULP energy -396759.132951 kJ/mol
# GULP energy per Si atom -12398.722905 kJ/mol
# Density = 2.192699 g / cm^3
# Si number density = 21.977007 Si / 1000 Ang^3
#
#
#
# Elastic Constant Matrix: (Units=GPa)
#
#
# Indices 1 2 3 4 5 6 
#
# 1 99.8744 58.2529 19.2558 0.0000 0.0000 0.0000
# 2 58.2529 87.7368 35.4873 0.0000 0.0000 0.0000
# 3 19.2558 35.4873 78.7360 0.0000 0.0000 0.0000
# 4 0.0000 0.0000 0.0000 46.3686 0.0000 0.0000
# 5 0.0000 0.0000 0.0000 0.0000 39.5852 0.0000
# 6 0.0000 0.0000 0.0000 0.0000 0.0000 35.6393
#
#
#
# Elastic Compliance Matrix: (Units=1/GPa)
#
#
# Indices 1 2 3 4 5 6 
#
# 1 0.016418 -0.011345 0.001098 0.000000 0.000000 0.000000
# 2 -0.011345 0.021778 -0.007041 0.000000 0.000000 0.000000
# 3 0.001098 -0.007041 0.015606 0.000000 0.000000 0.000000
# 4 0.000000 0.000000 0.000000 0.021566 0.000000 0.000000
# 5 0.000000 0.000000 0.000000 0.000000 0.025262 0.000000
# 6 0.000000 0.000000 0.000000 0.000000 0.000000 0.028059
#
#
# Mechanical properties :
#
#
# Convention : Reuss Voigt Hill
#
# Bulk Modulus (GPa) = 52.01336 54.70437 53.35886
# Shear Modulus (GPa) = 29.46842 34.54203 32.00523
#
# Velocity S-wave (km/s) = 3.66577 3.96881 3.82030
# Velocity P-wave (km/s) = 6.45257 6.77847 6.61753
#
# Compressibility (1/GPa) = 0.01922583
#
# Stress axis : x y z
#
# Youngs Moduli (GPa) = 60.90935 45.91775 64.07927
#
# Poissons Ratio (x) = 0.52093 -0.07036
# Poissons Ratio (y) = 0.69100 0.45119
# Poissons Ratio (z) = -0.06688 0.32331
#
# Static dielectric constant tensor:
#      x y z
#    x 4.019110 0.000000 0.000000 
#    y 0.000000 3.880550 0.000000 
#    z 0.000000 0.000000 4.282650 
# 
# 
# High freq. dielectric constant tensor:
#      x y z
#    x 1.870630 0.000000 0.000000 
#    y 0.000000 1.856290 0.000000 
#    z 0.000000 0.000000 1.888470 
# 
# From -- ./inp_files/9158.got.cif
#   From: 2010.03.12/outbox.cif.g09.slc.cpg/sg33_5_cif.got.tgz:9158.got - 2010.04.14 01:49:19.
