data_PCOD8171257
_publ_section_title
;
Structure prediction by ZEFSAII (Michael W. Deem and Ramdas Pophale) SiO2 
 PCOD8171257
Probable space group: P N A 21
;
_chemical_formula_sum "Si O2"
_cell_formula_units_Z 28
_cell_length_a 8.928907
_cell_length_b 24.626720
_cell_length_c 5.530331
_cell_angle_alpha 90.000000
_cell_angle_beta 90.000000
_cell_angle_gamma 90.000000
_cell_volume 1216.062784
_symmetry_space_group_name_H-M "P N A 21"
_symmetry_group_IT_number 33
_symmetry_cell_setting 'orthorhombic'
loop_
_space_group_symop_operation_xyz
x,y,z
-x,-y,1/2+z
1/2-x,1/2+y,1/2+z
1/2+x,1/2-y,z
loop_
_atom_site_type_symbol
_atom_site_label
_atom_site_fract_x
_atom_site_fract_y
_atom_site_fract_z
Si Si1 0.260436 0.799634 0.526150
Si Si2 0.767850 0.887094 0.552986
Si Si3 0.760599 0.299675 0.668392
Si Si4 0.500069 0.161895 0.347205
Si Si5 0.999919 0.825402 0.847235
Si Si6 0.231981 0.887083 0.141443
Si Si7 0.906754 0.000001 0.597357
O O1 0.249871 0.749951 0.347437
O O2 0.421485 0.797827 0.655861
O O3 0.254229 0.858918 0.401718
O O4 0.127403 0.789689 0.717404
O O5 0.745481 0.858993 0.292582
O O6 0.625603 0.876053 0.724832
O O7 0.922130 0.862865 0.650014
O O8 0.794342 0.951023 0.531548
O O9 0.627452 0.289694 0.477388
O O10 0.921587 0.297828 0.538503
O O11 0.625783 0.123970 0.469598
O O12 0.077618 0.862978 0.044136
O O13 0.205653 0.951019 0.163201
O O14 0.999991 0.011314 0.347344
#
# Coordination Sequence:
#
# PCOD8171257 Si02
#       7
#     4   4   4   4   4   4   4
#     4  11  25  45  72 104 147 195 241 307 377 456
#     4  11  24  45  72 105 146 186 249 304 372 447
#     4  11  25  45  72 104 147 195 241 307 377 456
#     4  10  26  47  66 108 146 186 245 306 378 450
#     4  10  22  43  70 104 136 188 243 294 362 444
#     4  11  24  45  72 105 146 186 249 304 372 447
#     4  12  26  48  80 112 148 200 260 316 378 452
#
# _framework density 23.025127000000001
#
# number of rings (size 3 to 8) (size 9 to 14) (size 15 to 20)
#    0.000    1.143    1.429    3.429    4.000   11.429 
#    5.143    4.286    0.000    0.000    0.000    0.000 
#    0.000    0.000    0.000    0.000    0.000    0.000 
#
# Total GULP energy -347189.683787 kJ/mol
# GULP energy per Si atom -12399.631564 kJ/mol
# Density = 2.297272 g / cm^3
# Si number density = 23.025127 Si / 1000 Ang^3
#
#
#
# Elastic Constant Matrix: (Units=GPa)
#
#
# Indices 1 2 3 4 5 6 
#
# 1 139.2482 51.3856 47.1899 0.0000 0.0000 0.0000
# 2 51.3856 151.7332 53.2868 0.0000 0.0000 0.0000
# 3 47.1899 53.2868 126.8085 0.0000 0.0000 0.0000
# 4 0.0000 0.0000 0.0000 37.0114 0.0000 0.0000
# 5 0.0000 0.0000 0.0000 0.0000 40.2105 0.0000
# 6 0.0000 0.0000 0.0000 0.0000 0.0000 23.5391
#
#
#
# Elastic Compliance Matrix: (Units=1/GPa)
#
#
# Indices 1 2 3 4 5 6 
#
# 1 0.008773 -0.002140 -0.002365 0.000000 0.000000 0.000000
# 2 -0.002140 0.008254 -0.002672 0.000000 0.000000 0.000000
# 3 -0.002365 -0.002672 0.009889 0.000000 0.000000 0.000000
# 4 0.000000 0.000000 0.000000 0.027019 0.000000 0.000000
# 5 0.000000 0.000000 0.000000 0.000000 0.024869 0.000000
# 6 0.000000 0.000000 0.000000 0.000000 0.000000 0.042482
#
#
# Mechanical properties :
#
#
# Convention : Reuss Voigt Hill
#
# Bulk Modulus (GPa) = 79.61477 80.16826 79.89152
# Shear Modulus (GPa) = 35.75840 37.88071 36.81956
#
# Velocity S-wave (km/s) = 3.94511 4.06049 4.00322
# Velocity P-wave (km/s) = 7.44340 7.54167 7.49270
#
# Compressibility (1/GPa) = 0.01256048
#
# Stress axis : x y z
#
# Youngs Moduli (GPa) = 113.98846 121.15829 101.12399
#
# Poissons Ratio (x) = 0.25932 0.23919
# Poissons Ratio (y) = 0.24397 0.27019
# Poissons Ratio (z) = 0.26961 0.32371
#
# Static dielectric constant tensor:
#      x y z
#    x 4.575270 0.000000 0.000000 
#    y 0.000000 3.956160 0.000000 
#    z 0.000000 0.000000 4.760680 
# 
# 
# High freq. dielectric constant tensor:
#      x y z
#    x 1.925270 0.000000 0.000000 
#    y 0.000000 1.896790 0.000000 
#    z 0.000000 0.000000 1.928350 
# 
# From -- ./inp_files/495.got.cif
#   From: 2010.03.12/outbox.cif.g09.slc.cpg/sg33_1_cif.got.tgz:495.got - 2010.04.14 01:49:19.
