data_PCOD8171054
_publ_section_title
;
Structure prediction by ZEFSAII (Michael W. Deem and Ramdas Pophale) SiO2 
 PCOD8171054
Probable space group: P N A 21
;
_chemical_formula_sum "Si O2"
_cell_formula_units_Z 32
_cell_length_a 9.609635
_cell_length_b 14.872834
_cell_length_c 10.271951
_cell_angle_alpha 90.000000
_cell_angle_beta 90.000000
_cell_angle_gamma 90.000000
_cell_volume 1468.092980
_symmetry_space_group_name_H-M "P N A 21"
_symmetry_group_IT_number 33
_symmetry_cell_setting 'orthorhombic'
loop_
_space_group_symop_operation_xyz
x,y,z
-x,-y,1/2+z
1/2-x,1/2+y,1/2+z
1/2+x,1/2-y,z
loop_
_atom_site_type_symbol
_atom_site_label
_atom_site_fract_x
_atom_site_fract_y
_atom_site_fract_z
Si Si1 0.038493 0.531071 0.011970
Si Si2 0.518647 0.623900 0.933708
Si Si3 0.768025 0.023654 0.593042
Si Si4 0.628845 0.164620 0.051422
Si Si5 0.720770 0.188432 0.764350
Si Si6 0.766026 0.396910 0.314173
Si Si7 0.109429 0.773609 0.698343
Si Si8 0.050051 0.719109 0.131623
O O1 0.088204 0.438764 0.078925
O O2 0.090236 0.617142 0.094385
O O3 0.870611 0.530282 0.004364
O O4 0.105452 0.541812 0.867798
O O5 0.354673 0.600551 0.925359
O O6 0.556250 0.642909 0.783802
O O7 0.601656 0.539049 0.995573
O O8 0.567406 0.711594 0.013222
O O9 0.769857 0.091116 0.715782
O O10 0.779440 0.928817 0.668571
O O11 0.782828 0.183283 0.099929
O O12 0.516914 0.228853 0.119403
O O13 0.638921 0.184537 0.899025
O O14 0.853716 0.254668 0.755966
O O15 0.611253 0.228626 0.663194
O O16 0.816569 0.295479 0.296307
#
# Coordination Sequence:
#
# PCOD8171054 Si02
#       8
#     4   4   4   4   4   4   4   4
#     4  11  23  40  73  98 132 170 232 282 337 403
#     4  11  25  43  70  99 138 184 227 282 345 415
#     4  10  24  42  68 102 135 176 231 284 338 409
#     4  12  25  44  67 100 137 183 223 285 347 404
#     4  10  21  41  64  94 134 170 219 272 337 403
#     4  12  23  45  65 102 140 174 225 292 338 410
#     4  12  26  43  68  98 138 181 232 277 351 417
#     4  10  21  40  69  99 126 176 225 274 333 407
#
# _framework density 21.796983999999998
#
# number of rings (size 3 to 8) (size 9 to 14) (size 15 to 20)
#    0.000    1.000    5.000    1.500    5.250    1.000 
#    0.000    0.000    0.000    0.000    0.000    0.000 
#    0.000    0.000    0.000    0.000    0.000    0.000 
#
# Total GULP energy -396709.844900 kJ/mol
# GULP energy per Si atom -12397.182653 kJ/mol
# Density = 2.174737 g / cm^3
# Si number density = 21.796984 Si / 1000 Ang^3
#
#
#
# Elastic Constant Matrix: (Units=GPa)
#
#
# Indices 1 2 3 4 5 6 
#
# 1 91.7303 15.5703 34.5396 0.0000 0.0000 0.0000
# 2 15.5703 47.1840 15.8904 0.0000 0.0000 0.0000
# 3 34.5396 15.8904 81.6833 0.0000 0.0000 0.0000
# 4 0.0000 0.0000 0.0000 34.3774 0.0000 0.0000
# 5 0.0000 0.0000 0.0000 0.0000 45.8997 0.0000
# 6 0.0000 0.0000 0.0000 0.0000 0.0000 30.3089
#
#
#
# Elastic Compliance Matrix: (Units=1/GPa)
#
#
# Indices 1 2 3 4 5 6 
#
# 1 0.013272 -0.002664 -0.005094 0.000000 0.000000 0.000000
# 2 -0.002664 0.023214 -0.003390 0.000000 0.000000 0.000000
# 3 -0.005094 -0.003390 0.015056 0.000000 0.000000 0.000000
# 4 0.000000 0.000000 0.000000 0.029089 0.000000 0.000000
# 5 0.000000 0.000000 0.000000 0.000000 0.021787 0.000000
# 6 0.000000 0.000000 0.000000 0.000000 0.000000 0.032994
#
#
# Mechanical properties :
#
#
# Convention : Reuss Voigt Hill
#
# Bulk Modulus (GPa) = 34.19153 39.17760 36.68456
# Shear Modulus (GPa) = 29.85893 32.42369 31.14131
#
# Velocity S-wave (km/s) = 3.70518 3.86104 3.78391
# Velocity P-wave (km/s) = 5.83309 6.15546 5.99644
#
# Compressibility (1/GPa) = 0.02924701
#
# Stress axis : x y z
#
# Youngs Moduli (GPa) = 75.34857 43.07698 66.42045
#
# Poissons Ratio (x) = 0.11476 0.33832
# Poissons Ratio (y) = 0.20074 0.22513
# Poissons Ratio (z) = 0.38380 0.14601
#
# Static dielectric constant tensor:
#      x y z
#    x 4.010110 0.000000 0.000000 
#    y 0.000000 3.866620 0.000000 
#    z 0.000000 0.000000 3.754600 
# 
# 
# High freq. dielectric constant tensor:
#      x y z
#    x 1.866710 0.000000 0.000000 
#    y 0.000000 1.850430 0.000000 
#    z 0.000000 0.000000 1.847270 
# 
# From -- ./inp_files/5980.got.cif
#   From: 2010.03.12/outbox.cif.g09.slc.cpg/sg33_3_cif.got.tgz:5980.got - 2010.04.14 01:49:19.
