data_PCOD8171813
_publ_section_title
;
Structure prediction by ZEFSAII (Michael W. Deem and Ramdas Pophale) SiO2 
 PCOD8171813
Probable space group: P N A 21
;
_chemical_formula_sum "Si O2"
_cell_formula_units_Z 12
_cell_length_a 6.592941
_cell_length_b 13.582515
_cell_length_c 4.791924
_cell_angle_alpha 90.000000
_cell_angle_beta 90.000000
_cell_angle_gamma 90.000000
_cell_volume 429.110661
_symmetry_space_group_name_H-M "P N A 21"
_symmetry_group_IT_number 33
_symmetry_cell_setting 'orthorhombic'
loop_
_space_group_symop_operation_xyz
x,y,z
-x,-y,1/2+z
1/2-x,1/2+y,1/2+z
1/2+x,1/2-y,z
loop_
_atom_site_type_symbol
_atom_site_label
_atom_site_fract_x
_atom_site_fract_y
_atom_site_fract_z
Si Si1 0.084049 0.090974 0.479370
Si Si2 0.230810 0.883522 0.400198
Si Si3 0.817572 0.332126 0.966323
O O1 0.137132 0.977368 0.568093
O O2 0.214128 0.166706 0.664668
O O3 0.841432 0.887500 0.667008
O O4 0.848286 0.109833 0.574816
O O5 0.147001 0.782730 0.544694
O O6 0.471475 0.889811 0.435467
#
# Coordination Sequence:
#
# PCOD8171813 Si02
#       3
#     4   4   4
#     4  12  29  51  81 118 161 219 272 342 410 497
#     4  12  28  52  82 119 163 218 273 343 416 494
#     4  12  29  49  81 119 166 211 279 339 416 495
#
# _framework density 27.964812999999999
#
# number of rings (size 3 to 8) (size 9 to 14) (size 15 to 20)
#    0.000    0.000    3.333    4.000    4.667    8.000 
#    0.000    0.000    0.000    0.000    0.000    0.000 
#    0.000    0.000    0.000    0.000    0.000    0.000 
#
# Total GULP energy -148721.641516 kJ/mol
# GULP energy per Si atom -12393.470126 kJ/mol
# Density = 2.790116 g / cm^3
# Si number density = 27.964813 Si / 1000 Ang^3
#
#
#
# Elastic Constant Matrix: (Units=GPa)
#
#
# Indices 1 2 3 4 5 6 
#
# 1 170.6124 29.6374 52.6332 0.0000 0.0000 0.0000
# 2 29.6374 159.1772 17.2757 0.0000 0.0000 0.0000
# 3 52.6332 17.2757 80.9079 0.0000 0.0000 0.0000
# 4 0.0000 0.0000 0.0000 38.4463 0.0000 0.0000
# 5 0.0000 0.0000 0.0000 0.0000 59.1048 0.0000
# 6 0.0000 0.0000 0.0000 0.0000 0.0000 53.0782
#
#
#
# Elastic Compliance Matrix: (Units=1/GPa)
#
#
# Indices 1 2 3 4 5 6 
#
# 1 0.007452 -0.000882 -0.004659 0.000000 0.000000 0.000000
# 2 -0.000882 0.006536 -0.000822 0.000000 0.000000 0.000000
# 3 -0.004659 -0.000822 0.015566 0.000000 0.000000 0.000000
# 4 0.000000 0.000000 0.000000 0.026010 0.000000 0.000000
# 5 0.000000 0.000000 0.000000 0.000000 0.016919 0.000000
# 6 0.000000 0.000000 0.000000 0.000000 0.000000 0.018840
#
#
# Mechanical properties :
#
#
# Convention : Reuss Voigt Hill
#
# Bulk Modulus (GPa) = 59.42575 67.75445 63.59010
# Shear Modulus (GPa) = 45.59605 50.86927 48.23266
#
# Velocity S-wave (km/s) = 4.04230 4.26965 4.15753
# Velocity P-wave (km/s) = 6.56378 6.97048 6.77019
#
# Compressibility (1/GPa) = 0.01682772
#
# Stress axis : x y z
#
# Youngs Moduli (GPa) = 134.19566 153.00611 64.24135
#
# Poissons Ratio (x) = 0.13492 0.29932
# Poissons Ratio (y) = 0.11833 0.05280
# Poissons Ratio (z) = 0.62527 0.12576
#
# Static dielectric constant tensor:
#      x y z
#    x 5.168430 0.000000 0.000000 
#    y 0.000000 5.367980 0.000000 
#    z 0.000000 0.000000 4.718200 
# 
# 
# High freq. dielectric constant tensor:
#      x y z
#    x 2.152950 0.000000 0.000000 
#    y 0.000000 2.156680 0.000000 
#    z 0.000000 0.000000 2.116340 
# 
# From -- ./inp_files/2585.got.cif
#   From: 2010.03.12/outbox.cif.g09.slc.cpg/sg33_2_cif.got.tgz:2585.got - 2010.04.14 01:49:19.
