data_PCOD8171020
_publ_section_title
;
Structure prediction by ZEFSAII (Michael W. Deem and Ramdas Pophale) SiO2 
 PCOD8171020
Probable space group: P N A 21
;
_chemical_formula_sum "Si O2"
_cell_formula_units_Z 32
_cell_length_a 9.322337
_cell_length_b 29.803902
_cell_length_c 5.131720
_cell_angle_alpha 90.000000
_cell_angle_beta 90.000000
_cell_angle_gamma 90.000000
_cell_volume 1425.807442
_symmetry_space_group_name_H-M "P N A 21"
_symmetry_group_IT_number 33
_symmetry_cell_setting 'orthorhombic'
loop_
_space_group_symop_operation_xyz
x,y,z
-x,-y,1/2+z
1/2-x,1/2+y,1/2+z
1/2+x,1/2-y,z
loop_
_atom_site_type_symbol
_atom_site_label
_atom_site_fract_x
_atom_site_fract_y
_atom_site_fract_z
Si Si1 0.009847 0.440824 0.432070
Si Si2 0.927164 0.797216 0.320947
Si Si3 0.970722 0.972232 0.479971
Si Si4 0.784437 0.637227 0.990046
Si Si5 0.609717 0.622065 0.485525
Si Si6 0.083272 0.274110 0.407750
Si Si7 0.672332 0.761348 0.593483
Si Si8 0.649213 0.964768 0.432463
O O1 0.937722 0.437693 0.714290
O O2 0.097350 0.395943 0.373631
O O3 0.117947 0.482443 0.411111
O O4 0.887889 0.445060 0.214245
O O5 0.763775 0.797706 0.430382
O O6 0.984278 0.847626 0.352506
O O7 0.047960 0.764806 0.442324
O O8 0.913512 0.776069 0.032147
O O9 0.815665 0.957703 0.378427
O O10 0.058236 0.927752 0.550349
O O11 0.953884 0.001167 0.743719
O O12 0.665744 0.643067 0.759135
O O13 0.858800 0.684348 0.078279
O O14 0.727641 0.617190 0.259922
O O15 0.202594 0.272832 0.179686
O O16 0.919727 0.285538 0.321319
#
# Coordination Sequence:
#
# PCOD8171020 Si02
#       8
#     4   4   4   4   4   4   4   4
#     4  10  21  39  65  91 130 167 217 271 334 398
#     4  11  23  43  66  98 136 186 230 287 352 410
#     4  12  25  45  70  99 138 177 226 281 353 418
#     4  12  25  44  68 101 133 179 235 279 346 413
#     4  12  26  44  70  99 136 178 233 286 339 428
#     4  11  23  42  66  97 136 180 231 285 343 420
#     4  10  22  41  66  93 133 180 225 280 351 403
#     4  10  21  40  63  94 128 171 213 273 334 400
#
# _framework density 22.443421000000001
#
# number of rings (size 3 to 8) (size 9 to 14) (size 15 to 20)
#    0.000    1.000    1.250    6.000    3.500    3.000 
#    4.500    0.000    0.000    0.000    0.000    0.000 
#    0.000    0.000    0.000    0.000    0.000    0.000 
#
# Total GULP energy -396595.544968 kJ/mol
# GULP energy per Si atom -12393.610780 kJ/mol
# Density = 2.239234 g / cm^3
# Si number density = 22.443421 Si / 1000 Ang^3
#
#
#
# Elastic Constant Matrix: (Units=GPa)
#
#
# Indices 1 2 3 4 5 6 
#
# 1 124.1047 17.6542 17.4733 0.0000 0.0000 0.0000
# 2 17.6542 87.4724 13.9079 0.0000 0.0000 0.0000
# 3 17.4733 13.9079 87.2358 0.0000 0.0000 0.0000
# 4 0.0000 0.0000 0.0000 26.1405 0.0000 0.0000
# 5 0.0000 0.0000 0.0000 0.0000 31.2941 0.0000
# 6 0.0000 0.0000 0.0000 0.0000 0.0000 36.6969
#
#
#
# Elastic Compliance Matrix: (Units=1/GPa)
#
#
# Indices 1 2 3 4 5 6 
#
# 1 0.008474 -0.001478 -0.001462 0.000000 0.000000 0.000000
# 2 -0.001478 0.011987 -0.001615 0.000000 0.000000 0.000000
# 3 -0.001462 -0.001615 0.012013 0.000000 0.000000 0.000000
# 4 0.000000 0.000000 0.000000 0.038255 0.000000 0.000000
# 5 0.000000 0.000000 0.000000 0.000000 0.031955 0.000000
# 6 0.000000 0.000000 0.000000 0.000000 0.000000 0.027250
#
#
# Mechanical properties :
#
#
# Convention : Reuss Voigt Hill
#
# Bulk Modulus (GPa) = 42.79868 44.09821 43.44845
# Shear Modulus (GPa) = 34.05252 35.47813 34.76533
#
# Velocity S-wave (km/s) = 3.89943 3.98022 3.94003
# Velocity P-wave (km/s) = 6.27575 6.38859 6.33242
#
# Compressibility (1/GPa) = 0.02336521
#
# Stress axis : x y z
#
# Youngs Moduli (GPa) = 118.01170 83.42206 83.24004
#
# Poissons Ratio (x) = 0.12328 0.12167
# Poissons Ratio (y) = 0.17440 0.13444
# Poissons Ratio (z) = 0.17250 0.13474
#
# Static dielectric constant tensor:
#      x y z
#    x 4.217440 0.000000 0.000000 
#    y 0.000000 3.908840 0.000000 
#    z 0.000000 0.000000 4.099000 
# 
# 
# High freq. dielectric constant tensor:
#      x y z
#    x 1.895320 0.000000 0.000000 
#    y 0.000000 1.866760 0.000000 
#    z 0.000000 0.000000 1.888090 
# 
# From -- ./inp_files/585.got.cif
#   From: 2010.03.12/outbox.cif.g09.slc.cpg/sg33_1_cif.got.tgz:585.got - 2010.04.14 01:49:19.
