data_PCOD8171492
_publ_section_title
;
Structure prediction by ZEFSAII (Michael W. Deem and Ramdas Pophale) SiO2 
 PCOD8171492
Probable space group: P N A 21
;
_chemical_formula_sum "Si O2"
_cell_formula_units_Z 28
_cell_length_a 27.234827
_cell_length_b 5.642986
_cell_length_c 7.879626
_cell_angle_alpha 90.000000
_cell_angle_beta 90.000000
_cell_angle_gamma 90.000000
_cell_volume 1210.986212
_symmetry_space_group_name_H-M "P N A 21"
_symmetry_group_IT_number 33
_symmetry_cell_setting 'orthorhombic'
loop_
_space_group_symop_operation_xyz
x,y,z
-x,-y,1/2+z
1/2-x,1/2+y,1/2+z
1/2+x,1/2-y,z
loop_
_atom_site_type_symbol
_atom_site_label
_atom_site_fract_x
_atom_site_fract_y
_atom_site_fract_z
Si Si1 0.211932 0.200691 0.069550
Si Si2 0.728940 0.814170 0.892603
Si Si3 0.593574 0.513949 0.431231
Si Si4 0.448019 0.878436 0.106579
Si Si5 0.125236 0.729506 0.747919
Si Si6 0.393812 0.566221 0.558300
Si Si7 0.991898 0.757656 0.434818
O O1 0.224770 0.190343 0.267658
O O2 0.153396 0.238466 0.047746
O O3 0.236991 0.445098 0.002758
O O4 0.227060 0.942571 0.988239
O O5 0.679630 0.862658 0.785171
O O6 0.593772 0.238917 0.486023
O O7 0.628519 0.651754 0.561458
O O8 0.610124 0.570228 0.239675
O O9 0.535951 0.561756 0.469129
O O10 0.478215 0.713140 0.236567
O O11 0.416598 0.032455 0.240154
O O12 0.486684 0.001315 0.982285
O O13 0.106635 0.894591 0.898890
O O14 0.445121 0.704414 0.557323
#
# Coordination Sequence:
#
# PCOD8171492 Si02
#       7
#     4   4   4   4   4   4   4
#     4  11  26  48  76 111 142 192 238 304 374 435
#     4  11  25  48  77 108 146 187 238 305 369 440
#     4  11  24  42  64 100 134 192 234 293 350 434
#     4  11  23  40  64  97 133 187 232 292 353 420
#     4  10  25  44  67  95 141 181 234 293 360 423
#     4  11  24  44  69  98 145 178 244 289 363 425
#     4  11  23  38  63  95 139 181 236 290 353 421
#
# _framework density 23.121648
#
# number of rings (size 3 to 8) (size 9 to 14) (size 15 to 20)
#    0.000    1.143    1.429    3.429   10.000    1.143 
#   10.286    0.000    0.000    0.000    0.000    0.000 
#    0.000    0.000    0.000    0.000    0.000    0.000 
#
# Total GULP energy -346923.114987 kJ/mol
# GULP energy per Si atom -12390.111250 kJ/mol
# Density = 2.306902 g / cm^3
# Si number density = 23.121648 Si / 1000 Ang^3
#
#
#
# Elastic Constant Matrix: (Units=GPa)
#
#
# Indices 1 2 3 4 5 6 
#
# 1 40.5773 -2.6682 -21.5958 0.0000 0.0000 0.0000
# 2 -2.6682 86.6638 5.7660 0.0000 0.0000 0.0000
# 3 -21.5958 5.7660 90.5241 0.0000 0.0000 0.0000
# 4 0.0000 0.0000 0.0000 28.1758 0.0000 0.0000
# 5 0.0000 0.0000 0.0000 0.0000 35.6160 0.0000
# 6 0.0000 0.0000 0.0000 0.0000 0.0000 18.3943
#
#
#
# Elastic Compliance Matrix: (Units=1/GPa)
#
#
# Indices 1 2 3 4 5 6 
#
# 1 0.028244 0.000423 0.006711 0.000000 0.000000 0.000000
# 2 0.000423 0.011594 -0.000638 0.000000 0.000000 0.000000
# 3 0.006711 -0.000638 0.012688 0.000000 0.000000 0.000000
# 4 0.000000 0.000000 0.000000 0.035491 0.000000 0.000000
# 5 0.000000 0.000000 0.000000 0.000000 0.028077 0.000000
# 6 0.000000 0.000000 0.000000 0.000000 0.000000 0.054365
#
#
# Mechanical properties :
#
#
# Convention : Reuss Voigt Hill
#
# Bulk Modulus (GPa) = 15.26261 20.08545 17.67403
# Shear Modulus (GPa) = 27.88519 32.18811 30.03665
#
# Velocity S-wave (km/s) = 3.47655 3.73516 3.60817
# Velocity P-wave (km/s) = 4.76765 5.22567 5.00191
#
# Compressibility (1/GPa) = 0.06551959
#
# Stress axis : x y z
#
# Youngs Moduli (GPa) = 35.40595 86.24939 78.81214
#
# Poissons Ratio (x) = -0.03649 -0.52891
# Poissons Ratio (y) = -0.01498 0.05025
# Poissons Ratio (z) = -0.23761 0.05499
#
# Static dielectric constant tensor:
#      x y z
#    x 4.180950 0.000000 0.000000 
#    y 0.000000 4.194910 0.000000 
#    z 0.000000 0.000000 4.236390 
# 
# 
# High freq. dielectric constant tensor:
#      x y z
#    x 1.912710 0.000000 0.000000 
#    y 0.000000 1.906830 0.000000 
#    z 0.000000 0.000000 1.925490 
# 
# From -- ./inp_files/5264.got.cif
#   From: 2010.03.12/outbox.cif.g09.slc.cpg/sg33_3_cif.got.tgz:5264.got - 2010.04.14 01:49:19.
