data_PCOD8171971
_publ_section_title
;
Structure prediction by ZEFSAII (Michael W. Deem and Ramdas Pophale) SiO2 
 PCOD8171971
Probable space group: P N N 2
;
_chemical_formula_sum "Si O2"
_cell_formula_units_Z 24
_cell_length_a 15.780724
_cell_length_b 8.948332
_cell_length_c 7.884090
_cell_angle_alpha 90.000000
_cell_angle_beta 90.000000
_cell_angle_gamma 90.000000
_cell_volume 1113.321475
_symmetry_space_group_name_H-M "P N N 2"
_symmetry_group_IT_number 34
_symmetry_cell_setting 'orthorhombic'
loop_
_space_group_symop_operation_xyz
x,y,z
-x,-y,z
1/2-x,1/2+y,1/2+z
1/2+x,1/2-y,1/2+z
loop_
_atom_site_type_symbol
_atom_site_label
_atom_site_fract_x
_atom_site_fract_y
_atom_site_fract_z
Si Si1 0.735873 0.896398 0.300380
Si Si2 0.847767 0.166446 0.264245
Si Si3 0.025178 0.830693 0.968175
Si Si4 0.193331 0.177105 0.645968
Si Si5 0.865959 0.153525 0.643093
Si Si6 0.920561 0.599980 0.813168
O O1 0.774588 0.803747 0.455144
O O2 0.708442 0.775980 0.160363
O O3 0.807783 0.003696 0.221463
O O4 0.655367 0.991160 0.371604
O O5 0.769924 0.282491 0.273855
O O6 0.895950 0.161126 0.446505
O O7 0.910475 0.216431 0.115438
O O8 0.060487 0.810130 0.776641
O O9 0.948399 0.709918 0.970100
O O10 0.000000 0.000000 0.005187
O O11 0.114445 0.291370 0.664677
O O12 0.166860 0.009808 0.690286
O O13 0.000000 0.500000 0.748573
#
# Coordination Sequence:
#
# PCOD8171971 Si02
#       6
#     4   4   4   4   4   4
#     4  10  22  41  69  95 134 174 224 276 321 393
#     4  10  24  40  65 101 128 172 230 259 326 407
#     4  12  24  43  67  93 137 177 208 275 345 382
#     4  10  21  39  65  97 124 174 223 263 327 392
#     4  11  22  39  67  94 134 167 218 271 324 386
#     4  11  21  38  68  94 133 176 215 276 333 386
#
# _framework density 21.557115
#
# number of rings (size 3 to 8) (size 9 to 14) (size 15 to 20)
#    0.000    1.333    5.000    0.000    2.333    2.000 
#    0.000    0.000   11.000    0.000    0.000    0.000 
#    0.000    0.000    0.000    0.000    0.000    0.000 
#
# Total GULP energy -297475.817594 kJ/mol
# GULP energy per Si atom -12394.825733 kJ/mol
# Density = 2.150805 g / cm^3
# Si number density = 21.557115 Si / 1000 Ang^3
#
#
#
# Elastic Constant Matrix: (Units=GPa)
#
#
# Indices 1 2 3 4 5 6 
#
# 1 89.0348 39.7760 50.3134 0.0000 0.0000 0.0000
# 2 39.7760 128.3795 33.9819 0.0000 0.0000 0.0000
# 3 50.3134 33.9819 87.6145 0.0000 0.0000 0.0000
# 4 0.0000 0.0000 0.0000 24.5264 0.0000 0.0000
# 5 0.0000 0.0000 0.0000 0.0000 17.4168 0.0000
# 6 0.0000 0.0000 0.0000 0.0000 0.0000 26.0759
#
#
#
# Elastic Compliance Matrix: (Units=1/GPa)
#
#
# Indices 1 2 3 4 5 6 
#
# 1 0.017675 -0.003109 -0.008944 0.000000 0.000000 0.000000
# 2 -0.003109 0.009227 -0.001794 0.000000 0.000000 0.000000
# 3 -0.008944 -0.001794 0.017246 0.000000 0.000000 0.000000
# 4 0.000000 0.000000 0.000000 0.040772 0.000000 0.000000
# 5 0.000000 0.000000 0.000000 0.000000 0.057416 0.000000
# 6 0.000000 0.000000 0.000000 0.000000 0.000000 0.038350
#
#
# Mechanical properties :
#
#
# Convention : Reuss Voigt Hill
#
# Bulk Modulus (GPa) = 60.77325 61.46348 61.11837
# Shear Modulus (GPa) = 23.37943 25.66766 24.52355
#
# Velocity S-wave (km/s) = 3.29680 3.45437 3.37650
# Velocity P-wave (km/s) = 6.53795 6.66964 6.60412
#
# Compressibility (1/GPa) = 0.01645461
#
# Stress axis : x y z
#
# Youngs Moduli (GPa) = 56.57827 108.37335 57.98591
#
# Poissons Ratio (x) = 0.33690 0.51863
# Poissons Ratio (y) = 0.17588 0.10401
# Poissons Ratio (z) = 0.50604 0.19439
#
# Static dielectric constant tensor:
#      x y z
#    x 3.989690 0.000000 0.000000 
#    y 0.000000 4.233610 0.000000 
#    z 0.000000 0.000000 3.547790 
# 
# 
# High freq. dielectric constant tensor:
#      x y z
#    x 1.843260 0.000000 0.000000 
#    y 0.000000 1.868220 0.000000 
#    z 0.000000 0.000000 1.817030 
# 
# From -- ./inp_files/3838.got.cif
#   From: 2010.03.12/outbox.cif.g09.slc.cpg/sg34_2_cif.got.tgz:3838.got - 2010.04.14 01:56:33.
