data_PCOD8171504
_publ_section_title
;
Structure prediction by ZEFSAII (Michael W. Deem and Ramdas Pophale) SiO2 
 PCOD8171504
Probable space group: P N A 21
;
_chemical_formula_sum "Si O2"
_cell_formula_units_Z 32
_cell_length_a 11.536015
_cell_length_b 11.622439
_cell_length_c 11.923949
_cell_angle_alpha 90.000000
_cell_angle_beta 90.000000
_cell_angle_gamma 90.000000
_cell_volume 1598.722906
_symmetry_space_group_name_H-M "P N A 21"
_symmetry_group_IT_number 33
_symmetry_cell_setting 'orthorhombic'
loop_
_space_group_symop_operation_xyz
x,y,z
-x,-y,1/2+z
1/2-x,1/2+y,1/2+z
1/2+x,1/2-y,z
loop_
_atom_site_type_symbol
_atom_site_label
_atom_site_fract_x
_atom_site_fract_y
_atom_site_fract_z
Si Si1 0.114609 0.052781 0.460860
Si Si2 0.669565 0.156632 0.154414
Si Si3 0.141894 0.999545 0.711523
Si Si4 0.655405 0.930389 0.818030
Si Si5 0.071951 0.128780 0.918658
Si Si6 0.281156 0.124665 0.073909
Si Si7 0.990361 0.209771 0.304560
Si Si8 0.017868 0.389177 0.951474
O O1 0.236955 0.048385 0.398627
O O2 0.040382 0.163343 0.422150
O O3 0.129308 0.062447 0.593092
O O4 0.049883 0.934455 0.432289
O O5 0.731433 0.056783 0.224168
O O6 0.770209 0.238525 0.101024
O O7 0.591694 0.231509 0.235536
O O8 0.592753 0.090501 0.063095
O O9 0.047784 0.898961 0.730095
O O10 0.133707 0.098270 0.802832
O O11 0.692919 0.948028 0.687765
O O12 0.611906 0.798969 0.831689
O O13 0.552870 0.018278 0.855361
O O14 0.047606 0.262798 0.908613
O O15 0.157454 0.089908 0.020015
O O16 0.382535 0.101270 0.983802
#
# Coordination Sequence:
#
# PCOD8171504 Si02
#       8
#     4   4   4   4   4   4   4   4
#     4  11  23  43  69  96 136 170 227 275 345 401
#     4  11  18  38  69  89 127 173 227 277 317 411
#     4  11  21  41  63  94 131 172 218 276 343 396
#     4  12  24  41  69 101 133 178 222 288 330 397
#     4  10  26  40  67  99 125 183 220 275 334 411
#     4  11  22  42  67  95 127 176 233 268 331 396
#     4  11  22  40  67  99 124 179 232 274 336 400
#     4  11  24  41  63  99 133 175 231 271 336 396
#
# _framework density 20.015975999999998
#
# number of rings (size 3 to 8) (size 9 to 14) (size 15 to 20)
#    0.000    1.000    5.000    2.250    5.250    0.000 
#    2.250    0.000    0.000    0.000    0.000    0.000 
#    0.000    0.000    0.000    0.000    0.000    0.000 
#
# Total GULP energy -396765.380915 kJ/mol
# GULP energy per Si atom -12398.918154 kJ/mol
# Density = 1.997042 g / cm^3
# Si number density = 20.015976 Si / 1000 Ang^3
#
#
#
# Elastic Constant Matrix: (Units=GPa)
#
#
# Indices 1 2 3 4 5 6 
#
# 1 99.4879 36.7721 43.7226 0.0000 0.0000 0.0000
# 2 36.7721 73.8651 50.7106 0.0000 0.0000 0.0000
# 3 43.7226 50.7106 120.6194 0.0000 0.0000 0.0000
# 4 0.0000 0.0000 0.0000 33.8169 0.0000 0.0000
# 5 0.0000 0.0000 0.0000 0.0000 31.1342 0.0000
# 6 0.0000 0.0000 0.0000 0.0000 0.0000 30.6836
#
#
#
# Elastic Compliance Matrix: (Units=1/GPa)
#
#
# Indices 1 2 3 4 5 6 
#
# 1 0.012953 -0.004533 -0.002789 0.000000 0.000000 0.000000
# 2 -0.004533 0.020618 -0.007025 0.000000 0.000000 0.000000
# 3 -0.002789 -0.007025 0.012255 0.000000 0.000000 0.000000
# 4 0.000000 0.000000 0.000000 0.029571 0.000000 0.000000
# 5 0.000000 0.000000 0.000000 0.000000 0.032119 0.000000
# 6 0.000000 0.000000 0.000000 0.000000 0.000000 0.032591
#
#
# Mechanical properties :
#
#
# Convention : Reuss Voigt Hill
#
# Bulk Modulus (GPa) = 58.37482 61.82033 60.09757
# Shear Modulus (GPa) = 28.65139 29.97808 29.31474
#
# Velocity S-wave (km/s) = 3.78752 3.87422 3.83112
# Velocity P-wave (km/s) = 6.95374 7.13900 7.04698
#
# Compressibility (1/GPa) = 0.01713067
#
# Stress axis : x y z
#
# Youngs Moduli (GPa) = 77.20273 48.50188 81.59955
#
# Poissons Ratio (x) = 0.21988 0.22761
# Poissons Ratio (y) = 0.34999 0.57322
# Poissons Ratio (z) = 0.21534 0.34072
#
# Static dielectric constant tensor:
#      x y z
#    x 3.891650 0.000000 0.000000 
#    y 0.000000 3.636740 0.000000 
#    z 0.000000 0.000000 3.748360 
# 
# 
# High freq. dielectric constant tensor:
#      x y z
#    x 1.798980 0.000000 0.000000 
#    y 0.000000 1.763480 0.000000 
#    z 0.000000 0.000000 1.779890 
# 
# From -- ./inp_files/6468.got.cif
#   From: 2010.03.12/outbox.cif.g09.slc.cpg/sg33_4_cif.got.tgz:6468.got - 2010.04.14 01:49:19.
