data_PCOD8171869
_publ_section_title
;
Structure prediction by ZEFSAII (Michael W. Deem and Ramdas Pophale) SiO2 
 PCOD8171869
Probable space group: P N N 2
;
_chemical_formula_sum "Si O2"
_cell_formula_units_Z 28
_cell_length_a 11.369345
_cell_length_b 15.532183
_cell_length_c 8.151502
_cell_angle_alpha 90.000000
_cell_angle_beta 90.000000
_cell_angle_gamma 90.000000
_cell_volume 1439.479828
_symmetry_space_group_name_H-M "P N N 2"
_symmetry_group_IT_number 34
_symmetry_cell_setting 'orthorhombic'
loop_
_space_group_symop_operation_xyz
x,y,z
-x,-y,z
1/2-x,1/2+y,1/2+z
1/2+x,1/2-y,1/2+z
loop_
_atom_site_type_symbol
_atom_site_label
_atom_site_fract_x
_atom_site_fract_y
_atom_site_fract_z
Si Si1 0.562204 0.789933 0.091900
Si Si2 0.864422 0.024051 0.712281
Si Si3 0.757508 0.872971 0.899107
Si Si4 0.645364 0.696895 0.392716
Si Si5 0.803272 0.708452 0.688717
Si Si6 0.113430 0.881097 0.397236
Si Si7 0.969430 0.906163 0.092914
O O1 0.627247 0.774930 0.265371
O O2 0.432949 0.824164 0.138655
O O3 0.625767 0.858399 0.969658
O O4 0.562723 0.698611 0.000122
O O5 0.772434 0.950682 0.769768
O O6 0.817324 0.109723 0.800768
O O7 0.853746 0.039968 0.516890
O O8 0.000000 0.000000 0.753220
O O9 0.808987 0.790636 0.805505
O O10 0.831355 0.891488 0.064743
O O11 0.743809 0.731279 0.516013
O O12 0.529923 0.673006 0.497174
O O13 0.728860 0.635783 0.785326
O O14 0.003983 0.906835 0.282905
O O15 0.000000 0.000000 0.016313
#
# Coordination Sequence:
#
# PCOD8171869 Si02
#       7
#     4   4   4   4   4   4   4
#     4  10  21  37  56  87 115 162 191 234 287 357
#     4  11  18  38  61  89 113 143 195 257 290 336
#     4  11  20  35  60  87 116 147 200 241 287 344
#     4  10  19  36  59  81 118 153 183 240 302 325
#     4  10  21  38  54  86 124 153 188 239 289 364
#     4   9  22  34  58  90 116 153 191 238 312 336
#     4  11  18  34  59  91 113 141 188 257 290 335
#
# _framework density 19.45147
#
# number of rings (size 3 to 8) (size 9 to 14) (size 15 to 20)
#    0.000    1.714    4.286    1.286    2.000    0.000 
#    0.000    0.714    0.000    0.000    0.000    0.000 
#    0.000    0.000    0.000    0.000    0.000    0.000 
#
# Total GULP energy -346944.741356 kJ/mol
# GULP energy per Si atom -12390.883620 kJ/mol
# Density = 1.940720 g / cm^3
# Si number density = 19.451470 Si / 1000 Ang^3
#
#
#
# Elastic Constant Matrix: (Units=GPa)
#
#
# Indices 1 2 3 4 5 6 
#
# 1 95.0451 22.8202 48.5235 0.0000 0.0000 0.0000
# 2 22.8202 42.7648 27.9933 0.0000 0.0000 0.0000
# 3 48.5235 27.9933 138.6159 0.0000 0.0000 0.0000
# 4 0.0000 0.0000 0.0000 24.0961 0.0000 0.0000
# 5 0.0000 0.0000 0.0000 0.0000 36.1779 0.0000
# 6 0.0000 0.0000 0.0000 0.0000 0.0000 21.0345
#
#
#
# Elastic Compliance Matrix: (Units=1/GPa)
#
#
# Indices 1 2 3 4 5 6 
#
# 1 0.013607 -0.004774 -0.003799 0.000000 0.000000 0.000000
# 2 -0.004774 0.028621 -0.004109 0.000000 0.000000 0.000000
# 3 -0.003799 -0.004109 0.009374 0.000000 0.000000 0.000000
# 4 0.000000 0.000000 0.000000 0.041500 0.000000 0.000000
# 5 0.000000 0.000000 0.000000 0.000000 0.027641 0.000000
# 6 0.000000 0.000000 0.000000 0.000000 0.000000 0.047541
#
#
# Mechanical properties :
#
#
# Convention : Reuss Voigt Hill
#
# Bulk Modulus (GPa) = 38.11299 52.78887 45.45093
# Shear Modulus (GPa) = 24.70423 28.06763 26.38593
#
# Velocity S-wave (km/s) = 3.56763 3.80275 3.68707
# Velocity P-wave (km/s) = 6.05038 6.81754 6.44538
#
# Compressibility (1/GPa) = 0.02623778
#
# Stress axis : x y z
#
# Youngs Moduli (GPa) = 73.49061 34.93953 106.67980
#
# Poissons Ratio (x) = 0.16681 0.40529
# Poissons Ratio (y) = 0.35086 0.43832
# Poissons Ratio (z) = 0.27920 0.14356
#
# Static dielectric constant tensor:
#      x y z
#    x 3.388330 0.000000 0.000000 
#    y 0.000000 3.371430 0.000000 
#    z 0.000000 0.000000 3.852190 
# 
# 
# High freq. dielectric constant tensor:
#      x y z
#    x 1.729200 0.000000 0.000000 
#    y 0.000000 1.732810 0.000000 
#    z 0.000000 0.000000 1.783570 
# 
# From -- ./inp_files/3277.got.cif
#   From: 2010.03.12/outbox.cif.g09.slc.cpg/sg34_2_cif.got.tgz:3277.got - 2010.04.14 01:56:33.
