data_PCOD8171391
_publ_section_title
;
Structure prediction by ZEFSAII (Michael W. Deem and Ramdas Pophale) SiO2 
 PCOD8171391
Probable space group: P N A 21
;
_chemical_formula_sum "Si O2"
_cell_formula_units_Z 20
_cell_length_a 9.728171
_cell_length_b 8.385968
_cell_length_c 10.757004
_cell_angle_alpha 90.000000
_cell_angle_beta 90.000000
_cell_angle_gamma 90.000000
_cell_volume 877.557792
_symmetry_space_group_name_H-M "P N A 21"
_symmetry_group_IT_number 33
_symmetry_cell_setting 'orthorhombic'
loop_
_space_group_symop_operation_xyz
x,y,z
-x,-y,1/2+z
1/2-x,1/2+y,1/2+z
1/2+x,1/2-y,z
loop_
_atom_site_type_symbol
_atom_site_label
_atom_site_fract_x
_atom_site_fract_y
_atom_site_fract_z
Si Si1 0.410001 0.436907 0.268820
Si Si2 0.341204 0.416135 0.878419
Si Si3 0.385803 0.406506 0.603751
Si Si4 0.181728 0.564036 0.415434
Si Si5 0.909892 0.364028 0.416229
O O1 0.509252 0.497747 0.384203
O O2 0.478348 0.481084 0.135189
O O3 0.265201 0.528116 0.286996
O O4 0.394500 0.247030 0.292221
O O5 0.312392 0.368831 0.734724
O O6 0.339315 0.248765 0.950495
O O7 0.228202 0.534657 0.933261
O O8 0.268571 0.492663 0.526991
O O9 0.432110 0.242137 0.539413
O O10 0.034998 0.483262 0.399685
#
# Coordination Sequence:
#
# PCOD8171391 Si02
#       5
#     4   4   4   4   4
#     4   9  21  43  64  93 137 175 226 280 347 409
#     4  10  23  45  65  97 142 179 228 287 348 419
#     4   9  24  43  67  95 140 183 220 285 361 401
#     4  11  22  41  67 100 132 181 236 281 343 418
#     4  11  22  44  71  97 139 180 236 289 337 423
#
# _framework density 22.790521999999999
#
# number of rings (size 3 to 8) (size 9 to 14) (size 15 to 20)
#    1.200    0.800    0.000    3.600    2.800    0.000 
#   14.400    0.000    0.000    0.000    0.000    0.000 
#    0.000    0.000    0.000    0.000    0.000    0.000 
#
# Total GULP energy -247884.429081 kJ/mol
# GULP energy per Si atom -12394.221454 kJ/mol
# Density = 2.273865 g / cm^3
# Si number density = 22.790522 Si / 1000 Ang^3
#
#
#
# Elastic Constant Matrix: (Units=GPa)
#
#
# Indices 1 2 3 4 5 6 
#
# 1 102.4740 47.1753 -25.0244 0.0000 0.0000 0.0000
# 2 47.1753 158.5748 -6.8380 0.0000 0.0000 0.0000
# 3 -25.0244 -6.8380 25.9241 0.0000 0.0000 0.0000
# 4 0.0000 0.0000 0.0000 20.3211 0.0000 0.0000
# 5 0.0000 0.0000 0.0000 0.0000 27.1679 0.0000
# 6 0.0000 0.0000 0.0000 0.0000 0.0000 45.8439
#
#
#
# Elastic Compliance Matrix: (Units=1/GPa)
#
#
# Indices 1 2 3 4 5 6 
#
# 1 0.014746 -0.003816 0.013227 0.000000 0.000000 0.000000
# 2 -0.003816 0.007366 -0.001741 0.000000 0.000000 0.000000
# 3 0.013227 -0.001741 0.050883 0.000000 0.000000 0.000000
# 4 0.000000 0.000000 0.000000 0.049210 0.000000 0.000000
# 5 0.000000 0.000000 0.000000 0.000000 0.036808 0.000000
# 6 0.000000 0.000000 0.000000 0.000000 0.000000 0.021813
#
#
# Mechanical properties :
#
#
# Convention : Reuss Voigt Hill
#
# Bulk Modulus (GPa) = 11.32053 35.28875 23.30464
# Shear Modulus (GPa) = 25.65002 36.77722 31.21362
#
# Velocity S-wave (km/s) = 3.35844 4.02146 3.70481
# Velocity P-wave (km/s) = 4.47402 6.08937 5.34309
#
# Compressibility (1/GPa) = 0.08833507
#
# Stress axis : x y z
#
# Youngs Moduli (GPa) = 67.81682 135.75042 19.65288
#
# Poissons Ratio (x) = 0.51807 -0.25995
# Poissons Ratio (y) = 0.25881 0.03421
# Poissons Ratio (z) = -0.89703 0.23633
#
# Static dielectric constant tensor:
#      x y z
#    x 4.026060 0.000000 0.000000 
#    y 0.000000 4.028310 0.000000 
#    z 0.000000 0.000000 4.010120 
# 
# 
# High freq. dielectric constant tensor:
#      x y z
#    x 1.904150 0.000000 0.000000 
#    y 0.000000 1.903040 0.000000 
#    z 0.000000 0.000000 1.886670 
# 
# From -- ./inp_files/7502.got.cif
#   From: 2010.03.12/outbox.cif.g09.slc.cpg/sg33_4_cif.got.tgz:7502.got - 2010.04.14 01:49:19.
