data_PCOD8171621
_publ_section_title
;
Structure prediction by ZEFSAII (Michael W. Deem and Ramdas Pophale) SiO2 
 PCOD8171621
Probable space group: P N A 21
;
_chemical_formula_sum "Si O2"
_cell_formula_units_Z 24
_cell_length_a 15.604598
_cell_length_b 12.004875
_cell_length_c 5.328209
_cell_angle_alpha 90.000000
_cell_angle_beta 90.000000
_cell_angle_gamma 90.000000
_cell_volume 998.140044
_symmetry_space_group_name_H-M "P N A 21"
_symmetry_group_IT_number 33
_symmetry_cell_setting 'orthorhombic'
loop_
_space_group_symop_operation_xyz
x,y,z
-x,-y,1/2+z
1/2-x,1/2+y,1/2+z
1/2+x,1/2-y,z
loop_
_atom_site_type_symbol
_atom_site_label
_atom_site_fract_x
_atom_site_fract_y
_atom_site_fract_z
Si Si1 0.370544 0.501948 0.496770
Si Si2 0.119243 0.268265 0.485627
Si Si3 0.680743 0.128074 0.981275
Si Si4 0.738512 0.899847 0.854286
Si Si5 0.992415 0.149808 0.771712
Si Si6 0.645239 0.707304 0.632080
O O1 0.279788 0.540605 0.608114
O O2 0.417628 0.611055 0.391274
O O3 0.432712 0.456001 0.715771
O O4 0.357837 0.403953 0.298621
O O5 0.132441 0.352402 0.718670
O O6 0.187484 0.166996 0.500359
O O7 0.022280 0.218479 0.522792
O O8 0.125100 0.330165 0.219206
O O9 0.698712 0.996922 0.026094
O O10 0.770359 0.194553 0.959238
O O11 0.659139 0.818298 0.794372
O O12 0.939306 0.226082 0.965258
#
# Coordination Sequence:
#
# PCOD8171621 Si02
#       6
#     4   4   4   4   4   4
#     4  12  23  44  71 109 145 187 242 316 366 437
#     4  11  26  43  73 102 146 188 242 300 370 431
#     4  11  24  46  67 107 142 190 238 300 362 445
#     4  11  23  45  72 107 145 191 246 308 367 444
#     4  12  23  41  71 108 145 194 242 315 371 438
#     4  11  25  41  72 107 143 188 248 301 374 437
#
# _framework density 24.044720000000002
#
# number of rings (size 3 to 8) (size 9 to 14) (size 15 to 20)
#    0.000    0.667    3.333    6.000    2.333    2.667 
#    0.000    0.000    3.667    0.000    0.000    0.000 
#    0.000    0.000    0.000    0.000    0.000    0.000 
#
# Total GULP energy -297608.278743 kJ/mol
# GULP energy per Si atom -12400.344948 kJ/mol
# Density = 2.398999 g / cm^3
# Si number density = 24.044720 Si / 1000 Ang^3
#
#
#
# Elastic Constant Matrix: (Units=GPa)
#
#
# Indices 1 2 3 4 5 6 
#
# 1 92.7244 46.6984 49.1210 0.0000 0.0000 0.0000
# 2 46.6984 94.5477 33.3137 0.0000 0.0000 0.0000
# 3 49.1210 33.3137 119.4276 0.0000 0.0000 0.0000
# 4 0.0000 0.0000 0.0000 25.9651 0.0000 0.0000
# 5 0.0000 0.0000 0.0000 0.0000 50.0161 0.0000
# 6 0.0000 0.0000 0.0000 0.0000 0.0000 42.0236
#
#
#
# Elastic Compliance Matrix: (Units=1/GPa)
#
#
# Indices 1 2 3 4 5 6 
#
# 1 0.016736 -0.006477 -0.005077 0.000000 0.000000 0.000000
# 2 -0.006477 0.014237 -0.001307 0.000000 0.000000 0.000000
# 3 -0.005077 -0.001307 0.010826 0.000000 0.000000 0.000000
# 4 0.000000 0.000000 0.000000 0.038513 0.000000 0.000000
# 5 0.000000 0.000000 0.000000 0.000000 0.019994 0.000000
# 6 0.000000 0.000000 0.000000 0.000000 0.000000 0.023796
#
#
# Mechanical properties :
#
#
# Convention : Reuss Voigt Hill
#
# Bulk Modulus (GPa) = 62.20386 62.77400 62.48893
# Shear Modulus (GPa) = 32.21999 35.43873 33.82936
#
# Velocity S-wave (km/s) = 3.66458 3.84326 3.75498
# Velocity P-wave (km/s) = 6.62055 6.77186 6.69663
#
# Compressibility (1/GPa) = 0.01607617
#
# Stress axis : x y z
#
# Youngs Moduli (GPa) = 59.75023 70.24197 92.37038
#
# Poissons Ratio (x) = 0.45499 0.46895
# Poissons Ratio (y) = 0.38703 0.12073
# Poissons Ratio (z) = 0.30334 0.09181
#
# Static dielectric constant tensor:
#      x y z
#    x 4.369130 0.000000 0.000000 
#    y 0.000000 4.397570 0.000000 
#    z 0.000000 0.000000 4.281170 
# 
# 
# High freq. dielectric constant tensor:
#      x y z
#    x 1.940860 0.000000 0.000000 
#    y 0.000000 1.946510 0.000000 
#    z 0.000000 0.000000 1.956280 
# 
# From -- ./inp_files/1312.got.cif
#   From: 2010.03.12/outbox.cif.g09.slc.cpg/sg33_1_cif.got.tgz:1312.got - 2010.04.14 01:49:19.
