data_PCOD8171638
_publ_section_title
;
Structure prediction by ZEFSAII (Michael W. Deem and Ramdas Pophale) SiO2 
 PCOD8171638
Probable space group: P N A 21
;
_chemical_formula_sum "Si O2"
_cell_formula_units_Z 24
_cell_length_a 12.943083
_cell_length_b 9.034736
_cell_length_c 9.660951
_cell_angle_alpha 90.000000
_cell_angle_beta 90.000000
_cell_angle_gamma 90.000000
_cell_volume 1129.725892
_symmetry_space_group_name_H-M "P N A 21"
_symmetry_group_IT_number 33
_symmetry_cell_setting 'orthorhombic'
loop_
_space_group_symop_operation_xyz
x,y,z
-x,-y,1/2+z
1/2-x,1/2+y,1/2+z
1/2+x,1/2-y,z
loop_
_atom_site_type_symbol
_atom_site_label
_atom_site_fract_x
_atom_site_fract_y
_atom_site_fract_z
Si Si1 0.006966 0.402178 0.279690
Si Si2 0.000434 0.264518 0.733625
Si Si3 0.172799 0.949054 0.132501
Si Si4 0.415601 0.750939 0.525828
Si Si5 0.836972 0.726124 0.999522
Si Si6 0.705380 0.989029 0.901311
O O1 0.044863 0.570500 0.254300
O O2 0.089624 0.316279 0.373052
O O3 0.895729 0.396844 0.353392
O O4 0.000226 0.319344 0.131987
O O5 0.923152 0.160637 0.651021
O O6 0.027031 0.199931 0.885617
O O7 0.104372 0.273740 0.645069
O O8 0.238569 0.941806 0.270782
O O9 0.244279 0.892710 0.006920
O O10 0.137057 0.112675 0.098195
O O11 0.328443 0.875251 0.498931
O O12 0.786728 0.887241 0.981128
#
# Coordination Sequence:
#
# PCOD8171638 Si02
#       6
#     4   4   4   4   4   4
#     4  11  23  47  73 103 140 186 229 296 355 418
#     4  11  26  45  70 101 145 182 236 290 354 414
#     4  12  26  44  69 107 135 186 236 281 357 418
#     4  11  25  46  73 103 140 184 232 303 342 424
#     4  12  24  47  73 101 146 185 231 294 349 426
#     4  11  26  45  70 105 138 183 236 282 361 418
#
# _framework density 21.244092999999999
#
# number of rings (size 3 to 8) (size 9 to 14) (size 15 to 20)
#    0.000    0.667    5.000    4.000    4.667    2.667 
#    0.000    0.000    0.000    0.000    0.000    0.000 
#    0.000    0.000    0.000    0.000    0.000    0.000 
#
# Total GULP energy -297667.249590 kJ/mol
# GULP energy per Si atom -12402.802066 kJ/mol
# Density = 2.119574 g / cm^3
# Si number density = 21.244093 Si / 1000 Ang^3
#
#
#
# Elastic Constant Matrix: (Units=GPa)
#
#
# Indices 1 2 3 4 5 6 
#
# 1 96.1902 53.5320 30.7844 0.0000 0.0000 0.0000
# 2 53.5320 89.4729 34.0081 0.0000 0.0000 0.0000
# 3 30.7844 34.0081 100.9938 0.0000 0.0000 0.0000
# 4 0.0000 0.0000 0.0000 22.6864 0.0000 0.0000
# 5 0.0000 0.0000 0.0000 0.0000 22.9698 0.0000
# 6 0.0000 0.0000 0.0000 0.0000 0.0000 30.8472
#
#
#
# Elastic Compliance Matrix: (Units=1/GPa)
#
#
# Indices 1 2 3 4 5 6 
#
# 1 0.015892 -0.008792 -0.001883 0.000000 0.000000 0.000000
# 2 -0.008792 0.017681 -0.003274 0.000000 0.000000 0.000000
# 3 -0.001883 -0.003274 0.011578 0.000000 0.000000 0.000000
# 4 0.000000 0.000000 0.000000 0.044079 0.000000 0.000000
# 5 0.000000 0.000000 0.000000 0.000000 0.043535 0.000000
# 6 0.000000 0.000000 0.000000 0.000000 0.000000 0.032418
#
#
# Mechanical properties :
#
#
# Convention : Reuss Voigt Hill
#
# Bulk Modulus (GPa) = 57.96365 58.14508 58.05436
# Shear Modulus (GPa) = 25.14659 26.52285 25.83472
#
# Velocity S-wave (km/s) = 3.44422 3.53722 3.49103
# Velocity P-wave (km/s) = 6.56968 6.64168 6.60578
#
# Compressibility (1/GPa) = 0.01725219
#
# Stress axis : x y z
#
# Youngs Moduli (GPa) = 62.92491 56.55640 86.36970
#
# Poissons Ratio (x) = 0.49726 0.16267
# Poissons Ratio (y) = 0.55326 0.28277
# Poissons Ratio (z) = 0.11851 0.18516
#
# Static dielectric constant tensor:
#      x y z
#    x 4.008100 0.000000 0.000000 
#    y 0.000000 3.822370 0.000000 
#    z 0.000000 0.000000 4.044530 
# 
# 
# High freq. dielectric constant tensor:
#      x y z
#    x 1.833920 0.000000 0.000000 
#    y 0.000000 1.835660 0.000000 
#    z 0.000000 0.000000 1.846890 
# 
# From -- ./inp_files/3720.got.cif
#   From: 2010.03.12/outbox.cif.g09.slc.cpg/sg33_2_cif.got.tgz:3720.got - 2010.04.14 01:49:19.
