data_PCOD8171002
_publ_section_title
;
Structure prediction by ZEFSAII (Michael W. Deem and Ramdas Pophale) SiO2 
 PCOD8171002
Probable space group: P N A 21
;
_chemical_formula_sum "Si O2"
_cell_formula_units_Z 24
_cell_length_a 8.755514
_cell_length_b 25.855522
_cell_length_c 5.026775
_cell_angle_alpha 90.000000
_cell_angle_beta 90.000000
_cell_angle_gamma 90.000000
_cell_volume 1137.953205
_symmetry_space_group_name_H-M "P N A 21"
_symmetry_group_IT_number 33
_symmetry_cell_setting 'orthorhombic'
loop_
_space_group_symop_operation_xyz
x,y,z
-x,-y,1/2+z
1/2-x,1/2+y,1/2+z
1/2+x,1/2-y,z
loop_
_atom_site_type_symbol
_atom_site_label
_atom_site_fract_x
_atom_site_fract_y
_atom_site_fract_z
Si Si1 0.667540 0.130035 0.924080
Si Si2 0.969238 0.806857 0.946755
Si Si3 0.672805 0.195000 0.418348
Si Si4 0.527779 0.371602 0.944644
Si Si5 0.081495 0.480261 0.090958
Si Si6 0.411607 0.516933 0.275322
O O1 0.617918 0.155249 0.645584
O O2 0.847142 0.117661 0.940239
O O3 0.617148 0.171548 0.142098
O O4 0.575264 0.077501 0.973107
O O5 0.147683 0.798334 0.927046
O O6 0.914585 0.846666 0.719324
O O7 0.894122 0.751478 0.937141
O O8 0.919842 0.831213 0.223947
O O9 0.611113 0.425879 0.893651
O O10 0.249984 0.494145 0.190185
O O11 0.969581 0.483183 0.346099
O O12 0.479314 0.481565 0.514557
#
# Coordination Sequence:
#
# PCOD8171002 Si02
#       6
#     4   4   4   4   4   4
#     4  10  21  41  65  86 123 175 207 248 335 398
#     4  10  21  39  61  91 123 155 209 269 320 381
#     4  10  21  39  64  87 120 163 208 263 322 385
#     4  10  21  39  66  91 118 164 221 264 309 380
#     4  12  26  44  64  99 142 170 216 279 336 393
#     4  12  24  42  72  96 128 177 229 267 316 401
#
# _framework density 21.090499999999999
#
# number of rings (size 3 to 8) (size 9 to 14) (size 15 to 20)
#    0.000    1.333    1.667    4.000    4.667    0.000 
#    9.000    0.000    0.000    0.000    0.000    0.000 
#    0.000    0.000    0.000    0.000    0.000    0.000 
#
# Total GULP energy -297666.246263 kJ/mol
# GULP energy per Si atom -12402.760261 kJ/mol
# Density = 2.104250 g / cm^3
# Si number density = 21.090500 Si / 1000 Ang^3
#
#
#
# Elastic Constant Matrix: (Units=GPa)
#
#
# Indices 1 2 3 4 5 6 
#
# 1 46.0013 44.2661 39.0665 0.0000 0.0000 0.0000
# 2 44.2661 136.9183 27.0160 0.0000 0.0000 0.0000
# 3 39.0665 27.0160 114.8638 0.0000 0.0000 0.0000
# 4 0.0000 0.0000 0.0000 48.4146 0.0000 0.0000
# 5 0.0000 0.0000 0.0000 0.0000 26.3484 0.0000
# 6 0.0000 0.0000 0.0000 0.0000 0.0000 36.8846
#
#
#
# Elastic Compliance Matrix: (Units=1/GPa)
#
#
# Indices 1 2 3 4 5 6 
#
# 1 0.042936 -0.011535 -0.011890 0.000000 0.000000 0.000000
# 2 -0.011535 0.010758 0.001393 0.000000 0.000000 0.000000
# 3 -0.011890 0.001393 0.012422 0.000000 0.000000 0.000000
# 4 0.000000 0.000000 0.000000 0.020655 0.000000 0.000000
# 5 0.000000 0.000000 0.000000 0.000000 0.037953 0.000000
# 6 0.000000 0.000000 0.000000 0.000000 0.000000 0.027112
#
#
# Mechanical properties :
#
#
# Convention : Reuss Voigt Hill
#
# Bulk Modulus (GPa) = 45.34737 57.60896 51.47817
# Shear Modulus (GPa) = 24.60000 34.82517 29.71259
#
# Velocity S-wave (km/s) = 3.41897 4.06794 3.75749
# Velocity P-wave (km/s) = 6.09375 7.03126 6.57922
#
# Compressibility (1/GPa) = 0.02205199
#
# Stress axis : x y z
#
# Youngs Moduli (GPa) = 23.29022 92.95228 80.50052
#
# Poissons Ratio (x) = 1.07224 0.95716
# Poissons Ratio (y) = 0.26866 -0.11214
# Poissons Ratio (z) = 0.27692 -0.12948
#
# Static dielectric constant tensor:
#      x y z
#    x 3.593580 0.000000 0.000000 
#    y 0.000000 3.827900 0.000000 
#    z 0.000000 0.000000 4.407270 
# 
# 
# High freq. dielectric constant tensor:
#      x y z
#    x 1.798600 0.000000 0.000000 
#    y 0.000000 1.839810 0.000000 
#    z 0.000000 0.000000 1.851510 
# 
# From -- ./inp_files/439.got.cif
#   From: 2010.03.12/outbox.cif.g09.slc.cpg/sg33_1_cif.got.tgz:439.got - 2010.04.14 01:49:19.
