data_PCOD8171262
_publ_section_title
;
Structure prediction by ZEFSAII (Michael W. Deem and Ramdas Pophale) SiO2 
 PCOD8171262
Probable space group: P N A 21
;
_chemical_formula_sum "Si O2"
_cell_formula_units_Z 28
_cell_length_a 14.127104
_cell_length_b 8.048063
_cell_length_c 10.953381
_cell_angle_alpha 90.000000
_cell_angle_beta 90.000000
_cell_angle_gamma 90.000000
_cell_volume 1245.353667
_symmetry_space_group_name_H-M "P N A 21"
_symmetry_group_IT_number 33
_symmetry_cell_setting 'orthorhombic'
loop_
_space_group_symop_operation_xyz
x,y,z
-x,-y,1/2+z
1/2-x,1/2+y,1/2+z
1/2+x,1/2-y,z
loop_
_atom_site_type_symbol
_atom_site_label
_atom_site_fract_x
_atom_site_fract_y
_atom_site_fract_z
Si Si1 0.617165 0.204445 0.755560
Si Si2 0.183397 0.819402 0.727516
Si Si3 0.111869 0.052950 0.546777
Si Si4 0.666666 0.133920 0.409391
Si Si5 0.068856 0.149784 0.016903
Si Si6 0.001947 0.630199 0.731561
Si Si7 0.743095 0.505281 0.132236
O O1 0.576774 0.347743 0.667532
O O2 0.729091 0.161273 0.722136
O O3 0.557208 0.041858 0.718585
O O4 0.609950 0.265206 0.894701
O O5 0.238016 0.913349 0.835252
O O6 0.247353 0.659491 0.709459
O O7 0.076444 0.775036 0.768895
O O8 0.187081 0.920831 0.600529
O O9 0.163325 0.171332 0.449241
O O10 0.025868 0.952401 0.484857
O O11 0.571567 0.093590 0.338630
O O12 0.675831 0.015393 0.526673
O O13 0.050393 0.304539 0.109294
O O14 0.138170 0.007610 0.074999
#
# Coordination Sequence:
#
# PCOD8171262 Si02
#       7
#     4   4   4   4   4   4   4
#     4  10  24  44  65  99 136 172 229 279 336 412
#     4  10  22  44  62  97 136 167 226 276 323 407
#     4  10  25  41  68 100 129 175 230 272 336 405
#     4  11  23  43  67  95 136 174 219 280 331 399
#     4  11  23  45  72  95 139 180 219 289 339 393
#     4  10  24  42  67  98 132 178 227 269 346 397
#     4  10  23  43  63  98 130 176 228 269 341 403
#
# _framework density 22.483573
#
# number of rings (size 3 to 8) (size 9 to 14) (size 15 to 20)
#    0.000    1.714    1.429    0.857   14.000    2.286 
#    7.714    0.000    0.000    0.000    0.000    0.000 
#    0.000    0.000    0.000    0.000    0.000    0.000 
#
# Total GULP energy -346876.342596 kJ/mol
# GULP energy per Si atom -12388.440807 kJ/mol
# Density = 2.243240 g / cm^3
# Si number density = 22.483573 Si / 1000 Ang^3
#
#
#
# Elastic Constant Matrix: (Units=GPa)
#
#
# Indices 1 2 3 4 5 6 
#
# 1 87.3638 7.5760 38.7680 0.0000 0.0000 0.0000
# 2 7.5760 53.3566 5.3001 0.0000 0.0000 0.0000
# 3 38.7680 5.3001 87.0141 0.0000 0.0000 0.0000
# 4 0.0000 0.0000 0.0000 38.4916 0.0000 0.0000
# 5 0.0000 0.0000 0.0000 0.0000 33.9967 0.0000
# 6 0.0000 0.0000 0.0000 0.0000 0.0000 27.6333
#
#
#
# Elastic Compliance Matrix: (Units=1/GPa)
#
#
# Indices 1 2 3 4 5 6 
#
# 1 0.014372 -0.001413 -0.006317 0.000000 0.000000 0.000000
# 2 -0.001413 0.018995 -0.000527 0.000000 0.000000 0.000000
# 3 -0.006317 -0.000527 0.014339 0.000000 0.000000 0.000000
# 4 0.000000 0.000000 0.000000 0.025980 0.000000 0.000000
# 5 0.000000 0.000000 0.000000 0.000000 0.029415 0.000000
# 6 0.000000 0.000000 0.000000 0.000000 0.000000 0.036188
#
#
# Mechanical properties :
#
#
# Convention : Reuss Voigt Hill
#
# Bulk Modulus (GPa) = 32.06100 36.78030 34.42065
# Shear Modulus (GPa) = 30.08401 31.76368 30.92384
#
# Velocity S-wave (km/s) = 3.66190 3.76274 3.71266
# Velocity P-wave (km/s) = 5.67186 5.93901 5.80697
#
# Compressibility (1/GPa) = 0.03119054
#
# Stress axis : x y z
#
# Youngs Moduli (GPa) = 69.57847 52.64579 69.73942
#
# Poissons Ratio (x) = 0.07440 0.44056
# Poissons Ratio (y) = 0.09833 0.03678
# Poissons Ratio (z) = 0.43955 0.02776
#
# Static dielectric constant tensor:
#      x y z
#    x 4.056230 0.000000 0.000000 
#    y 0.000000 4.166810 0.000000 
#    z 0.000000 0.000000 4.039090 
# 
# 
# High freq. dielectric constant tensor:
#      x y z
#    x 1.875620 0.000000 0.000000 
#    y 0.000000 1.885380 0.000000 
#    z 0.000000 0.000000 1.891630 
# 
# From -- ./inp_files/6705.got.cif
#   From: 2010.03.12/outbox.cif.g09.slc.cpg/sg33_4_cif.got.tgz:6705.got - 2010.04.14 01:49:19.
