data_PCOD8171362
_publ_section_title
;
Structure prediction by ZEFSAII (Michael W. Deem and Ramdas Pophale) SiO2 
 PCOD8171362
Probable space group: P N A 21
;
_chemical_formula_sum "Si O2"
_cell_formula_units_Z 20
_cell_length_a 13.459413
_cell_length_b 5.073703
_cell_length_c 13.274144
_cell_angle_alpha 90.000000
_cell_angle_beta 90.000000
_cell_angle_gamma 90.000000
_cell_volume 906.478871
_symmetry_space_group_name_H-M "P N A 21"
_symmetry_group_IT_number 33
_symmetry_cell_setting 'orthorhombic'
loop_
_space_group_symop_operation_xyz
x,y,z
-x,-y,1/2+z
1/2-x,1/2+y,1/2+z
1/2+x,1/2-y,z
loop_
_atom_site_type_symbol
_atom_site_label
_atom_site_fract_x
_atom_site_fract_y
_atom_site_fract_z
Si Si1 0.052596 0.113884 0.557320
Si Si2 0.493564 0.562610 0.840678
Si Si3 0.356813 0.566694 0.493137
Si Si4 0.769673 0.445222 0.580662
Si Si5 0.049266 0.557351 0.212901
O O1 0.018834 0.379121 0.615149
O O2 0.072083 0.160504 0.437329
O O3 0.956645 0.916816 0.565229
O O4 0.153774 0.007876 0.608114
O O5 0.450058 0.298136 0.791982
O O6 0.496900 0.795841 0.760617
O O7 0.606243 0.501769 0.879895
O O8 0.301825 0.844961 0.495323
O O9 0.282326 0.344889 0.534555
O O10 0.835915 0.488347 0.680449
#
# Coordination Sequence:
#
# PCOD8171362 Si02
#       5
#     4   4   4   4   4
#     4   9  24  43  68  95 137 175 214 282 334 392
#     4  10  23  43  65  93 138 170 215 279 330 389
#     4   9  22  40  65  88 127 172 208 274 323 393
#     4  11  21  42  66  91 130 176 218 270 333 385
#     4  11  22  42  64  99 130 171 225 269 324 403
#
# _framework density 22.063393999999999
#
# number of rings (size 3 to 8) (size 9 to 14) (size 15 to 20)
#    1.200    0.800    0.000    3.600    0.000    6.400 
#   10.800    0.000    0.000    0.000    0.000    0.000 
#    0.000    0.000    0.000    0.000    0.000    0.000 
#
# Total GULP energy -247797.291928 kJ/mol
# GULP energy per Si atom -12389.864596 kJ/mol
# Density = 2.201318 g / cm^3
# Si number density = 22.063394 Si / 1000 Ang^3
#
#
#
# Elastic Constant Matrix: (Units=GPa)
#
#
# Indices 1 2 3 4 5 6 
#
# 1 114.9363 24.3219 -11.5102 0.0000 0.0000 0.0000
# 2 24.3219 92.2673 10.2905 0.0000 0.0000 0.0000
# 3 -11.5102 10.2905 54.9258 0.0000 0.0000 0.0000
# 4 0.0000 0.0000 0.0000 43.0195 0.0000 0.0000
# 5 0.0000 0.0000 0.0000 0.0000 16.6524 0.0000
# 6 0.0000 0.0000 0.0000 0.0000 0.0000 17.6516
#
#
#
# Elastic Compliance Matrix: (Units=1/GPa)
#
#
# Indices 1 2 3 4 5 6 
#
# 1 0.009545 -0.002798 0.002524 0.000000 0.000000 0.000000
# 2 -0.002798 0.011889 -0.002814 0.000000 0.000000 0.000000
# 3 0.002524 -0.002814 0.019263 0.000000 0.000000 0.000000
# 4 0.000000 0.000000 0.000000 0.023245 0.000000 0.000000
# 5 0.000000 0.000000 0.000000 0.000000 0.060052 0.000000
# 6 0.000000 0.000000 0.000000 0.000000 0.000000 0.056652
#
#
# Mechanical properties :
#
#
# Convention : Reuss Voigt Hill
#
# Bulk Modulus (GPa) = 28.96605 34.25931 31.61268
# Shear Modulus (GPa) = 25.21079 31.39986 28.30532
#
# Velocity S-wave (km/s) = 3.38398 3.77658 3.58566
# Velocity P-wave (km/s) = 5.33156 5.88032 5.61265
#
# Compressibility (1/GPa) = 0.03452317
#
# Stress axis : x y z
#
# Youngs Moduli (GPa) = 104.76346 84.10868 51.91417
#
# Poissons Ratio (x) = 0.23531 -0.13106
# Poissons Ratio (y) = 0.29310 0.14608
# Poissons Ratio (z) = -0.26447 0.23666
#
# Static dielectric constant tensor:
#      x y z
#    x 3.771900 0.000000 0.000000 
#    y 0.000000 3.777030 0.000000 
#    z 0.000000 0.000000 3.956170 
# 
# 
# High freq. dielectric constant tensor:
#      x y z
#    x 1.850930 0.000000 0.000000 
#    y 0.000000 1.866470 0.000000 
#    z 0.000000 0.000000 1.859510 
# 
# From -- ./inp_files/6634.got.cif
#   From: 2010.03.12/outbox.cif.g09.slc.cpg/sg33_4_cif.got.tgz:6634.got - 2010.04.14 01:49:19.
