data_PCOD8171077
_publ_section_title
;
Structure prediction by ZEFSAII (Michael W. Deem and Ramdas Pophale) SiO2 
 PCOD8171077
Probable space group: P N A 21
;
_chemical_formula_sum "Si O2"
_cell_formula_units_Z 24
_cell_length_a 10.671759
_cell_length_b 11.579380
_cell_length_c 8.565466
_cell_angle_alpha 90.000000
_cell_angle_beta 90.000000
_cell_angle_gamma 90.000000
_cell_volume 1058.454786
_symmetry_space_group_name_H-M "P N A 21"
_symmetry_group_IT_number 33
_symmetry_cell_setting 'orthorhombic'
loop_
_space_group_symop_operation_xyz
x,y,z
-x,-y,1/2+z
1/2-x,1/2+y,1/2+z
1/2+x,1/2-y,z
loop_
_atom_site_type_symbol
_atom_site_label
_atom_site_fract_x
_atom_site_fract_y
_atom_site_fract_z
Si Si1 0.344641 0.018009 0.940950
Si Si2 0.385158 0.636147 0.570717
Si Si3 0.023548 0.948701 0.268207
Si Si4 0.764541 0.941903 0.115614
Si Si5 0.256836 0.815789 0.148683
Si Si6 0.613770 0.122275 0.953138
O O1 0.259788 0.115158 0.024506
O O2 0.318056 0.012211 0.758674
O O3 0.489463 0.046543 0.962499
O O4 0.309966 0.894201 0.011067
O O5 0.415945 0.577519 0.739302
O O6 0.475106 0.573625 0.442550
O O7 0.401524 0.774296 0.579446
O O8 0.910817 0.944754 0.145782
O O9 0.123898 0.853615 0.217932
O O10 0.730957 0.809850 0.076091
O O11 0.729414 0.032780 0.978651
O O12 0.360910 0.814677 0.287503
#
# Coordination Sequence:
#
# PCOD8171077 Si02
#       6
#     4   4   4   4   4   4
#     4  10  23  42  61  98 129 171 222 267 328 391
#     4  10  22  40  64  95 127 171 219 265 329 385
#     4  10  21  41  66  91 130 173 216 264 328 389
#     4  11  24  41  66  97 130 176 216 271 333 382
#     4  11  23  43  67  95 134 174 216 277 325 387
#     4  12  23  41  70  96 132 175 215 274 331 388
#
# _framework density 22.674562999999999
#
# number of rings (size 3 to 8) (size 9 to 14) (size 15 to 20)
#    0.000    1.333    3.333    3.000    4.667    0.000 
#    9.000    3.333    0.000    0.000    0.000    0.000 
#    0.000    0.000    0.000    0.000    0.000    0.000 
#
# Total GULP energy -297563.776231 kJ/mol
# GULP energy per Si atom -12398.490676 kJ/mol
# Density = 2.262295 g / cm^3
# Si number density = 22.674563 Si / 1000 Ang^3
#
#
#
# Elastic Constant Matrix: (Units=GPa)
#
#
# Indices 1 2 3 4 5 6 
#
# 1 83.0853 18.1604 6.3911 0.0000 0.0000 0.0000
# 2 18.1604 161.0674 39.7580 0.0000 0.0000 0.0000
# 3 6.3911 39.7580 30.2870 0.0000 0.0000 0.0000
# 4 0.0000 0.0000 0.0000 29.7294 0.0000 0.0000
# 5 0.0000 0.0000 0.0000 0.0000 23.8098 0.0000
# 6 0.0000 0.0000 0.0000 0.0000 0.0000 22.3367
#
#
#
# Elastic Compliance Matrix: (Units=1/GPa)
#
#
# Indices 1 2 3 4 5 6 
#
# 1 0.012367 -0.001110 -0.001153 0.000000 0.000000 0.000000
# 2 -0.001110 0.009284 -0.011953 0.000000 0.000000 0.000000
# 3 -0.001153 -0.011953 0.048952 0.000000 0.000000 0.000000
# 4 0.000000 0.000000 0.000000 0.033637 0.000000 0.000000
# 5 0.000000 0.000000 0.000000 0.000000 0.042000 0.000000
# 6 0.000000 0.000000 0.000000 0.000000 0.000000 0.044769
#
#
# Mechanical properties :
#
#
# Convention : Reuss Voigt Hill
#
# Bulk Modulus (GPa) = 23.71278 44.78430 34.24854
# Shear Modulus (GPa) = 21.41344 29.18385 25.29865
#
# Velocity S-wave (km/s) = 3.07641 3.59147 3.34388
# Velocity P-wave (km/s) = 4.80621 6.08211 5.48141
#
# Compressibility (1/GPa) = 0.04217135
#
# Stress axis : x y z
#
# Youngs Moduli (GPa) = 80.85978 107.70878 20.42819
#
# Poissons Ratio (x) = 0.11954 0.02355
# Poissons Ratio (y) = 0.08974 0.24419
# Poissons Ratio (z) = 0.09321 1.28748
#
# Static dielectric constant tensor:
#      x y z
#    x 4.149540 0.000000 0.000000 
#    y 0.000000 4.128200 0.000000 
#    z 0.000000 0.000000 3.960910 
# 
# 
# High freq. dielectric constant tensor:
#      x y z
#    x 1.909690 0.000000 0.000000 
#    y 0.000000 1.897800 0.000000 
#    z 0.000000 0.000000 1.872200 
# 
# From -- ./inp_files/3774.got.cif
#   From: 2010.03.12/outbox.cif.g09.slc.cpg/sg33_2_cif.got.tgz:3774.got - 2010.04.14 01:49:19.
