data_PCOD8171434
_publ_section_title
;
Structure prediction by ZEFSAII (Michael W. Deem and Ramdas Pophale) SiO2 
 PCOD8171434
Probable space group: P N A 21
;
_chemical_formula_sum "Si O2"
_cell_formula_units_Z 24
_cell_length_a 27.059285
_cell_length_b 7.257420
_cell_length_c 5.251569
_cell_angle_alpha 90.000000
_cell_angle_beta 90.000000
_cell_angle_gamma 90.000000
_cell_volume 1031.306251
_symmetry_space_group_name_H-M "P N A 21"
_symmetry_group_IT_number 33
_symmetry_cell_setting 'orthorhombic'
loop_
_space_group_symop_operation_xyz
x,y,z
-x,-y,1/2+z
1/2-x,1/2+y,1/2+z
1/2+x,1/2-y,z
loop_
_atom_site_type_symbol
_atom_site_label
_atom_site_fract_x
_atom_site_fract_y
_atom_site_fract_z
Si Si1 0.682188 0.670697 0.145970
Si Si2 0.408650 0.881288 0.029782
Si Si3 0.740153 0.999953 0.276148
Si Si4 0.091311 0.618765 0.023715
Si Si5 0.999977 0.880797 0.025651
Si Si6 0.182199 0.170786 0.406481
O O1 0.642307 0.770763 0.964370
O O2 0.653118 0.499940 0.276234
O O3 0.705185 0.822959 0.341052
O O4 0.726929 0.562996 0.010840
O O5 0.357632 0.770774 0.088413
O O6 0.421991 0.999469 0.277237
O O7 0.452735 0.743672 0.970552
O O8 0.400703 0.000597 0.777251
O O9 0.705143 0.176858 0.211378
O O10 0.773015 0.936940 0.041215
O O11 0.047181 0.756401 0.081966
O O12 0.010666 0.999232 0.774969
#
# Coordination Sequence:
#
# PCOD8171434 Si02
#       6
#     4   4   4   4   4   4
#     4  11  24  42  70 100 146 193 250 295 364 424
#     4  12  27  47  73 106 147 189 241 302 370 434
#     4  10  24  42  66 104 146 192 250 300 356 418
#     4  12  27  47  73 106 147 189 241 302 370 434
#     4  12  26  48  78 108 142 186 244 300 368 442
#     4  11  24  42  70 100 146 193 250 295 364 424
#
# _framework density 23.271459
#
# number of rings (size 3 to 8) (size 9 to 14) (size 15 to 20)
#    0.000    0.667    1.667    5.000    7.000    5.333 
#    0.000    0.000    0.000    0.000    0.000    0.000 
#    0.000    0.000    0.000    0.000    0.000    0.000 
#
# Total GULP energy -297455.243029 kJ/mol
# GULP energy per Si atom -12393.968460 kJ/mol
# Density = 2.321849 g / cm^3
# Si number density = 23.271459 Si / 1000 Ang^3
#
#
#
# Elastic Constant Matrix: (Units=GPa)
#
#
# Indices 1 2 3 4 5 6 
#
# 1 124.4009 56.0991 6.2851 0.0000 0.0000 0.0000
# 2 56.0991 161.9927 41.7235 0.0000 0.0000 0.0000
# 3 6.2851 41.7235 97.8029 0.0000 0.0000 0.0000
# 4 0.0000 0.0000 0.0000 25.3672 0.0000 0.0000
# 5 0.0000 0.0000 0.0000 0.0000 16.4047 0.0000
# 6 0.0000 0.0000 0.0000 0.0000 0.0000 20.6230
#
#
#
# Elastic Compliance Matrix: (Units=1/GPa)
#
#
# Indices 1 2 3 4 5 6 
#
# 1 0.009596 -0.003555 0.000900 0.000000 0.000000 0.000000
# 2 -0.003555 0.008252 -0.003292 0.000000 0.000000 0.000000
# 3 0.000900 -0.003292 0.011571 0.000000 0.000000 0.000000
# 4 0.000000 0.000000 0.000000 0.039421 0.000000 0.000000
# 5 0.000000 0.000000 0.000000 0.000000 0.060958 0.000000
# 6 0.000000 0.000000 0.000000 0.000000 0.000000 0.048489
#
#
# Mechanical properties :
#
#
# Convention : Reuss Voigt Hill
#
# Bulk Modulus (GPa) = 57.06002 65.82353 61.44178
# Shear Modulus (GPa) = 25.50709 31.15158 28.32934
#
# Velocity S-wave (km/s) = 3.31428 3.66268 3.49283
# Velocity P-wave (km/s) = 6.26247 6.79952 6.53651
#
# Compressibility (1/GPa) = 0.01752540
#
# Stress axis : x y z
#
# Youngs Moduli (GPa) = 104.20785 121.18083 86.42149
#
# Poissons Ratio (x) = 0.43080 -0.07777
# Poissons Ratio (y) = 0.37046 0.28450
# Poissons Ratio (z) = -0.09378 0.39892
#
# Static dielectric constant tensor:
#      x y z
#    x 4.294430 0.000000 0.000000 
#    y 0.000000 5.074050 0.000000 
#    z 0.000000 0.000000 3.882700 
# 
# 
# High freq. dielectric constant tensor:
#      x y z
#    x 1.932770 0.000000 0.000000 
#    y 0.000000 1.956460 0.000000 
#    z 0.000000 0.000000 1.892340 
# 
# From -- ./inp_files/2496.got.cif
#   From: 2010.03.12/outbox.cif.g09.slc.cpg/sg33_2_cif.got.tgz:2496.got - 2010.04.14 01:49:19.
