data_PCOD8171858
_publ_section_title
;
Structure prediction by ZEFSAII (Michael W. Deem and Ramdas Pophale) SiO2 
 PCOD8171858
Probable space group: P N N 2
;
_chemical_formula_sum "Si O2"
_cell_formula_units_Z 24
_cell_length_a 26.098609
_cell_length_b 8.070035
_cell_length_c 5.185381
_cell_angle_alpha 90.000000
_cell_angle_beta 90.000000
_cell_angle_gamma 90.000000
_cell_volume 1092.127773
_symmetry_space_group_name_H-M "P N N 2"
_symmetry_group_IT_number 34
_symmetry_cell_setting 'orthorhombic'
loop_
_space_group_symop_operation_xyz
x,y,z
-x,-y,z
1/2-x,1/2+y,1/2+z
1/2+x,1/2-y,1/2+z
loop_
_atom_site_type_symbol
_atom_site_label
_atom_site_fract_x
_atom_site_fract_y
_atom_site_fract_z
Si Si1 0.960385 0.260309 0.678060
Si Si2 0.428562 0.858718 0.178017
Si Si3 0.097413 0.791152 0.177966
Si Si4 0.129406 0.410609 0.179063
Si Si5 0.740650 0.219505 0.692594
Si Si6 0.792741 0.092056 0.189054
O O1 0.946608 0.452718 0.676981
O O2 0.936931 0.171293 0.428098
O O3 0.021872 0.239449 0.679054
O O4 0.937555 0.172798 0.930147
O O5 0.393951 0.822183 0.427366
O O6 0.395002 0.819826 0.926132
O O7 0.117860 0.604243 0.180462
O O8 0.145794 0.913230 0.170365
O O9 0.190231 0.392982 0.185339
O O10 0.778711 0.161918 0.468782
O O11 0.727450 0.408935 0.644080
O O12 0.768810 0.206745 0.966686
#
# Coordination Sequence:
#
# PCOD8171858 Si02
#       6
#     4   4   4   4   4   4
#     4   9  17  30  52  82 113 147 190 237 281 334
#     4   9  17  30  52  82 113 147 190 237 281 334
#     4  10  19  33  55  82 113 149 192 239 287 340
#     4  10  19  33  55  82 113 149 192 239 287 340
#     4  12  25  42  63  88 120 157 200 247 300 358
#     4  12  25  42  63  88 120 157 200 247 300 358
#
# _framework density 21.975452000000001
#
# number of rings (size 3 to 8) (size 9 to 14) (size 15 to 20)
#    0.000    1.667    0.000    6.000    0.000    6.667 
#    0.000    0.000    0.000    6.000    0.000    0.000 
#    0.000    0.000    0.000    0.000    0.000    0.000 
#
# Total GULP energy -297739.754534 kJ/mol
# GULP energy per Si atom -12405.823106 kJ/mol
# Density = 2.192544 g / cm^3
# Si number density = 21.975452 Si / 1000 Ang^3
#
#
#
# Elastic Constant Matrix: (Units=GPa)
#
#
# Indices 1 2 3 4 5 6 
#
# 1 70.4794 -13.2660 40.1464 0.0000 0.0000 0.0000
# 2 -13.2660 29.9297 -0.3517 0.0000 0.0000 0.0000
# 3 40.1464 -0.3517 173.1772 0.0000 0.0000 0.0000
# 4 0.0000 0.0000 0.0000 10.7389 0.0000 0.0000
# 5 0.0000 0.0000 0.0000 0.0000 45.6570 0.0000
# 6 0.0000 0.0000 0.0000 0.0000 0.0000 22.5648
#
#
#
# Elastic Compliance Matrix: (Units=1/GPa)
#
#
# Indices 1 2 3 4 5 6 
#
# 1 0.018062 0.007957 -0.004171 0.000000 0.000000 0.000000
# 2 0.007957 0.036918 -0.001770 0.000000 0.000000 0.000000
# 3 -0.004171 -0.001770 0.006738 0.000000 0.000000 0.000000
# 4 0.000000 0.000000 0.000000 0.093120 0.000000 0.000000
# 5 0.000000 0.000000 0.000000 0.000000 0.021902 0.000000
# 6 0.000000 0.000000 0.000000 0.000000 0.000000 0.044317
#
#
# Mechanical properties :
#
#
# Convention : Reuss Voigt Hill
#
# Bulk Modulus (GPa) = 15.20917 36.29374 25.75145
# Shear Modulus (GPa) = 20.92568 32.26264 26.59416
#
# Velocity S-wave (km/s) = 3.08917 3.83576 3.48253
# Velocity P-wave (km/s) = 4.43396 6.01406 5.28341
#
# Compressibility (1/GPa) = 0.06574983
#
# Stress axis : x y z
#
# Youngs Moduli (GPa) = 55.36453 27.08734 148.41679
#
# Poissons Ratio (x) = -0.21553 0.61905
# Poissons Ratio (y) = -0.44052 0.26264
# Poissons Ratio (z) = 0.23093 0.04793
#
# Static dielectric constant tensor:
#      x y z
#    x 4.113740 0.000000 0.000000 
#    y 0.000000 3.459950 0.000000 
#    z 0.000000 0.000000 4.206740 
# 
# 
# High freq. dielectric constant tensor:
#      x y z
#    x 1.876720 0.000000 0.000000 
#    y 0.000000 1.830140 0.000000 
#    z 0.000000 0.000000 1.881590 
# 
# From -- ./inp_files/487.got.cif
#   From: 2010.03.12/outbox.cif.g09.slc.cpg/sg34_1_cif.got.tgz:487.got - 2010.04.14 01:56:33.
