data_PCOD8171793
_publ_section_title
;
Structure prediction by ZEFSAII (Michael W. Deem and Ramdas Pophale) SiO2 
 PCOD8171793
Probable space group: P N A 21
;
_chemical_formula_sum "Si O2"
_cell_formula_units_Z 28
_cell_length_a 11.661197
_cell_length_b 6.500910
_cell_length_c 15.799260
_cell_angle_alpha 90.000000
_cell_angle_beta 90.000000
_cell_angle_gamma 90.000000
_cell_volume 1197.716498
_symmetry_space_group_name_H-M "P N A 21"
_symmetry_group_IT_number 33
_symmetry_cell_setting 'orthorhombic'
loop_
_space_group_symop_operation_xyz
x,y,z
-x,-y,1/2+z
1/2-x,1/2+y,1/2+z
1/2+x,1/2-y,z
loop_
_atom_site_type_symbol
_atom_site_label
_atom_site_fract_x
_atom_site_fract_y
_atom_site_fract_z
Si Si1 0.852019 0.096999 0.026560
Si Si2 0.645113 0.899715 0.129154
Si Si3 0.357516 0.089363 0.891701
Si Si4 0.193200 0.751975 0.827310
Si Si5 0.145424 0.911857 0.265398
Si Si6 0.986897 0.240262 0.182581
Si Si7 0.488126 0.242837 0.471932
O O1 0.747599 0.003460 0.078424
O O2 0.946855 0.197321 0.087619
O O3 0.798533 0.275630 0.966798
O O4 0.917004 0.923261 0.970849
O O5 0.573432 0.066795 0.183528
O O6 0.701498 0.726308 0.190039
O O7 0.556244 0.788512 0.066549
O O8 0.417103 0.252462 0.828574
O O9 0.273057 0.953196 0.833580
O O10 0.455812 0.960969 0.935465
O O11 0.266106 0.541558 0.823102
O O12 0.124266 0.733078 0.740428
O O13 0.118446 0.781334 0.910890
O O14 0.050419 0.048709 0.222648
#
# Coordination Sequence:
#
# PCOD8171793 Si02
#       7
#     4   4   4   4   4   4   4
#     4  12  27  45  77 112 152 201 250 310 383 458
#     4  12  27  45  77 112 152 201 250 310 383 458
#     4  12  26  48  73 106 150 196 253 308 375 450
#     4  12  28  46  76 108 148 200 260 306 376 452
#     4  12  26  48  73 106 150 196 253 308 375 450
#     4  12  26  48  73 111 149 199 248 310 385 445
#     4  12  26  48  73 111 149 199 248 310 385 445
#
# _framework density 23.377818999999999
#
# number of rings (size 3 to 8) (size 9 to 14) (size 15 to 20)
#    0.000    0.000    2.857    7.714    4.000    8.000 
#    0.000    0.000    0.000    0.000    0.000    0.000 
#    0.000    0.000    0.000    0.000    0.000    0.000 
#
# Total GULP energy -347130.241438 kJ/mol
# GULP energy per Si atom -12397.508623 kJ/mol
# Density = 2.332461 g / cm^3
# Si number density = 23.377819 Si / 1000 Ang^3
#
#
#
# Elastic Constant Matrix: (Units=GPa)
#
#
# Indices 1 2 3 4 5 6 
#
# 1 -19.5833 -83.4339 -22.5720 0.0000 0.0000 0.0000
# 2 -83.4339 -23.9999 -3.1856 0.0000 0.0000 0.0000
# 3 -22.5720 -3.1856 81.3020 0.0000 0.0000 0.0000
# 4 0.0000 0.0000 0.0000 62.7074 0.0000 0.0000
# 5 0.0000 0.0000 0.0000 0.0000 48.5461 0.0000
# 6 0.0000 0.0000 0.0000 0.0000 0.0000 20.1162
#
#
#
# Elastic Compliance Matrix: (Units=1/GPa)
#
#
# Indices 1 2 3 4 5 6 
#
# 1 0.003720 -0.013000 0.000523 0.000000 0.000000 0.000000
# 2 -0.013000 0.003986 -0.003453 0.000000 0.000000 0.000000
# 3 0.000523 -0.003453 0.012310 0.000000 0.000000 0.000000
# 4 0.000000 0.000000 0.000000 0.015947 0.000000 0.000000
# 5 0.000000 0.000000 0.000000 0.000000 0.020599 0.000000
# 6 0.000000 0.000000 0.000000 0.000000 0.000000 0.049711
#
#
# Mechanical properties :
#
#
# Convention : Reuss Voigt Hill
#
# Bulk Modulus (GPa) = -84.42381 -20.07379 -52.24880
# Shear Modulus (GPa) = 37.26239 36.06797 36.66518
#
# Velocity S-wave (km/s) = 3.99672 3.93215 3.96457
# Velocity P-wave (km/s) = 3.85911 3.46560 1.20050
#
# Compressibility (1/GPa) = -0.01184500
#
# Stress axis : x y z
#
# Youngs Moduli (GPa) = 268.85060 250.90777 81.23610
#
# Poissons Ratio (x) = 3.26184 -0.04251
# Poissons Ratio (y) = 3.49509 0.28052
# Poissons Ratio (z) = -0.14069 0.86641
#
# Static dielectric constant tensor:
#      x y z
#    x 4.041370 0.000000 0.000000 
#    y 0.000000 5.064210 0.000000 
#    z 0.000000 0.000000 6.791980 
# 
# 
# High freq. dielectric constant tensor:
#      x y z
#    x 1.908470 0.000000 0.000000 
#    y 0.000000 1.944220 0.000000 
#    z 0.000000 0.000000 1.954930 
# 
# From -- ./inp_files/8656.got.cif
#   From: 2010.03.12/outbox.cif.g09.slc.cpg/sg33_5_cif.got.tgz:8656.got - 2010.04.14 01:49:19.
