data_PCOD8171748
_publ_section_title
;
Structure prediction by ZEFSAII (Michael W. Deem and Ramdas Pophale) SiO2 
 PCOD8171748
Probable space group: P N A 21
;
_chemical_formula_sum "Si O2"
_cell_formula_units_Z 20
_cell_length_a 9.423615
_cell_length_b 16.189969
_cell_length_c 6.341270
_cell_angle_alpha 90.000000
_cell_angle_beta 90.000000
_cell_angle_gamma 90.000000
_cell_volume 967.475102
_symmetry_space_group_name_H-M "P N A 21"
_symmetry_group_IT_number 33
_symmetry_cell_setting 'orthorhombic'
loop_
_space_group_symop_operation_xyz
x,y,z
-x,-y,1/2+z
1/2-x,1/2+y,1/2+z
1/2+x,1/2-y,z
loop_
_atom_site_type_symbol
_atom_site_label
_atom_site_fract_x
_atom_site_fract_y
_atom_site_fract_z
Si Si1 0.107837 0.410193 0.498380
Si Si2 0.999370 0.720313 0.681213
Si Si3 0.139694 0.192160 0.808810
Si Si4 0.888711 0.405338 0.862896
Si Si5 0.354746 0.309583 0.561685
O O1 0.088712 0.349266 0.302934
O O2 0.073808 0.504839 0.448193
O O3 0.274090 0.398540 0.554159
O O4 0.998193 0.381555 0.678402
O O5 0.886830 0.773852 0.545731
O O6 0.102569 0.668697 0.530549
O O7 0.094114 0.777664 0.833271
O O8 0.222783 0.103579 0.800757
O O9 0.234940 0.251071 0.662610
O O10 0.986857 0.177026 0.711230
#
# Coordination Sequence:
#
# PCOD8171748 Si02
#       5
#     4   4   4   4   4
#     4  12  25  44  68  98 133 178 225 275 341 407
#     4  12  22  42  74  94 130 178 220 288 328 400
#     4  12  24  43  68 101 134 172 233 274 334 416
#     4  12  25  44  68  98 133 178 225 275 341 407
#     4  12  24  43  68 101 134 172 233 274 334 416
#
# _framework density 20.672367999999999
#
# number of rings (size 3 to 8) (size 9 to 14) (size 15 to 20)
#    0.000    0.000   10.000    1.200    0.000    0.000 
#    3.600    0.000    0.000    0.000    0.000    0.000 
#    0.000    0.000    0.000    0.000    0.000    0.000 
#
# Total GULP energy -247892.162347 kJ/mol
# GULP energy per Si atom -12394.608117 kJ/mol
# Density = 2.062532 g / cm^3
# Si number density = 20.672368 Si / 1000 Ang^3
#
#
#
# Elastic Constant Matrix: (Units=GPa)
#
#
# Indices 1 2 3 4 5 6 
#
# 1 128.6177 43.9433 32.2407 0.0000 0.0000 0.0000
# 2 43.9433 72.5976 40.2782 0.0000 0.0000 0.0000
# 3 32.2407 40.2782 103.6013 0.0000 0.0000 0.0000
# 4 0.0000 0.0000 0.0000 22.6442 0.0000 0.0000
# 5 0.0000 0.0000 0.0000 0.0000 40.6974 0.0000
# 6 0.0000 0.0000 0.0000 0.0000 0.0000 34.8957
#
#
#
# Elastic Compliance Matrix: (Units=1/GPa)
#
#
# Indices 1 2 3 4 5 6 
#
# 1 0.009876 -0.005448 -0.000955 0.000000 0.000000 0.000000
# 2 -0.005448 0.020568 -0.006301 0.000000 0.000000 0.000000
# 3 -0.000955 -0.006301 0.012399 0.000000 0.000000 0.000000
# 4 0.000000 0.000000 0.000000 0.044161 0.000000 0.000000
# 5 0.000000 0.000000 0.000000 0.000000 0.024572 0.000000
# 6 0.000000 0.000000 0.000000 0.000000 0.000000 0.028657
#
#
# Mechanical properties :
#
#
# Convention : Reuss Voigt Hill
#
# Bulk Modulus (GPa) = 57.35658 59.74902 58.55280
# Shear Modulus (GPa) = 29.16250 32.20441 30.68345
#
# Velocity S-wave (km/s) = 3.76000 3.95124 3.85681
# Velocity P-wave (km/s) = 6.83051 7.05563 6.94399
#
# Compressibility (1/GPa) = 0.01743479
#
# Stress axis : x y z
#
# Youngs Moduli (GPa) = 101.25844 48.61915 80.64871
#
# Poissons Ratio (x) = 0.26486 0.07705
# Poissons Ratio (y) = 0.55163 0.50818
# Poissons Ratio (z) = 0.09674 0.30636
#
# Static dielectric constant tensor:
#      x y z
#    x 4.234580 0.000000 0.000000 
#    y 0.000000 3.667320 0.000000 
#    z 0.000000 0.000000 4.249480 
# 
# 
# High freq. dielectric constant tensor:
#      x y z
#    x 1.826990 0.000000 0.000000 
#    y 0.000000 1.789000 0.000000 
#    z 0.000000 0.000000 1.821100 
# 
# From -- ./inp_files/312.got.cif
#   From: 2010.03.12/outbox.cif.g09.slc.cpg/sg33_1_cif.got.tgz:312.got - 2010.04.14 01:49:19.
