data_PCOD8171564
_publ_section_title
;
Structure prediction by ZEFSAII (Michael W. Deem and Ramdas Pophale) SiO2 
 PCOD8171564
Probable space group: P N A 21
;
_chemical_formula_sum "Si O2"
_cell_formula_units_Z 32
_cell_length_a 9.341491
_cell_length_b 10.190106
_cell_length_c 14.579500
_cell_angle_alpha 90.000000
_cell_angle_beta 90.000000
_cell_angle_gamma 90.000000
_cell_volume 1387.834028
_symmetry_space_group_name_H-M "P N A 21"
_symmetry_group_IT_number 33
_symmetry_cell_setting 'orthorhombic'
loop_
_space_group_symop_operation_xyz
x,y,z
-x,-y,1/2+z
1/2-x,1/2+y,1/2+z
1/2+x,1/2-y,z
loop_
_atom_site_type_symbol
_atom_site_label
_atom_site_fract_x
_atom_site_fract_y
_atom_site_fract_z
Si Si1 0.311838 0.845315 0.366690
Si Si2 0.705895 0.095926 0.062926
Si Si3 0.302146 0.318711 0.506895
Si Si4 0.509109 0.491207 0.606831
Si Si5 0.465413 0.277079 0.757381
Si Si6 0.499267 0.118120 0.592244
Si Si7 0.411162 0.733687 0.710879
Si Si8 0.662993 0.852178 0.828760
O O1 0.270276 0.815950 0.472208
O O2 0.442578 0.745446 0.348952
O O3 0.195068 0.802432 0.291304
O O4 0.354261 0.000753 0.367249
O O5 0.704885 0.178894 0.156337
O O6 0.831889 0.986960 0.064150
O O7 0.548638 0.026552 0.062691
O O8 0.393444 0.451298 0.528376
O O9 0.366422 0.215138 0.576713
O O10 0.325653 0.263389 0.404894
O O11 0.136241 0.342285 0.531516
O O12 0.511428 0.400323 0.696513
O O13 0.485507 0.640726 0.636598
O O14 0.509666 0.140957 0.702082
O O15 0.528108 0.820522 0.764146
O O16 0.315588 0.646332 0.778481
#
# Coordination Sequence:
#
# PCOD8171564 Si02
#       8
#     4   4   4   4   4   4   4   4
#     4  12  27  46  72 105 146 181 247 303 357 431
#     4  12  27  46  69 103 149 191 238 299 370 435
#     4  11  24  43  77 106 141 184 251 300 358 433
#     4  11  25  47  73 103 145 198 235 297 368 445
#     4  11  24  45  72 104 137 188 235 298 356 432
#     4  11  22  44  73 102 139 189 238 294 367 432
#     4  12  27  47  72 104 151 193 241 300 374 434
#     4  12  26  48  72 109 142 194 245 307 356 440
#
# _framework density 23.057510000000001
#
# number of rings (size 3 to 8) (size 9 to 14) (size 15 to 20)
#    0.000    0.500    3.750    5.250    5.250    0.000 
#    0.000    0.000    0.000    0.000    0.000    0.000 
#    0.000    0.000    0.000    0.000    0.000    0.000 
#
# Total GULP energy -396561.907774 kJ/mol
# GULP energy per Si atom -12392.559618 kJ/mol
# Density = 2.300503 g / cm^3
# Si number density = 23.057510 Si / 1000 Ang^3
#
#
#
# Elastic Constant Matrix: (Units=GPa)
#
#
# Indices 1 2 3 4 5 6 
#
# 1 106.3760 31.8569 34.1403 0.0000 0.0000 0.0000
# 2 31.8569 59.6997 20.5484 0.0000 0.0000 0.0000
# 3 34.1403 20.5484 105.9752 0.0000 0.0000 0.0000
# 4 0.0000 0.0000 0.0000 32.0359 0.0000 0.0000
# 5 0.0000 0.0000 0.0000 0.0000 32.6440 0.0000
# 6 0.0000 0.0000 0.0000 0.0000 0.0000 28.9341
#
#
#
# Elastic Compliance Matrix: (Units=1/GPa)
#
#
# Indices 1 2 3 4 5 6 
#
# 1 0.011912 -0.005396 -0.002791 0.000000 0.000000 0.000000
# 2 -0.005396 0.020393 -0.002216 0.000000 0.000000 0.000000
# 3 -0.002791 -0.002216 0.010765 0.000000 0.000000 0.000000
# 4 0.000000 0.000000 0.000000 0.031215 0.000000 0.000000
# 5 0.000000 0.000000 0.000000 0.000000 0.030634 0.000000
# 6 0.000000 0.000000 0.000000 0.000000 0.000000 0.034561
#
#
# Mechanical properties :
#
#
# Convention : Reuss Voigt Hill
#
# Bulk Modulus (GPa) = 44.91575 49.46024 47.18799
# Shear Modulus (GPa) = 29.81387 31.08981 30.45184
#
# Velocity S-wave (km/s) = 3.59976 3.67599 3.63807
# Velocity P-wave (km/s) = 6.06629 6.28606 6.17715
#
# Compressibility (1/GPa) = 0.02226391
#
# Stress axis : x y z
#
# Youngs Moduli (GPa) = 83.94602 49.03758 92.89320
#
# Poissons Ratio (x) = 0.26460 0.25930
# Poissons Ratio (y) = 0.45297 0.20583
# Poissons Ratio (z) = 0.23432 0.10866
#
# Static dielectric constant tensor:
#      x y z
#    x 4.229200 0.000000 0.000000 
#    y 0.000000 4.131910 0.000000 
#    z 0.000000 0.000000 4.265360 
# 
# 
# High freq. dielectric constant tensor:
#      x y z
#    x 1.920840 0.000000 0.000000 
#    y 0.000000 1.900640 0.000000 
#    z 0.000000 0.000000 1.916560 
# 
# From -- ./inp_files/7673.got.cif
#   From: 2010.03.12/outbox.cif.g09.slc.cpg/sg33_4_cif.got.tgz:7673.got - 2010.04.14 01:49:19.
