data_PCOD8171778
_publ_section_title
;
Structure prediction by ZEFSAII (Michael W. Deem and Ramdas Pophale) SiO2 
 PCOD8171778
Probable space group: P N A 21
;
_chemical_formula_sum "Si O2"
_cell_formula_units_Z 24
_cell_length_a 9.090789
_cell_length_b 13.881182
_cell_length_c 8.385027
_cell_angle_alpha 90.000000
_cell_angle_beta 90.000000
_cell_angle_gamma 90.000000
_cell_volume 1058.114075
_symmetry_space_group_name_H-M "P N A 21"
_symmetry_group_IT_number 33
_symmetry_cell_setting 'orthorhombic'
loop_
_space_group_symop_operation_xyz
x,y,z
-x,-y,1/2+z
1/2-x,1/2+y,1/2+z
1/2+x,1/2-y,z
loop_
_atom_site_type_symbol
_atom_site_label
_atom_site_fract_x
_atom_site_fract_y
_atom_site_fract_z
Si Si1 0.236705 0.348155 0.061500
Si Si2 0.706660 0.961159 0.891070
Si Si3 0.431026 0.665626 0.065219
Si Si4 0.934899 0.829929 0.432068
Si Si5 0.187592 0.982319 0.061253
Si Si6 0.407073 0.864880 0.888693
O O1 0.215034 0.365404 0.249417
O O2 0.163350 0.436253 0.966138
O O3 0.153841 0.250191 0.025238
O O4 0.406922 0.339695 0.014902
O O5 0.562398 0.906345 0.828132
O O6 0.815995 0.978393 0.742121
O O7 0.786688 0.897057 0.025730
O O8 0.437129 0.700110 0.247803
O O9 0.573638 0.602874 0.031934
O O10 0.433914 0.758551 0.954156
O O11 0.850172 0.930949 0.442672
O O12 0.347316 0.937079 0.024995
#
# Coordination Sequence:
#
# PCOD8171778 Si02
#       6
#     4   4   4   4   4   4
#     4  12  28  48  72 109 149 198 252 311 376 456
#     4  12  26  49  75 111 150 195 255 310 382 452
#     4  12  25  49  75 107 148 199 249 312 382 456
#     4  12  29  46  75 105 152 194 254 308 380 449
#     4  12  25  50  74 108 149 197 245 315 384 450
#     4  12  29  44  79 108 152 193 253 314 380 457
#
# _framework density 22.681865999999999
#
# number of rings (size 3 to 8) (size 9 to 14) (size 15 to 20)
#    0.000    0.000    3.333    5.000   14.000    0.000 
#    0.000    0.000    0.000    0.000    0.000    0.000 
#    0.000    0.000    0.000    0.000    0.000    0.000 
#
# Total GULP energy -297783.145543 kJ/mol
# GULP energy per Si atom -12407.631064 kJ/mol
# Density = 2.263024 g / cm^3
# Si number density = 22.681866 Si / 1000 Ang^3
#
#
#
# Elastic Constant Matrix: (Units=GPa)
#
#
# Indices 1 2 3 4 5 6 
#
# 1 118.4026 59.1996 34.8201 0.0000 0.0000 0.0000
# 2 59.1996 129.8474 34.6953 0.0000 0.0000 0.0000
# 3 34.8201 34.6953 105.0406 0.0000 0.0000 0.0000
# 4 0.0000 0.0000 0.0000 39.2310 0.0000 0.0000
# 5 0.0000 0.0000 0.0000 0.0000 30.3995 0.0000
# 6 0.0000 0.0000 0.0000 0.0000 0.0000 38.6755
#
#
#
# Elastic Compliance Matrix: (Units=1/GPa)
#
#
# Indices 1 2 3 4 5 6 
#
# 1 0.011410 -0.004597 -0.002264 0.000000 0.000000 0.000000
# 2 -0.004597 0.010299 -0.001878 0.000000 0.000000 0.000000
# 3 -0.002264 -0.001878 0.010891 0.000000 0.000000 0.000000
# 4 0.000000 0.000000 0.000000 0.025490 0.000000 0.000000
# 5 0.000000 0.000000 0.000000 0.000000 0.032895 0.000000
# 6 0.000000 0.000000 0.000000 0.000000 0.000000 0.025856
#
#
# Mechanical properties :
#
#
# Convention : Reuss Voigt Hill
#
# Bulk Modulus (GPa) = 66.12832 67.85785 66.99309
# Shear Modulus (GPa) = 35.87834 36.63291 36.25563
#
# Velocity S-wave (km/s) = 3.98151 4.02316 4.00239
# Velocity P-wave (km/s) = 7.09609 7.18076 7.13855
#
# Compressibility (1/GPa) = 0.01512211
#
# Stress axis : x y z
#
# Youngs Moduli (GPa) = 87.64225 97.09655 91.82003
#
# Poissons Ratio (x) = 0.44636 0.20787
# Poissons Ratio (y) = 0.40290 0.17243
# Poissons Ratio (z) = 0.19841 0.18234
#
# Static dielectric constant tensor:
#      x y z
#    x 4.057450 0.000000 0.000000 
#    y 0.000000 4.483810 0.000000 
#    z 0.000000 0.000000 4.115690 
# 
# 
# High freq. dielectric constant tensor:
#      x y z
#    x 1.896630 0.000000 0.000000 
#    y 0.000000 1.916910 0.000000 
#    z 0.000000 0.000000 1.903120 
# 
# From -- ./inp_files/3052.got.cif
#   From: 2010.03.12/outbox.cif.g09.slc.cpg/sg33_2_cif.got.tgz:3052.got - 2010.04.14 01:49:19.
