data_PCOD8171732
_publ_section_title
;
Structure prediction by ZEFSAII (Michael W. Deem and Ramdas Pophale) SiO2 
 PCOD8171732
Probable space group: P N A 21
;
_chemical_formula_sum "Si O2"
_cell_formula_units_Z 20
_cell_length_a 19.581439
_cell_length_b 5.267923
_cell_length_c 7.467956
_cell_angle_alpha 90.000000
_cell_angle_beta 90.000000
_cell_angle_gamma 90.000000
_cell_volume 770.345895
_symmetry_space_group_name_H-M "P N A 21"
_symmetry_group_IT_number 33
_symmetry_cell_setting 'orthorhombic'
loop_
_space_group_symop_operation_xyz
x,y,z
-x,-y,1/2+z
1/2-x,1/2+y,1/2+z
1/2+x,1/2-y,z
loop_
_atom_site_type_symbol
_atom_site_label
_atom_site_fract_x
_atom_site_fract_y
_atom_site_fract_z
Si Si1 0.413958 0.596661 0.053200
Si Si2 0.699065 0.739599 0.694553
Si Si3 0.969052 0.788074 0.419804
Si Si4 0.666623 0.029631 0.346613
Si Si5 0.893114 0.298283 0.519002
O O1 0.341747 0.514397 0.139021
O O2 0.461930 0.724768 0.204692
O O3 0.452314 0.349418 0.971515
O O4 0.398876 0.796270 0.895385
O O5 0.777299 0.689990 0.739776
O O6 0.662019 0.866143 0.865127
O O7 0.700781 0.928158 0.527011
O O8 0.950206 0.519265 0.506712
O O9 0.923200 0.019205 0.494149
O O10 0.641436 0.806503 0.214720
#
# Coordination Sequence:
#
# PCOD8171732 Si02
#       5
#     4   4   4   4   4
#     4  11  26  46  77 113 154 203 261 318 394 459
#     4  11  28  48  76 112 154 202 261 318 385 461
#     4  11  26  48  77 116 155 202 256 326 385 470
#     4  12  27  48  80 108 156 207 258 320 384 459
#     4  11  27  48  78 115 157 198 260 318 394 453
#
# _framework density 25.962361999999999
#
# number of rings (size 3 to 8) (size 9 to 14) (size 15 to 20)
#    0.000    0.800    2.000    2.400   14.000    3.200 
#    0.000    0.000    0.000    0.000    0.000    0.000 
#    0.000    0.000    0.000    0.000    0.000    0.000 
#
# Total GULP energy -248124.401859 kJ/mol
# GULP energy per Si atom -12406.220093 kJ/mol
# Density = 2.590327 g / cm^3
# Si number density = 25.962362 Si / 1000 Ang^3
#
#
#
# Elastic Constant Matrix: (Units=GPa)
#
#
# Indices 1 2 3 4 5 6 
#
# 1 70.9435 0.5697 46.8481 0.0000 0.0000 0.0000
# 2 0.5697 61.5541 11.9561 0.0000 0.0000 0.0000
# 3 46.8481 11.9561 131.5729 0.0000 0.0000 0.0000
# 4 0.0000 0.0000 0.0000 44.5047 0.0000 0.0000
# 5 0.0000 0.0000 0.0000 0.0000 53.0359 0.0000
# 6 0.0000 0.0000 0.0000 0.0000 0.0000 31.1580
#
#
#
# Elastic Compliance Matrix: (Units=1/GPa)
#
#
# Indices 1 2 3 4 5 6 
#
# 1 0.018506 0.001129 -0.006692 0.000000 0.000000 0.000000
# 2 0.001129 0.016607 -0.001911 0.000000 0.000000 0.000000
# 3 -0.006692 -0.001911 0.010157 0.000000 0.000000 0.000000
# 4 0.000000 0.000000 0.000000 0.022470 0.000000 0.000000
# 5 0.000000 0.000000 0.000000 0.000000 0.018855 0.000000
# 6 0.000000 0.000000 0.000000 0.000000 0.000000 0.032094
#
#
# Mechanical properties :
#
#
# Convention : Reuss Voigt Hill
#
# Bulk Modulus (GPa) = 32.98074 42.53536 37.75805
# Shear Modulus (GPa) = 34.78432 39.38617 37.08524
#
# Velocity S-wave (km/s) = 3.66430 3.89916 3.78355
# Velocity P-wave (km/s) = 5.53476 6.05725 5.80189
#
# Compressibility (1/GPa) = 0.03032073
#
# Stress axis : x y z
#
# Youngs Moduli (GPa) = 54.03786 60.21702 98.45781
#
# Poissons Ratio (x) = -0.06796 0.65885
# Poissons Ratio (y) = -0.06098 0.18814
# Poissons Ratio (z) = 0.36160 0.11507
#
# Static dielectric constant tensor:
#      x y z
#    x 4.664150 0.000000 0.000000 
#    y 0.000000 4.270000 0.000000 
#    z 0.000000 0.000000 5.028340 
# 
# 
# High freq. dielectric constant tensor:
#      x y z
#    x 2.040180 0.000000 0.000000 
#    y 0.000000 2.027760 0.000000 
#    z 0.000000 0.000000 2.061920 
# 
# From -- ./inp_files/4560.got.cif
#   From: 2010.03.12/outbox.cif.g09.slc.cpg/sg33_3_cif.got.tgz:4560.got - 2010.04.14 01:49:19.
