data_PCOD8171551
_publ_section_title
;
Structure prediction by ZEFSAII (Michael W. Deem and Ramdas Pophale) SiO2 
 PCOD8171551
Probable space group: P N A 21
;
_chemical_formula_sum "Si O2"
_cell_formula_units_Z 28
_cell_length_a 27.753331
_cell_length_b 7.981386
_cell_length_c 5.155511
_cell_angle_alpha 90.000000
_cell_angle_beta 90.000000
_cell_angle_gamma 90.000000
_cell_volume 1141.997486
_symmetry_space_group_name_H-M "P N A 21"
_symmetry_group_IT_number 33
_symmetry_cell_setting 'orthorhombic'
loop_
_space_group_symop_operation_xyz
x,y,z
-x,-y,1/2+z
1/2-x,1/2+y,1/2+z
1/2+x,1/2-y,z
loop_
_atom_site_type_symbol
_atom_site_label
_atom_site_fract_x
_atom_site_fract_y
_atom_site_fract_z
Si Si1 0.618049 0.292696 0.967360
Si Si2 0.101736 0.761337 0.303928
Si Si3 0.509472 0.774982 0.993127
Si Si4 0.446600 0.481772 0.185590
Si Si5 0.207785 0.842683 0.290419
Si Si6 0.088067 0.413398 0.472374
Si Si7 0.781827 0.944733 0.320120
O O1 0.587977 0.468853 0.932101
O O2 0.600195 0.168666 0.744814
O O3 0.673815 0.330517 0.917065
O O4 0.609703 0.205170 0.245160
O O5 0.061752 0.680423 0.110701
O O6 0.086064 0.936038 0.438794
O O7 0.153576 0.805543 0.188229
O O8 0.109785 0.599698 0.490857
O O9 0.483266 0.633182 0.161217
O O10 0.522409 0.687359 0.721323
O O11 0.471298 0.925131 0.948858
O O12 0.234812 0.668356 0.308356
O O13 0.208189 0.953424 0.554079
O O14 0.233191 0.933628 0.052101
#
# Coordination Sequence:
#
# PCOD8171551 Si02
#       7
#     4   4   4   4   4   4   4
#     4  11  25  48  73 104 146 201 249 305 380 452
#     4  12  28  45  71 110 151 196 259 309 382 449
#     4  11  24  41  71 100 146 195 246 304 373 442
#     4  11  22  42  70  98 140 193 250 298 359 453
#     4  12  29  50  81 115 150 202 253 323 387 460
#     4  11  29  43  74 108 154 195 247 313 377 442
#     4  12  27  51  82 111 157 194 258 318 392 458
#
# _framework density 24.518446000000001
#
# number of rings (size 3 to 8) (size 9 to 14) (size 15 to 20)
#    0.000    0.571    2.857    3.429   14.000    0.000 
#    0.000    0.000    0.000    0.000    0.000    0.000 
#    0.000    0.000    0.000    0.000    0.000    0.000 
#
# Total GULP energy -346954.188237 kJ/mol
# GULP energy per Si atom -12391.221008 kJ/mol
# Density = 2.446264 g / cm^3
# Si number density = 24.518446 Si / 1000 Ang^3
#
#
#
# Elastic Constant Matrix: (Units=GPa)
#
#
# Indices 1 2 3 4 5 6 
#
# 1 126.0618 29.8756 19.4109 0.0000 0.0000 0.0000
# 2 29.8756 79.7073 20.5133 0.0000 0.0000 0.0000
# 3 19.4109 20.5133 88.4142 0.0000 0.0000 0.0000
# 4 0.0000 0.0000 0.0000 27.8670 0.0000 0.0000
# 5 0.0000 0.0000 0.0000 0.0000 31.7544 0.0000
# 6 0.0000 0.0000 0.0000 0.0000 0.0000 33.8787
#
#
#
# Elastic Compliance Matrix: (Units=1/GPa)
#
#
# Indices 1 2 3 4 5 6 
#
# 1 0.008833 -0.002990 -0.001245 0.000000 0.000000 0.000000
# 2 -0.002990 0.014355 -0.002674 0.000000 0.000000 0.000000
# 3 -0.001245 -0.002674 0.012204 0.000000 0.000000 0.000000
# 4 0.000000 0.000000 0.000000 0.035885 0.000000 0.000000
# 5 0.000000 0.000000 0.000000 0.000000 0.031492 0.000000
# 6 0.000000 0.000000 0.000000 0.000000 0.000000 0.029517
#
#
# Mechanical properties :
#
#
# Convention : Reuss Voigt Hill
#
# Bulk Modulus (GPa) = 46.35495 48.19812 47.27653
# Shear Modulus (GPa) = 32.61662 33.65892 33.13777
#
# Velocity S-wave (km/s) = 3.65127 3.70915 3.68032
# Velocity P-wave (km/s) = 6.05994 6.16801 6.11421
#
# Compressibility (1/GPa) = 0.02157267
#
# Stress axis : x y z
#
# Youngs Moduli (GPa) = 113.21101 69.66270 81.93861
#
# Poissons Ratio (x) = 0.20831 0.10205
# Poissons Ratio (y) = 0.33853 0.21911
# Poissons Ratio (z) = 0.14100 0.18628
#
# Static dielectric constant tensor:
#      x y z
#    x 4.649170 0.000000 0.000000 
#    y 0.000000 4.805970 0.000000 
#    z 0.000000 0.000000 4.371270 
# 
# 
# High freq. dielectric constant tensor:
#      x y z
#    x 1.979970 0.000000 0.000000 
#    y 0.000000 1.984470 0.000000 
#    z 0.000000 0.000000 1.976080 
# 
# From -- ./inp_files/2417.got.cif
#   From: 2010.03.12/outbox.cif.g09.slc.cpg/sg33_2_cif.got.tgz:2417.got - 2010.04.14 01:49:19.
