data_PCOD8171456
_publ_section_title
;
Structure prediction by ZEFSAII (Michael W. Deem and Ramdas Pophale) SiO2 
 PCOD8171456
Probable space group: P N A 21
;
_chemical_formula_sum "Si O2"
_cell_formula_units_Z 32
_cell_length_a 14.442790
_cell_length_b 12.530435
_cell_length_c 8.063494
_cell_angle_alpha 90.000000
_cell_angle_beta 90.000000
_cell_angle_gamma 90.000000
_cell_volume 1459.286322
_symmetry_space_group_name_H-M "P N A 21"
_symmetry_group_IT_number 33
_symmetry_cell_setting 'orthorhombic'
loop_
_space_group_symop_operation_xyz
x,y,z
-x,-y,1/2+z
1/2-x,1/2+y,1/2+z
1/2+x,1/2-y,z
loop_
_atom_site_type_symbol
_atom_site_label
_atom_site_fract_x
_atom_site_fract_y
_atom_site_fract_z
Si Si1 0.552376 0.605232 0.888820
Si Si2 0.692784 0.693180 0.399789
Si Si3 0.477231 0.008077 0.187492
Si Si4 0.246398 0.878772 0.753249
Si Si5 0.496601 0.379641 0.768986
Si Si6 0.365265 0.069123 0.864478
Si Si7 0.119497 0.313002 0.730217
Si Si8 0.068931 0.291170 0.347822
O O1 0.654729 0.653086 0.855785
O O2 0.549587 0.485711 0.822880
O O3 0.477195 0.679218 0.795036
O O4 0.524231 0.613395 0.077137
O O5 0.727454 0.627309 0.557875
O O6 0.602487 0.627508 0.353472
O O7 0.666982 0.816548 0.428647
O O8 0.770497 0.696921 0.255885
O O9 0.498927 0.119977 0.275035
O O10 0.573024 0.935905 0.194616
O O11 0.406639 0.932389 0.294025
O O12 0.433735 0.020858 0.005220
O O13 0.328883 0.793417 0.770345
O O14 0.277167 0.993909 0.826494
O O15 0.562827 0.280982 0.823814
O O16 0.085507 0.305859 0.541975
#
# Coordination Sequence:
#
# PCOD8171456 Si02
#       8
#     4   4   4   4   4   4   4   4
#     4  11  24  46  67  96 140 179 231 282 347 423
#     4  12  26  42  68 104 137 185 233 287 364 425
#     4  11  21  43  72  97 134 174 230 291 349 409
#     4  11  24  43  67 103 136 180 235 281 349 425
#     4  11  25  43  69  95 135 186 222 285 350 416
#     4  11  25  43  71 104 140 183 237 298 353 426
#     4  11  23  44  68  98 137 175 230 289 352 420
#     4  10  24  44  68 101 133 182 232 289 350 414
#
# _framework density 21.928526999999999
#
# number of rings (size 3 to 8) (size 9 to 14) (size 15 to 20)
#    0.000    1.000    3.750    3.000    3.500    4.000 
#    2.250    0.000    0.000    0.000    0.000    0.000 
#    0.000    0.000    0.000    0.000    0.000    0.000 
#
# Total GULP energy -396419.558350 kJ/mol
# GULP energy per Si atom -12388.111198 kJ/mol
# Density = 2.187862 g / cm^3
# Si number density = 21.928527 Si / 1000 Ang^3
#
#
#
# Elastic Constant Matrix: (Units=GPa)
#
#
# Indices 1 2 3 4 5 6 
#
# 1 144.5912 51.8867 34.6889 0.0000 0.0000 0.0000
# 2 51.8867 99.9250 37.4897 0.0000 0.0000 0.0000
# 3 34.6889 37.4897 68.4683 0.0000 0.0000 0.0000
# 4 0.0000 0.0000 0.0000 31.2817 0.0000 0.0000
# 5 0.0000 0.0000 0.0000 0.0000 45.7027 0.0000
# 6 0.0000 0.0000 0.0000 0.0000 0.0000 42.5690
#
#
#
# Elastic Compliance Matrix: (Units=1/GPa)
#
#
# Indices 1 2 3 4 5 6 
#
# 1 0.008819 -0.003654 -0.002468 0.000000 0.000000 0.000000
# 2 -0.003654 0.014108 -0.005874 0.000000 0.000000 0.000000
# 3 -0.002468 -0.005874 0.019072 0.000000 0.000000 0.000000
# 4 0.000000 0.000000 0.000000 0.031968 0.000000 0.000000
# 5 0.000000 0.000000 0.000000 0.000000 0.021881 0.000000
# 6 0.000000 0.000000 0.000000 0.000000 0.000000 0.023491
#
#
# Mechanical properties :
#
#
# Convention : Reuss Voigt Hill
#
# Bulk Modulus (GPa) = 55.52791 62.34610 58.93700
# Shear Modulus (GPa) = 33.48241 36.50530 34.99386
#
# Velocity S-wave (km/s) = 3.91178 4.08455 3.99910
# Velocity P-wave (km/s) = 6.76608 7.12306 6.94686
#
# Compressibility (1/GPa) = 0.01800896
#
# Stress axis : x y z
#
# Youngs Moduli (GPa) = 113.38951 70.87947 52.43350
#
# Poissons Ratio (x) = 0.25897 0.12939
# Poissons Ratio (y) = 0.41428 0.30799
# Poissons Ratio (z) = 0.27980 0.41635
#
# Static dielectric constant tensor:
#      x y z
#    x 4.336760 0.000000 0.000000 
#    y 0.000000 4.107480 0.000000 
#    z 0.000000 0.000000 3.837360 
# 
# 
# High freq. dielectric constant tensor:
#      x y z
#    x 1.876260 0.000000 0.000000 
#    y 0.000000 1.867560 0.000000 
#    z 0.000000 0.000000 1.852840 
# 
# From -- ./inp_files/4440.got.cif
#   From: 2010.03.12/outbox.cif.g09.slc.cpg/sg33_3_cif.got.tgz:4440.got - 2010.04.14 01:49:19.
