data_PCOD8171261
_publ_section_title
;
Structure prediction by ZEFSAII (Michael W. Deem and Ramdas Pophale) SiO2 
 PCOD8171261
Probable space group: P N A 21
;
_chemical_formula_sum "Si O2"
_cell_formula_units_Z 32
_cell_length_a 8.313276
_cell_length_b 26.449490
_cell_length_c 6.180382
_cell_angle_alpha 90.000000
_cell_angle_beta 90.000000
_cell_angle_gamma 90.000000
_cell_volume 1358.954201
_symmetry_space_group_name_H-M "P N A 21"
_symmetry_group_IT_number 33
_symmetry_cell_setting 'orthorhombic'
loop_
_space_group_symop_operation_xyz
x,y,z
-x,-y,1/2+z
1/2-x,1/2+y,1/2+z
1/2+x,1/2-y,z
loop_
_atom_site_type_symbol
_atom_site_label
_atom_site_fract_x
_atom_site_fract_y
_atom_site_fract_z
Si Si1 0.597906 0.714598 0.569730
Si Si2 0.678841 0.273298 0.766234
Si Si3 0.148126 0.505533 0.892313
Si Si4 0.423960 0.074037 0.040980
Si Si5 0.654784 0.548174 0.048743
Si Si6 0.680424 0.132158 0.261744
Si Si7 0.454337 0.210818 0.465122
Si Si8 0.155693 0.046479 0.771534
O O1 0.425552 0.699614 0.458372
O O2 0.719664 0.729440 0.380110
O O3 0.669810 0.665533 0.685003
O O4 0.588050 0.761772 0.737327
O O5 0.554307 0.250541 0.599699
O O6 0.799747 0.306261 0.612608
O O7 0.132219 0.561364 0.785998
O O8 0.225844 0.462437 0.743945
O O9 0.247942 0.512125 0.106453
O O10 0.975791 0.481685 0.954491
O O11 0.568629 0.114684 0.056118
O O12 0.271446 0.089024 0.888701
O O13 0.740810 0.584732 0.879638
O O14 0.595668 0.494723 0.947887
O O15 0.494545 0.574017 0.154714
O O16 0.561907 0.161666 0.422945
#
# Coordination Sequence:
#
# PCOD8171261 Si02
#       8
#     4   4   4   4   4   4   4   4
#     4  11  22  46  75 105 145 188 240 306 372 441
#     4  10  22  43  80  99 130 207 227 283 396 437
#     4  11  20  42  71  94 139 188 232 285 375 418
#     4  11  23  40  70 104 135 188 237 300 347 430
#     4  11  24  42  74 101 137 193 238 304 353 431
#     4  12  25  44  75 108 149 182 253 307 352 440
#     4  11  22  46  74 106 144 187 238 306 371 444
#     4  11  22  43  71  99 145 187 239 287 378 423
#
# _framework density 23.547519000000001
#
# number of rings (size 3 to 8) (size 9 to 14) (size 15 to 20)
#    0.000    1.000    6.250    0.750    0.000    1.000 
#    0.000    3.750    5.500    0.000    0.000    0.000 
#    0.000    0.000    0.000    0.000    0.000    0.000 
#
# Total GULP energy -396504.899893 kJ/mol
# GULP energy per Si atom -12390.778122 kJ/mol
# Density = 2.349392 g / cm^3
# Si number density = 23.547519 Si / 1000 Ang^3
#
#
#
# Elastic Constant Matrix: (Units=GPa)
#
#
# Indices 1 2 3 4 5 6 
#
# 1 142.0920 29.3315 49.6301 0.0000 0.0000 0.0000
# 2 29.3315 56.6246 17.0826 0.0000 0.0000 0.0000
# 3 49.6301 17.0826 94.8147 0.0000 0.0000 0.0000
# 4 0.0000 0.0000 0.0000 20.4769 0.0000 0.0000
# 5 0.0000 0.0000 0.0000 0.0000 57.1833 0.0000
# 6 0.0000 0.0000 0.0000 0.0000 0.0000 32.5692
#
#
#
# Elastic Compliance Matrix: (Units=1/GPa)
#
#
# Indices 1 2 3 4 5 6 
#
# 1 0.009229 -0.003514 -0.004198 0.000000 0.000000 0.000000
# 2 -0.003514 0.020013 -0.001766 0.000000 0.000000 0.000000
# 3 -0.004198 -0.001766 0.013062 0.000000 0.000000 0.000000
# 4 0.000000 0.000000 0.000000 0.048835 0.000000 0.000000
# 5 0.000000 0.000000 0.000000 0.000000 0.017488 0.000000
# 6 0.000000 0.000000 0.000000 0.000000 0.000000 0.030704
#
#
# Mechanical properties :
#
#
# Convention : Reuss Voigt Hill
#
# Bulk Modulus (GPa) = 42.82959 53.95774 48.39367
# Shear Modulus (GPa) = 30.10743 35.21170 32.65957
#
# Velocity S-wave (km/s) = 3.57961 3.87117 3.72824
# Velocity P-wave (km/s) = 5.94246 6.55327 6.25533
#
# Compressibility (1/GPa) = 0.02334834
#
# Stress axis : x y z
#
# Youngs Moduli (GPa) = 108.34939 49.96640 76.55529
#
# Poissons Ratio (x) = 0.17560 0.32137
# Poissons Ratio (y) = 0.38078 0.13521
# Poissons Ratio (z) = 0.45484 0.08825
#
# Static dielectric constant tensor:
#      x y z
#    x 4.740440 0.000000 0.000000 
#    y 0.000000 3.624950 0.000000 
#    z 0.000000 0.000000 4.647680 
# 
# 
# High freq. dielectric constant tensor:
#      x y z
#    x 1.954150 0.000000 0.000000 
#    y 0.000000 1.877990 0.000000 
#    z 0.000000 0.000000 1.953360 
# 
# From -- ./inp_files/614.got.cif
#   From: 2010.03.12/outbox.cif.g09.slc.cpg/sg33_1_cif.got.tgz:614.got - 2010.04.14 01:49:19.
