data_PCOD8171614
_publ_section_title
;
Structure prediction by ZEFSAII (Michael W. Deem and Ramdas Pophale) SiO2 
 PCOD8171614
Probable space group: P N A 21
;
_chemical_formula_sum "Si O2"
_cell_formula_units_Z 20
_cell_length_a 20.464924
_cell_length_b 8.648100
_cell_length_c 5.066632
_cell_angle_alpha 90.000000
_cell_angle_beta 90.000000
_cell_angle_gamma 90.000000
_cell_volume 896.706258
_symmetry_space_group_name_H-M "P N A 21"
_symmetry_group_IT_number 33
_symmetry_cell_setting 'orthorhombic'
loop_
_space_group_symop_operation_xyz
x,y,z
-x,-y,1/2+z
1/2-x,1/2+y,1/2+z
1/2+x,1/2-y,z
loop_
_atom_site_type_symbol
_atom_site_label
_atom_site_fract_x
_atom_site_fract_y
_atom_site_fract_z
Si Si1 0.500233 0.099847 0.890870
Si Si2 0.702806 0.397560 0.372944
Si Si3 0.438992 0.327325 0.554773
Si Si4 0.937344 0.827431 0.724285
Si Si5 0.299105 0.388232 0.374238
O O1 0.438498 0.209907 0.805433
O O2 0.524173 0.998728 0.642052
O O3 0.562322 0.209134 0.974903
O O4 0.630667 0.321784 0.381204
O O5 0.711379 0.525580 0.598507
O O6 0.752145 0.257212 0.405954
O O7 0.714430 0.485239 0.098655
O O8 0.501542 0.267069 0.393694
O O9 0.453205 0.500364 0.638994
O O10 0.372029 0.318675 0.392373
#
# Coordination Sequence:
#
# PCOD8171614 Si02
#       5
#     4   4   4   4   4
#     4  12  26  42  64 110 144 172 222 304 364 398
#     4  11  26  48  73 103 142 191 235 287 351 421
#     4  11  23  44  76 100 138 184 240 280 350 427
#     4  11  23  44  76 100 138 184 240 280 350 427
#     4  11  26  48  73 103 142 191 235 287 351 421
#
# _framework density 22.303847999999999
#
# number of rings (size 3 to 8) (size 9 to 14) (size 15 to 20)
#    0.000    0.800    4.000    2.400    5.600    1.600 
#    7.200    0.000    0.000    0.000    0.000    0.000 
#    0.000    0.000    0.000    0.000    0.000    0.000 
#
# Total GULP energy -247910.047255 kJ/mol
# GULP energy per Si atom -12395.502363 kJ/mol
# Density = 2.225308 g / cm^3
# Si number density = 22.303848 Si / 1000 Ang^3
#
#
#
# Elastic Constant Matrix: (Units=GPa)
#
#
# Indices 1 2 3 4 5 6 
#
# 1 127.2183 46.7102 27.2294 0.0000 0.0000 0.0000
# 2 46.7102 137.4948 44.5253 0.0000 0.0000 0.0000
# 3 27.2294 44.5253 103.2991 0.0000 0.0000 0.0000
# 4 0.0000 0.0000 0.0000 57.7609 0.0000 0.0000
# 5 0.0000 0.0000 0.0000 0.0000 28.3258 0.0000
# 6 0.0000 0.0000 0.0000 0.0000 0.0000 19.2723
#
#
#
# Elastic Compliance Matrix: (Units=1/GPa)
#
#
# Indices 1 2 3 4 5 6 
#
# 1 0.009116 -0.002695 -0.001241 0.000000 0.000000 0.000000
# 2 -0.002695 0.009250 -0.003277 0.000000 0.000000 0.000000
# 3 -0.001241 -0.003277 0.011420 0.000000 0.000000 0.000000
# 4 0.000000 0.000000 0.000000 0.017313 0.000000 0.000000
# 5 0.000000 0.000000 0.000000 0.000000 0.035304 0.000000
# 6 0.000000 0.000000 0.000000 0.000000 0.000000 0.051888
#
#
# Mechanical properties :
#
#
# Convention : Reuss Voigt Hill
#
# Bulk Modulus (GPa) = 65.10407 67.21578 66.15992
# Shear Modulus (GPa) = 32.50241 37.70829 35.10535
#
# Velocity S-wave (km/s) = 3.82154 4.11623 3.97162
# Velocity P-wave (km/s) = 6.98035 7.26587 7.12454
#
# Compressibility (1/GPa) = 0.01536002
#
# Stress axis : x y z
#
# Youngs Moduli (GPa) = 109.70164 108.11353 87.56476
#
# Poissons Ratio (x) = 0.29135 0.10869
# Poissons Ratio (y) = 0.29563 0.28691
# Poissons Ratio (z) = 0.13617 0.35423
#
# Static dielectric constant tensor:
#      x y z
#    x 3.964830 0.000000 0.000000 
#    y 0.000000 4.310800 0.000000 
#    z 0.000000 0.000000 4.595350 
# 
# 
# High freq. dielectric constant tensor:
#      x y z
#    x 1.850750 0.000000 0.000000 
#    y 0.000000 1.907690 0.000000 
#    z 0.000000 0.000000 1.893440 
# 
# From -- ./inp_files/1634.got.cif
#   From: 2010.03.12/outbox.cif.g09.slc.cpg/sg33_1_cif.got.tgz:1634.got - 2010.04.14 01:49:19.
