data_PCOD8171335
_publ_section_title
;
Structure prediction by ZEFSAII (Michael W. Deem and Ramdas Pophale) SiO2 
 PCOD8171335
Probable space group: P N A 21
;
_chemical_formula_sum "Si O2"
_cell_formula_units_Z 32
_cell_length_a 14.450759
_cell_length_b 11.619265
_cell_length_c 8.874808
_cell_angle_alpha 90.000000
_cell_angle_beta 90.000000
_cell_angle_gamma 90.000000
_cell_volume 1490.144146
_symmetry_space_group_name_H-M "P N A 21"
_symmetry_group_IT_number 33
_symmetry_cell_setting 'orthorhombic'
loop_
_space_group_symop_operation_xyz
x,y,z
-x,-y,1/2+z
1/2-x,1/2+y,1/2+z
1/2+x,1/2-y,z
loop_
_atom_site_type_symbol
_atom_site_label
_atom_site_fract_x
_atom_site_fract_y
_atom_site_fract_z
Si Si1 0.237989 0.653682 0.712850
Si Si2 0.667865 0.258356 0.483853
Si Si3 0.491745 0.883340 0.107555
Si Si4 0.614124 0.000947 0.880201
Si Si5 0.189986 0.947776 0.014051
Si Si6 0.429624 0.329884 0.736400
Si Si7 0.860393 0.876742 0.281464
Si Si8 0.742704 0.685936 0.449544
O O1 0.325494 0.682875 0.820084
O O2 0.150499 0.622879 0.819976
O O3 0.255499 0.542189 0.611098
O O4 0.215551 0.766785 0.614595
O O5 0.571153 0.191945 0.495004
O O6 0.750913 0.168063 0.505224
O O7 0.671139 0.360625 0.608504
O O8 0.429287 0.931094 0.241291
O O9 0.570432 0.801857 0.178144
O O10 0.538126 0.984320 0.010732
O O11 0.700034 0.067777 0.955369
O O12 0.168633 0.998713 0.847761
O O13 0.094781 0.916106 0.099137
O O14 0.529452 0.363179 0.802361
O O15 0.352129 0.338676 0.863825
O O16 0.810463 0.778006 0.375170
#
# Coordination Sequence:
#
# PCOD8171335 Si02
#       8
#     4   4   4   4   4   4   4   4
#     4  11  25  41  70  97 135 182 226 280 345 419
#     4  11  22  48  64 100 140 176 233 291 338 410
#     4  11  26  41  71 100 139 179 238 289 344 420
#     4  12  24  45  67 106 136 186 232 283 356 413
#     4  11  22  45  67  95 135 181 226 279 348 410
#     4  11  21  45  69  94 140 178 226 295 339 415
#     4  10  23  41  72  94 133 182 226 280 353 405
#     4  11  23  46  68  98 138 180 231 289 343 412
#
# _framework density 21.474433999999999
#
# number of rings (size 3 to 8) (size 9 to 14) (size 15 to 20)
#    0.000    1.000    6.250    0.750    3.500    3.000 
#    4.500    0.000    0.000    0.000    0.000    0.000 
#    0.000    0.000    0.000    0.000    0.000    0.000 
#
# Total GULP energy -396789.377111 kJ/mol
# GULP energy per Si atom -12399.668035 kJ/mol
# Density = 2.142556 g / cm^3
# Si number density = 21.474434 Si / 1000 Ang^3
#
#
#
# Elastic Constant Matrix: (Units=GPa)
#
#
# Indices 1 2 3 4 5 6 
#
# 1 93.2025 39.1483 28.0167 0.0000 0.0000 0.0000
# 2 39.1483 77.5089 56.8652 0.0000 0.0000 0.0000
# 3 28.0167 56.8652 89.8452 0.0000 0.0000 0.0000
# 4 0.0000 0.0000 0.0000 42.8322 0.0000 0.0000
# 5 0.0000 0.0000 0.0000 0.0000 30.4421 0.0000
# 6 0.0000 0.0000 0.0000 0.0000 0.0000 34.8953
#
#
#
# Elastic Compliance Matrix: (Units=1/GPa)
#
#
# Indices 1 2 3 4 5 6 
#
# 1 0.013620 -0.007026 0.000200 0.000000 0.000000 0.000000
# 2 -0.007026 0.027710 -0.015348 0.000000 0.000000 0.000000
# 3 0.000200 -0.015348 0.020782 0.000000 0.000000 0.000000
# 4 0.000000 0.000000 0.000000 0.023347 0.000000 0.000000
# 5 0.000000 0.000000 0.000000 0.000000 0.032849 0.000000
# 6 0.000000 0.000000 0.000000 0.000000 0.000000 0.028657
#
#
# Mechanical properties :
#
#
# Convention : Reuss Voigt Hill
#
# Bulk Modulus (GPa) = 56.29111 56.51299 56.40205
# Shear Modulus (GPa) = 25.35040 30.73568 28.04304
#
# Velocity S-wave (km/s) = 3.43956 3.78732 3.61762
# Velocity P-wave (km/s) = 6.48414 6.74526 6.61599
#
# Compressibility (1/GPa) = 0.01776479
#
# Stress axis : x y z
#
# Youngs Moduli (GPa) = 73.41908 36.08763 48.11867
#
# Poissons Ratio (x) = 0.25354 -0.00960
# Poissons Ratio (y) = 0.51583 0.73851
# Poissons Ratio (z) = -0.01465 0.55386
#
# Static dielectric constant tensor:
#      x y z
#    x 3.812580 0.000000 0.000000 
#    y 0.000000 4.050800 0.000000 
#    z 0.000000 0.000000 4.059690 
# 
# 
# High freq. dielectric constant tensor:
#      x y z
#    x 1.840660 0.000000 0.000000 
#    y 0.000000 1.844210 0.000000 
#    z 0.000000 0.000000 1.843280 
# 
# From -- ./inp_files/4389.got.cif
#   From: 2010.03.12/outbox.cif.g09.slc.cpg/sg33_3_cif.got.tgz:4389.got - 2010.04.14 01:49:19.
