data_PCOD8171197
_publ_section_title
;
Structure prediction by ZEFSAII (Michael W. Deem and Ramdas Pophale) SiO2 
 PCOD8171197
Probable space group: P N A 21
;
_chemical_formula_sum "Si O2"
_cell_formula_units_Z 32
_cell_length_a 11.420439
_cell_length_b 14.668829
_cell_length_c 8.964905
_cell_angle_alpha 90.000000
_cell_angle_beta 90.000000
_cell_angle_gamma 90.000000
_cell_volume 1501.840930
_symmetry_space_group_name_H-M "P N A 21"
_symmetry_group_IT_number 33
_symmetry_cell_setting 'orthorhombic'
loop_
_space_group_symop_operation_xyz
x,y,z
-x,-y,1/2+z
1/2-x,1/2+y,1/2+z
1/2+x,1/2-y,z
loop_
_atom_site_type_symbol
_atom_site_label
_atom_site_fract_x
_atom_site_fract_y
_atom_site_fract_z
Si Si1 0.125858 0.103691 0.140700
Si Si2 0.675896 0.394995 0.472357
Si Si3 0.638822 0.570691 0.631344
Si Si4 0.576451 0.911200 0.068814
Si Si5 0.986636 0.422067 0.905243
Si Si6 0.651491 0.200451 0.078707
Si Si7 0.607035 0.198357 0.427113
Si Si8 0.247511 0.475556 0.441367
O O1 0.197456 0.097188 0.295281
O O2 0.171265 0.191934 0.047220
O O3 0.986113 0.115797 0.171479
O O4 0.150879 0.010874 0.050428
O O5 0.606667 0.485534 0.523275
O O6 0.788006 0.388709 0.579918
O O7 0.615514 0.297759 0.500233
O O8 0.727441 0.643773 0.553105
O O9 0.702163 0.530851 0.776150
O O10 0.510220 0.920399 0.226267
O O11 0.522154 0.830224 0.973140
O O12 0.573534 0.003072 0.972533
O O13 0.855134 0.448372 0.953728
O O14 0.041989 0.329739 0.973686
O O15 0.612512 0.193983 0.249872
O O16 0.700218 0.124121 0.492453
#
# Coordination Sequence:
#
# PCOD8171197 Si02
#       8
#     4   4   4   4   4   4   4   4
#     4  11  26  38  69  95 130 183 216 268 339 400
#     4  11  23  42  64  96 131 176 216 269 336 394
#     4  11  22  45  62  92 138 169 220 277 331 396
#     4  11  22  39  65  94 123 172 214 275 328 386
#     4  11  21  40  67  92 127 164 222 280 325 387
#     4  10  23  42  64  98 126 170 220 277 324 400
#     4   9  23  39  65  94 128 168 220 269 325 395
#     4  10  22  41  62  95 129 166 220 271 328 390
#
# _framework density 21.307182999999998
#
# number of rings (size 3 to 8) (size 9 to 14) (size 15 to 20)
#    0.000    1.500    2.500    2.250    7.000    7.000 
#    0.000    1.250    0.000    0.000    0.000    0.000 
#    0.000    0.000    0.000    0.000    0.000    0.000 
#
# Total GULP energy -396545.098159 kJ/mol
# GULP energy per Si atom -12392.034317 kJ/mol
# Density = 2.125869 g / cm^3
# Si number density = 21.307183 Si / 1000 Ang^3
#
#
#
# Elastic Constant Matrix: (Units=GPa)
#
#
# Indices 1 2 3 4 5 6 
#
# 1 71.6914 18.0692 11.9901 0.0000 0.0000 0.0000
# 2 18.0692 123.8582 33.6960 0.0000 0.0000 0.0000
# 3 11.9901 33.6960 55.4542 0.0000 0.0000 0.0000
# 4 0.0000 0.0000 0.0000 29.9956 0.0000 0.0000
# 5 0.0000 0.0000 0.0000 0.0000 26.2992 0.0000
# 6 0.0000 0.0000 0.0000 0.0000 0.0000 23.0470
#
#
#
# Elastic Compliance Matrix: (Units=1/GPa)
#
#
# Indices 1 2 3 4 5 6 
#
# 1 0.014711 -0.001534 -0.002248 0.000000 0.000000 0.000000
# 2 -0.001534 0.009833 -0.005643 0.000000 0.000000 0.000000
# 3 -0.002248 -0.005643 0.021948 0.000000 0.000000 0.000000
# 4 0.000000 0.000000 0.000000 0.033338 0.000000 0.000000
# 5 0.000000 0.000000 0.000000 0.000000 0.038024 0.000000
# 6 0.000000 0.000000 0.000000 0.000000 0.000000 0.043390
#
#
# Mechanical properties :
#
#
# Convention : Reuss Voigt Hill
#
# Bulk Modulus (GPa) = 36.17901 42.05716 39.11808
# Shear Modulus (GPa) = 26.41181 28.35160 27.38171
#
# Velocity S-wave (km/s) = 3.52458 3.65171 3.58871
# Velocity P-wave (km/s) = 5.79483 6.12873 5.96412
#
# Compressibility (1/GPa) = 0.02764034
#
# Stress axis : x y z
#
# Youngs Moduli (GPa) = 67.97412 101.70050 45.56241
#
# Poissons Ratio (x) = 0.15606 0.10245
# Poissons Ratio (y) = 0.10431 0.25711
# Poissons Ratio (z) = 0.15284 0.57389
#
# Static dielectric constant tensor:
#      x y z
#    x 3.728610 0.000000 0.000000 
#    y 0.000000 4.160330 0.000000 
#    z 0.000000 0.000000 3.661920 
# 
# 
# High freq. dielectric constant tensor:
#      x y z
#    x 1.831170 0.000000 0.000000 
#    y 0.000000 1.842790 0.000000 
#    z 0.000000 0.000000 1.820400 
# 
# From -- ./inp_files/4005.got.cif
#   From: 2010.03.12/outbox.cif.g09.slc.cpg/sg33_3_cif.got.tgz:4005.got - 2010.04.14 01:49:19.
