data_PCOD8171508
_publ_section_title
;
Structure prediction by ZEFSAII (Michael W. Deem and Ramdas Pophale) SiO2 
 PCOD8171508
Probable space group: P N A 21
;
_chemical_formula_sum "Si O2"
_cell_formula_units_Z 32
_cell_length_a 14.611668
_cell_length_b 5.304207
_cell_length_c 16.955494
_cell_angle_alpha 90.000000
_cell_angle_beta 90.000000
_cell_angle_gamma 90.000000
_cell_volume 1314.106936
_symmetry_space_group_name_H-M "P N A 21"
_symmetry_group_IT_number 33
_symmetry_cell_setting 'orthorhombic'
loop_
_space_group_symop_operation_xyz
x,y,z
-x,-y,1/2+z
1/2-x,1/2+y,1/2+z
1/2+x,1/2-y,z
loop_
_atom_site_type_symbol
_atom_site_label
_atom_site_fract_x
_atom_site_fract_y
_atom_site_fract_z
Si Si1 0.272265 0.906009 0.447310
Si Si2 0.007344 0.435403 0.763517
Si Si3 0.294507 0.618490 0.598010
Si Si4 0.576767 0.756730 0.901688
Si Si5 0.589406 0.911235 0.607761
Si Si6 0.668017 0.883461 0.180083
Si Si7 0.578193 0.423096 0.507867
Si Si8 0.824878 0.877287 0.299063
O O1 0.284290 0.659616 0.503560
O O2 0.273733 0.823317 0.355826
O O3 0.362621 0.077227 0.462192
O O4 0.177942 0.053695 0.466403
O O5 0.010127 0.582578 0.845567
O O6 0.030770 0.602251 0.687068
O O7 0.076176 0.203455 0.767771
O O8 0.904253 0.338586 0.750331
O O9 0.193812 0.611917 0.635501
O O10 0.340561 0.350806 0.619016
O O11 0.349956 0.857108 0.632908
O O12 0.506746 0.573466 0.946842
O O13 0.655460 0.627350 0.848599
O O14 0.557966 0.670064 0.558337
O O15 0.574178 0.168122 0.558517
O O16 0.766381 0.913909 0.220577
#
# Coordination Sequence:
#
# PCOD8171508 Si02
#       8
#     4   4   4   4   4   4   4   4
#     4  10  27  47  75 107 148 200 242 312 367 455
#     4  11  28  46  74 111 149 199 246 313 373 451
#     4  11  25  49  74 109 145 194 250 303 369 437
#     4  11  28  48  76 111 154 197 256 305 386 447
#     4  11  25  50  73 110 151 192 248 311 369 438
#     4  12  28  46  80 106 149 195 250 301 374 442
#     4  11  28  47  80 106 152 194 249 307 374 444
#     4  11  27  47  76 104 156 189 253 304 378 442
#
# _framework density 24.351139
#
# number of rings (size 3 to 8) (size 9 to 14) (size 15 to 20)
#    0.000    1.000    1.250    2.250   19.250    0.000 
#    0.000    0.000    0.000    0.000    0.000    0.000 
#    0.000    0.000    0.000    0.000    0.000    0.000 
#
# Total GULP energy -396783.023108 kJ/mol
# GULP energy per Si atom -12399.469472 kJ/mol
# Density = 2.429571 g / cm^3
# Si number density = 24.351139 Si / 1000 Ang^3
#
#
#
# Elastic Constant Matrix: (Units=GPa)
#
#
# Indices 1 2 3 4 5 6 
#
# 1 64.4215 25.2280 14.1937 0.0000 0.0000 0.0000
# 2 25.2280 136.6111 31.2082 0.0000 0.0000 0.0000
# 3 14.1937 31.2082 65.9930 0.0000 0.0000 0.0000
# 4 0.0000 0.0000 0.0000 33.8427 0.0000 0.0000
# 5 0.0000 0.0000 0.0000 0.0000 42.0376 0.0000
# 6 0.0000 0.0000 0.0000 0.0000 0.0000 30.8310
#
#
#
# Elastic Compliance Matrix: (Units=1/GPa)
#
#
# Indices 1 2 3 4 5 6 
#
# 1 0.017078 -0.002595 -0.002446 0.000000 0.000000 0.000000
# 2 -0.002595 0.008601 -0.003509 0.000000 0.000000 0.000000
# 3 -0.002446 -0.003509 0.017339 0.000000 0.000000 0.000000
# 4 0.000000 0.000000 0.000000 0.029548 0.000000 0.000000
# 5 0.000000 0.000000 0.000000 0.000000 0.023788 0.000000
# 6 0.000000 0.000000 0.000000 0.000000 0.000000 0.032435
#
#
# Mechanical properties :
#
#
# Convention : Reuss Voigt Hill
#
# Bulk Modulus (GPa) = 38.58446 45.36503 41.97474
# Shear Modulus (GPa) = 32.35648 34.43532 33.39590
#
# Velocity S-wave (km/s) = 3.64915 3.76455 3.70730
# Velocity P-wave (km/s) = 5.79953 6.12909 5.96659
#
# Compressibility (1/GPa) = 0.02591717
#
# Stress axis : x y z
#
# Youngs Moduli (GPa) = 58.55526 116.26625 57.67433
#
# Poissons Ratio (x) = 0.30171 0.14107
# Poissons Ratio (y) = 0.15195 0.20239
# Poissons Ratio (z) = 0.14322 0.40801
#
# Static dielectric constant tensor:
#      x y z
#    x 4.438050 0.000000 0.000000 
#    y 0.000000 4.347650 0.000000 
#    z 0.000000 0.000000 4.424260 
# 
# 
# High freq. dielectric constant tensor:
#      x y z
#    x 1.973100 0.000000 0.000000 
#    y 0.000000 1.967590 0.000000 
#    z 0.000000 0.000000 1.972680 
# 
# From -- ./inp_files/8806.got.cif
#   From: 2010.03.12/outbox.cif.g09.slc.cpg/sg33_5_cif.got.tgz:8806.got - 2010.04.14 01:49:19.
