data_PCOD8171642
_publ_section_title
;
Structure prediction by ZEFSAII (Michael W. Deem and Ramdas Pophale) SiO2 
 PCOD8171642
Probable space group: P N A 21
;
_chemical_formula_sum "Si O2"
_cell_formula_units_Z 28
_cell_length_a 11.600049
_cell_length_b 11.546693
_cell_length_c 9.212778
_cell_angle_alpha 90.000000
_cell_angle_beta 90.000000
_cell_angle_gamma 90.000000
_cell_volume 1233.979796
_symmetry_space_group_name_H-M "P N A 21"
_symmetry_group_IT_number 33
_symmetry_cell_setting 'orthorhombic'
loop_
_space_group_symop_operation_xyz
x,y,z
-x,-y,1/2+z
1/2-x,1/2+y,1/2+z
1/2+x,1/2-y,z
loop_
_atom_site_type_symbol
_atom_site_label
_atom_site_fract_x
_atom_site_fract_y
_atom_site_fract_z
Si Si1 0.872723 0.326842 0.033800
Si Si2 0.310916 0.065587 0.738720
Si Si3 0.765529 0.859466 0.813737
Si Si4 0.064533 0.693609 0.999744
Si Si5 0.948169 0.902045 0.161374
Si Si6 0.892218 0.075119 0.937590
Si Si7 0.421703 0.837572 0.735462
O O1 0.797428 0.379626 0.162416
O O2 0.005521 0.329416 0.086257
O O3 0.848008 0.411203 0.902035
O O4 0.835751 0.196432 0.986390
O O5 0.413867 0.116927 0.641304
O O6 0.186345 0.118550 0.700311
O O7 0.315024 0.926502 0.714117
O O8 0.881038 0.790840 0.776001
O O9 0.793846 0.983456 0.888398
O O10 0.688944 0.780877 0.924428
O O11 0.994577 0.806543 0.049215
O O12 0.996192 0.621908 0.875841
O O13 0.020329 0.901703 0.307223
O O14 0.960969 0.023401 0.075865
#
# Coordination Sequence:
#
# PCOD8171642 Si02
#       7
#     4   4   4   4   4   4   4
#     4  11  27  45  71 110 145 192 245 307 369 450
#     4  12  25  47  69 106 140 194 240 305 373 438
#     4  11  25  44  73 104 147 193 239 304 377 431
#     4  11  23  48  65 106 142 188 243 296 371 438
#     4  12  27  45  73 103 145 188 249 303 364 445
#     4  12  25  48  72 107 143 191 250 304 365 454
#     4  11  24  45  73 100 146 190 244 303 371 438
#
# _framework density 22.690809999999999
#
# number of rings (size 3 to 8) (size 9 to 14) (size 15 to 20)
#    0.000    0.571    4.286    2.571    8.000    0.000 
#    7.714    0.000    0.000    0.000    0.000    0.000 
#    0.000    0.000    0.000    0.000    0.000    0.000 
#
# Total GULP energy -347123.879447 kJ/mol
# GULP energy per Si atom -12397.281409 kJ/mol
# Density = 2.263916 g / cm^3
# Si number density = 22.690810 Si / 1000 Ang^3
#
#
#
# Elastic Constant Matrix: (Units=GPa)
#
#
# Indices 1 2 3 4 5 6 
#
# 1 101.0926 29.5680 29.9725 0.0000 0.0000 0.0000
# 2 29.5680 96.8965 15.7725 0.0000 0.0000 0.0000
# 3 29.9725 15.7725 121.2615 0.0000 0.0000 0.0000
# 4 0.0000 0.0000 0.0000 41.2503 0.0000 0.0000
# 5 0.0000 0.0000 0.0000 0.0000 29.6692 0.0000
# 6 0.0000 0.0000 0.0000 0.0000 0.0000 33.0552
#
#
#
# Elastic Compliance Matrix: (Units=1/GPa)
#
#
# Indices 1 2 3 4 5 6 
#
# 1 0.011529 -0.003120 -0.002444 0.000000 0.000000 0.000000
# 2 -0.003120 0.011388 -0.000710 0.000000 0.000000 0.000000
# 3 -0.002444 -0.000710 0.008943 0.000000 0.000000 0.000000
# 4 0.000000 0.000000 0.000000 0.024242 0.000000 0.000000
# 5 0.000000 0.000000 0.000000 0.000000 0.033705 0.000000
# 6 0.000000 0.000000 0.000000 0.000000 0.000000 0.030252
#
#
# Mechanical properties :
#
#
# Convention : Reuss Voigt Hill
#
# Bulk Modulus (GPa) = 51.78147 52.20852 51.99500
# Shear Modulus (GPa) = 35.95947 37.05745 36.50846
#
# Velocity S-wave (km/s) = 3.98522 4.04561 4.01553
# Velocity P-wave (km/s) = 6.63672 6.69934 6.66810
#
# Compressibility (1/GPa) = 0.01931193
#
# Stress axis : x y z
#
# Youngs Moduli (GPa) = 86.73688 87.81157 111.81887
#
# Poissons Ratio (x) = 0.27400 0.27327
# Poissons Ratio (y) = 0.27065 0.07939
# Poissons Ratio (z) = 0.21197 0.06234
#
# Static dielectric constant tensor:
#      x y z
#    x 4.087030 0.000000 0.000000 
#    y 0.000000 3.918760 0.000000 
#    z 0.000000 0.000000 4.377420 
# 
# 
# High freq. dielectric constant tensor:
#      x y z
#    x 1.890220 0.000000 0.000000 
#    y 0.000000 1.879440 0.000000 
#    z 0.000000 0.000000 1.925690 
# 
# From -- ./inp_files/3852.got.cif
#   From: 2010.03.12/outbox.cif.g09.slc.cpg/sg33_2_cif.got.tgz:3852.got - 2010.04.14 01:49:19.
