data_PCOD8171959
_publ_section_title
;
Structure prediction by ZEFSAII (Michael W. Deem and Ramdas Pophale) SiO2 
 PCOD8171959
Probable space group: P N N 2
;
_chemical_formula_sum "Si O2"
_cell_formula_units_Z 26
_cell_length_a 10.976227
_cell_length_b 13.939563
_cell_length_c 8.902206
_cell_angle_alpha 90.000000
_cell_angle_beta 90.000000
_cell_angle_gamma 90.000000
_cell_volume 1362.071416
_symmetry_space_group_name_H-M "P N N 2"
_symmetry_group_IT_number 34
_symmetry_cell_setting 'orthorhombic'
loop_
_space_group_symop_operation_xyz
x,y,z
-x,-y,z
1/2-x,1/2+y,1/2+z
1/2+x,1/2-y,1/2+z
loop_
_atom_site_type_symbol
_atom_site_label
_atom_site_fract_x
_atom_site_fract_y
_atom_site_fract_z
Si Si1 0.549319 0.393534 0.324010
Si Si2 0.972968 0.793141 0.282316
Si Si3 0.894567 0.741409 0.588757
Si Si4 0.704389 0.399096 0.597691
Si Si5 0.946750 0.399422 0.765583
Si Si6 0.880204 0.248813 0.003922
Si Si7 0.000000 0.000000 0.244392
O O1 0.500000 0.500000 0.291586
O O2 0.582547 0.344906 0.165218
O O3 0.675389 0.385768 0.420684
O O4 0.442719 0.337624 0.412861
O O5 0.970060 0.732677 0.434064
O O6 0.842147 0.807395 0.197455
O O7 0.059312 0.737611 0.166944
O O8 0.019452 0.900433 0.333759
O O9 0.757689 0.722909 0.539219
O O10 0.939634 0.659744 0.701203
O O11 0.846232 0.414509 0.633978
O O12 0.621269 0.491205 0.641193
O O13 0.000000 0.500000 0.820953
O O14 0.889100 0.347695 0.910566
#
# Coordination Sequence:
#
# PCOD8171959 Si02
#       7
#     4   4   4   4   4   4   2
#     4  10  21  37  64  91 119 159 210 256 306 366
#     4   9  19  36  64  83 117 158 203 249 309 352
#     4  11  24  38  62  93 124 161 206 264 311 374
#     4   9  17  37  58  85 119 157 204 249 294 379
#     4  11  25  39  60  90 128 165 209 256 319 372
#     4  10  21  44  60  87 127 159 210 257 311 378
#     4   8  16  32  66  78 106 166 192 242 304 358
#
# _framework density 19.088573
#
# number of rings (size 3 to 8) (size 9 to 14) (size 15 to 20)
#    0.923    1.231    2.308    0.000    7.538    0.000 
#    0.000    2.308    0.000    0.000    0.000    0.000 
#    0.000    0.000    0.000    0.000    0.000    0.000 
#
# Total GULP energy -322104.419625 kJ/mol
# GULP energy per Si atom -12388.631524 kJ/mol
# Density = 1.904513 g / cm^3
# Si number density = 19.088573 Si / 1000 Ang^3
#
#
#
# Elastic Constant Matrix: (Units=GPa)
#
#
# Indices 1 2 3 4 5 6 
#
# 1 110.2502 35.1190 34.4483 0.0000 0.0000 0.0000
# 2 35.1190 78.3659 17.2645 0.0000 0.0000 0.0000
# 3 34.4483 17.2645 88.2770 0.0000 0.0000 0.0000
# 4 0.0000 0.0000 0.0000 21.4881 0.0000 0.0000
# 5 0.0000 0.0000 0.0000 0.0000 20.5848 0.0000
# 6 0.0000 0.0000 0.0000 0.0000 0.0000 21.1404
#
#
#
# Elastic Compliance Matrix: (Units=1/GPa)
#
#
# Indices 1 2 3 4 5 6 
#
# 1 0.011619 -0.004398 -0.003674 0.000000 0.000000 0.000000
# 2 -0.004398 0.015000 -0.001217 0.000000 0.000000 0.000000
# 3 -0.003674 -0.001217 0.013000 0.000000 0.000000 0.000000
# 4 0.000000 0.000000 0.000000 0.046537 0.000000 0.000000
# 5 0.000000 0.000000 0.000000 0.000000 0.048579 0.000000
# 6 0.000000 0.000000 0.000000 0.000000 0.000000 0.047303
#
#
# Mechanical properties :
#
#
# Convention : Reuss Voigt Hill
#
# Bulk Modulus (GPa) = 47.52777 50.06185 48.79481
# Shear Modulus (GPa) = 24.08133 25.31341 24.69737
#
# Velocity S-wave (km/s) = 3.55569 3.64552 3.60089
# Velocity P-wave (km/s) = 6.46606 6.63346 6.55029
#
# Compressibility (1/GPa) = 0.02104033
#
# Stress axis : x y z
#
# Youngs Moduli (GPa) = 86.06555 66.66853 76.92422
#
# Poissons Ratio (x) = 0.29318 0.28262
# Poissons Ratio (y) = 0.37848 0.09365
# Poissons Ratio (z) = 0.31621 0.08116
#
# Static dielectric constant tensor:
#      x y z
#    x 3.334270 0.000000 0.000000 
#    y 0.000000 3.327580 0.000000 
#    z 0.000000 0.000000 3.431750 
# 
# 
# High freq. dielectric constant tensor:
#      x y z
#    x 1.733300 0.000000 0.000000 
#    y 0.000000 1.724140 0.000000 
#    z 0.000000 0.000000 1.737110 
# 
# From -- ./inp_files/3195.got.cif
#   From: 2010.03.12/outbox.cif.g09.slc.cpg/sg34_2_cif.got.tgz:3195.got - 2010.04.14 01:56:33.
