data_PCOD8171668
_publ_section_title
;
Structure prediction by ZEFSAII (Michael W. Deem and Ramdas Pophale) SiO2 
 PCOD8171668
Probable space group: P N A 21
;
_chemical_formula_sum "Si O2"
_cell_formula_units_Z 24
_cell_length_a 13.465227
_cell_length_b 9.319450
_cell_length_c 8.789471
_cell_angle_alpha 90.000000
_cell_angle_beta 90.000000
_cell_angle_gamma 90.000000
_cell_volume 1102.977617
_symmetry_space_group_name_H-M "P N A 21"
_symmetry_group_IT_number 33
_symmetry_cell_setting 'orthorhombic'
loop_
_space_group_symop_operation_xyz
x,y,z
-x,-y,1/2+z
1/2-x,1/2+y,1/2+z
1/2+x,1/2-y,z
loop_
_atom_site_type_symbol
_atom_site_label
_atom_site_fract_x
_atom_site_fract_y
_atom_site_fract_z
Si Si1 0.369362 0.407565 0.850680
Si Si2 0.018797 0.684452 0.519415
Si Si3 0.178086 0.483668 0.030703
Si Si4 0.844431 0.190897 0.524201
Si Si5 0.531906 0.299929 0.341338
Si Si6 0.163562 0.456202 0.390087
O O1 0.336304 0.315714 0.705649
O O2 0.400797 0.565061 0.793837
O O3 0.465123 0.331139 0.926024
O O4 0.278272 0.409645 0.970362
O O5 0.018894 0.724425 0.696666
O O6 0.114199 0.586183 0.482476
O O7 0.917214 0.605164 0.467990
O O8 0.176585 0.646385 0.969296
O O9 0.173110 0.486378 0.211998
O O10 0.952602 0.147026 0.464520
O O11 0.772250 0.072031 0.454530
O O12 0.600228 0.185114 0.426046
#
# Coordination Sequence:
#
# PCOD8171668 Si02
#       6
#     4   4   4   4   4   4
#     4  12  26  45  71 108 136 180 235 292 347 419
#     4  11  25  46  73 100 140 184 234 287 350 418
#     4  11  25  47  69 102 140 184 234 282 352 422
#     4  12  25  43  73 100 139 183 228 285 351 413
#     4  11  25  45  68 102 143 177 231 291 347 412
#     4  11  24  44  72 100 136 186 232 285 345 414
#
# _framework density 21.759278999999999
#
# number of rings (size 3 to 8) (size 9 to 14) (size 15 to 20)
#    0.000    0.667    5.000    2.000    2.333    5.333 
#    3.000    0.000    0.000    0.000    0.000    0.000 
#    0.000    0.000    0.000    0.000    0.000    0.000 
#
# Total GULP energy -297701.905658 kJ/mol
# GULP energy per Si atom -12404.246069 kJ/mol
# Density = 2.170975 g / cm^3
# Si number density = 21.759279 Si / 1000 Ang^3
#
#
#
# Elastic Constant Matrix: (Units=GPa)
#
#
# Indices 1 2 3 4 5 6 
#
# 1 107.0445 39.9715 34.8706 0.0000 0.0000 0.0000
# 2 39.9715 103.7967 27.4425 0.0000 0.0000 0.0000
# 3 34.8706 27.4425 54.8179 0.0000 0.0000 0.0000
# 4 0.0000 0.0000 0.0000 32.4961 0.0000 0.0000
# 5 0.0000 0.0000 0.0000 0.0000 28.5807 0.0000
# 6 0.0000 0.0000 0.0000 0.0000 0.0000 44.2668
#
#
#
# Elastic Compliance Matrix: (Units=1/GPa)
#
#
# Indices 1 2 3 4 5 6 
#
# 1 0.012621 -0.003155 -0.006449 0.000000 0.000000 0.000000
# 2 -0.003155 0.011893 -0.003947 0.000000 0.000000 0.000000
# 3 -0.006449 -0.003947 0.024320 0.000000 0.000000 0.000000
# 4 0.000000 0.000000 0.000000 0.030773 0.000000 0.000000
# 5 0.000000 0.000000 0.000000 0.000000 0.034989 0.000000
# 6 0.000000 0.000000 0.000000 0.000000 0.000000 0.022590
#
#
# Mechanical properties :
#
#
# Convention : Reuss Voigt Hill
#
# Bulk Modulus (GPa) = 46.01400 52.24758 49.13079
# Shear Modulus (GPa) = 29.14931 31.96036 30.55483
#
# Velocity S-wave (km/s) = 3.66406 3.83667 3.75136
# Velocity P-wave (km/s) = 6.25246 6.60988 6.43365
#
# Compressibility (1/GPa) = 0.02173252
#
# Stress axis : x y z
#
# Youngs Moduli (GPa) = 79.23399 84.08525 41.11837
#
# Poissons Ratio (x) = 0.26531 0.26516
# Poissons Ratio (y) = 0.25000 0.16227
# Poissons Ratio (z) = 0.51096 0.33184
#
# Static dielectric constant tensor:
#      x y z
#    x 3.939490 0.000000 0.000000 
#    y 0.000000 4.019430 0.000000 
#    z 0.000000 0.000000 3.748140 
# 
# 
# High freq. dielectric constant tensor:
#      x y z
#    x 1.857090 0.000000 0.000000 
#    y 0.000000 1.871740 0.000000 
#    z 0.000000 0.000000 1.848960 
# 
# From -- ./inp_files/3713.got.cif
#   From: 2010.03.12/outbox.cif.g09.slc.cpg/sg33_2_cif.got.tgz:3713.got - 2010.04.14 01:49:19.
