data_PCOD8171934
_publ_section_title
;
Structure prediction by ZEFSAII (Michael W. Deem and Ramdas Pophale) SiO2 
 PCOD8171934
Probable space group: P N N 2
;
_chemical_formula_sum "Si O2"
_cell_formula_units_Z 32
_cell_length_a 8.809196
_cell_length_b 15.060685
_cell_length_c 11.942045
_cell_angle_alpha 90.000000
_cell_angle_beta 90.000000
_cell_angle_gamma 90.000000
_cell_volume 1584.381276
_symmetry_space_group_name_H-M "P N N 2"
_symmetry_group_IT_number 34
_symmetry_cell_setting 'orthorhombic'
loop_
_space_group_symop_operation_xyz
x,y,z
-x,-y,z
1/2-x,1/2+y,1/2+z
1/2+x,1/2-y,1/2+z
loop_
_atom_site_type_symbol
_atom_site_label
_atom_site_fract_x
_atom_site_fract_y
_atom_site_fract_z
Si Si1 0.820871 0.500000 0.333680
Si Si2 0.820904 0.999999 0.589156
Si Si3 0.175441 0.656622 0.951381
Si Si4 0.824563 0.656619 0.951380
Si Si5 0.176829 0.859329 0.991813
Si Si6 0.170245 0.100963 0.238892
Si Si7 0.176831 0.140673 0.991813
Si Si8 0.329752 0.399040 0.738891
O O1 0.753730 0.499999 0.210200
O O2 0.769340 0.589078 0.397124
O O3 0.769343 0.410921 0.397126
O O4 0.000000 0.500000 0.323799
O O5 0.773960 0.911577 0.523040
O O6 0.773955 0.088421 0.523039
O O7 0.000000 0.000000 0.603029
O O8 0.212055 0.755337 0.991500
O O9 0.218829 0.654403 0.820426
O O10 0.000002 0.631705 0.966335
O O11 0.787944 0.755335 0.991496
O O12 0.781178 0.654398 0.820424
O O13 0.999999 0.879936 0.971690
O O14 0.231438 0.894059 0.112525
O O15 0.999998 0.141399 0.245088
O O16 0.168853 0.000001 0.280324
O O17 0.231439 0.105947 0.112527
#
# Coordination Sequence:
#
# PCOD8171934 Si02
#       8
#     4   4   4   4   4   4   4   4
#     4  12  26  43  66  95 128 167 215 265 313 376
#     4  12  26  45  66  89 128 175 213 259 323 380
#     4  11  24  41  65  97 128 163 212 266 315 373
#     4  11  24  41  65  97 128 163 212 266 315 373
#     4  10  23  44  66  92 128 169 210 259 318 376
#     4  10  20  39  66  90 122 167 209 256 315 376
#     4  10  23  44  66  92 128 169 210 259 318 376
#     4  10  20  39  66  90 122 167 209 256 315 376
#
# _framework density 20.19716
#
# number of rings (size 3 to 8) (size 9 to 14) (size 15 to 20)
#    0.000    1.250    2.500    3.000    3.500    3.000 
#    0.000    0.000    0.000    0.000    0.000    0.000 
#    0.000    0.000    0.000    0.000    0.000    0.000 
#
# Total GULP energy -396950.973806 kJ/mol
# GULP energy per Si atom -12404.717931 kJ/mol
# Density = 2.015119 g / cm^3
# Si number density = 20.197160 Si / 1000 Ang^3
#
#
#
# Elastic Constant Matrix: (Units=GPa)
#
#
# Indices 1 2 3 4 5 6 
#
# 1 119.8547 56.9213 58.5856 0.0000 0.0000 0.0000
# 2 56.9213 103.7068 43.9082 0.0000 0.0000 0.0000
# 3 58.5856 43.9082 132.3815 0.0000 0.0000 0.0000
# 4 0.0000 0.0000 0.0000 28.7625 0.0000 0.0000
# 5 0.0000 0.0000 0.0000 0.0000 36.2855 0.0000
# 6 0.0000 0.0000 0.0000 0.0000 0.0000 27.2840
#
#
#
# Elastic Compliance Matrix: (Units=1/GPa)
#
#
# Indices 1 2 3 4 5 6 
#
# 1 0.012794 -0.005381 -0.003877 0.000000 0.000000 0.000000
# 2 -0.005381 0.013481 -0.002090 0.000000 0.000000 0.000000
# 3 -0.003877 -0.002090 0.009963 0.000000 0.000000 0.000000
# 4 0.000000 0.000000 0.000000 0.034767 0.000000 0.000000
# 5 0.000000 0.000000 0.000000 0.000000 0.027559 0.000000
# 6 0.000000 0.000000 0.000000 0.000000 0.000000 0.036652
#
#
# Mechanical properties :
#
#
# Convention : Reuss Voigt Hill
#
# Bulk Modulus (GPa) = 73.84580 74.97481 74.41031
# Shear Modulus (GPa) = 30.78320 31.56825 31.17573
#
# Velocity S-wave (km/s) = 3.90825 3.95777 3.93309
# Velocity P-wave (km/s) = 7.55035 7.62151 7.58601
#
# Compressibility (1/GPa) = 0.01354173
#
# Stress axis : x y z
#
# Youngs Moduli (GPa) = 78.16110 74.18003 100.37023
#
# Poissons Ratio (x) = 0.39913 0.38918
# Poissons Ratio (y) = 0.42055 0.20978
# Poissons Ratio (z) = 0.30306 0.15504
#
# Static dielectric constant tensor:
#      x y z
#    x 3.658740 0.000000 0.000000 
#    y 0.000000 3.695620 0.000000 
#    z 0.000000 0.000000 3.783230 
# 
# 
# High freq. dielectric constant tensor:
#      x y z
#    x 1.785110 0.000000 0.000000 
#    y 0.000000 1.794290 0.000000 
#    z 0.000000 0.000000 1.803300 
# 
# From -- ./inp_files/5109.got.cif
#   From: 2010.03.12/outbox.cif.g09.slc.cpg/sg34_3_cif.got.tgz:5109.got - 2010.04.14 01:56:33.
