data_PCOD8171339
_publ_section_title
;
Structure prediction by ZEFSAII (Michael W. Deem and Ramdas Pophale) SiO2 
 PCOD8171339
Probable space group: P N A 21
;
_chemical_formula_sum "Si O2"
_cell_formula_units_Z 20
_cell_length_a 19.639476
_cell_length_b 4.815541
_cell_length_c 8.062319
_cell_angle_alpha 90.000000
_cell_angle_beta 90.000000
_cell_angle_gamma 90.000000
_cell_volume 762.491416
_symmetry_space_group_name_H-M "P N A 21"
_symmetry_group_IT_number 33
_symmetry_cell_setting 'orthorhombic'
loop_
_space_group_symop_operation_xyz
x,y,z
-x,-y,1/2+z
1/2-x,1/2+y,1/2+z
1/2+x,1/2-y,z
loop_
_atom_site_type_symbol
_atom_site_label
_atom_site_fract_x
_atom_site_fract_y
_atom_site_fract_z
Si Si1 0.960152 0.641542 0.236320
Si Si2 0.715068 0.523606 0.951999
Si Si3 0.570870 0.623575 0.937202
Si Si4 0.439192 0.296592 0.967835
Si Si5 0.206133 0.975118 0.568318
O O1 0.041026 0.706381 0.276950
O O2 0.935552 0.443124 0.388325
O O3 0.943847 0.494446 0.065610
O O4 0.000741 0.986859 0.029373
O O5 0.640860 0.573383 0.038616
O O6 0.737819 0.206962 0.971452
O O7 0.707581 0.611010 0.759968
O O8 0.772732 0.706116 0.042662
O O9 0.580735 0.433340 0.765513
O O10 0.366187 0.434177 0.976719
#
# Coordination Sequence:
#
# PCOD8171339 Si02
#       5
#     4   4   4   4   4
#     4  10  23  41  74 102 135 184 235 305 362 433
#     4  12  27  50  73 108 151 204 244 313 371 449
#     4  10  24  44  73  99 140 186 242 297 365 428
#     4  10  26  44  77 103 145 183 250 300 376 427
#     4  12  28  49  75 106 155 197 253 305 378 449
#
# _framework density 26.229803
#
# number of rings (size 3 to 8) (size 9 to 14) (size 15 to 20)
#    1.200    0.000    2.000    2.400    8.400    1.600 
#    7.200    0.000    0.000    0.000    0.000    0.000 
#    0.000    0.000    0.000    0.000    0.000    0.000 
#
# Total GULP energy -247848.832944 kJ/mol
# GULP energy per Si atom -12392.441647 kJ/mol
# Density = 2.617010 g / cm^3
# Si number density = 26.229803 Si / 1000 Ang^3
#
#
#
# Elastic Constant Matrix: (Units=GPa)
#
#
# Indices 1 2 3 4 5 6 
#
# 1 164.6971 20.9436 19.4671 0.0000 0.0000 0.0000
# 2 20.9436 80.4187 3.1882 0.0000 0.0000 0.0000
# 3 19.4671 3.1882 9.7343 0.0000 0.0000 0.0000
# 4 0.0000 0.0000 0.0000 39.1166 0.0000 0.0000
# 5 0.0000 0.0000 0.0000 0.0000 29.5529 0.0000
# 6 0.0000 0.0000 0.0000 0.0000 0.0000 46.7197
#
#
#
# Elastic Compliance Matrix: (Units=1/GPa)
#
#
# Indices 1 2 3 4 5 6 
#
# 1 0.008124 -0.001491 -0.015758 0.000000 0.000000 0.000000
# 2 -0.001491 0.012872 -0.001234 0.000000 0.000000 0.000000
# 3 -0.015758 -0.001234 0.134649 0.000000 0.000000 0.000000
# 4 0.000000 0.000000 0.000000 0.025565 0.000000 0.000000
# 5 0.000000 0.000000 0.000000 0.000000 0.033838 0.000000
# 6 0.000000 0.000000 0.000000 0.000000 0.000000 0.021404
#
#
# Mechanical properties :
#
#
# Convention : Reuss Voigt Hill
#
# Bulk Modulus (GPa) = 8.42618 38.00531 23.21574
# Shear Modulus (GPa) = 15.97557 37.16127 26.56842
#
# Velocity S-wave (km/s) = 2.47060 3.76807 3.18608
# Velocity P-wave (km/s) = 3.37014 5.78376 4.73338
#
# Compressibility (1/GPa) = 0.11867779
#
# Stress axis : x y z
#
# Youngs Moduli (GPa) = 123.09209 77.68713 7.42672
#
# Poissons Ratio (x) = 0.11583 0.11703
# Poissons Ratio (y) = 0.18353 0.00917
# Poissons Ratio (z) = 1.93974 0.09588
#
# Static dielectric constant tensor:
#      x y z
#    x 4.804020 0.000000 0.000000 
#    y 0.000000 4.852070 0.000000 
#    z 0.000000 0.000000 4.483510 
# 
# 
# High freq. dielectric constant tensor:
#      x y z
#    x 2.056430 0.000000 0.000000 
#    y 0.000000 2.069670 0.000000 
#    z 0.000000 0.000000 2.039240 
# 
# From -- ./inp_files/426.got.cif
#   From: 2010.03.12/outbox.cif.g09.slc.cpg/sg33_1_cif.got.tgz:426.got - 2010.04.14 01:49:19.
