data_PCOD8171591
_publ_section_title
;
Structure prediction by ZEFSAII (Michael W. Deem and Ramdas Pophale) SiO2 
 PCOD8171591
Probable space group: P N A 21
;
_chemical_formula_sum "Si O2"
_cell_formula_units_Z 24
_cell_length_a 9.914900
_cell_length_b 6.373539
_cell_length_c 17.301980
_cell_angle_alpha 90.000000
_cell_angle_beta 90.000000
_cell_angle_gamma 90.000000
_cell_volume 1093.364054
_symmetry_space_group_name_H-M "P N A 21"
_symmetry_group_IT_number 33
_symmetry_cell_setting 'orthorhombic'
loop_
_space_group_symop_operation_xyz
x,y,z
-x,-y,1/2+z
1/2-x,1/2+y,1/2+z
1/2+x,1/2-y,z
loop_
_atom_site_type_symbol
_atom_site_label
_atom_site_fract_x
_atom_site_fract_y
_atom_site_fract_z
Si Si1 0.354744 0.152130 0.685860
Si Si2 0.627096 0.399219 0.463587
Si Si3 0.213501 0.797350 0.592128
Si Si4 0.450820 0.174544 0.224131
Si Si5 0.846260 0.107408 0.532651
Si Si6 0.182724 0.039581 0.287434
O O1 0.396971 0.263953 0.606738
O O2 0.287487 0.315013 0.746277
O O3 0.262233 0.956056 0.659798
O O4 0.480809 0.054392 0.732200
O O5 0.667836 0.593547 0.515116
O O6 0.710531 0.194192 0.491374
O O7 0.466470 0.367058 0.470688
O O8 0.660452 0.475229 0.378091
O O9 0.085339 0.688841 0.632834
O O10 0.323424 0.627012 0.564781
O O11 0.550386 0.360561 0.248767
O O12 0.315604 0.181149 0.275607
#
# Coordination Sequence:
#
# PCOD8171591 Si02
#       6
#     4   4   4   4   4   4
#     4  11  23  41  72  99 132 180 240 286 340 419
#     4  11  26  43  70 104 142 181 230 292 360 417
#     4  11  23  44  71 101 132 185 237 287 345 424
#     4  12  24  45  70  98 140 181 241 285 353 426
#     4  11  23  46  72  99 140 183 237 286 352 428
#     4  12  27  43  69 107 142 186 231 296 360 414
#
# _framework density 21.950600000000001
#
# number of rings (size 3 to 8) (size 9 to 14) (size 15 to 20)
#    0.000    0.667    3.333    4.000    4.667    4.000 
#    0.000    0.000    0.000    0.000    0.000    0.000 
#    0.000    0.000    0.000    0.000    0.000    0.000 
#
# Total GULP energy -297500.231936 kJ/mol
# GULP energy per Si atom -12395.842997 kJ/mol
# Density = 2.190064 g / cm^3
# Si number density = 21.950600 Si / 1000 Ang^3
#
#
#
# Elastic Constant Matrix: (Units=GPa)
#
#
# Indices 1 2 3 4 5 6 
#
# 1 125.0602 39.0216 31.9611 0.0000 0.0000 0.0000
# 2 39.0216 101.1929 31.1120 0.0000 0.0000 0.0000
# 3 31.9611 31.1120 133.1365 0.0000 0.0000 0.0000
# 4 0.0000 0.0000 0.0000 23.9456 0.0000 0.0000
# 5 0.0000 0.0000 0.0000 0.0000 28.8732 0.0000
# 6 0.0000 0.0000 0.0000 0.0000 0.0000 34.2585
#
#
#
# Elastic Compliance Matrix: (Units=1/GPa)
#
#
# Indices 1 2 3 4 5 6 
#
# 1 0.009364 -0.003146 -0.001513 0.000000 0.000000 0.000000
# 2 -0.003146 0.011704 -0.001980 0.000000 0.000000 0.000000
# 3 -0.001513 -0.001980 0.008337 0.000000 0.000000 0.000000
# 4 0.000000 0.000000 0.000000 0.041761 0.000000 0.000000
# 5 0.000000 0.000000 0.000000 0.000000 0.034634 0.000000
# 6 0.000000 0.000000 0.000000 0.000000 0.000000 0.029190
#
#
# Mechanical properties :
#
#
# Convention : Reuss Voigt Hill
#
# Bulk Modulus (GPa) = 62.00392 62.61988 62.31190
# Shear Modulus (GPa) = 32.54282 34.56847 33.55564
#
# Velocity S-wave (km/s) = 3.85456 3.97272 3.91409
# Velocity P-wave (km/s) = 6.93676 7.04506 6.99112
#
# Compressibility (1/GPa) = 0.01612801
#
# Stress axis : x y z
#
# Youngs Moduli (GPa) = 106.78758 85.44141 119.94827
#
# Poissons Ratio (x) = 0.26879 0.18147
# Poissons Ratio (y) = 0.33594 0.23747
# Poissons Ratio (z) = 0.16156 0.16916
#
# Static dielectric constant tensor:
#      x y z
#    x 4.102630 0.000000 0.000000 
#    y 0.000000 4.169570 0.000000 
#    z 0.000000 0.000000 3.888240 
# 
# 
# High freq. dielectric constant tensor:
#      x y z
#    x 1.869960 0.000000 0.000000 
#    y 0.000000 1.868760 0.000000 
#    z 0.000000 0.000000 1.857990 
# 
# From -- ./inp_files/8421.got.cif
#   From: 2010.03.12/outbox.cif.g09.slc.cpg/sg33_5_cif.got.tgz:8421.got - 2010.04.14 01:49:19.
