data_PCOD8171303
_publ_section_title
;
Structure prediction by ZEFSAII (Michael W. Deem and Ramdas Pophale) SiO2 
 PCOD8171303
Probable space group: P N A 21
;
_chemical_formula_sum "Si O2"
_cell_formula_units_Z 28
_cell_length_a 11.733985
_cell_length_b 8.578964
_cell_length_c 11.276580
_cell_angle_alpha 90.000000
_cell_angle_beta 90.000000
_cell_angle_gamma 90.000000
_cell_volume 1135.161830
_symmetry_space_group_name_H-M "P N A 21"
_symmetry_group_IT_number 33
_symmetry_cell_setting 'orthorhombic'
loop_
_space_group_symop_operation_xyz
x,y,z
-x,-y,1/2+z
1/2-x,1/2+y,1/2+z
1/2+x,1/2-y,z
loop_
_atom_site_type_symbol
_atom_site_label
_atom_site_fract_x
_atom_site_fract_y
_atom_site_fract_z
Si Si1 0.570514 0.508660 0.632980
Si Si2 0.727743 0.731037 0.480233
Si Si3 0.829491 0.556189 0.894448
Si Si4 0.850636 0.166883 0.557128
Si Si5 0.006203 0.566555 0.082791
Si Si6 0.092110 0.266816 0.166066
Si Si7 0.163791 0.292677 0.742477
O O1 0.645949 0.597492 0.533417
O O2 0.475833 0.408160 0.565060
O O3 0.495984 0.634176 0.710371
O O4 0.647424 0.395879 0.716952
O O5 0.804550 0.805225 0.587085
O O6 0.811906 0.663440 0.379019
O O7 0.661889 0.868613 0.409267
O O8 0.853792 0.621210 0.764668
O O9 0.704571 0.616503 0.932563
O O10 0.921590 0.630581 0.982155
O O11 0.766318 0.130815 0.666384
O O12 0.871239 0.353748 0.559969
O O13 0.953638 0.619612 0.210062
O O14 0.019636 0.380716 0.080507
#
# Coordination Sequence:
#
# PCOD8171303 Si02
#       7
#     4   4   4   4   4   4   4
#     4  11  24  47  78 109 147 207 255 302 395 456
#     4  12  24  45  71 109 146 190 253 312 371 450
#     4  11  24  43  69 104 145 187 249 316 359 449
#     4  10  22  50  68 103 148 194 249 309 378 448
#     4  10  23  45  70 101 144 189 242 309 382 442
#     4  12  26  45  74 109 148 196 255 308 374 466
#     4  10  25  47  74 105 150 189 249 316 375 453
#
# _framework density 24.666087000000001
#
# number of rings (size 3 to 8) (size 9 to 14) (size 15 to 20)
#    0.000    1.143    2.857    2.571    2.000    4.571 
#   15.429    0.000    0.000    0.000    0.000    0.000 
#    0.000    0.000    0.000    0.000    0.000    0.000 
#
# Total GULP energy -347047.269034 kJ/mol
# GULP energy per Si atom -12394.545323 kJ/mol
# Density = 2.460995 g / cm^3
# Si number density = 24.666087 Si / 1000 Ang^3
#
#
#
# Elastic Constant Matrix: (Units=GPa)
#
#
# Indices 1 2 3 4 5 6 
#
# 1 92.1048 27.8512 34.5685 0.0000 0.0000 0.0000
# 2 27.8512 100.3502 20.0430 0.0000 0.0000 0.0000
# 3 34.5685 20.0430 104.7966 0.0000 0.0000 0.0000
# 4 0.0000 0.0000 0.0000 34.2190 0.0000 0.0000
# 5 0.0000 0.0000 0.0000 0.0000 27.3422 0.0000
# 6 0.0000 0.0000 0.0000 0.0000 0.0000 52.6415
#
#
#
# Elastic Compliance Matrix: (Units=1/GPa)
#
#
# Indices 1 2 3 4 5 6 
#
# 1 0.013153 -0.002895 -0.003785 0.000000 0.000000 0.000000
# 2 -0.002895 0.010998 -0.001149 0.000000 0.000000 0.000000
# 3 -0.003785 -0.001149 0.011011 0.000000 0.000000 0.000000
# 4 0.000000 0.000000 0.000000 0.029224 0.000000 0.000000
# 5 0.000000 0.000000 0.000000 0.000000 0.036574 0.000000
# 6 0.000000 0.000000 0.000000 0.000000 0.000000 0.018996
#
#
# Mechanical properties :
#
#
# Convention : Reuss Voigt Hill
#
# Bulk Modulus (GPa) = 51.26891 51.35300 51.31096
# Shear Modulus (GPa) = 35.18324 37.15980 36.17152
#
# Velocity S-wave (km/s) = 3.78084 3.88559 3.83358
# Velocity P-wave (km/s) = 6.31585 6.40273 6.35944
#
# Compressibility (1/GPa) = 0.01950500
#
# Stress axis : x y z
#
# Youngs Moduli (GPa) = 76.02786 90.92680 90.82204
#
# Poissons Ratio (x) = 0.26319 0.34377
# Poissons Ratio (y) = 0.22006 0.10432
# Poissons Ratio (z) = 0.28777 0.10444
#
# Static dielectric constant tensor:
#      x y z
#    x 4.587740 0.000000 0.000000 
#    y 0.000000 4.543770 0.000000 
#    z 0.000000 0.000000 4.096170 
# 
# 
# High freq. dielectric constant tensor:
#      x y z
#    x 1.995460 0.000000 0.000000 
#    y 0.000000 1.987010 0.000000 
#    z 0.000000 0.000000 1.956520 
# 
# From -- ./inp_files/6355.got.cif
#   From: 2010.03.12/outbox.cif.g09.slc.cpg/sg33_4_cif.got.tgz:6355.got - 2010.04.14 01:49:19.
