data_PCOD8171331
_publ_section_title
;
Structure prediction by ZEFSAII (Michael W. Deem and Ramdas Pophale) SiO2 
 PCOD8171331
Probable space group: P N A 21
;
_chemical_formula_sum "Si O2"
_cell_formula_units_Z 32
_cell_length_a 9.039068
_cell_length_b 27.647325
_cell_length_c 5.966147
_cell_angle_alpha 90.000000
_cell_angle_beta 90.000000
_cell_angle_gamma 90.000000
_cell_volume 1490.976235
_symmetry_space_group_name_H-M "P N A 21"
_symmetry_group_IT_number 33
_symmetry_cell_setting 'orthorhombic'
loop_
_space_group_symop_operation_xyz
x,y,z
-x,-y,1/2+z
1/2-x,1/2+y,1/2+z
1/2+x,1/2-y,z
loop_
_atom_site_type_symbol
_atom_site_label
_atom_site_fract_x
_atom_site_fract_y
_atom_site_fract_z
Si Si1 0.110524 0.291954 0.139940
Si Si2 0.437374 0.433491 0.953046
Si Si3 0.487385 0.381046 0.546736
Si Si4 0.136226 0.748509 0.347140
Si Si5 0.852479 0.963574 0.809282
Si Si6 0.382064 0.715391 0.041108
Si Si7 0.019462 0.525609 0.873748
Si Si8 0.794983 0.606780 0.790454
O O1 0.117306 0.255835 0.350712
O O2 0.110247 0.347886 0.204677
O O3 0.250355 0.282755 0.979498
O O4 0.953672 0.285288 0.017478
O O5 0.472825 0.384875 0.814085
O O6 0.384284 0.479518 0.812448
O O7 0.593780 0.445163 0.068282
O O8 0.298101 0.421801 0.106858
O O9 0.550291 0.433801 0.485939
O O10 0.594992 0.339097 0.448842
O O11 0.320963 0.371441 0.465869
O O12 0.227684 0.715777 0.173074
O O13 0.019788 0.780290 0.210453
O O14 0.681985 0.952298 0.852483
O O15 0.989761 0.501504 0.621099
O O16 0.905141 0.569192 0.906483
#
# Coordination Sequence:
#
# PCOD8171331 Si02
#       8
#     4   4   4   4   4   4   4   4
#     4  11  23  44  69  96 141 179 236 288 357 430
#     4  11  22  43  67  95 132 172 235 285 352 424
#     4  11  24  41  70  96 133 176 233 285 355 427
#     4  10  23  41  68  97 134 178 226 293 354 418
#     4  11  24  40  68  96 129 181 227 289 344 424
#     4  11  23  43  67 102 135 177 231 290 356 429
#     4  12  28  47  69 103 145 184 235 297 360 430
#     4  11  25  43  68  99 133 189 227 289 362 428
#
# _framework density 21.462447000000001
#
# number of rings (size 3 to 8) (size 9 to 14) (size 15 to 20)
#    0.000    1.000    2.500    3.750    3.500    7.000 
#    0.000    0.000    0.000    0.000    0.000    0.000 
#    0.000    0.000    0.000    0.000    0.000    0.000 
#
# Total GULP energy -396488.303106 kJ/mol
# GULP energy per Si atom -12390.259472 kJ/mol
# Density = 2.141360 g / cm^3
# Si number density = 21.462447 Si / 1000 Ang^3
#
#
#
# Elastic Constant Matrix: (Units=GPa)
#
#
# Indices 1 2 3 4 5 6 
#
# 1 114.0435 19.8221 23.6971 0.0000 0.0000 0.0000
# 2 19.8221 92.7436 20.8315 0.0000 0.0000 0.0000
# 3 23.6971 20.8315 95.3061 0.0000 0.0000 0.0000
# 4 0.0000 0.0000 0.0000 24.5185 0.0000 0.0000
# 5 0.0000 0.0000 0.0000 0.0000 25.2782 0.0000
# 6 0.0000 0.0000 0.0000 0.0000 0.0000 35.9516
#
#
#
# Elastic Compliance Matrix: (Units=1/GPa)
#
#
# Indices 1 2 3 4 5 6 
#
# 1 0.009459 -0.001570 -0.002009 0.000000 0.000000 0.000000
# 2 -0.001570 0.011600 -0.002145 0.000000 0.000000 0.000000
# 3 -0.002009 -0.002145 0.011461 0.000000 0.000000 0.000000
# 4 0.000000 0.000000 0.000000 0.040786 0.000000 0.000000
# 5 0.000000 0.000000 0.000000 0.000000 0.039560 0.000000
# 6 0.000000 0.000000 0.000000 0.000000 0.000000 0.027815
#
#
# Mechanical properties :
#
#
# Convention : Reuss Voigt Hill
#
# Bulk Modulus (GPa) = 47.45760 47.86607 47.66183
# Shear Modulus (GPa) = 31.41651 32.99916 32.20784
#
# Velocity S-wave (km/s) = 3.83010 3.92539 3.87804
# Velocity P-wave (km/s) = 6.45906 6.54947 6.50442
#
# Compressibility (1/GPa) = 0.02107144
#
# Stress axis : x y z
#
# Youngs Moduli (GPa) = 105.72026 86.20798 87.25423
#
# Poissons Ratio (x) = 0.13539 0.17526
# Poissons Ratio (y) = 0.16603 0.18716
# Poissons Ratio (z) = 0.21235 0.18491
#
# Static dielectric constant tensor:
#      x y z
#    x 4.035270 0.000000 0.000000 
#    y 0.000000 3.718260 0.000000 
#    z 0.000000 0.000000 4.258450 
# 
# 
# High freq. dielectric constant tensor:
#      x y z
#    x 1.854010 0.000000 0.000000 
#    y 0.000000 1.838660 0.000000 
#    z 0.000000 0.000000 1.851710 
# 
# From -- ./inp_files/563.got.cif
#   From: 2010.03.12/outbox.cif.g09.slc.cpg/sg33_1_cif.got.tgz:563.got - 2010.04.14 01:49:19.
