data_PCOD8171115
_publ_section_title
;
Structure prediction by ZEFSAII (Michael W. Deem and Ramdas Pophale) SiO2 
 PCOD8171115
Probable space group: P N A 21
;
_chemical_formula_sum "Si O2"
_cell_formula_units_Z 28
_cell_length_a 16.356810
_cell_length_b 9.052392
_cell_length_c 9.194921
_cell_angle_alpha 90.000000
_cell_angle_beta 90.000000
_cell_angle_gamma 90.000000
_cell_volume 1361.475916
_symmetry_space_group_name_H-M "P N A 21"
_symmetry_group_IT_number 33
_symmetry_cell_setting 'orthorhombic'
loop_
_space_group_symop_operation_xyz
x,y,z
-x,-y,1/2+z
1/2-x,1/2+y,1/2+z
1/2+x,1/2-y,z
loop_
_atom_site_type_symbol
_atom_site_label
_atom_site_fract_x
_atom_site_fract_y
_atom_site_fract_z
Si Si1 0.154934 0.165820 0.917310
Si Si2 0.948610 0.029882 0.620574
Si Si3 0.719763 0.820737 0.667901
Si Si4 0.409425 0.961065 0.276610
Si Si5 0.638664 0.520459 0.652455
Si Si6 0.501145 0.825915 0.004990
Si Si7 0.138759 0.128877 0.369274
O O1 0.120231 0.323245 0.870687
O O2 0.182040 0.071361 0.778852
O O3 0.080830 0.084334 0.998872
O O4 0.236846 0.174198 0.011998
O O5 0.899319 0.999606 0.767937
O O6 0.042638 0.004897 0.654395
O O7 0.936966 0.198113 0.563218
O O8 0.653415 0.692513 0.671349
O O9 0.788535 0.786763 0.788288
O O10 0.671286 0.970380 0.702401
O O11 0.470516 0.916814 0.145931
O O12 0.452788 0.070988 0.389996
O O13 0.677451 0.458650 0.504269
O O14 0.426170 0.750972 0.919374
#
# Coordination Sequence:
#
# PCOD8171115 Si02
#       7
#     4   4   4   4   4   4   4
#     4  11  24  43  69  95 138 175 226 280 340 410
#     4  10  21  43  71  94 122 179 225 271 333 405
#     4  11  26  40  65  95 141 177 216 279 345 413
#     4  12  26  46  64 109 134 176 232 290 348 402
#     4  11  21  41  67  91 127 177 224 267 326 411
#     4  11  26  42  72  98 139 177 231 294 337 403
#     4  10  22  43  66  96 129 175 226 269 335 402
#
# _framework density 20.565916000000001
#
# number of rings (size 3 to 8) (size 9 to 14) (size 15 to 20)
#    0.000    1.143    2.857    4.286    8.000    0.000 
#    0.000    1.429    0.000    0.000    0.000    0.000 
#    0.000    0.000    0.000    0.000    0.000    0.000 
#
# Total GULP energy -347232.852225 kJ/mol
# GULP energy per Si atom -12401.173294 kJ/mol
# Density = 2.051911 g / cm^3
# Si number density = 20.565916 Si / 1000 Ang^3
#
#
#
# Elastic Constant Matrix: (Units=GPa)
#
#
# Indices 1 2 3 4 5 6 
#
# 1 59.1562 41.0929 41.0293 0.0000 0.0000 0.0000
# 2 41.0929 130.4587 66.2583 0.0000 0.0000 0.0000
# 3 41.0293 66.2583 152.6927 0.0000 0.0000 0.0000
# 4 0.0000 0.0000 0.0000 36.1877 0.0000 0.0000
# 5 0.0000 0.0000 0.0000 0.0000 20.2282 0.0000
# 6 0.0000 0.0000 0.0000 0.0000 0.0000 25.0816
#
#
#
# Elastic Compliance Matrix: (Units=1/GPa)
#
#
# Indices 1 2 3 4 5 6 
#
# 1 0.023365 -0.005350 -0.003957 0.000000 0.000000 0.000000
# 2 -0.005350 0.011057 -0.003360 0.000000 0.000000 0.000000
# 3 -0.003957 -0.003360 0.009071 0.000000 0.000000 0.000000
# 4 0.000000 0.000000 0.000000 0.027634 0.000000 0.000000
# 5 0.000000 0.000000 0.000000 0.000000 0.049436 0.000000
# 6 0.000000 0.000000 0.000000 0.000000 0.000000 0.039870
#
#
# Mechanical properties :
#
#
# Convention : Reuss Voigt Hill
#
# Bulk Modulus (GPa) = 55.07160 71.00762 63.03961
# Shear Modulus (GPa) = 26.06613 29.22799 27.64706
#
# Velocity S-wave (km/s) = 3.56398 3.77395 3.67047
# Velocity P-wave (km/s) = 6.61605 7.32066 6.97726
#
# Compressibility (1/GPa) = 0.01815818
#
# Stress axis : x y z
#
# Youngs Moduli (GPa) = 42.79874 90.43852 110.24733
#
# Poissons Ratio (x) = 0.48386 0.43622
# Poissons Ratio (y) = 0.22898 0.37048
# Poissons Ratio (z) = 0.16934 0.30392
#
# Static dielectric constant tensor:
#      x y z
#    x 3.587760 0.000000 0.000000 
#    y 0.000000 3.927290 0.000000 
#    z 0.000000 0.000000 4.235360 
# 
# 
# High freq. dielectric constant tensor:
#      x y z
#    x 1.793340 0.000000 0.000000 
#    y 0.000000 1.810320 0.000000 
#    z 0.000000 0.000000 1.830180 
# 
# From -- ./inp_files/4736.got.cif
#   From: 2010.03.12/outbox.cif.g09.slc.cpg/sg33_3_cif.got.tgz:4736.got - 2010.04.14 01:49:19.
