data_PCOD8171174
_publ_section_title
;
Structure prediction by ZEFSAII (Michael W. Deem and Ramdas Pophale) SiO2 
 PCOD8171174
Probable space group: P N A 21
;
_chemical_formula_sum "Si O2"
_cell_formula_units_Z 32
_cell_length_a 8.659586
_cell_length_b 11.051012
_cell_length_c 14.850308
_cell_angle_alpha 90.000000
_cell_angle_beta 90.000000
_cell_angle_gamma 90.000000
_cell_volume 1421.132728
_symmetry_space_group_name_H-M "P N A 21"
_symmetry_group_IT_number 33
_symmetry_cell_setting 'orthorhombic'
loop_
_space_group_symop_operation_xyz
x,y,z
-x,-y,1/2+z
1/2-x,1/2+y,1/2+z
1/2+x,1/2-y,z
loop_
_atom_site_type_symbol
_atom_site_label
_atom_site_fract_x
_atom_site_fract_y
_atom_site_fract_z
Si Si1 0.769316 0.277023 0.705580
Si Si2 0.596989 0.146778 0.419439
Si Si3 0.505336 0.577312 0.269611
Si Si4 0.451672 0.895053 0.116020
Si Si5 0.969427 0.387354 0.232189
Si Si6 0.752840 0.221642 0.137307
Si Si7 0.949126 0.095133 0.427641
Si Si8 0.528489 0.424660 0.091850
O O1 0.662777 0.358778 0.770042
O O2 0.863292 0.180753 0.765617
O O3 0.662960 0.216669 0.629547
O O4 0.877253 0.364128 0.647872
O O5 0.548590 0.073689 0.509833
O O6 0.498879 0.088039 0.337533
O O7 0.777573 0.133313 0.398566
O O8 0.559206 0.288525 0.429120
O O9 0.522745 0.504624 0.362031
O O10 0.523710 0.479129 0.191497
O O11 0.387778 0.001505 0.180450
O O12 0.130910 0.367365 0.181859
O O13 0.857341 0.272907 0.219692
O O14 0.669015 0.328801 0.081761
O O15 0.866440 0.145108 0.071928
O O16 0.944326 0.037185 0.526574
#
# Coordination Sequence:
#
# PCOD8171174 Si02
#       8
#     4   4   4   4   4   4   4   4
#     4  10  22  40  63  89 126 169 211 255 314 380
#     4  12  24  40  64  96 124 160 214 262 314 382
#     4  11  23  42  64  92 129 169 213 267 320 373
#     4  11  22  40  64  91 125 164 204 258 315 372
#     4  11  22  40  64  91 125 164 204 258 315 372
#     4  10  22  40  63  89 126 169 211 255 314 380
#     4  12  26  42  66  94 126 164 210 266 320 378
#     4  11  23  42  64  92 129 169 213 267 320 373
#
# _framework density 22.517249
#
# number of rings (size 3 to 8) (size 9 to 14) (size 15 to 20)
#    0.000    1.000    0.000    9.000    0.000    3.000 
#    0.000    5.000    0.000    0.000    0.000    0.000 
#    0.000    0.000    0.000    0.000    0.000    0.000 
#
# Total GULP energy -396904.508371 kJ/mol
# GULP energy per Si atom -12403.265887 kJ/mol
# Density = 2.246600 g / cm^3
# Si number density = 22.517249 Si / 1000 Ang^3
#
#
#
# Elastic Constant Matrix: (Units=GPa)
#
#
# Indices 1 2 3 4 5 6 
#
# 1 83.3326 18.2651 -2.0947 0.0000 0.0000 0.0000
# 2 18.2651 89.5066 27.1388 0.0000 0.0000 0.0000
# 3 -2.0947 27.1388 101.5572 0.0000 0.0000 0.0000
# 4 0.0000 0.0000 0.0000 41.1466 0.0000 0.0000
# 5 0.0000 0.0000 0.0000 0.0000 15.6240 0.0000
# 6 0.0000 0.0000 0.0000 0.0000 0.0000 42.6018
#
#
#
# Elastic Compliance Matrix: (Units=1/GPa)
#
#
# Indices 1 2 3 4 5 6 
#
# 1 0.012661 -0.002898 0.001035 0.000000 0.000000 0.000000
# 2 -0.002898 0.012821 -0.003486 0.000000 0.000000 0.000000
# 3 0.001035 -0.003486 0.010800 0.000000 0.000000 0.000000
# 4 0.000000 0.000000 0.000000 0.024303 0.000000 0.000000
# 5 0.000000 0.000000 0.000000 0.000000 0.064004 0.000000
# 6 0.000000 0.000000 0.000000 0.000000 0.000000 0.023473
#
#
# Mechanical properties :
#
#
# Convention : Reuss Voigt Hill
#
# Bulk Modulus (GPa) = 39.08475 40.11277 39.59876
# Shear Modulus (GPa) = 29.88888 35.28028 32.58458
#
# Velocity S-wave (km/s) = 3.64727 3.96259 3.80820
# Velocity P-wave (km/s) = 5.92724 6.22809 6.07952
#
# Compressibility (1/GPa) = 0.02558543
#
# Stress axis : x y z
#
# Youngs Moduli (GPa) = 78.98107 77.99966 92.59672
#
# Poissons Ratio (x) = 0.22602 -0.09588
# Poissons Ratio (y) = 0.22886 0.32277
# Poissons Ratio (z) = -0.08178 0.27189
#
# Static dielectric constant tensor:
#      x y z
#    x 4.309690 0.000000 0.000000 
#    y 0.000000 4.131110 0.000000 
#    z 0.000000 0.000000 3.789190 
# 
# 
# High freq. dielectric constant tensor:
#      x y z
#    x 1.905940 0.000000 0.000000 
#    y 0.000000 1.895530 0.000000 
#    z 0.000000 0.000000 1.862960 
# 
# From -- ./inp_files/7645.got.cif
#   From: 2010.03.12/outbox.cif.g09.slc.cpg/sg33_4_cif.got.tgz:7645.got - 2010.04.14 01:49:19.
