data_PCOD8171705
_publ_section_title
;
Structure prediction by ZEFSAII (Michael W. Deem and Ramdas Pophale) SiO2 
 PCOD8171705
Probable space group: P N A 21
;
_chemical_formula_sum "Si O2"
_cell_formula_units_Z 16
_cell_length_a 9.503704
_cell_length_b 5.596916
_cell_length_c 10.746344
_cell_angle_alpha 90.000000
_cell_angle_beta 90.000000
_cell_angle_gamma 90.000000
_cell_volume 571.613437
_symmetry_space_group_name_H-M "P N A 21"
_symmetry_group_IT_number 33
_symmetry_cell_setting 'orthorhombic'
loop_
_space_group_symop_operation_xyz
x,y,z
-x,-y,1/2+z
1/2-x,1/2+y,1/2+z
1/2+x,1/2-y,z
loop_
_atom_site_type_symbol
_atom_site_label
_atom_site_fract_x
_atom_site_fract_y
_atom_site_fract_z
Si Si1 0.092340 0.542804 0.887590
Si Si2 0.174334 0.694871 0.454624
Si Si3 0.325666 0.305129 0.622601
Si Si4 0.592339 0.542803 0.689635
O O1 0.214526 0.345235 0.872822
O O2 0.124196 0.750000 0.788613
O O3 0.938948 0.427839 0.861515
O O4 0.088686 0.631881 0.029874
O O5 0.250000 0.500001 0.538613
O O6 0.088686 0.868119 0.547351
O O7 0.438948 0.427839 0.715710
O O8 0.214525 0.154766 0.704403
#
# Coordination Sequence:
#
# PCOD8171705 Si02
#       4
#     4   4   4   4
#     4  11  26  51  84 118 165 221 277 350 422 493
#     4  11  24  52  79 122 165 213 285 346 408 509
#     4  11  24  52  79 122 165 213 285 346 408 509
#     4  11  26  51  84 118 165 221 277 350 422 493
#
# _framework density 27.990946999999998
#
# number of rings (size 3 to 8) (size 9 to 14) (size 15 to 20)
#    0.000    1.000    5.000    0.000    0.000    4.000 
#    9.000    2.500    0.000    0.000    0.000    0.000 
#    0.000    0.000    0.000    0.000    0.000    0.000 
#
# Total GULP energy -198505.607856 kJ/mol
# GULP energy per Si atom -12406.600491 kJ/mol
# Density = 2.792724 g / cm^3
# Si number density = 27.990947 Si / 1000 Ang^3
#
#
#
# Elastic Constant Matrix: (Units=GPa)
#
#
# Indices 1 2 3 4 5 6 
#
# 1 248.1659 116.8074 51.7561 0.0000 0.0000 0.0000
# 2 116.8074 197.1511 61.1847 0.0000 0.0000 0.0000
# 3 51.7561 61.1847 112.1760 0.0000 0.0000 0.0000
# 4 0.0000 0.0000 0.0000 90.3847 0.0000 0.0000
# 5 0.0000 0.0000 0.0000 0.0000 31.5259 0.0000
# 6 0.0000 0.0000 0.0000 0.0000 0.0000 67.8784
#
#
#
# Elastic Compliance Matrix: (Units=1/GPa)
#
#
# Indices 1 2 3 4 5 6 
#
# 1 0.005670 -0.003066 -0.000943 0.000000 0.000000 0.000000
# 2 -0.003066 0.007764 -0.002820 0.000000 0.000000 0.000000
# 3 -0.000943 -0.002820 0.010888 0.000000 0.000000 0.000000
# 4 0.000000 0.000000 0.000000 0.011064 0.000000 0.000000
# 5 0.000000 0.000000 0.000000 0.000000 0.031720 0.000000
# 6 0.000000 0.000000 0.000000 0.000000 0.000000 0.014732
#
#
# Mechanical properties :
#
#
# Convention : Reuss Voigt Hill
#
# Bulk Modulus (GPa) = 93.78955 112.99881 103.39418
# Shear Modulus (GPa) = 50.47885 59.80744 55.14315
#
# Velocity S-wave (km/s) = 4.25125 4.62743 4.44332
# Velocity P-wave (km/s) = 7.59456 8.30712 7.95882
#
# Compressibility (1/GPa) = 0.01066217
#
# Stress axis : x y z
#
# Youngs Moduli (GPa) = 176.38027 128.79663 91.84421
#
# Poissons Ratio (x) = 0.39493 0.08664
# Poissons Ratio (y) = 0.54084 0.25901
# Poissons Ratio (z) = 0.16639 0.36322
#
# Static dielectric constant tensor:
#      x y z
#    x 5.027490 0.000000 0.000000 
#    y 0.000000 5.573830 0.000000 
#    z 0.000000 0.000000 5.195450 
# 
# 
# High freq. dielectric constant tensor:
#      x y z
#    x 2.141460 0.000000 0.000000 
#    y 0.000000 2.149830 0.000000 
#    z 0.000000 0.000000 2.149390 
# 
# From -- ./inp_files/267.got.cif
#   From: 2010.03.12/outbox.cif.g09.slc.cpg/sg33_1_cif.got.tgz:267.got - 2010.04.14 01:49:19.
