data_PCOD8171062
_publ_section_title
;
Structure prediction by ZEFSAII (Michael W. Deem and Ramdas Pophale) SiO2 
 PCOD8171062
Probable space group: P N A 21
;
_chemical_formula_sum "Si O2"
_cell_formula_units_Z 32
_cell_length_a 20.164862
_cell_length_b 8.651593
_cell_length_c 9.136736
_cell_angle_alpha 90.000000
_cell_angle_beta 90.000000
_cell_angle_gamma 90.000000
_cell_volume 1593.978324
_symmetry_space_group_name_H-M "P N A 21"
_symmetry_group_IT_number 33
_symmetry_cell_setting 'orthorhombic'
loop_
_space_group_symop_operation_xyz
x,y,z
-x,-y,1/2+z
1/2-x,1/2+y,1/2+z
1/2+x,1/2-y,z
loop_
_atom_site_type_symbol
_atom_site_label
_atom_site_fract_x
_atom_site_fract_y
_atom_site_fract_z
Si Si1 0.546240 0.683290 0.815390
Si Si2 0.322028 0.324138 0.488870
Si Si3 0.936815 0.681461 0.005948
Si Si4 0.192676 0.134629 0.830049
Si Si5 0.545494 0.323538 0.809322
Si Si6 0.320138 0.325597 0.831512
Si Si7 0.563483 0.822298 0.503752
Si Si8 0.693761 0.363274 0.495135
O O1 0.610224 0.726374 0.911623
O O2 0.483111 0.782967 0.866396
O O3 0.527624 0.503292 0.828607
O O4 0.564400 0.720823 0.649414
O O5 0.296177 0.490194 0.435747
O O6 0.335817 0.329912 0.660687
O O7 0.265265 0.201181 0.447995
O O8 0.937497 0.501591 0.044292
O O9 0.861246 0.730347 0.974031
O O10 0.966892 0.776592 0.141636
O O11 0.120969 0.210390 0.857529
O O12 0.246508 0.264817 0.864829
O O13 0.196593 0.076855 0.662175
O O14 0.501580 0.218532 0.913034
O O15 0.371834 0.212338 0.908359
O O16 0.327124 0.497314 0.891708
#
# Coordination Sequence:
#
# PCOD8171062 Si02
#       8
#     4   4   4   4   4   4   4   4
#     4  11  23  40  63  88 121 161 200 248 303 359
#     4  10  22  39  61  89 119 154 198 247 297 357
#     4  11  23  40  61  88 121 156 201 252 300 355
#     4   9  21  40  59  85 117 152 195 245 297 354
#     4  10  21  41  62  86 120 157 202 247 300 361
#     4  11  22  38  62  89 120 158 198 244 300 361
#     4  12  24  39  61  89 122 159 201 250 302 356
#     4  10  22  39  61  86 118 157 197 243 299 359
#
# _framework density 20.075555999999999
#
# number of rings (size 3 to 8) (size 9 to 14) (size 15 to 20)
#    0.000    1.500    0.000    6.000    0.000    9.000 
#    0.000    1.250    0.000    0.000    0.000    0.000 
#    0.000    0.000    0.000    0.000    0.000    0.000 
#
# Total GULP energy -397003.628210 kJ/mol
# GULP energy per Si atom -12406.363382 kJ/mol
# Density = 2.002986 g / cm^3
# Si number density = 20.075556 Si / 1000 Ang^3
#
#
#
# Elastic Constant Matrix: (Units=GPa)
#
#
# Indices 1 2 3 4 5 6 
#
# 1 98.9152 31.4368 40.8000 0.0000 0.0000 0.0000
# 2 31.4368 73.5370 15.3911 0.0000 0.0000 0.0000
# 3 40.8000 15.3911 86.9387 0.0000 0.0000 0.0000
# 4 0.0000 0.0000 0.0000 31.2257 0.0000 0.0000
# 5 0.0000 0.0000 0.0000 0.0000 17.5958 0.0000
# 6 0.0000 0.0000 0.0000 0.0000 0.0000 35.5045
#
#
#
# Elastic Compliance Matrix: (Units=1/GPa)
#
#
# Indices 1 2 3 4 5 6 
#
# 1 0.013988 -0.004783 -0.005718 0.000000 0.000000 0.000000
# 2 -0.004783 0.015757 -0.000545 0.000000 0.000000 0.000000
# 3 -0.005718 -0.000545 0.014282 0.000000 0.000000 0.000000
# 4 0.000000 0.000000 0.000000 0.032025 0.000000 0.000000
# 5 0.000000 0.000000 0.000000 0.000000 0.056832 0.000000
# 6 0.000000 0.000000 0.000000 0.000000 0.000000 0.028165
#
#
# Mechanical properties :
#
#
# Convention : Reuss Voigt Hill
#
# Bulk Modulus (GPa) = 45.58704 48.29408 46.94056
# Shear Modulus (GPa) = 26.25307 28.31608 27.28457
#
# Velocity S-wave (km/s) = 3.62015 3.75970 3.69059
# Velocity P-wave (km/s) = 6.34280 6.55405 6.44929
#
# Compressibility (1/GPa) = 0.02193606
#
# Stress axis : x y z
#
# Youngs Moduli (GPa) = 71.48809 63.46209 70.01722
#
# Poissons Ratio (x) = 0.30355 0.40035
# Poissons Ratio (y) = 0.34194 0.03815
# Poissons Ratio (z) = 0.40876 0.03458
#
# Static dielectric constant tensor:
#      x y z
#    x 3.812500 0.000000 0.000000 
#    y 0.000000 3.505160 0.000000 
#    z 0.000000 0.000000 3.690990 
# 
# 
# High freq. dielectric constant tensor:
#      x y z
#    x 1.799200 0.000000 0.000000 
#    y 0.000000 1.781680 0.000000 
#    z 0.000000 0.000000 1.788330 
# 
# From -- ./inp_files/4993.got.cif
#   From: 2010.03.12/outbox.cif.g09.slc.cpg/sg33_3_cif.got.tgz:4993.got - 2010.04.14 01:49:19.
