data_PCOD8171689
_publ_section_title
;
Structure prediction by ZEFSAII (Michael W. Deem and Ramdas Pophale) SiO2 
 PCOD8171689
Probable space group: P N A 21
;
_chemical_formula_sum "Si O2"
_cell_formula_units_Z 32
_cell_length_a 21.625298
_cell_length_b 11.636393
_cell_length_c 5.329131
_cell_angle_alpha 90.000000
_cell_angle_beta 90.000000
_cell_angle_gamma 90.000000
_cell_volume 1341.025010
_symmetry_space_group_name_H-M "P N A 21"
_symmetry_group_IT_number 33
_symmetry_cell_setting 'orthorhombic'
loop_
_space_group_symop_operation_xyz
x,y,z
-x,-y,1/2+z
1/2-x,1/2+y,1/2+z
1/2+x,1/2-y,z
loop_
_atom_site_type_symbol
_atom_site_label
_atom_site_fract_x
_atom_site_fract_y
_atom_site_fract_z
Si Si1 0.817033 0.298684 0.028590
Si Si2 0.149321 0.963218 0.568160
Si Si3 0.619202 0.213711 0.470037
Si Si4 0.427132 0.479418 0.573788
Si Si5 0.919022 0.472849 0.176901
Si Si6 0.258400 0.663360 0.025170
Si Si7 0.477974 0.677817 0.285254
Si Si8 0.046972 0.382252 0.078048
O O1 0.829111 0.165049 0.021716
O O2 0.881185 0.364317 0.080288
O O3 0.773302 0.338166 0.254405
O O4 0.788769 0.323822 0.754920
O O5 0.107059 0.005567 0.336162
O O6 0.209546 0.041931 0.569067
O O7 0.118431 0.964353 0.840615
O O8 0.692288 0.230751 0.505629
O O9 0.588018 0.312088 0.640830
O O10 0.590166 0.221714 0.191845
O O11 0.596369 0.079993 0.495411
O O12 0.473389 0.584566 0.510421
O O13 0.467184 0.362577 0.600389
O O14 0.904915 0.525686 0.453625
O O15 0.991900 0.444749 0.226155
O O16 0.492444 0.807477 0.372865
#
# Coordination Sequence:
#
# PCOD8171689 Si02
#       8
#     4   4   4   4   4   4   4   4
#     4  12  31  48  81 109 151 205 259 322 375 457
#     4  12  27  50  74 108 152 192 256 316 376 452
#     4  11  26  47  75 102 155 199 253 310 384 465
#     4  12  25  45  73 113 153 195 244 310 383 461
#     4  11  26  45  76 113 149 198 252 325 389 463
#     4  12  29  51  75 107 149 208 262 309 381 452
#     4  11  26  40  73 110 148 201 239 306 390 467
#     4  11  24  46  75 114 153 194 253 322 404 467
#
# _framework density 23.862342999999999
#
# number of rings (size 3 to 8) (size 9 to 14) (size 15 to 20)
#    0.000    0.500    2.500    3.750   14.000    0.000 
#    0.000    0.000    0.000    0.000    0.000    0.000 
#    0.000    0.000    0.000    0.000    0.000    0.000 
#
# Total GULP energy -396425.740029 kJ/mol
# GULP energy per Si atom -12388.304376 kJ/mol
# Density = 2.380803 g / cm^3
# Si number density = 23.862343 Si / 1000 Ang^3
#
#
#
# Elastic Constant Matrix: (Units=GPa)
#
#
# Indices 1 2 3 4 5 6 
#
# 1 75.4085 19.0739 20.3586 0.0000 0.0000 0.0000
# 2 19.0739 114.0853 18.6184 0.0000 0.0000 0.0000
# 3 20.3586 18.6184 103.0264 0.0000 0.0000 0.0000
# 4 0.0000 0.0000 0.0000 33.5361 0.0000 0.0000
# 5 0.0000 0.0000 0.0000 0.0000 43.0356 0.0000
# 6 0.0000 0.0000 0.0000 0.0000 0.0000 18.2588
#
#
#
# Elastic Compliance Matrix: (Units=1/GPa)
#
#
# Indices 1 2 3 4 5 6 
#
# 1 0.014441 -0.002008 -0.002491 0.000000 0.000000 0.000000
# 2 -0.002008 0.009311 -0.001286 0.000000 0.000000 0.000000
# 3 -0.002491 -0.001286 0.010431 0.000000 0.000000 0.000000
# 4 0.000000 0.000000 0.000000 0.029819 0.000000 0.000000
# 5 0.000000 0.000000 0.000000 0.000000 0.023237 0.000000
# 6 0.000000 0.000000 0.000000 0.000000 0.000000 0.054768
#
#
# Mechanical properties :
#
#
# Convention : Reuss Voigt Hill
#
# Bulk Modulus (GPa) = 44.22053 45.40243 44.81148
# Shear Modulus (GPa) = 31.03396 34.59739 32.81568
#
# Velocity S-wave (km/s) = 3.61021 3.81185 3.71240
# Velocity P-wave (km/s) = 5.99583 6.20014 6.09884
#
# Compressibility (1/GPa) = 0.02261393
#
# Stress axis : x y z
#
# Youngs Moduli (GPa) = 69.24503 107.40070 95.86965
#
# Poissons Ratio (x) = 0.21566 0.23880
# Poissons Ratio (y) = 0.13904 0.12327
# Poissons Ratio (z) = 0.17248 0.13810
#
# Static dielectric constant tensor:
#      x y z
#    x 4.238510 0.000000 0.000000 
#    y 0.000000 4.431150 0.000000 
#    z 0.000000 0.000000 4.710170 
# 
# 
# High freq. dielectric constant tensor:
#      x y z
#    x 1.932020 0.000000 0.000000 
#    y 0.000000 1.966540 0.000000 
#    z 0.000000 0.000000 1.965350 
# 
# From -- ./inp_files/2079.got.cif
#   From: 2010.03.12/outbox.cif.g09.slc.cpg/sg33_2_cif.got.tgz:2079.got - 2010.04.14 01:49:19.
