data_PCOD8171073
_publ_section_title
;
Structure prediction by ZEFSAII (Michael W. Deem and Ramdas Pophale) SiO2 
 PCOD8171073
Probable space group: P N A 21
;
_chemical_formula_sum "Si O2"
_cell_formula_units_Z 32
_cell_length_a 14.663990
_cell_length_b 8.610173
_cell_length_c 12.273876
_cell_angle_alpha 90.000000
_cell_angle_beta 90.000000
_cell_angle_gamma 90.000000
_cell_volume 1549.693334
_symmetry_space_group_name_H-M "P N A 21"
_symmetry_group_IT_number 33
_symmetry_cell_setting 'orthorhombic'
loop_
_space_group_symop_operation_xyz
x,y,z
-x,-y,1/2+z
1/2-x,1/2+y,1/2+z
1/2+x,1/2-y,z
loop_
_atom_site_type_symbol
_atom_site_label
_atom_site_fract_x
_atom_site_fract_y
_atom_site_fract_z
Si Si1 0.165518 0.569528 0.836510
Si Si2 0.987474 0.631209 0.941704
Si Si3 0.651856 0.562068 0.395508
Si Si4 0.566381 0.342748 0.240076
Si Si5 0.231365 0.347539 0.221750
Si Si6 0.400237 0.490769 0.126473
Si Si7 0.615202 0.890636 0.327040
Si Si8 0.945391 0.676605 0.188556
O O1 0.243603 0.486633 0.904616
O O2 0.206329 0.727067 0.787802
O O3 0.119943 0.453350 0.744975
O O4 0.096259 0.622716 0.930860
O O5 0.951974 0.747078 0.849225
O O6 0.949519 0.461198 0.918560
O O7 0.949257 0.670307 0.058859
O O8 0.608294 0.504999 0.280998
O O9 0.590386 0.493428 0.495483
O O10 0.658009 0.746112 0.388992
O O11 0.643416 0.245049 0.172265
O O12 0.477543 0.369114 0.166683
O O13 0.298844 0.418341 0.132540
O O14 0.195784 0.491976 0.293781
O O15 0.407286 0.646536 0.201195
O O16 0.549521 0.841294 0.227035
#
# Coordination Sequence:
#
# PCOD8171073 Si02
#       8
#     4   4   4   4   4   4   4   4
#     4  10  23  43  63  93 136 168 228 284 336 415
#     4  10  21  41  65  92 127 178 217 275 352 398
#     4  11  23  41  63  98 128 173 223 279 333 411
#     4  10  21  44  62  93 137 169 222 281 339 404
#     4  10  23  41  64  92 131 179 217 287 335 398
#     4  12  23  41  70  95 133 180 227 275 344 410
#     4  10  23  40  63  92 136 166 227 283 329 412
#     4  11  23  41  68  95 130 185 221 284 352 412
#
# _framework density 20.649246999999999
#
# number of rings (size 3 to 8) (size 9 to 14) (size 15 to 20)
#    0.000    1.500    3.750    0.750    3.500    0.000 
#    2.250    1.250    2.750    0.000    0.000    0.000 
#    0.000    0.000    0.000    0.000    0.000    0.000 
#
# Total GULP energy -396440.491119 kJ/mol
# GULP energy per Si atom -12388.765347 kJ/mol
# Density = 2.060225 g / cm^3
# Si number density = 20.649247 Si / 1000 Ang^3
#
#
#
# Elastic Constant Matrix: (Units=GPa)
#
#
# Indices 1 2 3 4 5 6 
#
# 1 119.5772 37.7150 32.3366 0.0000 0.0000 0.0000
# 2 37.7150 116.1197 15.1958 0.0000 0.0000 0.0000
# 3 32.3366 15.1958 62.4154 0.0000 0.0000 0.0000
# 4 0.0000 0.0000 0.0000 21.9447 0.0000 0.0000
# 5 0.0000 0.0000 0.0000 0.0000 26.1953 0.0000
# 6 0.0000 0.0000 0.0000 0.0000 0.0000 41.6362
#
#
#
# Elastic Compliance Matrix: (Units=1/GPa)
#
#
# Indices 1 2 3 4 5 6 
#
# 1 0.010537 -0.002797 -0.004778 0.000000 0.000000 0.000000
# 2 -0.002797 0.009638 -0.000897 0.000000 0.000000 0.000000
# 3 -0.004778 -0.000897 0.018716 0.000000 0.000000 0.000000
# 4 0.000000 0.000000 0.000000 0.045569 0.000000 0.000000
# 5 0.000000 0.000000 0.000000 0.000000 0.038175 0.000000
# 6 0.000000 0.000000 0.000000 0.000000 0.000000 0.024018
#
#
# Mechanical properties :
#
#
# Convention : Reuss Voigt Hill
#
# Bulk Modulus (GPa) = 45.56767 52.06746 48.81756
# Shear Modulus (GPa) = 29.25480 32.14624 30.70052
#
# Velocity S-wave (km/s) = 3.76806 3.94988 3.86004
# Velocity P-wave (km/s) = 6.40674 6.78764 6.59994
#
# Compressibility (1/GPa) = 0.02194539
#
# Stress axis : x y z
#
# Youngs Moduli (GPa) = 94.90234 103.75904 53.43129
#
# Poissons Ratio (x) = 0.29023 0.25530
# Poissons Ratio (y) = 0.26545 0.04794
# Poissons Ratio (z) = 0.45346 0.09310
#
# Static dielectric constant tensor:
#      x y z
#    x 3.948840 0.000000 0.000000 
#    y 0.000000 3.995330 0.000000 
#    z 0.000000 0.000000 3.384360 
# 
# 
# High freq. dielectric constant tensor:
#      x y z
#    x 1.818060 0.000000 0.000000 
#    y 0.000000 1.827620 0.000000 
#    z 0.000000 0.000000 1.779070 
# 
# From -- ./inp_files/6783.got.cif
#   From: 2010.03.12/outbox.cif.g09.slc.cpg/sg33_4_cif.got.tgz:6783.got - 2010.04.14 01:49:19.
