data_PCOD8171676
_publ_section_title
;
Structure prediction by ZEFSAII (Michael W. Deem and Ramdas Pophale) SiO2 
 PCOD8171676
Probable space group: P N A 21
;
_chemical_formula_sum "Si O2"
_cell_formula_units_Z 32
_cell_length_a 13.757120
_cell_length_b 8.680693
_cell_length_c 11.682632
_cell_angle_alpha 90.000000
_cell_angle_beta 90.000000
_cell_angle_gamma 90.000000
_cell_volume 1395.155513
_symmetry_space_group_name_H-M "P N A 21"
_symmetry_group_IT_number 33
_symmetry_cell_setting 'orthorhombic'
loop_
_space_group_symop_operation_xyz
x,y,z
-x,-y,1/2+z
1/2-x,1/2+y,1/2+z
1/2+x,1/2-y,z
loop_
_atom_site_type_symbol
_atom_site_label
_atom_site_fract_x
_atom_site_fract_y
_atom_site_fract_z
Si Si1 0.381230 0.043458 0.972540
Si Si2 0.086958 0.040702 0.864625
Si Si3 0.617784 0.466175 0.272987
Si Si4 0.705720 0.626664 0.467483
Si Si5 0.350405 0.857955 0.755535
Si Si6 0.575973 0.175407 0.020495
Si Si7 0.796380 0.114143 0.559278
Si Si8 0.710661 0.414591 0.652392
O O1 0.328162 0.203470 0.000205
O O2 0.494113 0.045159 0.003123
O O3 0.383070 0.992854 0.840138
O O4 0.318752 0.924923 0.049305
O O5 0.047286 0.168714 0.952972
O O6 0.146054 0.130943 0.762752
O O7 0.996697 0.958376 0.803263
O O8 0.154914 0.914048 0.932380
O O9 0.671852 0.603944 0.337738
O O10 0.668455 0.306347 0.316488
O O11 0.640373 0.501551 0.139722
O O12 0.822265 0.613189 0.472733
O O13 0.654734 0.486615 0.541656
O O14 0.427850 0.802921 0.658071
O O15 0.259810 0.923007 0.687148
O O16 0.790538 0.287207 0.611381
#
# Coordination Sequence:
#
# PCOD8171676 Si02
#       8
#     4   4   4   4   4   4   4   4
#     4  12  24  47  73 101 151 194 253 314 372 455
#     4  12  25  46  77 111 153 200 257 313 388 457
#     4  12  26  43  78 106 151 199 253 309 394 450
#     4  11  24  46  72 106 148 197 250 310 385 437
#     4  11  24  47  67 108 142 192 249 311 373 448
#     4  11  24  45  71 107 145 193 253 312 380 447
#     4  12  25  50  75 111 150 204 249 317 382 458
#     4  11  26  46  77 104 154 197 254 316 376 456
#
# _framework density 22.936509000000001
#
# number of rings (size 3 to 8) (size 9 to 14) (size 15 to 20)
#    0.000    0.500    5.000    3.000    3.500    4.000 
#    2.250    0.000    0.000    0.000    0.000    0.000 
#    0.000    0.000    0.000    0.000    0.000    0.000 
#
# Total GULP energy -396433.040643 kJ/mol
# GULP energy per Si atom -12388.532520 kJ/mol
# Density = 2.288430 g / cm^3
# Si number density = 22.936509 Si / 1000 Ang^3
#
#
#
# Elastic Constant Matrix: (Units=GPa)
#
#
# Indices 1 2 3 4 5 6 
#
# 1 108.6986 27.5426 31.2329 0.0000 0.0000 0.0000
# 2 27.5426 93.6636 31.9957 0.0000 0.0000 0.0000
# 3 31.2329 31.9957 110.2253 0.0000 0.0000 0.0000
# 4 0.0000 0.0000 0.0000 41.1216 0.0000 0.0000
# 5 0.0000 0.0000 0.0000 0.0000 31.8138 0.0000
# 6 0.0000 0.0000 0.0000 0.0000 0.0000 31.6852
#
#
#
# Elastic Compliance Matrix: (Units=1/GPa)
#
#
# Indices 1 2 3 4 5 6 
#
# 1 0.010438 -0.002286 -0.002294 0.000000 0.000000 0.000000
# 2 -0.002286 0.012352 -0.002938 0.000000 0.000000 0.000000
# 3 -0.002294 -0.002938 0.010575 0.000000 0.000000 0.000000
# 4 0.000000 0.000000 0.000000 0.024318 0.000000 0.000000
# 5 0.000000 0.000000 0.000000 0.000000 0.031433 0.000000
# 6 0.000000 0.000000 0.000000 0.000000 0.000000 0.031560
#
#
# Mechanical properties :
#
#
# Convention : Reuss Voigt Hill
#
# Bulk Modulus (GPa) = 54.55556 54.90334 54.72945
# Shear Modulus (GPa) = 35.25530 35.71187 35.48359
#
# Velocity S-wave (km/s) = 3.92482 3.95015 3.93750
# Velocity P-wave (km/s) = 6.66153 6.69283 6.67720
#
# Compressibility (1/GPa) = 0.01832994
#
# Stress axis : x y z
#
# Youngs Moduli (GPa) = 95.80270 80.95703 94.56088
#
# Poissons Ratio (x) = 0.18504 0.21694
# Poissons Ratio (y) = 0.21898 0.27781
# Poissons Ratio (z) = 0.21979 0.23784
#
# Static dielectric constant tensor:
#      x y z
#    x 3.925330 0.000000 0.000000 
#    y 0.000000 4.008390 0.000000 
#    z 0.000000 0.000000 4.637700 
# 
# 
# High freq. dielectric constant tensor:
#      x y z
#    x 1.885050 0.000000 0.000000 
#    y 0.000000 1.903190 0.000000 
#    z 0.000000 0.000000 1.927120 
# 
# From -- ./inp_files/6759.got.cif
#   From: 2010.03.12/outbox.cif.g09.slc.cpg/sg33_4_cif.got.tgz:6759.got - 2010.04.14 01:49:19.
