data_PCOD8171828
_publ_section_title
;
Structure prediction by ZEFSAII (Michael W. Deem and Ramdas Pophale) SiO2 
 PCOD8171828
Probable space group: P N N 2
;
_chemical_formula_sum "Si O2"
_cell_formula_units_Z 28
_cell_length_a 26.895219
_cell_length_b 5.187199
_cell_length_c 13.928879
_cell_angle_alpha 90.000000
_cell_angle_beta 90.000000
_cell_angle_gamma 90.000000
_cell_volume 1943.229792
_symmetry_space_group_name_H-M "P N N 2"
_symmetry_group_IT_number 34
_symmetry_cell_setting 'orthorhombic'
loop_
_space_group_symop_operation_xyz
x,y,z
-x,-y,z
1/2-x,1/2+y,1/2+z
1/2+x,1/2-y,1/2+z
loop_
_atom_site_type_symbol
_atom_site_label
_atom_site_fract_x
_atom_site_fract_y
_atom_site_fract_z
Si Si1 0.860333 0.155790 0.565870
Si Si2 0.224474 0.387407 0.386792
Si Si3 0.028343 0.751437 0.568643
Si Si4 0.860205 0.277304 0.348397
Si Si5 0.471888 0.246534 0.839958
Si Si6 0.300036 0.841650 0.097009
Si Si7 0.763399 0.117888 0.283428
O O1 0.915162 0.225269 0.605026
O O2 0.860154 0.130401 0.450758
O O3 0.825234 0.380895 0.603917
O O4 0.841125 0.883658 0.607426
O O5 0.164646 0.436630 0.365731
O O6 0.231002 0.315745 0.498350
O O7 0.252574 0.655634 0.359033
O O8 0.250194 0.162821 0.324448
O O9 0.027436 0.742075 0.454178
O O10 0.000000 0.500000 0.609989
O O11 0.000000 0.000000 0.608332
O O12 0.915096 0.278597 0.303475
O O13 0.823933 0.124223 0.275023
O O14 0.500000 0.500000 0.800552
O O15 0.500000 0.000000 0.797229
O O16 0.260416 0.822869 0.181719
#
# Coordination Sequence:
#
# PCOD8171828 Si02
#       7
#     4   4   4   4   4   4   4
#     4  10  18  28  44  60  87 115 147 179 205 254
#     4   9  18  30  42  60  82 113 147 179 209 253
#     4   9  16  26  38  58  81 111 144 171 200 242
#     4   8  18  28  42  55  86 112 144 169 214 243
#     4   9  17  23  37  56  77 106 141 171 196 239
#     4  11  18  30  44  63  83 115 155 178 216 248
#     4  10  19  29  45  60  82 117 148 179 212 255
#
# _framework density 14.409001
#
# number of rings (size 3 to 8) (size 9 to 14) (size 15 to 20)
#    0.857    1.714    1.429    1.714    2.000    3.429 
#    0.000    0.000    0.000    0.000    0.000    0.000 
#    0.000    0.000    0.000   25.714    0.286    2.143 
#
# Total GULP energy -346872.969482 kJ/mol
# GULP energy per Si atom -12388.320339 kJ/mol
# Density = 1.437620 g / cm^3
# Si number density = 14.409001 Si / 1000 Ang^3
#
#
#
# Elastic Constant Matrix: (Units=GPa)
#
#
# Indices 1 2 3 4 5 6 
#
# 1 74.9730 22.2758 33.9417 0.0000 0.0000 0.0000
# 2 22.2758 100.3905 21.0405 0.0000 0.0000 0.0000
# 3 33.9417 21.0405 45.4327 0.0000 0.0000 0.0000
# 4 0.0000 0.0000 0.0000 13.0050 0.0000 0.0000
# 5 0.0000 0.0000 0.0000 0.0000 13.5769 0.0000
# 6 0.0000 0.0000 0.0000 0.0000 0.0000 23.8138
#
#
#
# Elastic Compliance Matrix: (Units=1/GPa)
#
#
# Indices 1 2 3 4 5 6 
#
# 1 0.020349 -0.001472 -0.014521 0.000000 0.000000 0.000000
# 2 -0.001472 0.011138 -0.004059 0.000000 0.000000 0.000000
# 3 -0.014521 -0.004059 0.034738 0.000000 0.000000 0.000000
# 4 0.000000 0.000000 0.000000 0.076893 0.000000 0.000000
# 5 0.000000 0.000000 0.000000 0.000000 0.073654 0.000000
# 6 0.000000 0.000000 0.000000 0.000000 0.000000 0.041992
#
#
# Mechanical properties :
#
#
# Convention : Reuss Voigt Hill
#
# Bulk Modulus (GPa) = 38.28016 41.70133 39.99075
# Shear Modulus (GPa) = 16.25610 19.64836 17.95223
#
# Velocity S-wave (km/s) = 3.36250 3.69672 3.53357
# Velocity P-wave (km/s) = 6.45753 6.87205 6.66801
#
# Compressibility (1/GPa) = 0.02612319
#
# Stress axis : x y z
#
# Youngs Moduli (GPa) = 49.14168 89.77982 28.78664
#
# Poissons Ratio (x) = 0.13215 0.41800
# Poissons Ratio (y) = 0.07234 0.11683
# Poissons Ratio (z) = 0.71358 0.36438
#
# Static dielectric constant tensor:
#      x y z
#    x 2.786470 0.000000 0.000000 
#    y 0.000000 2.961180 0.000000 
#    z 0.000000 0.000000 2.316210 
# 
# 
# High freq. dielectric constant tensor:
#      x y z
#    x 1.537660 0.000000 0.000000 
#    y 0.000000 1.571650 0.000000 
#    z 0.000000 0.000000 1.482520 
# 
# From -- ./inp_files/5908.got.cif
#   From: 2010.03.12/outbox.cif.g09.slc.cpg/sg34_3_cif.got.tgz:5908.got - 2010.04.14 01:56:33.
