data_PCOD8171460
_publ_section_title
;
Structure prediction by ZEFSAII (Michael W. Deem and Ramdas Pophale) SiO2 
 PCOD8171460
Probable space group: P N A 21
;
_chemical_formula_sum "Si O2"
_cell_formula_units_Z 20
_cell_length_a 11.211924
_cell_length_b 9.495018
_cell_length_c 7.898124
_cell_angle_alpha 90.000000
_cell_angle_beta 90.000000
_cell_angle_gamma 90.000000
_cell_volume 840.813905
_symmetry_space_group_name_H-M "P N A 21"
_symmetry_group_IT_number 33
_symmetry_cell_setting 'orthorhombic'
loop_
_space_group_symop_operation_xyz
x,y,z
-x,-y,1/2+z
1/2-x,1/2+y,1/2+z
1/2+x,1/2-y,z
loop_
_atom_site_type_symbol
_atom_site_label
_atom_site_fract_x
_atom_site_fract_y
_atom_site_fract_z
Si Si1 0.762695 0.987043 0.683170
Si Si2 0.432838 0.282446 0.619337
Si Si3 0.366368 0.516903 0.030710
Si Si4 0.906720 0.293741 0.997719
Si Si5 0.610002 0.999866 0.982612
O O1 0.719237 0.858578 0.564543
O O2 0.824114 0.110183 0.570855
O O3 0.860695 0.944850 0.828160
O O4 0.646504 0.043366 0.789513
O O5 0.558263 0.365221 0.627233
O O6 0.402173 0.207552 0.795603
O O7 0.442661 0.159490 0.479056
O O8 0.230040 0.506857 0.099469
O O9 0.427017 0.364668 0.063608
O O10 0.016912 0.389688 0.059470
#
# Coordination Sequence:
#
# PCOD8171460 Si02
#       5
#     4   4   4   4   4
#     4   9  24  45  66 106 136 185 241 293 364 422
#     4  11  24  46  73 101 147 192 240 302 360 434
#     4   9  25  44  68 104 145 183 240 295 369 420
#     4  11  23  45  75 101 144 189 250 291 357 441
#     4  10  24  44  70 102 140 189 235 303 364 419
#
# _framework density 23.786476
#
# number of rings (size 3 to 8) (size 9 to 14) (size 15 to 20)
#    1.200    0.800    0.000    1.200    8.400    3.200 
#   10.800    0.000    0.000    0.000    0.000    0.000 
#    0.000    0.000    0.000    0.000    0.000    0.000 
#
# Total GULP energy -247763.659687 kJ/mol
# GULP energy per Si atom -12388.182984 kJ/mol
# Density = 2.373234 g / cm^3
# Si number density = 23.786476 Si / 1000 Ang^3
#
#
#
# Elastic Constant Matrix: (Units=GPa)
#
#
# Indices 1 2 3 4 5 6 
#
# 1 125.8927 89.8605 30.8608 0.0000 0.0000 0.0000
# 2 89.8605 158.8620 35.0807 0.0000 0.0000 0.0000
# 3 30.8608 35.0807 44.5719 0.0000 0.0000 0.0000
# 4 0.0000 0.0000 0.0000 32.7649 0.0000 0.0000
# 5 0.0000 0.0000 0.0000 0.0000 32.1174 0.0000
# 6 0.0000 0.0000 0.0000 0.0000 0.0000 55.1453
#
#
#
# Elastic Compliance Matrix: (Units=1/GPa)
#
#
# Indices 1 2 3 4 5 6 
#
# 1 0.013934 -0.006961 -0.004169 0.000000 0.000000 0.000000
# 2 -0.006961 0.011097 -0.003914 0.000000 0.000000 0.000000
# 3 -0.004169 -0.003914 0.028403 0.000000 0.000000 0.000000
# 4 0.000000 0.000000 0.000000 0.030521 0.000000 0.000000
# 5 0.000000 0.000000 0.000000 0.000000 0.031136 0.000000
# 6 0.000000 0.000000 0.000000 0.000000 0.000000 0.018134
#
#
# Mechanical properties :
#
#
# Convention : Reuss Voigt Hill
#
# Bulk Modulus (GPa) = 42.83497 71.21449 57.02473
# Shear Modulus (GPa) = 29.22387 35.57383 32.39885
#
# Velocity S-wave (km/s) = 3.50893 3.87143 3.69463
# Velocity P-wave (km/s) = 5.87060 7.07022 6.49815
#
# Compressibility (1/GPa) = 0.02334541
#
# Stress axis : x y z
#
# Youngs Moduli (GPa) = 71.76684 90.11704 35.20812
#
# Poissons Ratio (x) = 0.62732 0.14678
# Poissons Ratio (y) = 0.49958 0.13780
# Poissons Ratio (z) = 0.29918 0.35271
#
# Static dielectric constant tensor:
#      x y z
#    x 4.215870 0.000000 0.000000 
#    y 0.000000 4.252810 0.000000 
#    z 0.000000 0.000000 3.781680 
# 
# 
# High freq. dielectric constant tensor:
#      x y z
#    x 1.942110 0.000000 0.000000 
#    y 0.000000 1.942760 0.000000 
#    z 0.000000 0.000000 1.903910 
# 
# From -- ./inp_files/3695.got.cif
#   From: 2010.03.12/outbox.cif.g09.slc.cpg/sg33_2_cif.got.tgz:3695.got - 2010.04.14 01:49:19.
