data_PCOD8171639
_publ_section_title
;
Structure prediction by ZEFSAII (Michael W. Deem and Ramdas Pophale) SiO2 
 PCOD8171639
Probable space group: P N A 21
;
_chemical_formula_sum "Si O2"
_cell_formula_units_Z 24
_cell_length_a 8.834676
_cell_length_b 11.526478
_cell_length_c 10.159925
_cell_angle_alpha 90.000000
_cell_angle_beta 90.000000
_cell_angle_gamma 90.000000
_cell_volume 1034.612580
_symmetry_space_group_name_H-M "P N A 21"
_symmetry_group_IT_number 33
_symmetry_cell_setting 'orthorhombic'
loop_
_space_group_symop_operation_xyz
x,y,z
-x,-y,1/2+z
1/2-x,1/2+y,1/2+z
1/2+x,1/2-y,z
loop_
_atom_site_type_symbol
_atom_site_label
_atom_site_fract_x
_atom_site_fract_y
_atom_site_fract_z
Si Si1 0.045736 0.187243 0.237120
Si Si2 0.598776 0.508536 0.054295
Si Si3 0.416660 0.841583 0.490660
Si Si4 0.784316 0.215230 0.419158
Si Si5 0.748903 0.432626 0.571034
Si Si6 0.734523 0.846890 0.363167
O O1 0.120640 0.062343 0.193232
O O2 0.882705 0.163510 0.299198
O O3 0.123816 0.265322 0.349177
O O4 0.022108 0.257065 0.103542
O O5 0.425470 0.546345 0.031437
O O6 0.707833 0.622749 0.041067
O O7 0.643802 0.427523 0.933841
O O8 0.563169 0.874660 0.405718
O O9 0.286951 0.784520 0.398120
O O10 0.346049 0.951660 0.563764
O O11 0.828867 0.342193 0.471733
O O12 0.753365 0.370839 0.710545
#
# Coordination Sequence:
#
# PCOD8171639 Si02
#       6
#     4   4   4   4   4   4
#     4  11  23  47  74 101 145 192 245 308 362 456
#     4  11  24  48  73 101 147 201 239 307 380 429
#     4  11  25  47  74 108 145 201 243 303 380 430
#     4  12  26  44  72 110 144 187 254 299 376 441
#     4  12  28  44  73 111 149 197 245 311 367 454
#     4  11  26  48  76 105 150 192 254 304 367 458
#
# _framework density 23.197091
#
# number of rings (size 3 to 8) (size 9 to 14) (size 15 to 20)
#    0.000    0.667    1.667    7.000    7.000    1.333 
#    0.000    0.000    0.000    0.000    0.000    0.000 
#    0.000    0.000    0.000    0.000    0.000    0.000 
#
# Total GULP energy -297426.050457 kJ/mol
# GULP energy per Si atom -12392.752102 kJ/mol
# Density = 2.314429 g / cm^3
# Si number density = 23.197091 Si / 1000 Ang^3
#
#
#
# Elastic Constant Matrix: (Units=GPa)
#
#
# Indices 1 2 3 4 5 6 
#
# 1 75.3247 28.8500 38.0604 0.0000 0.0000 0.0000
# 2 28.8500 117.1879 42.8730 0.0000 0.0000 0.0000
# 3 38.0604 42.8730 92.2039 0.0000 0.0000 0.0000
# 4 0.0000 0.0000 0.0000 41.8487 0.0000 0.0000
# 5 0.0000 0.0000 0.0000 0.0000 37.4684 0.0000
# 6 0.0000 0.0000 0.0000 0.0000 0.0000 39.7079
#
#
#
# Elastic Compliance Matrix: (Units=1/GPa)
#
#
# Indices 1 2 3 4 5 6 
#
# 1 0.017142 -0.001966 -0.006162 0.000000 0.000000 0.000000
# 2 -0.001966 0.010508 -0.004075 0.000000 0.000000 0.000000
# 3 -0.006162 -0.004075 0.015284 0.000000 0.000000 0.000000
# 4 0.000000 0.000000 0.000000 0.023896 0.000000 0.000000
# 5 0.000000 0.000000 0.000000 0.000000 0.026689 0.000000
# 6 0.000000 0.000000 0.000000 0.000000 0.000000 0.025184
#
#
# Mechanical properties :
#
#
# Convention : Reuss Voigt Hill
#
# Bulk Modulus (GPa) = 53.96885 56.03150 55.00017
# Shear Modulus (GPa) = 33.49324 35.46720 34.48022
#
# Velocity S-wave (km/s) = 3.80393 3.91442 3.85957
# Velocity P-wave (km/s) = 6.52756 6.68111 6.60478
#
# Compressibility (1/GPa) = 0.01852921
#
# Stress axis : x y z
#
# Youngs Moduli (GPa) = 58.33500 95.16631 65.42918
#
# Poissons Ratio (x) = 0.18708 0.40318
# Poissons Ratio (y) = 0.11468 0.26659
# Poissons Ratio (z) = 0.35946 0.38776
#
# Static dielectric constant tensor:
#      x y z
#    x 4.180600 0.000000 0.000000 
#    y 0.000000 4.588500 0.000000 
#    z 0.000000 0.000000 4.268690 
# 
# 
# High freq. dielectric constant tensor:
#      x y z
#    x 1.907200 0.000000 0.000000 
#    y 0.000000 1.930220 0.000000 
#    z 0.000000 0.000000 1.921210 
# 
# From -- ./inp_files/3195.got.cif
#   From: 2010.03.12/outbox.cif.g09.slc.cpg/sg33_2_cif.got.tgz:3195.got - 2010.04.14 01:49:19.
