data_PCOD8171744
_publ_section_title
;
Structure prediction by ZEFSAII (Michael W. Deem and Ramdas Pophale) SiO2 
 PCOD8171744
Probable space group: P N A 21
;
_chemical_formula_sum "Si O2"
_cell_formula_units_Z 20
_cell_length_a 10.062405
_cell_length_b 4.826025
_cell_length_c 13.453389
_cell_angle_alpha 90.000000
_cell_angle_beta 90.000000
_cell_angle_gamma 90.000000
_cell_volume 653.315648
_symmetry_space_group_name_H-M "P N A 21"
_symmetry_group_IT_number 33
_symmetry_cell_setting 'orthorhombic'
loop_
_space_group_symop_operation_xyz
x,y,z
-x,-y,1/2+z
1/2-x,1/2+y,1/2+z
1/2+x,1/2-y,z
loop_
_atom_site_type_symbol
_atom_site_label
_atom_site_fract_x
_atom_site_fract_y
_atom_site_fract_z
Si Si1 0.952508 0.070870 0.989280
Si Si2 0.932519 0.117830 0.213978
Si Si3 0.399821 0.038798 0.827519
Si Si4 0.265563 0.896424 0.195471
Si Si5 0.212317 0.795746 0.974604
O O1 0.993371 0.309095 0.909982
O O2 0.979661 0.178427 0.100923
O O3 0.795701 0.992704 0.972874
O O4 0.050296 0.801783 0.968712
O O5 0.798307 0.298166 0.237546
O O6 0.044371 0.244595 0.286821
O O7 0.893279 0.794909 0.226249
O O8 0.370666 0.265888 0.739162
O O9 0.260746 0.982579 0.883114
O O10 0.254366 0.935469 0.078219
#
# Coordination Sequence:
#
# PCOD8171744 Si02
#       5
#     4   4   4   4   4
#     4  11  28  54  85 129 169 231 290 363 439 528
#     4  11  28  52  79 121 168 223 286 356 431 520
#     4  12  28  48  87 121 170 229 291 361 447 520
#     4  11  28  51  79 119 172 219 287 358 430 512
#     4  11  28  51  82 118 171 222 288 358 433 524
#
# _framework density 30.613077000000001
#
# number of rings (size 3 to 8) (size 9 to 14) (size 15 to 20)
#    0.000    0.800    2.000    1.200   16.800    1.600 
#    0.000    0.000    0.000    0.000    0.000    0.000 
#    0.000    0.000    0.000    0.000    0.000    0.000 
#
# Total GULP energy -247860.105009 kJ/mol
# GULP energy per Si atom -12393.005250 kJ/mol
# Density = 3.054340 g / cm^3
# Si number density = 30.613077 Si / 1000 Ang^3
#
#
#
# Elastic Constant Matrix: (Units=GPa)
#
#
# Indices 1 2 3 4 5 6 
#
# 1 124.7045 7.9271 21.0745 0.0000 0.0000 0.0000
# 2 7.9271 106.9249 18.5780 0.0000 0.0000 0.0000
# 3 21.0745 18.5780 170.7415 0.0000 0.0000 0.0000
# 4 0.0000 0.0000 0.0000 41.6466 0.0000 0.0000
# 5 0.0000 0.0000 0.0000 0.0000 29.2239 0.0000
# 6 0.0000 0.0000 0.0000 0.0000 0.0000 35.8701
#
#
#
# Elastic Compliance Matrix: (Units=1/GPa)
#
#
# Indices 1 2 3 4 5 6 
#
# 1 0.008210 -0.000441 -0.000965 0.000000 0.000000 0.000000
# 2 -0.000441 0.009556 -0.000985 0.000000 0.000000 0.000000
# 3 -0.000965 -0.000985 0.006083 0.000000 0.000000 0.000000
# 4 0.000000 0.000000 0.000000 0.024012 0.000000 0.000000
# 5 0.000000 0.000000 0.000000 0.000000 0.034219 0.000000
# 6 0.000000 0.000000 0.000000 0.000000 0.000000 0.027878
#
#
# Mechanical properties :
#
#
# Convention : Reuss Voigt Hill
#
# Bulk Modulus (GPa) = 52.44893 55.28111 53.86502
# Shear Modulus (GPa) = 41.28927 45.00088 43.14508
#
# Velocity S-wave (km/s) = 3.67651 3.83820 3.75823
# Velocity P-wave (km/s) = 5.93232 6.14326 6.03871
#
# Compressibility (1/GPa) = 0.01906616
#
# Stress axis : x y z
#
# Youngs Moduli (GPa) = 121.80072 104.64355 164.38768
#
# Poissons Ratio (x) = 0.04614 0.15870
# Poissons Ratio (y) = 0.05371 0.16198
# Poissons Ratio (z) = 0.11759 0.10311
#
# Static dielectric constant tensor:
#      x y z
#    x 5.585110 0.000000 0.000000 
#    y 0.000000 5.464900 0.000000 
#    z 0.000000 0.000000 6.041860 
# 
# 
# High freq. dielectric constant tensor:
#      x y z
#    x 2.257700 0.000000 0.000000 
#    y 0.000000 2.245320 0.000000 
#    z 0.000000 0.000000 2.285730 
# 
# From -- ./inp_files/7787.got.cif
#   From: 2010.03.12/outbox.cif.g09.slc.cpg/sg33_4_cif.got.tgz:7787.got - 2010.04.14 01:49:19.
