data_PCOD8171862
_publ_section_title
;
Structure prediction by ZEFSAII (Michael W. Deem and Ramdas Pophale) SiO2 
 PCOD8171862
Probable space group: P N N 2
;
_chemical_formula_sum "Si O2"
_cell_formula_units_Z 20
_cell_length_a 4.784222
_cell_length_b 15.642782
_cell_length_c 12.940957
_cell_angle_alpha 90.000000
_cell_angle_beta 90.000000
_cell_angle_gamma 90.000000
_cell_volume 968.482351
_symmetry_space_group_name_H-M "P N N 2"
_symmetry_group_IT_number 34
_symmetry_cell_setting 'orthorhombic'
loop_
_space_group_symop_operation_xyz
x,y,z
-x,-y,z
1/2-x,1/2+y,1/2+z
1/2+x,1/2-y,1/2+z
loop_
_atom_site_type_symbol
_atom_site_label
_atom_site_fract_x
_atom_site_fract_y
_atom_site_fract_z
Si Si1 0.000000 0.500000 0.630210
Si Si2 0.273286 0.763695 0.445376
Si Si3 0.277885 0.840844 0.883354
Si Si4 0.226714 0.763694 0.674936
Si Si5 0.277885 0.340844 0.736958
Si Si6 0.500000 0.500000 0.490102
O O1 0.849788 0.569525 0.702326
O O2 0.750000 0.460402 0.560156
O O3 0.590612 0.737037 0.424612
O O4 0.250002 0.802658 0.560156
O O5 0.191881 0.836752 0.361793
O O6 0.080786 0.678165 0.433272
O O7 0.308120 0.836752 0.758520
O O8 0.150213 0.930476 0.917986
O O9 0.419213 0.678165 0.687041
O O10 0.909388 0.737037 0.695700
#
# Coordination Sequence:
#
# PCOD8171862 Si02
#       6
#     2   4   4   4   4   2
#     4  12  22  34  54  80 112 140 172 226 282 322
#     4  10  19  35  55  76 105 140 179 220 259 312
#     4  10  21  33  53  81 104 136 180 217 264 323
#     4  10  19  35  55  76 105 140 179 220 259 312
#     4  10  21  33  53  81 104 136 180 217 264 323
#     4  12  22  34  54  80 112 140 172 226 282 322
#
# _framework density 20.650866000000001
#
# number of rings (size 3 to 8) (size 9 to 14) (size 15 to 20)
#    0.000    1.600    0.000    7.200    0.000    0.000 
#    0.000    0.000    0.000   16.800    0.000    0.000 
#    0.000    0.000    0.000    0.000    0.000    0.000 
#
# Total GULP energy -247908.504604 kJ/mol
# GULP energy per Si atom -12395.425230 kJ/mol
# Density = 2.060386 g / cm^3
# Si number density = 20.650866 Si / 1000 Ang^3
#
#
#
# Elastic Constant Matrix: (Units=GPa)
#
#
# Indices 1 2 3 4 5 6 
#
# 1 85.2449 14.6904 33.5610 0.0000 0.0000 0.0000
# 2 14.6904 80.7573 48.5492 0.0000 0.0000 0.0000
# 3 33.5610 48.5492 202.2303 0.0000 0.0000 0.0000
# 4 0.0000 0.0000 0.0000 23.9654 0.0000 0.0000
# 5 0.0000 0.0000 0.0000 0.0000 26.9197 0.0000
# 6 0.0000 0.0000 0.0000 0.0000 0.0000 28.9440
#
#
#
# Elastic Compliance Matrix: (Units=1/GPa)
#
#
# Indices 1 2 3 4 5 6 
#
# 1 0.012652 -0.001215 -0.001808 0.000000 0.000000 0.000000
# 2 -0.001215 0.014588 -0.003301 0.000000 0.000000 0.000000
# 3 -0.001808 -0.003301 0.006037 0.000000 0.000000 0.000000
# 4 0.000000 0.000000 0.000000 0.041727 0.000000 0.000000
# 5 0.000000 0.000000 0.000000 0.000000 0.037147 0.000000
# 6 0.000000 0.000000 0.000000 0.000000 0.000000 0.034549
#
#
# Mechanical properties :
#
#
# Convention : Reuss Voigt Hill
#
# Bulk Modulus (GPa) = 48.47097 62.42597 55.44847
# Shear Modulus (GPa) = 30.07983 34.06129 32.07056
#
# Velocity S-wave (km/s) = 3.82067 4.06567 3.94507
# Velocity P-wave (km/s) = 6.55637 7.23425 6.90364
#
# Compressibility (1/GPa) = 0.02063091
#
# Stress axis : x y z
#
# Youngs Moduli (GPa) = 79.03855 68.54989 165.63761
#
# Poissons Ratio (x) = 0.08326 0.29949
# Poissons Ratio (y) = 0.09599 0.54669
# Poissons Ratio (z) = 0.14291 0.22625
#
# Static dielectric constant tensor:
#      x y z
#    x 4.139150 0.000000 0.000000 
#    y 0.000000 3.098860 0.000000 
#    z 0.000000 0.000000 4.044860 
# 
# 
# High freq. dielectric constant tensor:
#      x y z
#    x 1.839530 0.000000 0.000000 
#    y 0.000000 1.745160 0.000000 
#    z 0.000000 0.000000 1.818860 
# 
# From -- ./inp_files/4432.got.cif
#   From: 2010.03.12/outbox.cif.g09.slc.cpg/sg34_3_cif.got.tgz:4432.got - 2010.04.14 01:56:33.
