data_PCOD8171370
_publ_section_title
;
Structure prediction by ZEFSAII (Michael W. Deem and Ramdas Pophale) SiO2 
 PCOD8171370
Probable space group: P N A 21
;
_chemical_formula_sum "Si O2"
_cell_formula_units_Z 24
_cell_length_a 9.573030
_cell_length_b 11.418267
_cell_length_c 9.954193
_cell_angle_alpha 90.000000
_cell_angle_beta 90.000000
_cell_angle_gamma 90.000000
_cell_volume 1088.067081
_symmetry_space_group_name_H-M "P N A 21"
_symmetry_group_IT_number 33
_symmetry_cell_setting 'orthorhombic'
loop_
_space_group_symop_operation_xyz
x,y,z
-x,-y,1/2+z
1/2-x,1/2+y,1/2+z
1/2+x,1/2-y,z
loop_
_atom_site_type_symbol
_atom_site_label
_atom_site_fract_x
_atom_site_fract_y
_atom_site_fract_z
Si Si1 0.626225 0.825885 0.585000
Si Si2 0.862798 0.785820 0.017092
Si Si3 0.419364 0.927329 0.190061
Si Si4 0.376711 0.325117 0.344808
Si Si5 0.733167 0.980622 0.186805
Si Si6 0.835332 0.660877 0.462309
O O1 0.586439 0.744772 0.710510
O O2 0.756784 0.781708 0.496794
O O3 0.497541 0.819747 0.485065
O O4 0.657085 0.957016 0.634705
O O5 0.929171 0.665992 0.070933
O O6 0.819218 0.865408 0.144565
O O7 0.728973 0.756333 0.927492
O O8 0.981595 0.848657 0.927658
O O9 0.320051 0.877754 0.307818
O O10 0.576907 0.954223 0.239448
O O11 0.310645 0.451264 0.307616
O O12 0.727231 0.058818 0.053525
#
# Coordination Sequence:
#
# PCOD8171370 Si02
#       6
#     4   4   4   4   4   4
#     4  10  23  44  69  97 132 184 225 284 352 399
#     4  12  24  45  68 103 139 181 228 280 350 411
#     4  11  24  41  72 100 139 184 223 292 345 416
#     4  11  24  46  72  96 141 178 230 289 335 421
#     4  10  24  45  66 105 134 186 232 279 351 401
#     4  10  23  43  69  97 135 177 234 282 341 422
#
# _framework density 22.057465000000001
#
# number of rings (size 3 to 8) (size 9 to 14) (size 15 to 20)
#    0.000    1.333    1.667    4.000    9.333    0.000 
#   18.000    0.000    0.000    0.000    0.000    0.000 
#    0.000    0.000    0.000    0.000    0.000    0.000 
#
# Total GULP energy -297711.238950 kJ/mol
# GULP energy per Si atom -12404.634956 kJ/mol
# Density = 2.200726 g / cm^3
# Si number density = 22.057465 Si / 1000 Ang^3
#
#
#
# Elastic Constant Matrix: (Units=GPa)
#
#
# Indices 1 2 3 4 5 6 
#
# 1 81.9548 42.5136 47.8905 0.0000 0.0000 0.0000
# 2 42.5136 130.2501 46.1808 0.0000 0.0000 0.0000
# 3 47.8905 46.1808 72.7141 0.0000 0.0000 0.0000
# 4 0.0000 0.0000 0.0000 38.0663 0.0000 0.0000
# 5 0.0000 0.0000 0.0000 0.0000 31.1518 0.0000
# 6 0.0000 0.0000 0.0000 0.0000 0.0000 32.7885
#
#
#
# Elastic Compliance Matrix: (Units=1/GPa)
#
#
# Indices 1 2 3 4 5 6 
#
# 1 0.020424 -0.002448 -0.011896 0.000000 0.000000 0.000000
# 2 -0.002448 0.010202 -0.004867 0.000000 0.000000 0.000000
# 3 -0.011896 -0.004867 0.024679 0.000000 0.000000 0.000000
# 4 0.000000 0.000000 0.000000 0.026270 0.000000 0.000000
# 5 0.000000 0.000000 0.000000 0.000000 0.032101 0.000000
# 6 0.000000 0.000000 0.000000 0.000000 0.000000 0.030499
#
#
# Mechanical properties :
#
#
# Convention : Reuss Voigt Hill
#
# Bulk Modulus (GPa) = 59.23750 62.00987 60.62368
# Shear Modulus (GPa) = 26.56411 30.29026 28.42718
#
# Velocity S-wave (km/s) = 3.47409 3.70975 3.59385
# Velocity P-wave (km/s) = 6.55795 6.82082 6.69067
#
# Compressibility (1/GPa) = 0.01688120
#
# Stress axis : x y z
#
# Youngs Moduli (GPa) = 48.96314 98.01725 40.52105
#
# Poissons Ratio (x) = 0.23998 0.48205
# Poissons Ratio (y) = 0.11988 0.19721
# Poissons Ratio (z) = 0.58248 0.47705
#
# Static dielectric constant tensor:
#      x y z
#    x 3.844710 0.000000 0.000000 
#    y 0.000000 4.068740 0.000000 
#    z 0.000000 0.000000 3.854500 
# 
# 
# High freq. dielectric constant tensor:
#      x y z
#    x 1.861360 0.000000 0.000000 
#    y 0.000000 1.872530 0.000000 
#    z 0.000000 0.000000 1.873350 
# 
# From -- ./inp_files/3064.got.cif
#   From: 2010.03.12/outbox.cif.g09.slc.cpg/sg33_2_cif.got.tgz:3064.got - 2010.04.14 01:49:19.
