data_PCOD8171935
_publ_section_title
;
Structure prediction by ZEFSAII (Michael W. Deem and Ramdas Pophale) SiO2 
 PCOD8171935
Probable space group: P N N 2
;
_chemical_formula_sum "Si O2"
_cell_formula_units_Z 26
_cell_length_a 5.534195
_cell_length_b 8.814850
_cell_length_c 24.183609
_cell_angle_alpha 90.000000
_cell_angle_beta 90.000000
_cell_angle_gamma 90.000000
_cell_volume 1179.751387
_symmetry_space_group_name_H-M "P N N 2"
_symmetry_group_IT_number 34
_symmetry_cell_setting 'orthorhombic'
loop_
_space_group_symop_operation_xyz
x,y,z
-x,-y,z
1/2-x,1/2+y,1/2+z
1/2+x,1/2-y,1/2+z
loop_
_atom_site_type_symbol
_atom_site_label
_atom_site_fract_x
_atom_site_fract_y
_atom_site_fract_z
Si Si1 0.136939 0.842714 0.839450
Si Si2 0.747499 0.597566 0.220599
Si Si3 0.820081 0.743361 0.932680
Si Si4 0.000000 0.000000 0.481319
Si Si5 0.000000 0.500000 0.408228
Si Si6 0.682698 0.758741 0.530959
Si Si7 0.617579 0.344014 0.630418
Si Si8 0.000000 0.500000 0.555680
O O1 0.197798 0.802234 0.776066
O O2 0.388617 0.864465 0.871246
O O3 0.967906 0.726424 0.874508
O O4 0.000000 0.000000 0.837388
O O5 0.500000 0.500000 0.207378
O O6 0.788459 0.727556 0.175753
O O7 0.000000 0.500000 0.225913
O O8 0.704026 0.910304 0.942084
O O9 0.631566 0.607533 0.937127
O O10 0.981038 0.727682 0.985862
O O11 0.164186 0.088849 0.525238
O O12 0.579915 0.743720 0.592938
O O13 0.840029 0.608708 0.516609
O O14 0.500000 0.500000 0.655186
O O15 0.844178 0.387520 0.593158
#
# Coordination Sequence:
#
# PCOD8171935 Si02
#       8
#     4   4   4   2   2   4   4   2
#     4   9  20  40  68  99 132 178 235 289 347 421
#     4  11  25  46  78 111 145 187 253 312 366 430
#     4  11  24  40  66  98 139 181 231 288 360 427
#     4  12  26  42  62  94 150 182 230 300 358 438
#     4  10  20  39  70  94 126 176 221 282 336 428
#     4  11  25  44  65 100 137 182 232 287 365 435
#     4  10  25  46  72 102 144 188 240 294 374 441
#     4  10  24  45  68  94 132 186 223 288 348 456
#
# _framework density 22.038539
#
# number of rings (size 3 to 8) (size 9 to 14) (size 15 to 20)
#    0.000    1.538    0.769    2.308    4.308   17.231 
#    1.385    0.000   16.923    0.000    0.000    0.000 
#    0.000    0.000    0.000    0.000    0.000    0.000 
#
# Total GULP energy -322165.864964 kJ/mol
# GULP energy per Si atom -12390.994806 kJ/mol
# Density = 2.198838 g / cm^3
# Si number density = 22.038539 Si / 1000 Ang^3
#
#
#
# Elastic Constant Matrix: (Units=GPa)
#
#
# Indices 1 2 3 4 5 6 
#
# 1 121.3680 55.8191 38.9582 0.0000 0.0000 0.0000
# 2 55.8191 117.4965 69.1977 0.0000 0.0000 0.0000
# 3 38.9582 69.1977 106.9684 0.0000 0.0000 0.0000
# 4 0.0000 0.0000 0.0000 29.0701 0.0000 0.0000
# 5 0.0000 0.0000 0.0000 0.0000 9.2333 0.0000
# 6 0.0000 0.0000 0.0000 0.0000 0.0000 44.4394
#
#
#
# Elastic Compliance Matrix: (Units=1/GPa)
#
#
# Indices 1 2 3 4 5 6 
#
# 1 0.010605 -0.004464 -0.000975 0.000000 0.000000 0.000000
# 2 -0.004464 0.015628 -0.008484 0.000000 0.000000 0.000000
# 3 -0.000975 -0.008484 0.015192 0.000000 0.000000 0.000000
# 4 0.000000 0.000000 0.000000 0.034400 0.000000 0.000000
# 5 0.000000 0.000000 0.000000 0.000000 0.108303 0.000000
# 6 0.000000 0.000000 0.000000 0.000000 0.000000 0.022503
#
#
# Mechanical properties :
#
#
# Convention : Reuss Voigt Hill
#
# Bulk Modulus (GPa) = 73.63928 74.86475 74.25202
# Shear Modulus (GPa) = 20.92021 28.67241 24.79631
#
# Velocity S-wave (km/s) = 3.08434 3.61087 3.35794
# Velocity P-wave (km/s) = 6.79490 7.17134 6.98566
#
# Compressibility (1/GPa) = 0.01357971
#
# Stress axis : x y z
#
# Youngs Moduli (GPa) = 94.29088 63.98652 65.82526
#
# Poissons Ratio (x) = 0.28566 0.06415
# Poissons Ratio (y) = 0.42095 0.55846
# Poissons Ratio (z) = 0.09189 0.54286
#
# Static dielectric constant tensor:
#      x y z
#    x 4.243090 0.000000 0.000000 
#    y 0.000000 2.382480 0.000000 
#    z 0.000000 0.000000 4.149820 
# 
# 
# High freq. dielectric constant tensor:
#      x y z
#    x 1.896790 0.000000 0.000000 
#    y 0.000000 1.851880 0.000000 
#    z 0.000000 0.000000 1.857430 
# 
# From -- ./inp_files/8564.got.cif
#   From: 2010.03.12/outbox.cif.g09.slc.cpg/sg34_5_cif.got.tgz:8564.got - 2010.04.14 01:56:33.
