data_PCOD8171061
_publ_section_title
;
Structure prediction by ZEFSAII (Michael W. Deem and Ramdas Pophale) SiO2 
 PCOD8171061
Probable space group: P N A 21
;
_chemical_formula_sum "Si O2"
_cell_formula_units_Z 28
_cell_length_a 15.930640
_cell_length_b 7.349981
_cell_length_c 11.424495
_cell_angle_alpha 90.000000
_cell_angle_beta 90.000000
_cell_angle_gamma 90.000000
_cell_volume 1337.692992
_symmetry_space_group_name_H-M "P N A 21"
_symmetry_group_IT_number 33
_symmetry_cell_setting 'orthorhombic'
loop_
_space_group_symop_operation_xyz
x,y,z
-x,-y,1/2+z
1/2-x,1/2+y,1/2+z
1/2+x,1/2-y,z
loop_
_atom_site_type_symbol
_atom_site_label
_atom_site_fract_x
_atom_site_fract_y
_atom_site_fract_z
Si Si1 0.450301 0.538252 0.337180
Si Si2 0.707084 0.697931 0.485478
Si Si3 0.114008 0.409076 0.906089
Si Si4 0.450188 0.251068 0.530941
Si Si5 0.868058 0.861887 0.107816
Si Si6 0.795747 0.496485 0.178721
Si Si7 0.126842 0.890153 0.259549
O O1 0.451089 0.746420 0.382354
O O2 0.418842 0.399005 0.435895
O O3 0.386618 0.527668 0.227747
O O4 0.545843 0.492519 0.299486
O O5 0.806716 0.684126 0.469618
O O6 0.672940 0.499460 0.517764
O O7 0.661938 0.743884 0.361867
O O8 0.682128 0.847137 0.581499
O O9 0.139369 0.515876 0.787058
O O10 0.064967 0.547611 0.987951
O O11 0.547902 0.276036 0.555352
O O12 0.396754 0.267827 0.648694
O O13 0.801915 0.699700 0.126024
O O14 0.700615 0.468182 0.224452
#
# Coordination Sequence:
#
# PCOD8171061 Si02
#       7
#     4   4   4   4   4   4   4
#     4  10  21  41  61  90 125 164 203 264 310 363
#     4  11  21  41  63  90 124 166 208 259 314 373
#     4  10  23  38  63  91 122 161 213 251 316 374
#     4  11  21  39  61  90 126 161 207 259 309 378
#     4  10  22  37  63  89 122 166 207 257 317 367
#     4  10  22  41  60  88 123 163 205 262 307 374
#     4  10  22  39  61  90 124 159 211 254 307 375
#
# _framework density 20.931560000000001
#
# number of rings (size 3 to 8) (size 9 to 14) (size 15 to 20)
#    0.000    1.714    1.429    2.571    2.000    0.000 
#    0.000   15.714    0.000    0.000    0.000    0.000 
#    0.000    0.000    0.000    0.000    0.000    0.000 
#
# Total GULP energy -347249.195996 kJ/mol
# GULP energy per Si atom -12401.757000 kJ/mol
# Density = 2.088392 g / cm^3
# Si number density = 20.931560 Si / 1000 Ang^3
#
#
#
# Elastic Constant Matrix: (Units=GPa)
#
#
# Indices 1 2 3 4 5 6 
#
# 1 72.5303 19.7020 21.9818 0.0000 0.0000 0.0000
# 2 19.7020 61.3701 42.8604 0.0000 0.0000 0.0000
# 3 21.9818 42.8604 108.4339 0.0000 0.0000 0.0000
# 4 0.0000 0.0000 0.0000 33.4469 0.0000 0.0000
# 5 0.0000 0.0000 0.0000 0.0000 25.4050 0.0000
# 6 0.0000 0.0000 0.0000 0.0000 0.0000 20.1135
#
#
#
# Elastic Compliance Matrix: (Units=1/GPa)
#
#
# Indices 1 2 3 4 5 6 
#
# 1 0.015304 -0.003794 -0.001603 0.000000 0.000000 0.000000
# 2 -0.003794 0.023448 -0.008499 0.000000 0.000000 0.000000
# 3 -0.001603 -0.008499 0.012907 0.000000 0.000000 0.000000
# 4 0.000000 0.000000 0.000000 0.029898 0.000000 0.000000
# 5 0.000000 0.000000 0.000000 0.000000 0.039362 0.000000
# 6 0.000000 0.000000 0.000000 0.000000 0.000000 0.049718
#
#
# Mechanical properties :
#
#
# Convention : Reuss Voigt Hill
#
# Bulk Modulus (GPa) = 41.89883 45.71364 43.80623
# Shear Modulus (GPa) = 24.22669 26.31243 25.26956
#
# Velocity S-wave (km/s) = 3.40578 3.54936 3.47832
# Velocity P-wave (km/s) = 5.96040 6.21967 6.09141
#
# Compressibility (1/GPa) = 0.02386702
#
# Stress axis : x y z
#
# Youngs Moduli (GPa) = 65.34412 42.64706 77.47944
#
# Poissons Ratio (x) = 0.16178 0.12419
# Poissons Ratio (y) = 0.24789 0.65852
# Poissons Ratio (z) = 0.10474 0.36247
#
# Static dielectric constant tensor:
#      x y z
#    x 3.792780 0.000000 0.000000 
#    y 0.000000 3.396720 0.000000 
#    z 0.000000 0.000000 4.084340 
# 
# 
# High freq. dielectric constant tensor:
#      x y z
#    x 1.825810 0.000000 0.000000 
#    y 0.000000 1.789980 0.000000 
#    z 0.000000 0.000000 1.838800 
# 
# From -- ./inp_files/6934.got.cif
#   From: 2010.03.12/outbox.cif.g09.slc.cpg/sg33_4_cif.got.tgz:6934.got - 2010.04.14 01:49:19.
