data_PCOD8171622
_publ_section_title
;
Structure prediction by ZEFSAII (Michael W. Deem and Ramdas Pophale) SiO2 
 PCOD8171622
Probable space group: P N A 21
;
_chemical_formula_sum "Si O2"
_cell_formula_units_Z 28
_cell_length_a 14.777913
_cell_length_b 14.863425
_cell_length_c 5.710033
_cell_angle_alpha 90.000000
_cell_angle_beta 90.000000
_cell_angle_gamma 90.000000
_cell_volume 1254.211041
_symmetry_space_group_name_H-M "P N A 21"
_symmetry_group_IT_number 33
_symmetry_cell_setting 'orthorhombic'
loop_
_space_group_symop_operation_xyz
x,y,z
-x,-y,1/2+z
1/2-x,1/2+y,1/2+z
1/2+x,1/2-y,z
loop_
_atom_site_type_symbol
_atom_site_label
_atom_site_fract_x
_atom_site_fract_y
_atom_site_fract_z
Si Si1 0.018567 0.276875 0.459090
Si Si2 0.783817 0.409101 0.158909
Si Si3 0.129654 0.729472 0.335259
Si Si4 0.965962 0.460587 0.295185
Si Si5 0.702890 0.292840 0.548032
Si Si6 0.624557 0.450236 0.865661
Si Si7 0.454348 0.376591 0.141667
O O1 0.125128 0.281845 0.515959
O O2 0.961708 0.291156 0.694127
O O3 0.994682 0.355480 0.275124
O O4 0.999037 0.178248 0.354001
O O5 0.855803 0.468276 0.307635
O O6 0.738093 0.328138 0.300365
O O7 0.844841 0.364212 0.956908
O O8 0.702415 0.470246 0.058659
O O9 0.213423 0.757290 0.170292
O O10 0.114788 0.812464 0.507031
O O11 0.000403 0.495029 0.550576
O O12 0.662866 0.376121 0.691477
O O13 0.606401 0.542552 0.734354
O O14 0.532120 0.414498 0.975605
#
# Coordination Sequence:
#
# PCOD8171622 Si02
#       7
#     4   4   4   4   4   4   4
#     4  12  24  47  77 103 144 197 253 307 387 460
#     4  11  24  49  72 102 150 191 245 317 378 448
#     4  11  23  45  73 102 147 195 248 309 382 461
#     4  12  28  51  76 109 154 204 259 322 386 451
#     4  11  23  46  73 106 141 195 247 311 377 452
#     4  11  26  41  73 110 151 187 250 316 385 455
#     4  12  24  45  72 108 147 195 240 314 391 459
#
# _framework density 22.324791000000001
#
# number of rings (size 3 to 8) (size 9 to 14) (size 15 to 20)
#    0.000    0.571    5.714    1.714    2.000    0.000 
#    7.714    0.000    0.000    0.000    0.000    0.000 
#    0.000    0.000    0.000    0.000    0.000    0.000 
#
# Total GULP energy -347201.716121 kJ/mol
# GULP energy per Si atom -12400.061290 kJ/mol
# Density = 2.227398 g / cm^3
# Si number density = 22.324791 Si / 1000 Ang^3
#
#
#
# Elastic Constant Matrix: (Units=GPa)
#
#
# Indices 1 2 3 4 5 6 
#
# 1 134.0857 17.4010 29.9972 0.0000 0.0000 0.0000
# 2 17.4010 65.1685 11.6046 0.0000 0.0000 0.0000
# 3 29.9972 11.6046 90.1091 0.0000 0.0000 0.0000
# 4 0.0000 0.0000 0.0000 43.0873 0.0000 0.0000
# 5 0.0000 0.0000 0.0000 0.0000 67.9560 0.0000
# 6 0.0000 0.0000 0.0000 0.0000 0.0000 34.7660
#
#
#
# Elastic Compliance Matrix: (Units=1/GPa)
#
#
# Indices 1 2 3 4 5 6 
#
# 1 0.008249 -0.001754 -0.002520 0.000000 0.000000 0.000000
# 2 -0.001754 0.016078 -0.001487 0.000000 0.000000 0.000000
# 3 -0.002520 -0.001487 0.012128 0.000000 0.000000 0.000000
# 4 0.000000 0.000000 0.000000 0.023209 0.000000 0.000000
# 5 0.000000 0.000000 0.000000 0.000000 0.014715 0.000000
# 6 0.000000 0.000000 0.000000 0.000000 0.000000 0.028764
#
#
# Mechanical properties :
#
#
# Convention : Reuss Voigt Hill
#
# Bulk Modulus (GPa) = 40.10662 45.26319 42.68491
# Shear Modulus (GPa) = 40.65823 44.51923 42.58873
#
# Velocity S-wave (km/s) = 4.27220 4.47045 4.37245
# Velocity P-wave (km/s) = 6.50689 6.85313 6.68225
#
# Compressibility (1/GPa) = 0.02493354
#
# Stress axis : x y z
#
# Youngs Moduli (GPa) = 121.22133 62.19715 82.45291
#
# Poissons Ratio (x) = 0.10909 0.20781
# Poissons Ratio (y) = 0.21261 0.12258
# Poissons Ratio (z) = 0.30552 0.09247
#
# Static dielectric constant tensor:
#      x y z
#    x -0.553620 0.000000 0.000000 
#    y 0.000000 3.977940 0.000000 
#    z 0.000000 0.000000 4.225360 
# 
# 
# High freq. dielectric constant tensor:
#      x y z
#    x 1.901000 0.000000 0.000000 
#    y 0.000000 1.859810 0.000000 
#    z 0.000000 0.000000 1.891600 
# 
# From -- ./inp_files/1403.got.cif
#   From: 2010.03.12/outbox.cif.g09.slc.cpg/sg33_1_cif.got.tgz:1403.got - 2010.04.14 01:49:19.
