data_PCOD8171789
_publ_section_title
;
Structure prediction by ZEFSAII (Michael W. Deem and Ramdas Pophale) SiO2 
 PCOD8171789
Probable space group: P N A 21
;
_chemical_formula_sum "Si O2"
_cell_formula_units_Z 12
_cell_length_a 5.460752
_cell_length_b 18.560301
_cell_length_c 4.814941
_cell_angle_alpha 90.000000
_cell_angle_beta 90.000000
_cell_angle_gamma 90.000000
_cell_volume 488.009682
_symmetry_space_group_name_H-M "P N A 21"
_symmetry_group_IT_number 33
_symmetry_cell_setting 'orthorhombic'
loop_
_space_group_symop_operation_xyz
x,y,z
-x,-y,1/2+z
1/2-x,1/2+y,1/2+z
1/2+x,1/2-y,z
loop_
_atom_site_type_symbol
_atom_site_label
_atom_site_fract_x
_atom_site_fract_y
_atom_site_fract_z
Si Si1 0.962860 0.109929 0.508040
Si Si2 0.907941 0.206474 0.998829
Si Si3 0.147929 0.508454 0.198989
O O1 0.940763 0.179335 0.313116
O O2 0.821868 0.042349 0.380635
O O3 0.236057 0.080550 0.566107
O O4 0.870742 0.136407 0.806746
O O5 0.165000 0.246780 0.941841
O O6 0.955359 0.535275 0.433070
#
# Coordination Sequence:
#
# PCOD8171789 Si02
#       3
#     4   4   4
#     4  12  27  50  72 114 149 190 266 308 386 458
#     4  12  29  50  78 108 153 210 252 312 376 458
#     4  12  26  46  80 110 150 198 246 334 392 450
#
# _framework density 24.589673999999999
#
# number of rings (size 3 to 8) (size 9 to 14) (size 15 to 20)
#    0.000    0.000    0.000   10.000   14.000    0.000 
#    0.000    0.000    0.000    0.000    0.000    0.000 
#    0.000    0.000    0.000    0.000    0.000    0.000 
#
# Total GULP energy -148678.188731 kJ/mol
# GULP energy per Si atom -12389.849061 kJ/mol
# Density = 2.453371 g / cm^3
# Si number density = 24.589674 Si / 1000 Ang^3
#
#
#
# Elastic Constant Matrix: (Units=GPa)
#
#
# Indices 1 2 3 4 5 6 
#
# 1 125.5558 44.9073 30.4260 0.0000 0.0000 0.0000
# 2 44.9073 78.0498 26.2593 0.0000 0.0000 0.0000
# 3 30.4260 26.2593 106.0583 0.0000 0.0000 0.0000
# 4 0.0000 0.0000 0.0000 60.5059 0.0000 0.0000
# 5 0.0000 0.0000 0.0000 0.0000 50.6571 0.0000
# 6 0.0000 0.0000 0.0000 0.0000 0.0000 31.3795
#
#
#
# Elastic Compliance Matrix: (Units=1/GPa)
#
#
# Indices 1 2 3 4 5 6 
#
# 1 0.010277 -0.005368 -0.001619 0.000000 0.000000 0.000000
# 2 -0.005368 0.016781 -0.002615 0.000000 0.000000 0.000000
# 3 -0.001619 -0.002615 0.010541 0.000000 0.000000 0.000000
# 4 0.000000 0.000000 0.000000 0.016527 0.000000 0.000000
# 5 0.000000 0.000000 0.000000 0.000000 0.019741 0.000000
# 6 0.000000 0.000000 0.000000 0.000000 0.000000 0.031868
#
#
# Mechanical properties :
#
#
# Convention : Reuss Voigt Hill
#
# Bulk Modulus (GPa) = 54.36521 56.98326 55.67423
# Shear Modulus (GPa) = 38.14752 42.37991 40.26372
#
# Velocity S-wave (km/s) = 3.94301 4.15599 4.05090
# Velocity P-wave (km/s) = 6.54879 6.80100 6.67609
#
# Compressibility (1/GPa) = 0.01839412
#
# Stress axis : x y z
#
# Youngs Moduli (GPa) = 97.30436 59.59182 94.87067
#
# Poissons Ratio (x) = 0.31991 0.15361
# Poissons Ratio (y) = 0.52236 0.24806
# Poissons Ratio (z) = 0.15755 0.15582
#
# Static dielectric constant tensor:
#      x y z
#    x 4.627370 0.000000 0.000000 
#    y 0.000000 4.161220 0.000000 
#    z 0.000000 0.000000 4.862810 
# 
# 
# High freq. dielectric constant tensor:
#      x y z
#    x 1.983040 0.000000 0.000000 
#    y 0.000000 1.970040 0.000000 
#    z 0.000000 0.000000 2.011670 
# 
# From -- ./inp_files/100.got.cif
#   From: 2010.03.12/outbox.cif.g09.slc.cpg/sg33_1_cif.got.tgz:100.got - 2010.04.14 01:49:19.
