data_PCOD8171158
_publ_section_title
;
Structure prediction by ZEFSAII (Michael W. Deem and Ramdas Pophale) SiO2 
 PCOD8171158
Probable space group: P N A 21
;
_chemical_formula_sum "Si O2"
_cell_formula_units_Z 32
_cell_length_a 10.881386
_cell_length_b 15.551137
_cell_length_c 8.666073
_cell_angle_alpha 90.000000
_cell_angle_beta 90.000000
_cell_angle_gamma 90.000000
_cell_volume 1466.454886
_symmetry_space_group_name_H-M "P N A 21"
_symmetry_group_IT_number 33
_symmetry_cell_setting 'orthorhombic'
loop_
_space_group_symop_operation_xyz
x,y,z
-x,-y,1/2+z
1/2-x,1/2+y,1/2+z
1/2+x,1/2-y,z
loop_
_atom_site_type_symbol
_atom_site_label
_atom_site_fract_x
_atom_site_fract_y
_atom_site_fract_z
Si Si1 0.850718 0.886698 0.810550
Si Si2 0.716703 0.208167 0.783306
Si Si3 0.251723 0.449263 0.971915
Si Si4 0.377883 0.346905 0.223944
Si Si5 0.033351 0.540092 0.402573
Si Si6 0.186994 0.731130 0.984734
Si Si7 0.015831 0.388733 0.590709
Si Si8 0.301863 0.182070 0.042488
O O1 0.762737 0.882086 0.661978
O O2 0.986305 0.883579 0.742868
O O3 0.830794 0.970647 0.913862
O O4 0.816257 0.806421 0.921064
O O5 0.785535 0.126536 0.854049
O O6 0.810235 0.250187 0.664973
O O7 0.595005 0.180305 0.688711
O O8 0.700615 0.278717 0.921299
O O9 0.294098 0.420977 0.144909
O O10 0.106916 0.465425 0.963428
O O11 0.334532 0.320790 0.395621
O O12 0.374289 0.258829 0.126772
O O13 0.044773 0.545702 0.216793
O O14 0.092703 0.451929 0.473551
O O15 0.093976 0.627239 0.460759
O O16 0.078889 0.659923 0.976165
#
# Coordination Sequence:
#
# PCOD8171158 Si02
#       8
#     4   4   4   4   4   4   4   4
#     4  11  23  44  63  94 133 172 221 271 328 409
#     4  10  22  39  61  96 131 167 217 274 330 395
#     4  10  23  43  63  94 130 171 228 268 328 405
#     4  10  25  39  67  91 127 180 212 275 327 397
#     4  11  22  40  65  95 132 171 216 278 329 390
#     4  11  22  42  60  97 128 170 222 268 333 391
#     4  11  23  38  65  97 134 169 218 279 323 401
#     4  10  22  39  68  96 127 176 218 269 338 392
#
# _framework density 21.821332000000002
#
# number of rings (size 3 to 8) (size 9 to 14) (size 15 to 20)
#    0.000    1.500    2.500    2.250    8.750    2.000 
#    0.000    2.500    0.000    0.000    0.000    0.000 
#    0.000    0.000    0.000    0.000    0.000    0.000 
#
# Total GULP energy -396508.181574 kJ/mol
# GULP energy per Si atom -12390.880674 kJ/mol
# Density = 2.177167 g / cm^3
# Si number density = 21.821332 Si / 1000 Ang^3
#
#
#
# Elastic Constant Matrix: (Units=GPa)
#
#
# Indices 1 2 3 4 5 6 
#
# 1 64.2777 17.4680 13.5605 0.0000 0.0000 0.0000
# 2 17.4680 78.9750 38.9682 0.0000 0.0000 0.0000
# 3 13.5605 38.9682 115.5223 0.0000 0.0000 0.0000
# 4 0.0000 0.0000 0.0000 46.3698 0.0000 0.0000
# 5 0.0000 0.0000 0.0000 0.0000 28.4922 0.0000
# 6 0.0000 0.0000 0.0000 0.0000 0.0000 18.0406
#
#
#
# Elastic Compliance Matrix: (Units=1/GPa)
#
#
# Indices 1 2 3 4 5 6 
#
# 1 0.016622 -0.003256 -0.000853 0.000000 0.000000 0.000000
# 2 -0.003256 0.015828 -0.004957 0.000000 0.000000 0.000000
# 3 -0.000853 -0.004957 0.010429 0.000000 0.000000 0.000000
# 4 0.000000 0.000000 0.000000 0.021566 0.000000 0.000000
# 5 0.000000 0.000000 0.000000 0.000000 0.035097 0.000000
# 6 0.000000 0.000000 0.000000 0.000000 0.000000 0.055431
#
#
# Mechanical properties :
#
#
# Convention : Reuss Voigt Hill
#
# Bulk Modulus (GPa) = 40.40790 44.30760 42.35775
# Shear Modulus (GPa) = 27.57050 31.16575 29.36813
#
# Velocity S-wave (km/s) = 3.55838 3.78329 3.67256
# Velocity P-wave (km/s) = 5.95320 6.27958 6.11857
#
# Compressibility (1/GPa) = 0.02474764
#
# Stress axis : x y z
#
# Youngs Moduli (GPa) = 60.16048 63.17812 95.89031
#
# Poissons Ratio (x) = 0.20569 0.08179
# Poissons Ratio (y) = 0.19586 0.47533
# Poissons Ratio (z) = 0.05132 0.31318
#
# Static dielectric constant tensor:
#      x y z
#    x 3.604070 0.000000 0.000000 
#    y 0.000000 4.128860 0.000000 
#    z 0.000000 0.000000 4.367010 
# 
# 
# High freq. dielectric constant tensor:
#      x y z
#    x 1.825880 0.000000 0.000000 
#    y 0.000000 1.862660 0.000000 
#    z 0.000000 0.000000 1.878530 
# 
# From -- ./inp_files/3970.got.cif
#   From: 2010.03.12/outbox.cif.g09.slc.cpg/sg33_2_cif.got.tgz:3970.got - 2010.04.14 01:49:19.
