data_PCOD8171439
_publ_section_title
;
Structure prediction by ZEFSAII (Michael W. Deem and Ramdas Pophale) SiO2 
 PCOD8171439
Probable space group: P N A 21
;
_chemical_formula_sum "Si O2"
_cell_formula_units_Z 28
_cell_length_a 9.086167
_cell_length_b 18.212607
_cell_length_c 7.726997
_cell_angle_alpha 90.000000
_cell_angle_beta 90.000000
_cell_angle_gamma 90.000000
_cell_volume 1278.685012
_symmetry_space_group_name_H-M "P N A 21"
_symmetry_group_IT_number 33
_symmetry_cell_setting 'orthorhombic'
loop_
_space_group_symop_operation_xyz
x,y,z
-x,-y,1/2+z
1/2-x,1/2+y,1/2+z
1/2+x,1/2-y,z
loop_
_atom_site_type_symbol
_atom_site_label
_atom_site_fract_x
_atom_site_fract_y
_atom_site_fract_z
Si Si1 0.782987 0.471688 0.495820
Si Si2 0.875190 0.192385 0.707762
Si Si3 0.729723 0.435570 0.977695
Si Si4 0.918509 0.101907 0.056348
Si Si5 0.753562 0.604196 0.897418
Si Si6 0.484893 0.054015 0.208446
Si Si7 0.703018 0.335705 0.658234
O O1 0.636308 0.520166 0.507247
O O2 0.862892 0.490720 0.316150
O O3 0.750251 0.383389 0.489840
O O4 0.895506 0.494773 0.647779
O O5 0.771032 0.154881 0.564162
O O6 0.817614 0.275261 0.722046
O O7 0.040820 0.197113 0.636039
O O8 0.871007 0.155730 0.898159
O O9 0.718883 0.522757 0.962144
O O10 0.702957 0.403139 0.790482
O O11 0.593241 0.404034 0.090816
O O12 0.888733 0.409206 0.054156
O O13 0.847824 0.129866 0.235797
O O14 0.924016 0.611482 0.829505
#
# Coordination Sequence:
#
# PCOD8171439 Si02
#       7
#     4   4   4   4   4   4   4
#     4  11  21  40  65 102 129 173 229 279 341 397
#     4  11  27  45  69  98 140 180 222 287 350 410
#     4  11  22  42  68 101 132 177 234 283 339 407
#     4  10  24  42  69  97 133 179 227 285 341 405
#     4  11  23  43  68 103 134 176 229 279 343 405
#     4  11  22  36  67 101 134 170 226 289 326 403
#     4  11  25  46  66  98 136 183 223 280 352 413
#
# _framework density 21.897497999999999
#
# number of rings (size 3 to 8) (size 9 to 14) (size 15 to 20)
#    0.000    1.143    4.286    1.714    8.000    2.286 
#    2.571    0.000    0.000    0.000    0.000    0.000 
#    0.000    0.000    0.000    0.000    0.000    0.000 
#
# Total GULP energy -346998.304366 kJ/mol
# GULP energy per Si atom -12392.796584 kJ/mol
# Density = 2.184766 g / cm^3
# Si number density = 21.897498 Si / 1000 Ang^3
#
#
#
# Elastic Constant Matrix: (Units=GPa)
#
#
# Indices 1 2 3 4 5 6 
#
# 1 121.9946 23.0938 9.4867 0.0000 0.0000 0.0000
# 2 23.0938 91.3014 3.9528 0.0000 0.0000 0.0000
# 3 9.4867 3.9528 58.3402 0.0000 0.0000 0.0000
# 4 0.0000 0.0000 0.0000 21.4021 0.0000 0.0000
# 5 0.0000 0.0000 0.0000 0.0000 38.5201 0.0000
# 6 0.0000 0.0000 0.0000 0.0000 0.0000 23.6858
#
#
#
# Elastic Compliance Matrix: (Units=1/GPa)
#
#
# Indices 1 2 3 4 5 6 
#
# 1 0.008702 -0.002146 -0.001270 0.000000 0.000000 0.000000
# 2 -0.002146 0.011514 -0.000431 0.000000 0.000000 0.000000
# 3 -0.001270 -0.000431 0.017377 0.000000 0.000000 0.000000
# 4 0.000000 0.000000 0.000000 0.046724 0.000000 0.000000
# 5 0.000000 0.000000 0.000000 0.000000 0.025961 0.000000
# 6 0.000000 0.000000 0.000000 0.000000 0.000000 0.042219
#
#
# Mechanical properties :
#
#
# Convention : Reuss Voigt Hill
#
# Bulk Modulus (GPa) = 33.44595 38.30030 35.87313
# Shear Modulus (GPa) = 29.38458 32.39512 30.88985
#
# Velocity S-wave (km/s) = 3.66719 3.85047 3.75995
# Velocity P-wave (km/s) = 5.76525 6.10711 5.93864
#
# Compressibility (1/GPa) = 0.02989899
#
# Stress axis : x y z
#
# Youngs Moduli (GPa) = 114.91499 86.84888 57.54893
#
# Poissons Ratio (x) = 0.18639 0.07307
# Poissons Ratio (y) = 0.24662 0.02481
# Poissons Ratio (z) = 0.14590 0.03745
#
# Static dielectric constant tensor:
#      x y z
#    x 4.333660 0.000000 0.000000 
#    y 0.000000 3.573880 0.000000 
#    z 0.000000 0.000000 4.171150 
# 
# 
# High freq. dielectric constant tensor:
#      x y z
#    x 1.879550 0.000000 0.000000 
#    y 0.000000 1.818700 0.000000 
#    z 0.000000 0.000000 1.872230 
# 
# From -- ./inp_files/3375.got.cif
#   From: 2010.03.12/outbox.cif.g09.slc.cpg/sg33_2_cif.got.tgz:3375.got - 2010.04.14 01:49:19.
