data_PCOD8171538
_publ_section_title
;
Structure prediction by ZEFSAII (Michael W. Deem and Ramdas Pophale) SiO2 
 PCOD8171538
Probable space group: P N A 21
;
_chemical_formula_sum "Si O2"
_cell_formula_units_Z 32
_cell_length_a 14.048777
_cell_length_b 8.561754
_cell_length_c 11.826058
_cell_angle_alpha 90.000000
_cell_angle_beta 90.000000
_cell_angle_gamma 90.000000
_cell_volume 1422.463950
_symmetry_space_group_name_H-M "P N A 21"
_symmetry_group_IT_number 33
_symmetry_cell_setting 'orthorhombic'
loop_
_space_group_symop_operation_xyz
x,y,z
-x,-y,1/2+z
1/2-x,1/2+y,1/2+z
1/2+x,1/2-y,z
loop_
_atom_site_type_symbol
_atom_site_label
_atom_site_fract_x
_atom_site_fract_y
_atom_site_fract_z
Si Si1 0.443565 0.873313 0.420900
Si Si2 0.900694 0.343607 0.757433
Si Si3 0.663456 0.675320 0.037859
Si Si4 0.219806 0.601398 0.639193
Si Si5 0.803606 0.865571 0.886878
Si Si6 0.991635 0.375321 0.160417
Si Si7 0.494076 0.235857 0.388467
Si Si8 0.771756 0.203993 0.929747
O O1 0.505287 0.787307 0.324936
O O2 0.475208 0.803042 0.542064
O O3 0.335588 0.834161 0.392992
O O4 0.465327 0.058988 0.424024
O O5 0.876672 0.228002 0.657572
O O6 0.813151 0.340969 0.847756
O O7 0.923247 0.513801 0.706410
O O8 0.724819 0.808627 0.976016
O O9 0.572545 0.642682 0.956669
O O10 0.721533 0.519564 0.062407
O O11 0.267172 0.649226 0.757570
O O12 0.111465 0.537704 0.654001
O O13 0.217549 0.755832 0.561594
O O14 0.895595 0.762454 0.914188
O O15 0.830637 0.045363 0.909258
O O16 0.978646 0.238407 0.253570
#
# Coordination Sequence:
#
# PCOD8171538 Si02
#       8
#     4   4   4   4   4   4   4   4
#     4  11  22  45  72 103 143 193 245 303 373 433
#     4  11  24  39  72 104 142 191 241 293 369 437
#     4  12  25  45  69 109 144 192 245 297 371 441
#     4  12  26  48  77 107 149 193 247 308 370 435
#     4  12  25  48  74 107 149 190 247 309 359 445
#     4  11  21  45  72 103 138 194 244 296 370 437
#     4  11  24  43  73 103 143 192 239 303 372 433
#     4  12  25  47  73 110 146 191 246 307 360 443
#
# _framework density 22.496176999999999
#
# number of rings (size 3 to 8) (size 9 to 14) (size 15 to 20)
#    0.000    0.500    6.250    2.250    1.750    2.000 
#    2.250    0.000    0.000    0.000    0.000    0.000 
#    0.000    0.000    0.000    0.000    0.000    0.000 
#
# Total GULP energy -396692.990666 kJ/mol
# GULP energy per Si atom -12396.655958 kJ/mol
# Density = 2.244497 g / cm^3
# Si number density = 22.496177 Si / 1000 Ang^3
#
#
#
# Elastic Constant Matrix: (Units=GPa)
#
#
# Indices 1 2 3 4 5 6 
#
# 1 154.2169 45.6031 40.7582 0.0000 0.0000 0.0000
# 2 45.6031 49.6723 40.2731 0.0000 0.0000 0.0000
# 3 40.7582 40.2731 138.6820 0.0000 0.0000 0.0000
# 4 0.0000 0.0000 0.0000 28.8811 0.0000 0.0000
# 5 0.0000 0.0000 0.0000 0.0000 43.3105 0.0000
# 6 0.0000 0.0000 0.0000 0.0000 0.0000 29.4178
#
#
#
# Elastic Compliance Matrix: (Units=1/GPa)
#
#
# Indices 1 2 3 4 5 6 
#
# 1 0.008912 -0.007924 -0.000318 0.000000 0.000000 0.000000
# 2 -0.007924 0.033377 -0.007364 0.000000 0.000000 0.000000
# 3 -0.000318 -0.007364 0.009443 0.000000 0.000000 0.000000
# 4 0.000000 0.000000 0.000000 0.034625 0.000000 0.000000
# 5 0.000000 0.000000 0.000000 0.000000 0.023089 0.000000
# 6 0.000000 0.000000 0.000000 0.000000 0.000000 0.033993
#
#
# Mechanical properties :
#
#
# Convention : Reuss Voigt Hill
#
# Bulk Modulus (GPa) = 48.73298 66.20444 57.46871
# Shear Modulus (GPa) = 27.54989 34.71768 31.13378
#
# Velocity S-wave (km/s) = 3.50329 3.93271 3.72420
# Velocity P-wave (km/s) = 6.17040 7.07917 6.64035
#
# Compressibility (1/GPa) = 0.02051999
#
# Stress axis : x y z
#
# Youngs Moduli (GPa) = 112.21451 29.96085 105.90208
#
# Poissons Ratio (x) = 0.23740 0.03368
# Poissons Ratio (y) = 0.88914 0.77985
# Poissons Ratio (z) = 0.03569 0.22063
#
# Static dielectric constant tensor:
#      x y z
#    x 4.324510 0.000000 0.000000 
#    y 0.000000 3.740100 0.000000 
#    z 0.000000 0.000000 4.504520 
# 
# 
# High freq. dielectric constant tensor:
#      x y z
#    x 1.902160 0.000000 0.000000 
#    y 0.000000 1.843020 0.000000 
#    z 0.000000 0.000000 1.913360 
# 
# From -- ./inp_files/6804.got.cif
#   From: 2010.03.12/outbox.cif.g09.slc.cpg/sg33_4_cif.got.tgz:6804.got - 2010.04.14 01:49:19.
