data_PCOD8171542
_publ_section_title
;
Structure prediction by ZEFSAII (Michael W. Deem and Ramdas Pophale) SiO2 
 PCOD8171542
Probable space group: P N A 21
;
_chemical_formula_sum "Si O2"
_cell_formula_units_Z 32
_cell_length_a 8.636429
_cell_length_b 9.730912
_cell_length_c 17.465697
_cell_angle_alpha 90.000000
_cell_angle_beta 90.000000
_cell_angle_gamma 90.000000
_cell_volume 1467.822950
_symmetry_space_group_name_H-M "P N A 21"
_symmetry_group_IT_number 33
_symmetry_cell_setting 'orthorhombic'
loop_
_space_group_symop_operation_xyz
x,y,z
-x,-y,1/2+z
1/2-x,1/2+y,1/2+z
1/2+x,1/2-y,z
loop_
_atom_site_type_symbol
_atom_site_label
_atom_site_fract_x
_atom_site_fract_y
_atom_site_fract_z
Si Si1 0.804731 0.883725 0.843130
Si Si2 0.895743 0.344081 0.571257
Si Si3 0.702439 0.600355 0.598994
Si Si4 0.780280 0.568790 0.094166
Si Si5 0.723368 0.921546 0.435501
Si Si6 0.583268 0.635419 0.427338
Si Si7 0.513582 0.152977 0.403523
Si Si8 0.116633 0.157180 0.175013
O O1 0.621418 0.853346 0.840408
O O2 0.900546 0.800150 0.908465
O O3 0.874983 0.819774 0.765488
O O4 0.832245 0.043470 0.862598
O O5 0.773202 0.448344 0.608956
O O6 0.843124 0.187136 0.575965
O O7 0.057259 0.361629 0.616583
O O8 0.928218 0.381487 0.483080
O O9 0.650105 0.609422 0.511499
O O10 0.831124 0.713326 0.622982
O O11 0.558431 0.620146 0.654608
O O12 0.723950 0.476794 0.164268
O O13 0.795815 0.461996 0.024146
O O14 0.618428 0.793376 0.410299
O O15 0.901786 0.892988 0.418715
O O16 0.651879 0.045342 0.385086
#
# Coordination Sequence:
#
# PCOD8171542 Si02
#       8
#     4   4   4   4   4   4   4   4
#     4  12  25  44  68  99 145 177 226 279 353 411
#     4  11  23  39  69  98 129 172 233 291 326 402
#     4  12  23  42  68  98 136 180 233 278 338 408
#     4  11  22  40  62  97 130 172 223 279 346 394
#     4  11  24  38  70  97 133 165 233 285 333 395
#     4  12  22  42  65 101 129 180 228 288 328 405
#     4  11  23  42  65 100 132 179 220 282 340 402
#     4  12  26  43  67 102 140 183 220 284 350 413
#
# _framework density 21.800992999999998
#
# number of rings (size 3 to 8) (size 9 to 14) (size 15 to 20)
#    0.000    0.500    3.750    6.000    3.500    0.000 
#    0.000    6.250    0.000    0.000    0.000    0.000 
#    0.000    0.000    0.000    0.000    0.000    0.000 
#
# Total GULP energy -396800.097492 kJ/mol
# GULP energy per Si atom -12400.003047 kJ/mol
# Density = 2.175137 g / cm^3
# Si number density = 21.800993 Si / 1000 Ang^3
#
#
#
# Elastic Constant Matrix: (Units=GPa)
#
#
# Indices 1 2 3 4 5 6 
#
# 1 120.2062 33.8440 29.6145 0.0000 0.0000 0.0000
# 2 33.8440 126.9210 26.4675 0.0000 0.0000 0.0000
# 3 29.6145 26.4675 40.6376 0.0000 0.0000 0.0000
# 4 0.0000 0.0000 0.0000 17.1453 0.0000 0.0000
# 5 0.0000 0.0000 0.0000 0.0000 25.3481 0.0000
# 6 0.0000 0.0000 0.0000 0.0000 0.0000 41.8437
#
#
#
# Elastic Compliance Matrix: (Units=1/GPa)
#
#
# Indices 1 2 3 4 5 6 
#
# 1 0.010342 -0.001372 -0.006643 0.000000 0.000000 0.000000
# 2 -0.001372 0.009299 -0.005057 0.000000 0.000000 0.000000
# 3 -0.006643 -0.005057 0.032742 0.000000 0.000000 0.000000
# 4 0.000000 0.000000 0.000000 0.058325 0.000000 0.000000
# 5 0.000000 0.000000 0.000000 0.000000 0.039451 0.000000
# 6 0.000000 0.000000 0.000000 0.000000 0.000000 0.023898
#
#
# Mechanical properties :
#
#
# Convention : Reuss Voigt Hill
#
# Bulk Modulus (GPa) = 38.11010 51.95743 45.03377
# Shear Modulus (GPa) = 23.92940 30.05665 26.99302
#
# Velocity S-wave (km/s) = 3.31664 3.71709 3.52256
# Velocity P-wave (km/s) = 5.67324 6.50436 6.10296
#
# Compressibility (1/GPa) = 0.02623976
#
# Stress axis : x y z
#
# Youngs Moduli (GPa) = 96.69300 107.53422 30.54178
#
# Poissons Ratio (x) = 0.14759 0.20288
# Poissons Ratio (y) = 0.13271 0.15444
# Poissons Ratio (z) = 0.64231 0.54375
#
# Static dielectric constant tensor:
#      x y z
#    x 4.271900 0.000000 0.000000 
#    y 0.000000 4.159660 0.000000 
#    z 0.000000 0.000000 3.510480 
# 
# 
# High freq. dielectric constant tensor:
#      x y z
#    x 1.881080 0.000000 0.000000 
#    y 0.000000 1.870940 0.000000 
#    z 0.000000 0.000000 1.814240 
# 
# From -- ./inp_files/8954.got.cif
#   From: 2010.03.12/outbox.cif.g09.slc.cpg/sg33_5_cif.got.tgz:8954.got - 2010.04.14 01:49:19.
