data_PCOD8171151
_publ_section_title
;
Structure prediction by ZEFSAII (Michael W. Deem and Ramdas Pophale) SiO2 
 PCOD8171151
Probable space group: P N A 21
;
_chemical_formula_sum "Si O2"
_cell_formula_units_Z 28
_cell_length_a 15.326921
_cell_length_b 17.000165
_cell_length_c 4.916838
_cell_angle_alpha 90.000000
_cell_angle_beta 90.000000
_cell_angle_gamma 90.000000
_cell_volume 1281.132224
_symmetry_space_group_name_H-M "P N A 21"
_symmetry_group_IT_number 33
_symmetry_cell_setting 'orthorhombic'
loop_
_space_group_symop_operation_xyz
x,y,z
-x,-y,1/2+z
1/2-x,1/2+y,1/2+z
1/2+x,1/2-y,z
loop_
_atom_site_type_symbol
_atom_site_label
_atom_site_fract_x
_atom_site_fract_y
_atom_site_fract_z
Si Si1 0.547086 0.027469 0.010130
Si Si2 0.553720 0.297279 0.306573
Si Si3 0.554480 0.608459 0.452881
Si Si4 0.271365 0.984325 0.760698
Si Si5 0.598809 0.198331 0.807928
Si Si6 0.891852 0.934404 0.116579
Si Si7 0.766280 0.116579 0.762223
O O1 0.632047 0.992044 0.163861
O O2 0.474655 0.027779 0.250515
O O3 0.543289 0.239931 0.568809
O O4 0.557360 0.114569 0.887790
O O5 0.458335 0.329482 0.202568
O O6 0.603363 0.250096 0.075169
O O7 0.612831 0.375220 0.361397
O O8 0.572741 0.520383 0.548711
O O9 0.630451 0.637822 0.241833
O O10 0.460280 0.609519 0.310883
O O11 0.240803 0.911405 0.574972
O O12 0.205640 0.058367 0.736749
O O13 0.264670 0.955310 0.071260
O O14 0.699892 0.188481 0.709849
#
# Coordination Sequence:
#
# PCOD8171151 Si02
#       7
#     4   4   4   4   4   4   4
#     4  11  22  44  72  95 125 177 244 293 331 390
#     4  12  24  40  64  93 140 180 212 277 348 404
#     4  11  22  39  69 101 134 178 225 276 331 424
#     4  10  22  38  67  98 123 164 216 287 337 391
#     4  11  24  44  63  93 133 183 223 273 346 403
#     4  11  22  39  67 100 140 166 228 272 350 409
#     4  10  22  40  66  90 127 168 224 264 327 411
#
# _framework density 21.85567
#
# number of rings (size 3 to 8) (size 9 to 14) (size 15 to 20)
#    0.000    1.143    2.857    5.143    4.000    0.000 
#    0.000    4.286    0.000    0.000    0.000    0.000 
#    0.000    0.000    0.000    0.000    0.000    0.000 
#
# Total GULP energy -346923.907654 kJ/mol
# GULP energy per Si atom -12390.139559 kJ/mol
# Density = 2.180593 g / cm^3
# Si number density = 21.855670 Si / 1000 Ang^3
#
#
#
# Elastic Constant Matrix: (Units=GPa)
#
#
# Indices 1 2 3 4 5 6 
#
# 1 123.5324 72.6440 54.8975 0.0000 0.0000 0.0000
# 2 72.6440 98.7553 53.4385 0.0000 0.0000 0.0000
# 3 54.8975 53.4385 121.3927 0.0000 0.0000 0.0000
# 4 0.0000 0.0000 0.0000 49.9217 0.0000 0.0000
# 5 0.0000 0.0000 0.0000 0.0000 34.8849 0.0000
# 6 0.0000 0.0000 0.0000 0.0000 0.0000 13.7350
#
#
#
# Elastic Compliance Matrix: (Units=1/GPa)
#
#
# Indices 1 2 3 4 5 6 
#
# 1 0.014822 -0.009551 -0.002498 0.000000 0.000000 0.000000
# 2 -0.009551 0.019447 -0.004242 0.000000 0.000000 0.000000
# 3 -0.002498 -0.004242 0.011235 0.000000 0.000000 0.000000
# 4 0.000000 0.000000 0.000000 0.020031 0.000000 0.000000
# 5 0.000000 0.000000 0.000000 0.000000 0.028666 0.000000
# 6 0.000000 0.000000 0.000000 0.000000 0.000000 0.072807
#
#
# Mechanical properties :
#
#
# Convention : Reuss Voigt Hill
#
# Bulk Modulus (GPa) = 77.38943 78.40448 77.89696
# Shear Modulus (GPa) = 24.52232 30.55503 27.53867
#
# Velocity S-wave (km/s) = 3.35328 3.74309 3.55353
# Velocity P-wave (km/s) = 7.10484 7.39139 7.24953
#
# Compressibility (1/GPa) = 0.01292166
#
# Stress axis : x y z
#
# Youngs Moduli (GPa) = 67.46818 51.42238 89.00942
#
# Poissons Ratio (x) = 0.49113 0.22239
# Poissons Ratio (y) = 0.64438 0.37753
# Poissons Ratio (z) = 0.16857 0.21811
#
# Static dielectric constant tensor:
#      x y z
#    x 4.439170 0.000000 0.000000 
#    y 0.000000 3.897990 0.000000 
#    z 0.000000 0.000000 4.213960 
# 
# 
# High freq. dielectric constant tensor:
#      x y z
#    x 1.851430 0.000000 0.000000 
#    y 0.000000 1.834210 0.000000 
#    z 0.000000 0.000000 1.878290 
# 
# From -- ./inp_files/1863.got.cif
#   From: 2010.03.12/outbox.cif.g09.slc.cpg/sg33_1_cif.got.tgz:1863.got - 2010.04.14 01:49:19.
