data_PCOD8171470
_publ_section_title
;
Structure prediction by ZEFSAII (Michael W. Deem and Ramdas Pophale) SiO2 
 PCOD8171470
Probable space group: P N A 21
;
_chemical_formula_sum "Si O2"
_cell_formula_units_Z 20
_cell_length_a 9.105972
_cell_length_b 6.855044
_cell_length_c 13.326701
_cell_angle_alpha 90.000000
_cell_angle_beta 90.000000
_cell_angle_gamma 90.000000
_cell_volume 831.877181
_symmetry_space_group_name_H-M "P N A 21"
_symmetry_group_IT_number 33
_symmetry_cell_setting 'orthorhombic'
loop_
_space_group_symop_operation_xyz
x,y,z
-x,-y,1/2+z
1/2-x,1/2+y,1/2+z
1/2+x,1/2-y,z
loop_
_atom_site_type_symbol
_atom_site_label
_atom_site_fract_x
_atom_site_fract_y
_atom_site_fract_z
Si Si1 0.757230 0.346359 0.334000
Si Si2 0.167153 0.373265 0.672791
Si Si3 0.940979 0.505229 0.813084
Si Si4 0.223749 0.008870 0.549708
Si Si5 0.953942 0.350525 0.022090
O O1 0.723700 0.524903 0.254753
O O2 0.701178 0.138777 0.289542
O O3 0.691279 0.382819 0.444360
O O4 0.934058 0.334549 0.344214
O O5 0.157133 0.493529 0.570300
O O6 0.999780 0.378270 0.718690
O O7 0.221398 0.156879 0.644628
O O8 0.916231 0.355154 0.904094
O O9 0.088609 0.860461 0.566143
O O10 0.376246 0.891165 0.546266
#
# Coordination Sequence:
#
# PCOD8171470 Si02
#       5
#     4   4   4   4   4
#     4   9  21  44  72 105 150 192 251 309 375 453
#     4  10  24  46  74 106 148 200 248 310 378 450
#     4   9  21  44  71 109 142 199 244 312 373 450
#     4  11  25  48  71 107 156 199 249 319 374 457
#     4  11  25  44  74 107 148 200 250 306 382 444
#
# _framework density 24.042012
#
# number of rings (size 3 to 8) (size 9 to 14) (size 15 to 20)
#    1.200    0.800    2.000    0.000    2.800    4.800 
#    3.600    0.000    4.400    0.000    0.000    0.000 
#    0.000    0.000    0.000    0.000    0.000    0.000 
#
# Total GULP energy -247800.065981 kJ/mol
# GULP energy per Si atom -12390.003299 kJ/mol
# Density = 2.398729 g / cm^3
# Si number density = 24.042012 Si / 1000 Ang^3
#
#
#
# Elastic Constant Matrix: (Units=GPa)
#
#
# Indices 1 2 3 4 5 6 
#
# 1 60.8571 37.3396 14.7238 0.0000 0.0000 0.0000
# 2 37.3396 101.8475 43.9293 0.0000 0.0000 0.0000
# 3 14.7238 43.9293 95.7894 0.0000 0.0000 0.0000
# 4 0.0000 0.0000 0.0000 44.8583 0.0000 0.0000
# 5 0.0000 0.0000 0.0000 0.0000 34.0024 0.0000
# 6 0.0000 0.0000 0.0000 0.0000 0.0000 42.1777
#
#
#
# Elastic Compliance Matrix: (Units=1/GPa)
#
#
# Indices 1 2 3 4 5 6 
#
# 1 0.021212 -0.007941 0.000381 0.000000 0.000000 0.000000
# 2 -0.007941 0.015213 -0.005756 0.000000 0.000000 0.000000
# 3 0.000381 -0.005756 0.013021 0.000000 0.000000 0.000000
# 4 0.000000 0.000000 0.000000 0.022292 0.000000 0.000000
# 5 0.000000 0.000000 0.000000 0.000000 0.029410 0.000000
# 6 0.000000 0.000000 0.000000 0.000000 0.000000 0.023709
#
#
# Mechanical properties :
#
#
# Convention : Reuss Voigt Hill
#
# Bulk Modulus (GPa) = 43.83321 50.05328 46.94324
# Shear Modulus (GPa) = 31.42809 35.04110 33.23460
#
# Velocity S-wave (km/s) = 3.61947 3.82186 3.72204
# Velocity P-wave (km/s) = 5.97820 6.35136 6.16760
#
# Compressibility (1/GPa) = 0.02281375
#
# Stress axis : x y z
#
# Youngs Moduli (GPa) = 47.14274 65.73422 76.80109
#
# Poissons Ratio (x) = 0.52202 -0.02929
# Poissons Ratio (y) = 0.37438 0.44206
# Poissons Ratio (z) = -0.01798 0.37836
#
# Static dielectric constant tensor:
#      x y z
#    x 3.911180 0.000000 0.000000 
#    y 0.000000 3.951870 0.000000 
#    z 0.000000 0.000000 4.418480 
# 
# 
# High freq. dielectric constant tensor:
#      x y z
#    x 1.931760 0.000000 0.000000 
#    y 0.000000 1.931660 0.000000 
#    z 0.000000 0.000000 1.969690 
# 
# From -- ./inp_files/7803.got.cif
#   From: 2010.03.12/outbox.cif.g09.slc.cpg/sg33_4_cif.got.tgz:7803.got - 2010.04.14 01:49:19.
