data_PCOD8171284
_publ_section_title
;
Structure prediction by ZEFSAII (Michael W. Deem and Ramdas Pophale) SiO2 
 PCOD8171284
Probable space group: P N A 21
;
_chemical_formula_sum "Si O2"
_cell_formula_units_Z 32
_cell_length_a 13.697435
_cell_length_b 17.719623
_cell_length_c 4.939544
_cell_angle_alpha 90.000000
_cell_angle_beta 90.000000
_cell_angle_gamma 90.000000
_cell_volume 1198.893441
_symmetry_space_group_name_H-M "P N A 21"
_symmetry_group_IT_number 33
_symmetry_cell_setting 'orthorhombic'
loop_
_space_group_symop_operation_xyz
x,y,z
-x,-y,1/2+z
1/2-x,1/2+y,1/2+z
1/2+x,1/2-y,z
loop_
_atom_site_type_symbol
_atom_site_label
_atom_site_fract_x
_atom_site_fract_y
_atom_site_fract_z
Si Si1 0.727736 0.473516 0.033470
Si Si2 0.957699 0.961820 0.199931
Si Si3 0.702482 0.628652 0.277171
Si Si4 0.120570 0.795328 0.770903
Si Si5 0.389748 0.814254 0.029823
Si Si6 0.440096 0.973597 0.858613
Si Si7 0.460519 0.700382 0.374538
Si Si8 0.719416 0.310600 0.185072
O O1 0.683985 0.541932 0.207426
O O2 0.722157 0.400840 0.235977
O O3 0.656659 0.464199 0.774273
O O4 0.836828 0.487085 0.924761
O O5 0.999606 0.876950 0.241482
O O6 0.021823 0.017905 0.388636
O O7 0.673809 0.639365 0.590934
O O8 0.816798 0.646342 0.244649
O O9 0.636492 0.684457 0.085505
O O10 0.169068 0.716784 0.671352
O O11 0.007831 0.789683 0.675677
O O12 0.481332 0.773877 0.185218
O O13 0.429614 0.881937 0.841404
O O14 0.333073 0.744776 0.894690
O O15 0.476197 0.002930 0.569908
O O16 0.342500 0.698521 0.407356
#
# Coordination Sequence:
#
# PCOD8171284 Si02
#       8
#     4   4   4   4   4   4   4   4
#     4  10  24  45  73 102 146 190 241 307 362 437
#     4  11  25  43  68 106 143 186 243 295 369 444
#     4  10  22  45  64  97 132 184 226 286 351 423
#     4  11  23  41  67  93 134 178 231 282 354 420
#     4  10  24  44  72  96 149 181 240 296 363 416
#     4  11  28  50  76 110 147 201 254 303 366 448
#     4  11  24  40  69  96 139 184 231 296 357 428
#     4  10  24  44  65 106 138 184 236 297 364 430
#
# _framework density 26.691281
#
# number of rings (size 3 to 8) (size 9 to 14) (size 15 to 20)
#    0.000    1.500    1.250    1.500    8.750    4.000 
#    6.750    0.000    0.000    0.000    0.000    0.000 
#    0.000    0.000    0.000    0.000    0.000    0.000 
#
# Total GULP energy -396624.575704 kJ/mol
# GULP energy per Si atom -12394.517991 kJ/mol
# Density = 2.663053 g / cm^3
# Si number density = 26.691281 Si / 1000 Ang^3
#
#
#
# Elastic Constant Matrix: (Units=GPa)
#
#
# Indices 1 2 3 4 5 6 
#
# 1 92.2739 36.7477 -6.6017 0.0000 0.0000 0.0000
# 2 36.7477 161.7985 10.3057 0.0000 0.0000 0.0000
# 3 -6.6017 10.3057 53.0766 0.0000 0.0000 0.0000
# 4 0.0000 0.0000 0.0000 22.9130 0.0000 0.0000
# 5 0.0000 0.0000 0.0000 0.0000 30.9971 0.0000
# 6 0.0000 0.0000 0.0000 0.0000 0.0000 43.4456
#
#
#
# Elastic Compliance Matrix: (Units=1/GPa)
#
#
# Indices 1 2 3 4 5 6 
#
# 1 0.012136 -0.002888 0.002070 0.000000 0.000000 0.000000
# 2 -0.002888 0.006945 -0.001708 0.000000 0.000000 0.000000
# 3 0.002070 -0.001708 0.019430 0.000000 0.000000 0.000000
# 4 0.000000 0.000000 0.000000 0.043643 0.000000 0.000000
# 5 0.000000 0.000000 0.000000 0.000000 0.032261 0.000000
# 6 0.000000 0.000000 0.000000 0.000000 0.000000 0.023017
#
#
# Mechanical properties :
#
#
# Convention : Reuss Voigt Hill
#
# Bulk Modulus (GPa) = 29.88704 43.11693 36.50198
# Shear Modulus (GPa) = 32.54427 37.25094 34.89761
#
# Velocity S-wave (km/s) = 3.49561 3.73986 3.61980
# Velocity P-wave (km/s) = 5.24538 5.90235 5.58354
#
# Compressibility (1/GPa) = 0.03345932
#
# Stress axis : x y z
#
# Youngs Moduli (GPa) = 82.40223 143.98330 51.46738
#
# Poissons Ratio (x) = 0.41584 -0.10655
# Poissons Ratio (y) = 0.23799 0.08789
# Poissons Ratio (z) = -0.17059 0.24589
#
# Static dielectric constant tensor:
#      x y z
#    x 5.223070 0.000000 0.000000 
#    y 0.000000 5.253470 0.000000 
#    z 0.000000 0.000000 4.443710 
# 
# 
# High freq. dielectric constant tensor:
#      x y z
#    x 2.088180 0.000000 0.000000 
#    y 0.000000 2.081620 0.000000 
#    z 0.000000 0.000000 2.054350 
# 
# From -- ./inp_files/1503.got.cif
#   From: 2010.03.12/outbox.cif.g09.slc.cpg/sg33_1_cif.got.tgz:1503.got - 2010.04.14 01:49:19.
