data_PCOD8171148
_publ_section_title
;
Structure prediction by ZEFSAII (Michael W. Deem and Ramdas Pophale) SiO2 
 PCOD8171148
Probable space group: P N A 21
;
_chemical_formula_sum "Si O2"
_cell_formula_units_Z 28
_cell_length_a 23.621713
_cell_length_b 6.697880
_cell_length_c 8.232452
_cell_angle_alpha 90.000000
_cell_angle_beta 90.000000
_cell_angle_gamma 90.000000
_cell_volume 1302.500678
_symmetry_space_group_name_H-M "P N A 21"
_symmetry_group_IT_number 33
_symmetry_cell_setting 'orthorhombic'
loop_
_space_group_symop_operation_xyz
x,y,z
-x,-y,1/2+z
1/2-x,1/2+y,1/2+z
1/2+x,1/2-y,z
loop_
_atom_site_type_symbol
_atom_site_label
_atom_site_fract_x
_atom_site_fract_y
_atom_site_fract_z
Si Si1 0.701037 0.689314 0.065850
Si Si2 0.640407 0.008559 0.277816
Si Si3 0.590902 0.626367 0.876942
Si Si4 0.467971 0.058409 0.583368
Si Si5 0.880471 0.172883 0.004848
Si Si6 0.997314 0.204811 0.874195
Si Si7 0.206232 0.107573 0.344215
O O1 0.681701 0.881313 0.164571
O O2 0.728048 0.524454 0.189512
O O3 0.647622 0.583858 0.979175
O O4 0.743749 0.770004 0.930096
O O5 0.578278 0.029634 0.204840
O O6 0.636268 0.899230 0.453266
O O7 0.662015 0.231161 0.283225
O O8 0.606349 0.659384 0.692118
O O9 0.548709 0.443273 0.906462
O O10 0.560556 0.827964 0.933271
O O11 0.506036 0.209636 0.691644
O O12 0.503890 0.877320 0.511333
O O13 0.935191 0.103100 0.896065
O O14 0.826796 0.032282 0.970367
#
# Coordination Sequence:
#
# PCOD8171148 Si02
#       7
#     4   4   4   4   4   4   4
#     4  10  25  42  66  96 128 169 224 266 330 389
#     4   9  22  43  63  91 130 164 211 269 319 391
#     4  11  23  41  63  96 130 167 219 267 324 400
#     4  10  22  38  61  94 125 170 209 260 325 389
#     4  10  24  40  63  99 128 169 221 261 329 401
#     4  11  22  40  65  92 136 169 215 265 328 397
#     4  11  24  44  67  92 129 174 211 278 325 381
#
# _framework density 21.497108999999998
#
# number of rings (size 3 to 8) (size 9 to 14) (size 15 to 20)
#    0.000    1.714    0.000    3.429    4.000    8.000 
#    2.571    0.000    0.000    0.000    0.000    0.000 
#    0.000    0.000    0.000    0.000    0.000    0.000 
#
# Total GULP energy -347173.248131 kJ/mol
# GULP energy per Si atom -12399.044576 kJ/mol
# Density = 2.144818 g / cm^3
# Si number density = 21.497109 Si / 1000 Ang^3
#
#
#
# Elastic Constant Matrix: (Units=GPa)
#
#
# Indices 1 2 3 4 5 6 
#
# 1 82.9437 25.4818 13.8479 0.0000 0.0000 0.0000
# 2 25.4818 66.3462 23.9176 0.0000 0.0000 0.0000
# 3 13.8479 23.9176 97.6143 0.0000 0.0000 0.0000
# 4 0.0000 0.0000 0.0000 25.9989 0.0000 0.0000
# 5 0.0000 0.0000 0.0000 0.0000 27.0897 0.0000
# 6 0.0000 0.0000 0.0000 0.0000 0.0000 32.2495
#
#
#
# Elastic Compliance Matrix: (Units=1/GPa)
#
#
# Indices 1 2 3 4 5 6 
#
# 1 0.013715 -0.005009 -0.000718 0.000000 0.000000 0.000000
# 2 -0.005009 0.018362 -0.003789 0.000000 0.000000 0.000000
# 3 -0.000718 -0.003789 0.011275 0.000000 0.000000 0.000000
# 4 0.000000 0.000000 0.000000 0.038463 0.000000 0.000000
# 5 0.000000 0.000000 0.000000 0.000000 0.036914 0.000000
# 6 0.000000 0.000000 0.000000 0.000000 0.000000 0.031008
#
#
# Mechanical properties :
#
#
# Convention : Reuss Voigt Hill
#
# Bulk Modulus (GPa) = 41.11774 41.48875 41.30325
# Shear Modulus (GPa) = 28.26853 29.31143 28.78998
#
# Velocity S-wave (km/s) = 3.63022 3.69657 3.66355
# Velocity P-wave (km/s) = 6.06135 6.12871 6.09512
#
# Compressibility (1/GPa) = 0.02432040
#
# Stress axis : x y z
#
# Youngs Moduli (GPa) = 72.91262 54.46068 88.69502
#
# Poissons Ratio (x) = 0.27277 0.06372
# Poissons Ratio (y) = 0.36519 0.33602
# Poissons Ratio (z) = 0.05238 0.20633
#
# Static dielectric constant tensor:
#      x y z
#    x 3.892300 0.000000 0.000000 
#    y 0.000000 3.806120 0.000000 
#    z 0.000000 0.000000 3.986310 
# 
# 
# High freq. dielectric constant tensor:
#      x y z
#    x 1.842750 0.000000 0.000000 
#    y 0.000000 1.840360 0.000000 
#    z 0.000000 0.000000 1.854210 
# 
# From -- ./inp_files/5128.got.cif
#   From: 2010.03.12/outbox.cif.g09.slc.cpg/sg33_3_cif.got.tgz:5128.got - 2010.04.14 01:49:19.
