data_PCOD8171952
_publ_section_title
;
Structure prediction by ZEFSAII (Michael W. Deem and Ramdas Pophale) SiO2 
 PCOD8171952
Probable space group: P N N 2
;
_chemical_formula_sum "Si O2"
_cell_formula_units_Z 32
_cell_length_a 24.438039
_cell_length_b 13.089646
_cell_length_c 4.898303
_cell_angle_alpha 90.000000
_cell_angle_beta 90.000000
_cell_angle_gamma 90.000000
_cell_volume 1566.895024
_symmetry_space_group_name_H-M "P N N 2"
_symmetry_group_IT_number 34
_symmetry_cell_setting 'orthorhombic'
loop_
_space_group_symop_operation_xyz
x,y,z
-x,-y,z
1/2-x,1/2+y,1/2+z
1/2+x,1/2-y,1/2+z
loop_
_atom_site_type_symbol
_atom_site_label
_atom_site_fract_x
_atom_site_fract_y
_atom_site_fract_z
Si Si1 0.773183 0.584886 0.994230
Si Si2 0.773809 0.343574 0.979927
Si Si3 0.066471 0.793980 0.754053
Si Si4 0.933967 0.706562 0.234689
Si Si5 0.986013 0.116430 0.246660
Si Si6 0.681791 0.738103 0.970703
Si Si7 0.013398 0.383319 0.743139
Si Si8 0.682319 0.190712 0.004685
O O1 0.820571 0.627882 0.789911
O O2 0.769850 0.464140 0.988336
O O3 0.714314 0.632722 0.912029
O O4 0.785324 0.616494 0.302337
O O5 0.821709 0.300148 0.183130
O O6 0.715352 0.295266 0.066104
O O7 0.784825 0.312105 0.670319
O O8 0.028969 0.863568 0.559567
O O9 0.124940 0.787166 0.613353
O O10 0.041656 0.681206 0.801274
O O11 0.064729 0.850034 0.048820
O O12 0.970224 0.635777 0.431715
O O13 0.874909 0.720013 0.368443
O O14 0.959514 0.818249 0.183602
O O15 0.936270 0.649911 0.941633
O O16 0.000000 0.000000 0.195237
O O17 0.000000 0.500000 0.793848
#
# Coordination Sequence:
#
# PCOD8171952 Si02
#       8
#     4   4   4   4   4   4   4   4
#     4  10  21  37  56  82 113 144 184 231 277 331
#     4  10  21  37  56  81 113 146 186 234 282 335
#     4  10  21  37  56  82 112 144 186 229 276 335
#     4  10  21  37  56  81 111 143 184 228 274 331
#     4  10  21  38  58  82 112 145 184 232 279 330
#     4  10  21  37  57  82 113 148 187 233 282 337
#     4  10  21  36  55  81 113 146 183 228 274 328
#     4  10  21  37  56  81 111 144 184 229 276 331
#
# _framework density 20.422557000000001
#
# number of rings (size 3 to 8) (size 9 to 14) (size 15 to 20)
#    0.000    2.000    0.000    3.000    0.000    4.000 
#    0.000    3.750    0.000    0.000    0.000    0.000 
#    0.000    0.000    0.000    0.000    0.000    0.000 
#
# Total GULP energy -396730.250095 kJ/mol
# GULP energy per Si atom -12397.820315 kJ/mol
# Density = 2.037607 g / cm^3
# Si number density = 20.422557 Si / 1000 Ang^3
#
#
#
# Elastic Constant Matrix: (Units=GPa)
#
#
# Indices 1 2 3 4 5 6 
#
# 1 88.9277 42.3689 4.3940 0.0000 0.0000 0.0000
# 2 42.3689 157.4043 30.6376 0.0000 0.0000 0.0000
# 3 4.3940 30.6376 86.5575 0.0000 0.0000 0.0000
# 4 0.0000 0.0000 0.0000 23.4190 0.0000 0.0000
# 5 0.0000 0.0000 0.0000 0.0000 39.6154 0.0000
# 6 0.0000 0.0000 0.0000 0.0000 0.0000 12.7958
#
#
#
# Elastic Compliance Matrix: (Units=1/GPa)
#
#
# Indices 1 2 3 4 5 6 
#
# 1 0.012930 -0.003601 0.000618 0.000000 0.000000 0.000000
# 2 -0.003601 0.007826 -0.002587 0.000000 0.000000 0.000000
# 3 0.000618 -0.002587 0.012437 0.000000 0.000000 0.000000
# 4 0.000000 0.000000 0.000000 0.042700 0.000000 0.000000
# 5 0.000000 0.000000 0.000000 0.000000 0.025243 0.000000
# 6 0.000000 0.000000 0.000000 0.000000 0.000000 0.078151
#
#
# Mechanical properties :
#
#
# Convention : Reuss Voigt Hill
#
# Bulk Modulus (GPa) = 45.34394 54.18786 49.76590
# Shear Modulus (GPa) = 25.28086 32.19863 28.73974
#
# Velocity S-wave (km/s) = 3.52218 3.97498 3.75541
# Velocity P-wave (km/s) = 6.22833 6.90349 6.57458
#
# Compressibility (1/GPa) = 0.02205366
#
# Stress axis : x y z
#
# Youngs Moduli (GPa) = 77.33896 127.78126 80.40265
#
# Poissons Ratio (x) = 0.46011 -0.04970
# Poissons Ratio (y) = 0.27848 0.20802
# Poissons Ratio (z) = -0.04780 0.33060
#
# Static dielectric constant tensor:
#      x y z
#    x 3.482920 0.000000 0.000000 
#    y 0.000000 3.528960 0.000000 
#    z 0.000000 0.000000 4.099920 
# 
# 
# High freq. dielectric constant tensor:
#      x y z
#    x 1.779300 0.000000 0.000000 
#    y 0.000000 1.788900 0.000000 
#    z 0.000000 0.000000 1.824100 
# 
# From -- ./inp_files/1099.got.cif
#   From: 2010.03.12/outbox.cif.g09.slc.cpg/sg34_1_cif.got.tgz:1099.got - 2010.04.14 01:56:33.
