data_PCOD8171052
_publ_section_title
;
Structure prediction by ZEFSAII (Michael W. Deem and Ramdas Pophale) SiO2 
 PCOD8171052
Probable space group: P N A 21
;
_chemical_formula_sum "Si O2"
_cell_formula_units_Z 32
_cell_length_a 5.312820
_cell_length_b 20.243641
_cell_length_c 12.598823
_cell_angle_alpha 90.000000
_cell_angle_beta 90.000000
_cell_angle_gamma 90.000000
_cell_volume 1355.013754
_symmetry_space_group_name_H-M "P N A 21"
_symmetry_group_IT_number 33
_symmetry_cell_setting 'orthorhombic'
loop_
_space_group_symop_operation_xyz
x,y,z
-x,-y,1/2+z
1/2-x,1/2+y,1/2+z
1/2+x,1/2-y,z
loop_
_atom_site_type_symbol
_atom_site_label
_atom_site_fract_x
_atom_site_fract_y
_atom_site_fract_z
Si Si1 0.936150 0.915561 0.090870
Si Si2 0.453039 0.463402 0.808190
Si Si3 0.724077 0.582682 0.893740
Si Si4 0.606983 0.333881 0.908202
Si Si5 0.593269 0.016728 0.988137
Si Si6 0.822837 0.785130 0.181919
Si Si7 0.620725 0.209330 0.272619
Si Si8 0.590051 0.161120 0.036224
O O1 0.115233 0.938181 0.189636
O O2 0.759979 0.857510 0.136178
O O3 0.048470 0.883928 0.982933
O O4 0.797473 0.982728 0.062562
O O5 0.579805 0.536494 0.808176
O O6 0.633758 0.410523 0.870010
O O7 0.190270 0.466695 0.869660
O O8 0.881305 0.639362 0.834804
O O9 0.870937 0.534449 0.973582
O O10 0.639497 0.285624 0.808506
O O11 0.336871 0.325023 0.965241
O O12 0.834391 0.310368 0.984391
O O13 0.527416 0.083540 0.050350
O O14 0.594119 0.740159 0.139958
O O15 0.367333 0.248319 0.304336
O O16 0.630106 0.195352 0.148360
#
# Coordination Sequence:
#
# PCOD8171052 Si02
#       8
#     4   4   4   4   4   4   4   4
#     4  10  24  41  67  96 132 178 227 284 353 413
#     4   9  20  41  65 103 135 165 222 299 363 412
#     4  11  24  45  69  97 133 183 229 293 348 418
#     4  10  21  40  69 102 137 166 226 295 356 410
#     4  10  22  41  69 105 130 176 226 297 362 401
#     4  11  25  42  63  97 135 183 231 281 338 408
#     4  12  30  48  68 100 143 194 238 277 339 430
#     4  11  22  44  72 102 135 177 231 288 351 412
#
# _framework density 23.615994000000001
#
# number of rings (size 3 to 8) (size 9 to 14) (size 15 to 20)
#    0.000    1.500    1.250    2.250    5.250    6.000 
#    0.000    0.000    0.000    0.000    0.000    0.000 
#    0.000    0.000    0.000    0.000    0.000    0.000 
#
# Total GULP energy -396566.673556 kJ/mol
# GULP energy per Si atom -12392.708549 kJ/mol
# Density = 2.356224 g / cm^3
# Si number density = 23.615994 Si / 1000 Ang^3
#
#
#
# Elastic Constant Matrix: (Units=GPa)
#
#
# Indices 1 2 3 4 5 6 
#
# 1 107.5065 10.9336 7.1512 0.0000 0.0000 0.0000
# 2 10.9336 95.2847 20.2762 0.0000 0.0000 0.0000
# 3 7.1512 20.2762 84.4485 0.0000 0.0000 0.0000
# 4 0.0000 0.0000 0.0000 44.9584 0.0000 0.0000
# 5 0.0000 0.0000 0.0000 0.0000 12.1269 0.0000
# 6 0.0000 0.0000 0.0000 0.0000 0.0000 143.9710
#
#
#
# Elastic Compliance Matrix: (Units=1/GPa)
#
#
# Indices 1 2 3 4 5 6 
#
# 1 0.009437 -0.000962 -0.000568 0.000000 0.000000 0.000000
# 2 -0.000962 0.011158 -0.002598 0.000000 0.000000 0.000000
# 3 -0.000568 -0.002598 0.012513 0.000000 0.000000 0.000000
# 4 0.000000 0.000000 0.000000 0.022243 0.000000 0.000000
# 5 0.000000 0.000000 0.000000 0.000000 0.082461 0.000000
# 6 0.000000 0.000000 0.000000 0.000000 0.000000 0.006946
#
#
# Mechanical properties :
#
#
# Convention : Reuss Voigt Hill
#
# Bulk Modulus (GPa) = 40.23631 40.44020 40.33826
# Shear Modulus (GPa) = 30.99845 56.80319 43.90082
#
# Velocity S-wave (km/s) = 3.62692 4.90969 4.31623
# Velocity P-wave (km/s) = 5.88338 7.02149 6.47748
#
# Compressibility (1/GPa) = 0.02485317
#
# Stress axis : x y z
#
# Youngs Moduli (GPa) = 105.96144 89.62177 79.91478
#
# Poissons Ratio (x) = 0.08622 0.04541
# Poissons Ratio (y) = 0.10194 0.20759
# Poissons Ratio (z) = 0.06021 0.23280
#
# Static dielectric constant tensor:
#      x y z
#    x 4.102630 0.000000 0.000000 
#    y 0.000000 4.086140 0.000000 
#    z 0.000000 0.000000 4.170590 
# 
# 
# High freq. dielectric constant tensor:
#      x y z
#    x 1.918910 0.000000 0.000000 
#    y 0.000000 1.952550 0.000000 
#    z 0.000000 0.000000 1.930550 
# 
# From -- ./inp_files/5551.got.cif
#   From: 2010.03.12/outbox.cif.g09.slc.cpg/sg33_3_cif.got.tgz:5551.got - 2010.04.14 01:49:19.
