data_PCOD8171910
_publ_section_title
;
Structure prediction by ZEFSAII (Michael W. Deem and Ramdas Pophale) SiO2 
 PCOD8171910
Probable space group: P N N 2
;
_chemical_formula_sum "Si O2"
_cell_formula_units_Z 32
_cell_length_a 27.943926
_cell_length_b 6.563146
_cell_length_c 8.287061
_cell_angle_alpha 90.000000
_cell_angle_beta 90.000000
_cell_angle_gamma 90.000000
_cell_volume 1519.847536
_symmetry_space_group_name_H-M "P N N 2"
_symmetry_group_IT_number 34
_symmetry_cell_setting 'orthorhombic'
loop_
_space_group_symop_operation_xyz
x,y,z
-x,-y,z
1/2-x,1/2+y,1/2+z
1/2+x,1/2-y,1/2+z
loop_
_atom_site_type_symbol
_atom_site_label
_atom_site_fract_x
_atom_site_fract_y
_atom_site_fract_z
Si Si1 0.546595 0.873170 0.403610
Si Si2 0.155419 0.958493 0.172523
Si Si3 0.638210 0.208171 0.917486
Si Si4 0.618592 0.141746 0.280945
Si Si5 0.288699 0.075020 0.753657
Si Si6 0.211245 0.275594 0.979087
Si Si7 0.562457 0.442578 0.489355
Si Si8 0.952103 0.595147 0.220465
O O1 0.531951 0.632394 0.413705
O O2 0.500000 0.000000 0.350268
O O3 0.590933 0.921763 0.280609
O O4 0.564875 0.943015 0.580031
O O5 0.170770 0.728289 0.195090
O O6 0.143417 0.066070 0.343756
O O7 0.198093 0.080285 0.085237
O O8 0.109654 0.951668 0.059270
O O9 0.589558 0.106262 0.851278
O O10 0.685348 0.079717 0.874690
O O11 0.635503 0.218631 0.108406
O O12 0.664211 0.129590 0.397269
O O13 0.578134 0.295858 0.344863
O O14 0.267477 0.950580 0.599118
O O15 0.248317 0.205870 0.843311
O O16 0.536477 0.314120 0.633164
O O17 0.000000 0.500000 0.302235
#
# Coordination Sequence:
#
# PCOD8171910 Si02
#       8
#     4   4   4   4   4   4   4   4
#     4  10  20  36  62  89 116 157 205 249 300 363
#     4   9  20  39  61  84 118 157 198 247 296 359
#     4  10  22  39  58  91 123 157 203 253 305 369
#     4  10  22  38  57  87 124 156 199 254 301 365
#     4  11  23  40  63  86 121 161 203 254 307 364
#     4  10  24  39  59  89 118 158 205 251 302 374
#     4   9  18  38  60  85 114 155 199 241 300 356
#     4   9  19  35  61  87 116 154 200 251 300 363
#
# _framework density 21.054742999999998
#
# number of rings (size 3 to 8) (size 9 to 14) (size 15 to 20)
#    0.000    2.250    0.000    3.750    3.500    7.000 
#    2.250    0.000    0.000    7.500    0.000    0.000 
#    0.000    0.000    0.000    0.000    0.000    0.000 
#
# Total GULP energy -396635.826905 kJ/mol
# GULP energy per Si atom -12394.869591 kJ/mol
# Density = 2.100682 g / cm^3
# Si number density = 21.054743 Si / 1000 Ang^3
#
#
#
# Elastic Constant Matrix: (Units=GPa)
#
#
# Indices 1 2 3 4 5 6 
#
# 1 80.2593 28.8863 17.5849 0.0000 0.0000 0.0000
# 2 28.8863 101.4926 17.4573 0.0000 0.0000 0.0000
# 3 17.5849 17.4573 89.4701 0.0000 0.0000 0.0000
# 4 0.0000 0.0000 0.0000 21.2634 0.0000 0.0000
# 5 0.0000 0.0000 0.0000 0.0000 26.1532 0.0000
# 6 0.0000 0.0000 0.0000 0.0000 0.0000 31.7334
#
#
#
# Elastic Compliance Matrix: (Units=1/GPa)
#
#
# Indices 1 2 3 4 5 6 
#
# 1 0.014246 -0.003697 -0.002079 0.000000 0.000000 0.000000
# 2 -0.003697 0.011155 -0.001450 0.000000 0.000000 0.000000
# 3 -0.002079 -0.001450 0.011868 0.000000 0.000000 0.000000
# 4 0.000000 0.000000 0.000000 0.047029 0.000000 0.000000
# 5 0.000000 0.000000 0.000000 0.000000 0.038236 0.000000
# 6 0.000000 0.000000 0.000000 0.000000 0.000000 0.031513
#
#
# Mechanical properties :
#
#
# Convention : Reuss Voigt Hill
#
# Bulk Modulus (GPa) = 43.82553 44.34208 44.08381
# Shear Modulus (GPa) = 28.39245 29.64956 29.02100
#
# Velocity S-wave (km/s) = 3.67619 3.75669 3.71665
# Velocity P-wave (km/s) = 6.23533 6.31847 6.27704
#
# Compressibility (1/GPa) = 0.02281775
#
# Stress axis : x y z
#
# Youngs Moduli (GPa) = 70.19698 89.64960 84.25779
#
# Poissons Ratio (x) = 0.33143 0.17513
# Poissons Ratio (y) = 0.25952 0.12216
# Poissons Ratio (z) = 0.14591 0.12998
#
# Static dielectric constant tensor:
#      x y z
#    x 3.801400 0.000000 0.000000 
#    y 0.000000 3.949300 0.000000 
#    z 0.000000 0.000000 3.557400 
# 
# 
# High freq. dielectric constant tensor:
#      x y z
#    x 1.833560 0.000000 0.000000 
#    y 0.000000 1.829770 0.000000 
#    z 0.000000 0.000000 1.794500 
# 
# From -- ./inp_files/4158.got.cif
#   From: 2010.03.12/outbox.cif.g09.slc.cpg/sg34_3_cif.got.tgz:4158.got - 2010.04.14 01:56:33.
