data_PCOD8171425
_publ_section_title
;
Structure prediction by ZEFSAII (Michael W. Deem and Ramdas Pophale) SiO2 
 PCOD8171425
Probable space group: P N A 21
;
_chemical_formula_sum "Si O2"
_cell_formula_units_Z 28
_cell_length_a 9.062612
_cell_length_b 5.176251
_cell_length_c 26.622424
_cell_angle_alpha 90.000000
_cell_angle_beta 90.000000
_cell_angle_gamma 90.000000
_cell_volume 1248.867346
_symmetry_space_group_name_H-M "P N A 21"
_symmetry_group_IT_number 33
_symmetry_cell_setting 'orthorhombic'
loop_
_space_group_symop_operation_xyz
x,y,z
-x,-y,1/2+z
1/2-x,1/2+y,1/2+z
1/2+x,1/2-y,z
loop_
_atom_site_type_symbol
_atom_site_label
_atom_site_fract_x
_atom_site_fract_y
_atom_site_fract_z
Si Si1 0.976029 0.985875 0.748180
Si Si2 0.356950 0.991541 0.211739
Si Si3 0.540023 0.573992 0.444037
Si Si4 0.678478 0.118788 0.891905
Si Si5 0.395696 0.381588 0.353093
Si Si6 0.187089 0.492167 0.595435
Si Si7 0.480810 0.498602 0.058944
O O1 0.056999 0.761935 0.716707
O O2 0.994637 0.922416 0.806855
O O3 0.047821 0.261847 0.735814
O O4 0.802720 0.987976 0.737227
O O5 0.338747 0.932282 0.153396
O O6 0.478139 0.841300 0.419810
O O7 0.715325 0.584872 0.439741
O O8 0.484135 0.349286 0.406148
O O9 0.485882 0.533190 0.500216
O O10 0.716259 0.374907 0.858193
O O11 0.688061 0.891365 0.850360
O O12 0.362580 0.493297 0.586761
O O13 0.108240 0.264649 0.564765
O O14 0.118339 0.765507 0.579645
#
# Coordination Sequence:
#
# PCOD8171425 Si02
#       7
#     4   4   4   4   4   4   4
#     4  12  27  44  76 102 139 184 235 282 359 412
#     4  12  26  48  69 102 136 181 234 297 346 412
#     4  10  26  41  70  96 143 170 229 266 339 404
#     4  10  24  40  65  93 141 173 216 270 327 390
#     4  10  26  40  69  97 142 171 227 268 337 406
#     4  12  26  47  71 100 138 179 236 295 349 408
#     4  12  27  44  76 102 139 184 235 282 359 412
#
# _framework density 22.420314999999999
#
# number of rings (size 3 to 8) (size 9 to 14) (size 15 to 20)
#    0.857    0.000    0.000    6.000   10.000    0.000 
#    0.000    0.000    0.000    0.000    0.000    0.000 
#    0.000    0.000    0.000    0.000    0.000    0.000 
#
# Total GULP energy -346979.474844 kJ/mol
# GULP energy per Si atom -12392.124102 kJ/mol
# Density = 2.236929 g / cm^3
# Si number density = 22.420315 Si / 1000 Ang^3
#
#
#
# Elastic Constant Matrix: (Units=GPa)
#
#
# Indices 1 2 3 4 5 6 
#
# 1 99.1932 33.6716 -15.7824 0.0000 0.0000 0.0000
# 2 33.6716 146.9786 9.6422 0.0000 0.0000 0.0000
# 3 -15.7824 9.6422 86.6561 0.0000 0.0000 0.0000
# 4 0.0000 0.0000 0.0000 25.6615 0.0000 0.0000
# 5 0.0000 0.0000 0.0000 0.0000 33.6302 0.0000
# 6 0.0000 0.0000 0.0000 0.0000 0.0000 27.5382
#
#
#
# Elastic Compliance Matrix: (Units=1/GPa)
#
#
# Indices 1 2 3 4 5 6 
#
# 1 0.011400 -0.002768 0.002384 0.000000 0.000000 0.000000
# 2 -0.002768 0.007526 -0.001342 0.000000 0.000000 0.000000
# 3 0.002384 -0.001342 0.012123 0.000000 0.000000 0.000000
# 4 0.000000 0.000000 0.000000 0.038969 0.000000 0.000000
# 5 0.000000 0.000000 0.000000 0.000000 0.029735 0.000000
# 6 0.000000 0.000000 0.000000 0.000000 0.000000 0.036313
#
#
# Mechanical properties :
#
#
# Convention : Reuss Voigt Hill
#
# Bulk Modulus (GPa) = 36.23337 43.09896 39.66617
# Shear Modulus (GPa) = 33.62087 37.71910 35.66998
#
# Velocity S-wave (km/s) = 3.87663 4.10611 3.99302
# Velocity P-wave (km/s) = 6.01945 6.46105 6.24415
#
# Compressibility (1/GPa) = 0.02759887
#
# Stress axis : x y z
#
# Youngs Moduli (GPa) = 87.71651 132.87475 82.48521
#
# Poissons Ratio (x) = 0.36782 -0.19667
# Poissons Ratio (y) = 0.24281 0.11066
# Poissons Ratio (z) = -0.20914 0.17826
#
# Static dielectric constant tensor:
#      x y z
#    x 3.942020 0.000000 0.000000 
#    y 0.000000 4.270220 0.000000 
#    z 0.000000 0.000000 4.025430 
# 
# 
# High freq. dielectric constant tensor:
#      x y z
#    x 1.884460 0.000000 0.000000 
#    y 0.000000 1.898070 0.000000 
#    z 0.000000 0.000000 1.891410 
# 
# From -- ./inp_files/9340.got.cif
#   From: 2010.03.12/outbox.cif.g09.slc.cpg/sg33_5_cif.got.tgz:9340.got - 2010.04.14 01:49:19.
