data_PCOD8171180
_publ_section_title
;
Structure prediction by ZEFSAII (Michael W. Deem and Ramdas Pophale) SiO2 
 PCOD8171180
Probable space group: P N A 21
;
_chemical_formula_sum "Si O2"
_cell_formula_units_Z 28
_cell_length_a 13.227366
_cell_length_b 8.649137
_cell_length_c 11.023176
_cell_angle_alpha 90.000000
_cell_angle_beta 90.000000
_cell_angle_gamma 90.000000
_cell_volume 1261.109765
_symmetry_space_group_name_H-M "P N A 21"
_symmetry_group_IT_number 33
_symmetry_cell_setting 'orthorhombic'
loop_
_space_group_symop_operation_xyz
x,y,z
-x,-y,1/2+z
1/2-x,1/2+y,1/2+z
1/2+x,1/2-y,z
loop_
_atom_site_type_symbol
_atom_site_label
_atom_site_fract_x
_atom_site_fract_y
_atom_site_fract_z
Si Si1 0.992488 0.107818 0.285570
Si Si2 0.791420 0.640883 0.199928
Si Si3 0.308216 0.792215 0.813528
Si Si4 0.354317 0.319689 0.490717
Si Si5 0.152470 0.647909 0.362396
Si Si6 0.001733 0.773603 0.189831
Si Si7 0.157479 0.684307 0.647114
O O1 0.090225 0.197922 0.335756
O O2 0.919808 0.068699 0.401165
O O3 0.938743 0.218724 0.189816
O O4 0.025091 0.953097 0.217255
O O5 0.729518 0.723235 0.307752
O O6 0.883192 0.754785 0.164300
O O7 0.842797 0.475600 0.225676
O O8 0.718253 0.595886 0.087412
O O9 0.221998 0.721605 0.905216
O O10 0.263849 0.769671 0.677708
O O11 0.314041 0.974737 0.834497
O O12 0.434702 0.220135 0.570071
O O13 0.145251 0.667249 0.504744
O O14 0.041628 0.673463 0.303697
#
# Coordination Sequence:
#
# PCOD8171180 Si02
#       7
#     4   4   4   4   4   4   4
#     4  11  25  43  70 103 135 181 231 279 346 408
#     4  11  22  46  69  96 145 176 226 285 340 405
#     4  11  22  46  69  96 145 176 226 285 340 405
#     4  10  22  40  66 100 130 178 224 270 340 402
#     4  11  25  44  70 104 137 180 228 283 344 407
#     4  11  25  43  70 103 135 181 231 279 346 408
#     4  11  25  44  70 104 137 180 228 283 344 407
#
# _framework density 22.202667999999999
#
# number of rings (size 3 to 8) (size 9 to 14) (size 15 to 20)
#    0.000    1.143    1.429    5.143    2.000    1.143 
#   20.571    0.000    0.000    0.000    0.000    0.000 
#    0.000    0.000    0.000    0.000    0.000    0.000 
#
# Total GULP energy -346916.113043 kJ/mol
# GULP energy per Si atom -12389.861180 kJ/mol
# Density = 2.215213 g / cm^3
# Si number density = 22.202668 Si / 1000 Ang^3
#
#
#
# Elastic Constant Matrix: (Units=GPa)
#
#
# Indices 1 2 3 4 5 6 
#
# 1 138.8727 34.9016 50.6933 0.0000 0.0000 0.0000
# 2 34.9016 98.8414 58.9787 0.0000 0.0000 0.0000
# 3 50.6933 58.9787 105.4386 0.0000 0.0000 0.0000
# 4 0.0000 0.0000 0.0000 16.7318 0.0000 0.0000
# 5 0.0000 0.0000 0.0000 0.0000 30.8162 0.0000
# 6 0.0000 0.0000 0.0000 0.0000 0.0000 34.3529
#
#
#
# Elastic Compliance Matrix: (Units=1/GPa)
#
#
# Indices 1 2 3 4 5 6 
#
# 1 0.008784 -0.000873 -0.003735 0.000000 0.000000 0.000000
# 2 -0.000873 0.015273 -0.008123 0.000000 0.000000 0.000000
# 3 -0.003735 -0.008123 0.015824 0.000000 0.000000 0.000000
# 4 0.000000 0.000000 0.000000 0.059766 0.000000 0.000000
# 5 0.000000 0.000000 0.000000 0.000000 0.032450 0.000000
# 6 0.000000 0.000000 0.000000 0.000000 0.000000 0.029110
#
#
# Mechanical properties :
#
#
# Convention : Reuss Voigt Hill
#
# Bulk Modulus (GPa) = 69.35814 70.25554 69.80684
# Shear Modulus (GPa) = 26.11319 29.61879 27.86599
#
# Velocity S-wave (km/s) = 3.43319 3.65639 3.54655
# Velocity P-wave (km/s) = 6.85728 7.03826 6.94836
#
# Compressibility (1/GPa) = 0.01441792
#
# Stress axis : x y z
#
# Youngs Moduli (GPa) = 113.84947 65.47659 63.19676
#
# Poissons Ratio (x) = 0.05717 0.23602
# Poissons Ratio (y) = 0.09940 0.51336
# Poissons Ratio (z) = 0.42518 0.53188
#
# Static dielectric constant tensor:
#      x y z
#    x 4.353000 0.000000 0.000000 
#    y 0.000000 3.803600 0.000000 
#    z 0.000000 0.000000 4.175010 
# 
# 
# High freq. dielectric constant tensor:
#      x y z
#    x 1.897290 0.000000 0.000000 
#    y 0.000000 1.851620 0.000000 
#    z 0.000000 0.000000 1.877500 
# 
# From -- ./inp_files/6731.got.cif
#   From: 2010.03.12/outbox.cif.g09.slc.cpg/sg33_4_cif.got.tgz:6731.got - 2010.04.14 01:49:19.
