data_PCOD8171714
_publ_section_title
;
Structure prediction by ZEFSAII (Michael W. Deem and Ramdas Pophale) SiO2 
 PCOD8171714
Probable space group: P N A 21
;
_chemical_formula_sum "Si O2"
_cell_formula_units_Z 28
_cell_length_a 7.627183
_cell_length_b 12.259798
_cell_length_c 12.981633
_cell_angle_alpha 90.000000
_cell_angle_beta 90.000000
_cell_angle_gamma 90.000000
_cell_volume 1213.882941
_symmetry_space_group_name_H-M "P N A 21"
_symmetry_group_IT_number 33
_symmetry_cell_setting 'orthorhombic'
loop_
_space_group_symop_operation_xyz
x,y,z
-x,-y,1/2+z
1/2-x,1/2+y,1/2+z
1/2+x,1/2-y,z
loop_
_atom_site_type_symbol
_atom_site_label
_atom_site_fract_x
_atom_site_fract_y
_atom_site_fract_z
Si Si1 0.886108 0.609142 0.296510
Si Si2 0.201193 0.717349 0.404851
Si Si3 0.906993 0.381402 0.370713
Si Si4 0.025333 0.462917 0.576335
Si Si5 0.804024 0.110813 0.080880
Si Si6 0.787789 0.153371 0.309190
Si Si7 0.615742 0.482851 0.971294
O O1 0.733266 0.698956 0.309498
O O2 0.961788 0.605096 0.181950
O O3 0.032880 0.643689 0.380187
O O4 0.809608 0.493008 0.336119
O O5 0.185960 0.780017 0.513203
O O6 0.365180 0.633337 0.412568
O O7 0.952396 0.378357 0.491721
O O8 0.086626 0.383482 0.305621
O O9 0.787322 0.279173 0.343688
O O10 0.217845 0.505978 0.547298
O O11 0.892642 0.564158 0.585036
O O12 0.868580 0.141014 0.195662
O O13 0.936964 0.018673 0.037176
O O14 0.898724 0.081245 0.389787
#
# Coordination Sequence:
#
# PCOD8171714 Si02
#       7
#     4   4   4   4   4   4   4
#     4  12  25  46  74 105 150 185 239 306 365 423
#     4  12  23  45  72 108 143 184 241 309 351 436
#     4  11  25  45  69 102 148 183 242 298 348 436
#     4  11  25  50  71 103 149 190 229 308 361 418
#     4  12  25  43  81 102 140 193 243 290 369 429
#     4  11  27  46  68 105 144 190 234 300 357 424
#     4  11  26  47  69 107 144 183 254 289 351 446
#
# _framework density 23.066472999999998
#
# number of rings (size 3 to 8) (size 9 to 14) (size 15 to 20)
#    0.000    0.571    7.143    0.000    6.000    3.429 
#    5.143    0.000    0.000    0.000    0.000    0.000 
#    0.000    0.000    0.000    0.000    0.000    0.000 
#
# Total GULP energy -347310.595226 kJ/mol
# GULP energy per Si atom -12403.949829 kJ/mol
# Density = 2.301397 g / cm^3
# Si number density = 23.066473 Si / 1000 Ang^3
#
#
#
# Elastic Constant Matrix: (Units=GPa)
#
#
# Indices 1 2 3 4 5 6 
#
# 1 42.0463 21.0516 24.8694 0.0000 0.0000 0.0000
# 2 21.0516 143.8375 56.0974 0.0000 0.0000 0.0000
# 3 24.8694 56.0974 151.8433 0.0000 0.0000 0.0000
# 4 0.0000 0.0000 0.0000 37.4206 0.0000 0.0000
# 5 0.0000 0.0000 0.0000 0.0000 28.1805 0.0000
# 6 0.0000 0.0000 0.0000 0.0000 0.0000 26.8846
#
#
#
# Elastic Compliance Matrix: (Units=1/GPa)
#
#
# Indices 1 2 3 4 5 6 
#
# 1 0.027152 -0.002617 -0.003480 0.000000 0.000000 0.000000
# 2 -0.002617 0.008375 -0.002665 0.000000 0.000000 0.000000
# 3 -0.003480 -0.002665 0.008140 0.000000 0.000000 0.000000
# 4 0.000000 0.000000 0.000000 0.026723 0.000000 0.000000
# 5 0.000000 0.000000 0.000000 0.000000 0.035486 0.000000
# 6 0.000000 0.000000 0.000000 0.000000 0.000000 0.037196
#
#
# Mechanical properties :
#
#
# Convention : Reuss Voigt Hill
#
# Bulk Modulus (GPa) = 38.25190 60.19600 49.22395
# Shear Modulus (GPa) = 29.53147 34.21104 31.87126
#
# Velocity S-wave (km/s) = 3.58198 3.85535 3.72117
# Velocity P-wave (km/s) = 5.80747 6.78024 6.31262
#
# Compressibility (1/GPa) = 0.02614249
#
# Stress axis : x y z
#
# Youngs Moduli (GPa) = 36.82983 119.40619 122.84260
#
# Poissons Ratio (x) = 0.31243 0.42754
# Poissons Ratio (y) = 0.09637 0.32743
# Poissons Ratio (z) = 0.12818 0.31827
#
# Static dielectric constant tensor:
#      x y z
#    x 4.014540 0.000000 0.000000 
#    y 0.000000 4.184770 0.000000 
#    z 0.000000 0.000000 4.216330 
# 
# 
# High freq. dielectric constant tensor:
#      x y z
#    x 1.905570 0.000000 0.000000 
#    y 0.000000 1.913740 0.000000 
#    z 0.000000 0.000000 1.913860 
# 
# From -- ./inp_files/5874.got.cif
#   From: 2010.03.12/outbox.cif.g09.slc.cpg/sg33_3_cif.got.tgz:5874.got - 2010.04.14 01:49:19.
