data_PCOD8171700
_publ_section_title
;
Structure prediction by ZEFSAII (Michael W. Deem and Ramdas Pophale) SiO2 
 PCOD8171700
Probable space group: P N A 21
;
_chemical_formula_sum "Si O2"
_cell_formula_units_Z 32
_cell_length_a 9.288410
_cell_length_b 11.289407
_cell_length_c 13.557229
_cell_angle_alpha 90.000000
_cell_angle_beta 90.000000
_cell_angle_gamma 90.000000
_cell_volume 1421.619721
_symmetry_space_group_name_H-M "P N A 21"
_symmetry_group_IT_number 33
_symmetry_cell_setting 'orthorhombic'
loop_
_space_group_symop_operation_xyz
x,y,z
-x,-y,1/2+z
1/2-x,1/2+y,1/2+z
1/2+x,1/2-y,z
loop_
_atom_site_type_symbol
_atom_site_label
_atom_site_fract_x
_atom_site_fract_y
_atom_site_fract_z
Si Si1 0.768451 0.296336 0.821630
Si Si2 0.396178 0.324027 0.510177
Si Si3 0.413639 0.168833 0.317007
Si Si4 0.182124 0.165914 0.611066
Si Si5 0.583544 0.404422 0.995750
Si Si6 0.263428 0.413123 0.040012
Si Si7 0.077124 0.396808 0.861805
Si Si8 0.660802 0.267648 0.187598
O O1 0.722067 0.364630 0.723255
O O2 0.715735 0.159396 0.803461
O O3 0.936502 0.316307 0.841809
O O4 0.674020 0.334572 0.915265
O O5 0.436350 0.242498 0.416922
O O6 0.252279 0.282083 0.563657
O O7 0.513134 0.314586 0.597429
O O8 0.379203 0.458667 0.475634
O O9 0.511943 0.220587 0.230692
O O10 0.250074 0.178196 0.278917
O O11 0.453237 0.031388 0.332000
O O12 0.235282 0.053517 0.550220
O O13 0.412720 0.376504 0.985079
O O14 0.633972 0.368333 0.105588
O O15 0.248712 0.343051 0.142136
O O16 0.120136 0.385933 0.976904
#
# Coordination Sequence:
#
# PCOD8171700 Si02
#       8
#     4   4   4   4   4   4   4   4
#     4  12  27  47  73 107 142 192 242 305 367 443
#     4  11  26  46  71 105 148 192 242 306 360 439
#     4  12  28  48  76 110 146 200 245 304 369 444
#     4  11  25  47  71 101 146 186 248 296 365 431
#     4  11  27  45  72 105 149 195 241 306 363 434
#     4  11  24  49  69 105 147 189 240 309 357 439
#     4  12  27  48  76 105 150 192 246 305 370 437
#     4  12  26  48  74 106 150 192 250 297 369 439
#
# _framework density 22.509536000000001
#
# number of rings (size 3 to 8) (size 9 to 14) (size 15 to 20)
#    0.000    0.500    3.750    3.000   10.500    0.000 
#    0.000    0.000    0.000    0.000    0.000    0.000 
#    0.000    0.000    0.000    0.000    0.000    0.000 
#
# Total GULP energy -396782.566435 kJ/mol
# GULP energy per Si atom -12399.455201 kJ/mol
# Density = 2.245830 g / cm^3
# Si number density = 22.509536 Si / 1000 Ang^3
#
#
#
# Elastic Constant Matrix: (Units=GPa)
#
#
# Indices 1 2 3 4 5 6 
#
# 1 90.2113 34.3624 30.7389 0.0000 0.0000 0.0000
# 2 34.3624 116.2637 19.2764 0.0000 0.0000 0.0000
# 3 30.7389 19.2764 93.4292 0.0000 0.0000 0.0000
# 4 0.0000 0.0000 0.0000 28.2897 0.0000 0.0000
# 5 0.0000 0.0000 0.0000 0.0000 38.2199 0.0000
# 6 0.0000 0.0000 0.0000 0.0000 0.0000 31.8588
#
#
#
# Elastic Compliance Matrix: (Units=1/GPa)
#
#
# Indices 1 2 3 4 5 6 
#
# 1 0.013679 -0.003413 -0.003796 0.000000 0.000000 0.000000
# 2 -0.003413 0.009758 -0.000890 0.000000 0.000000 0.000000
# 3 -0.003796 -0.000890 0.012136 0.000000 0.000000 0.000000
# 4 0.000000 0.000000 0.000000 0.035348 0.000000 0.000000
# 5 0.000000 0.000000 0.000000 0.000000 0.026164 0.000000
# 6 0.000000 0.000000 0.000000 0.000000 0.000000 0.031389
#
#
# Mechanical properties :
#
#
# Convention : Reuss Voigt Hill
#
# Bulk Modulus (GPa) = 51.61877 52.07328 51.84603
# Shear Modulus (GPa) = 33.08391 34.04212 33.56301
#
# Velocity S-wave (km/s) = 3.83792 3.89310 3.86561
# Velocity P-wave (km/s) = 6.52850 6.58729 6.55796
#
# Compressibility (1/GPa) = 0.01937280
#
# Stress axis : x y z
#
# Youngs Moduli (GPa) = 73.10568 102.48432 82.40012
#
# Poissons Ratio (x) = 0.34983 0.31280
# Poissons Ratio (y) = 0.24954 0.07335
# Poissons Ratio (z) = 0.27752 0.09123
#
# Static dielectric constant tensor:
#      x y z
#    x 4.083120 0.000000 0.000000 
#    y 0.000000 4.354620 0.000000 
#    z 0.000000 0.000000 4.012690 
# 
# 
# High freq. dielectric constant tensor:
#      x y z
#    x 1.893370 0.000000 0.000000 
#    y 0.000000 1.898850 0.000000 
#    z 0.000000 0.000000 1.890170 
# 
# From -- ./inp_files/7677.got.cif
#   From: 2010.03.12/outbox.cif.g09.slc.cpg/sg33_4_cif.got.tgz:7677.got - 2010.04.14 01:49:19.
