data_PCOD8171541
_publ_section_title
;
Structure prediction by ZEFSAII (Michael W. Deem and Ramdas Pophale) SiO2 
 PCOD8171541
Probable space group: P N A 21
;
_chemical_formula_sum "Si O2"
_cell_formula_units_Z 24
_cell_length_a 8.092034
_cell_length_b 25.930419
_cell_length_c 5.144612
_cell_angle_alpha 90.000000
_cell_angle_beta 90.000000
_cell_angle_gamma 90.000000
_cell_volume 1079.493073
_symmetry_space_group_name_H-M "P N A 21"
_symmetry_group_IT_number 33
_symmetry_cell_setting 'orthorhombic'
loop_
_space_group_symop_operation_xyz
x,y,z
-x,-y,1/2+z
1/2-x,1/2+y,1/2+z
1/2+x,1/2-y,z
loop_
_atom_site_type_symbol
_atom_site_label
_atom_site_fract_x
_atom_site_fract_y
_atom_site_fract_z
Si Si1 0.813406 0.125170 0.908070
Si Si2 0.664127 0.955225 0.443548
Si Si3 0.563296 0.842712 0.465286
Si Si4 0.436370 0.321500 0.407308
Si Si5 0.283874 0.987432 0.444016
Si Si6 0.689034 0.789155 0.966217
O O1 0.881008 0.137714 0.623317
O O2 0.827931 0.063663 0.943660
O O3 0.626629 0.143793 0.931614
O O4 0.924237 0.152737 0.124872
O O5 0.677467 0.893410 0.436966
O O6 0.474447 0.971673 0.444015
O O7 0.756749 0.977319 0.695684
O O8 0.758308 0.978434 0.195426
O O9 0.583408 0.819206 0.750890
O O10 0.616615 0.801420 0.250016
O O11 0.318370 0.271849 0.421422
O O12 0.622223 0.304791 0.453292
#
# Coordination Sequence:
#
# PCOD8171541 Si02
#       6
#     4   4   4   4   4   4
#     4  11  22  39  64  92 121 156 201 248 295 348
#     4   9  17  31  55  87 118 150 193 242 286 337
#     4  11  22  39  64  92 121 156 201 248 295 348
#     4  12  25  42  62  87 121 158 199 246 301 359
#     4   9  17  31  55  87 118 150 193 242 286 337
#     4  12  25  42  62  87 121 158 199 246 301 359
#
# _framework density 22.232658000000001
#
# number of rings (size 3 to 8) (size 9 to 14) (size 15 to 20)
#    0.000    1.333    0.000    7.000    0.000    5.333 
#    0.000    0.000    0.000   20.000    0.000    0.000 
#    0.000    0.000    0.000    0.000    0.000    0.000 
#
# Total GULP energy -297765.016530 kJ/mol
# GULP energy per Si atom -12406.875689 kJ/mol
# Density = 2.218206 g / cm^3
# Si number density = 22.232658 Si / 1000 Ang^3
#
#
#
# Elastic Constant Matrix: (Units=GPa)
#
#
# Indices 1 2 3 4 5 6 
#
# 1 46.1552 -24.4718 2.2670 0.0000 0.0000 0.0000
# 2 -24.4718 61.2237 29.8125 0.0000 0.0000 0.0000
# 3 2.2670 29.8125 129.6066 0.0000 0.0000 0.0000
# 4 0.0000 0.0000 0.0000 39.4781 0.0000 0.0000
# 5 0.0000 0.0000 0.0000 0.0000 4.2551 0.0000
# 6 0.0000 0.0000 0.0000 0.0000 0.0000 18.3728
#
#
#
# Elastic Compliance Matrix: (Units=1/GPa)
#
#
# Indices 1 2 3 4 5 6 
#
# 1 0.028880 0.013277 -0.003559 0.000000 0.000000 0.000000
# 2 0.013277 0.024497 -0.005867 0.000000 0.000000 0.000000
# 3 -0.003559 -0.005867 0.009128 0.000000 0.000000 0.000000
# 4 0.000000 0.000000 0.000000 0.025331 0.000000 0.000000
# 5 0.000000 0.000000 0.000000 0.000000 0.235010 0.000000
# 6 0.000000 0.000000 0.000000 0.000000 0.000000 0.054428
#
#
# Mechanical properties :
#
#
# Convention : Reuss Voigt Hill
#
# Bulk Modulus (GPa) = 14.24372 28.02231 21.13301
# Shear Modulus (GPa) = 12.72344 27.71305 20.21825
#
# Velocity S-wave (km/s) = 2.39485 3.53441 3.01889
# Velocity P-wave (km/s) = 3.75068 5.41180 4.65592
#
# Compressibility (1/GPa) = 0.07020640
#
# Stress axis : x y z
#
# Youngs Moduli (GPa) = 34.62562 40.82056 109.55902
#
# Poissons Ratio (x) = -0.54197 0.38994
# Poissons Ratio (y) = -0.45972 0.64280
# Poissons Ratio (z) = 0.12324 0.23950
#
# Static dielectric constant tensor:
#      x y z
#    x 3.691950 0.000000 0.000000 
#    y 0.000000 4.279150 0.000000 
#    z 0.000000 0.000000 4.239140 
# 
# 
# High freq. dielectric constant tensor:
#      x y z
#    x 1.857840 0.000000 0.000000 
#    y 0.000000 1.887010 0.000000 
#    z 0.000000 0.000000 1.890220 
# 
# From -- ./inp_files/445.got.cif
#   From: 2010.03.12/outbox.cif.g09.slc.cpg/sg33_1_cif.got.tgz:445.got - 2010.04.14 01:49:19.
