data_PCOD8171301
_publ_section_title
;
Structure prediction by ZEFSAII (Michael W. Deem and Ramdas Pophale) SiO2 
 PCOD8171301
Probable space group: P N A 21
;
_chemical_formula_sum "Si O2"
_cell_formula_units_Z 32
_cell_length_a 10.624002
_cell_length_b 9.180631
_cell_length_c 14.299916
_cell_angle_alpha 90.000000
_cell_angle_beta 90.000000
_cell_angle_gamma 90.000000
_cell_volume 1394.742909
_symmetry_space_group_name_H-M "P N A 21"
_symmetry_group_IT_number 33
_symmetry_cell_setting 'orthorhombic'
loop_
_space_group_symop_operation_xyz
x,y,z
-x,-y,1/2+z
1/2-x,1/2+y,1/2+z
1/2+x,1/2-y,z
loop_
_atom_site_type_symbol
_atom_site_label
_atom_site_fract_x
_atom_site_fract_y
_atom_site_fract_z
Si Si1 0.021782 0.388183 0.181900
Si Si2 0.572542 0.648232 0.087244
Si Si3 0.894720 0.421145 0.852282
Si Si4 0.717956 0.623205 0.330302
Si Si5 0.023122 0.066154 0.244505
Si Si6 0.126362 0.021444 0.914751
Si Si7 0.604803 0.161563 0.981367
Si Si8 0.143895 0.362157 0.654074
O O1 0.090135 0.488571 0.257458
O O2 0.995857 0.235678 0.232025
O O3 0.892382 0.465383 0.145663
O O4 0.111459 0.366138 0.091931
O O5 0.523343 0.508666 0.143676
O O6 0.720025 0.680431 0.111370
O O7 0.475095 0.778259 0.108743
O O8 0.571373 0.610879 0.977262
O O9 0.881997 0.253673 0.818230
O O10 0.776541 0.477023 0.912493
O O11 0.005360 0.440904 0.927586
O O12 0.655862 0.471399 0.296596
O O13 0.759705 0.614929 0.438503
O O14 0.841553 0.663180 0.266679
O O15 0.914082 0.999180 0.307974
O O16 0.074262 0.170083 0.959911
#
# Coordination Sequence:
#
# PCOD8171301 Si02
#       8
#     4   4   4   4   4   4   4   4
#     4  12  25  44  71 111 146 184 244 314 370 437
#     4  11  24  49  74 109 145 204 254 304 375 464
#     4  11  23  45  72 102 141 190 244 305 374 447
#     4  10  22  46  73  93 141 196 242 296 374 454
#     4  11  24  44  69 106 145 184 247 309 371 434
#     4  11  24  45  72 103 146 193 246 308 368 458
#     4  11  22  46  73 101 135 195 242 295 376 447
#     4  11  24  45  74 105 153 194 247 311 374 445
#
# _framework density 22.943297000000001
#
# number of rings (size 3 to 8) (size 9 to 14) (size 15 to 20)
#    0.000    1.000    3.750    3.750    0.000    4.000 
#   13.500    0.000    0.000    0.000    0.000    0.000 
#    0.000    0.000    0.000    0.000    0.000    0.000 
#
# Total GULP energy -396600.928562 kJ/mol
# GULP energy per Si atom -12393.779018 kJ/mol
# Density = 2.289108 g / cm^3
# Si number density = 22.943297 Si / 1000 Ang^3
#
#
#
# Elastic Constant Matrix: (Units=GPa)
#
#
# Indices 1 2 3 4 5 6 
#
# 1 96.5941 56.0689 23.6201 0.0000 0.0000 0.0000
# 2 56.0689 113.0128 32.9392 0.0000 0.0000 0.0000
# 3 23.6201 32.9392 107.5290 0.0000 0.0000 0.0000
# 4 0.0000 0.0000 0.0000 38.7264 0.0000 0.0000
# 5 0.0000 0.0000 0.0000 0.0000 26.0971 0.0000
# 6 0.0000 0.0000 0.0000 0.0000 0.0000 22.6962
#
#
#
# Elastic Compliance Matrix: (Units=1/GPa)
#
#
# Indices 1 2 3 4 5 6 
#
# 1 0.014655 -0.006953 -0.001089 0.000000 0.000000 0.000000
# 2 -0.006953 0.013015 -0.002460 0.000000 0.000000 0.000000
# 3 -0.001089 -0.002460 0.010292 0.000000 0.000000 0.000000
# 4 0.000000 0.000000 0.000000 0.025822 0.000000 0.000000
# 5 0.000000 0.000000 0.000000 0.000000 0.038319 0.000000
# 6 0.000000 0.000000 0.000000 0.000000 0.000000 0.044060
#
#
# Mechanical properties :
#
#
# Convention : Reuss Voigt Hill
#
# Bulk Modulus (GPa) = 58.96694 60.26581 59.61637
# Shear Modulus (GPa) = 28.93174 31.13779 30.03477
#
# Velocity S-wave (km/s) = 3.55492 3.68797 3.62206
# Velocity P-wave (km/s) = 6.52740 6.66777 6.59796
#
# Compressibility (1/GPa) = 0.01695866
#
# Stress axis : x y z
#
# Youngs Moduli (GPa) = 68.23577 76.83340 97.15830
#
# Poissons Ratio (x) = 0.53425 0.10582
# Poissons Ratio (y) = 0.47447 0.23896
# Poissons Ratio (z) = 0.07432 0.18897
#
# Static dielectric constant tensor:
#      x y z
#    x 4.099380 0.000000 0.000000 
#    y 0.000000 3.965670 0.000000 
#    z 0.000000 0.000000 4.191410 
# 
# 
# High freq. dielectric constant tensor:
#      x y z
#    x 1.904180 0.000000 0.000000 
#    y 0.000000 1.888670 0.000000 
#    z 0.000000 0.000000 1.917060 
# 
# From -- ./inp_files/7971.got.cif
#   From: 2010.03.12/outbox.cif.g09.slc.cpg/sg33_4_cif.got.tgz:7971.got - 2010.04.14 01:49:19.
