data_PCOD8171685
_publ_section_title
;
Structure prediction by ZEFSAII (Michael W. Deem and Ramdas Pophale) SiO2 
 PCOD8171685
Probable space group: P N A 21
;
_chemical_formula_sum "Si O2"
_cell_formula_units_Z 20
_cell_length_a 18.063370
_cell_length_b 6.386102
_cell_length_c 7.358981
_cell_angle_alpha 90.000000
_cell_angle_beta 90.000000
_cell_angle_gamma 90.000000
_cell_volume 848.891745
_symmetry_space_group_name_H-M "P N A 21"
_symmetry_group_IT_number 33
_symmetry_cell_setting 'orthorhombic'
loop_
_space_group_symop_operation_xyz
x,y,z
-x,-y,1/2+z
1/2-x,1/2+y,1/2+z
1/2+x,1/2-y,z
loop_
_atom_site_type_symbol
_atom_site_label
_atom_site_fract_x
_atom_site_fract_y
_atom_site_fract_z
Si Si1 0.420198 0.536605 0.860750
Si Si2 0.976814 0.705091 0.548124
Si Si3 0.389019 0.933705 0.032867
Si Si4 0.677661 0.062972 0.897478
Si Si5 0.311159 0.205158 0.744847
O O1 0.466119 0.706066 0.748258
O O2 0.358046 0.421291 0.738375
O O3 0.477030 0.369231 0.932846
O O4 0.383404 0.679212 0.021086
O O5 0.897977 0.670165 0.457933
O O6 0.024789 0.493495 0.564788
O O7 0.339351 0.030399 0.196558
O O8 0.357878 0.026350 0.845055
O O9 0.738395 0.244519 0.864164
O O10 0.704310 0.882607 0.039934
#
# Coordination Sequence:
#
# PCOD8171685 Si02
#       5
#     4   4   4   4   4
#     4  11  24  46  71 111 146 195 252 306 383 446
#     4  11  25  42  77 106 146 191 250 311 376 447
#     4  11  25  48  72 107 149 188 250 313 376 450
#     4  12  26  47  75 102 152 195 248 311 377 446
#     4  11  28  47  69 108 147 199 248 305 376 453
#
# _framework density 23.560131999999999
#
# number of rings (size 3 to 8) (size 9 to 14) (size 15 to 20)
#    0.000    0.800    2.000    3.600   11.200    3.200 
#    0.000    0.000    0.000    0.000    0.000    0.000 
#    0.000    0.000    0.000    0.000    0.000    0.000 
#
# Total GULP energy -247939.788442 kJ/mol
# GULP energy per Si atom -12396.989422 kJ/mol
# Density = 2.350651 g / cm^3
# Si number density = 23.560132 Si / 1000 Ang^3
#
#
#
# Elastic Constant Matrix: (Units=GPa)
#
#
# Indices 1 2 3 4 5 6 
#
# 1 124.0145 45.1720 25.2468 0.0000 0.0000 0.0000
# 2 45.1720 123.8704 40.7265 0.0000 0.0000 0.0000
# 3 25.2468 40.7265 118.7496 0.0000 0.0000 0.0000
# 4 0.0000 0.0000 0.0000 45.2898 0.0000 0.0000
# 5 0.0000 0.0000 0.0000 0.0000 42.2321 0.0000
# 6 0.0000 0.0000 0.0000 0.0000 0.0000 23.9231
#
#
#
# Elastic Compliance Matrix: (Units=1/GPa)
#
#
# Indices 1 2 3 4 5 6 
#
# 1 0.009388 -0.003119 -0.000926 0.000000 0.000000 0.000000
# 2 -0.003119 0.010135 -0.002813 0.000000 0.000000 0.000000
# 3 -0.000926 -0.002813 0.009583 0.000000 0.000000 0.000000
# 4 0.000000 0.000000 0.000000 0.022080 0.000000 0.000000
# 5 0.000000 0.000000 0.000000 0.000000 0.023679 0.000000
# 6 0.000000 0.000000 0.000000 0.000000 0.000000 0.041801
#
#
# Mechanical properties :
#
#
# Convention : Reuss Voigt Hill
#
# Bulk Modulus (GPa) = 64.97823 65.43613 65.20718
# Shear Modulus (GPa) = 36.89715 39.32162 38.10939
#
# Velocity S-wave (km/s) = 3.96167 4.08976 4.02622
# Velocity P-wave (km/s) = 6.96894 7.08067 7.02503
#
# Compressibility (1/GPa) = 0.01538977
#
# Stress axis : x y z
#
# Youngs Moduli (GPa) = 106.51601 98.66589 104.35462
#
# Poissons Ratio (x) = 0.30775 0.09666
# Poissons Ratio (y) = 0.33223 0.29353
# Poissons Ratio (z) = 0.09866 0.27753
#
# Static dielectric constant tensor:
#      x y z
#    x 4.479530 0.000000 0.000000 
#    y 0.000000 4.425710 0.000000 
#    z 0.000000 0.000000 4.465600 
# 
# 
# High freq. dielectric constant tensor:
#      x y z
#    x 1.943710 0.000000 0.000000 
#    y 0.000000 1.926560 0.000000 
#    z 0.000000 0.000000 1.939590 
# 
# From -- ./inp_files/4576.got.cif
#   From: 2010.03.12/outbox.cif.g09.slc.cpg/sg33_3_cif.got.tgz:4576.got - 2010.04.14 01:49:19.
