data_PCOD8171353
_publ_section_title
;
Structure prediction by ZEFSAII (Michael W. Deem and Ramdas Pophale) SiO2 
 PCOD8171353
Probable space group: P N A 21
;
_chemical_formula_sum "Si O2"
_cell_formula_units_Z 20
_cell_length_a 9.745647
_cell_length_b 15.473323
_cell_length_c 5.421171
_cell_angle_alpha 90.000000
_cell_angle_beta 90.000000
_cell_angle_gamma 90.000000
_cell_volume 817.499272
_symmetry_space_group_name_H-M "P N A 21"
_symmetry_group_IT_number 33
_symmetry_cell_setting 'orthorhombic'
loop_
_space_group_symop_operation_xyz
x,y,z
-x,-y,1/2+z
1/2-x,1/2+y,1/2+z
1/2+x,1/2-y,z
loop_
_atom_site_type_symbol
_atom_site_label
_atom_site_fract_x
_atom_site_fract_y
_atom_site_fract_z
Si Si1 0.553531 0.539326 0.554550
Si Si2 0.681716 0.173042 0.518116
Si Si3 0.472139 0.134978 0.908642
Si Si4 0.342674 0.983675 0.688822
Si Si5 0.944590 0.225182 0.262535
O O1 0.482178 0.520136 0.292867
O O2 0.715011 0.525923 0.501972
O O3 0.517935 0.636697 0.627926
O O4 0.612243 0.174563 0.787548
O O5 0.693407 0.073293 0.431406
O O6 0.835498 0.213738 0.489000
O O7 0.585035 0.231220 0.346941
O O8 0.366311 0.086891 0.725042
O O9 0.517665 0.055399 0.081123
O O10 0.387706 0.208749 0.053359
#
# Coordination Sequence:
#
# PCOD8171353 Si02
#       5
#     4   4   4   4   4
#     4  11  28  47  71 103 150 193 244 302 366 439
#     4  10  23  43  69  99 149 177 245 296 363 434
#     4  11  22  43  74 100 142 187 240 305 366 442
#     4  10  23  42  71 105 136 189 240 294 361 439
#     4  10  26  43  67 109 137 194 239 303 366 438
#
# _framework density 24.464853000000002
#
# number of rings (size 3 to 8) (size 9 to 14) (size 15 to 20)
#    0.000    1.600    2.000    0.000   11.200    4.800 
#    0.000    0.000    0.000    0.000    0.000    0.000 
#    0.000    0.000    0.000    0.000    0.000    0.000 
#
# Total GULP energy -247824.262218 kJ/mol
# GULP energy per Si atom -12391.213111 kJ/mol
# Density = 2.440917 g / cm^3
# Si number density = 24.464853 Si / 1000 Ang^3
#
#
#
# Elastic Constant Matrix: (Units=GPa)
#
#
# Indices 1 2 3 4 5 6 
#
# 1 67.4868 15.0046 -5.7217 0.0000 0.0000 0.0000
# 2 15.0046 117.2358 6.9441 0.0000 0.0000 0.0000
# 3 -5.7217 6.9441 60.1685 0.0000 0.0000 0.0000
# 4 0.0000 0.0000 0.0000 29.1916 0.0000 0.0000
# 5 0.0000 0.0000 0.0000 0.0000 30.6881 0.0000
# 6 0.0000 0.0000 0.0000 0.0000 0.0000 27.6882
#
#
#
# Elastic Compliance Matrix: (Units=1/GPa)
#
#
# Indices 1 2 3 4 5 6 
#
# 1 0.015424 -0.002075 0.001706 0.000000 0.000000 0.000000
# 2 -0.002075 0.008868 -0.001221 0.000000 0.000000 0.000000
# 3 0.001706 -0.001221 0.016923 0.000000 0.000000 0.000000
# 4 0.000000 0.000000 0.000000 0.034256 0.000000 0.000000
# 5 0.000000 0.000000 0.000000 0.000000 0.032586 0.000000
# 6 0.000000 0.000000 0.000000 0.000000 0.000000 0.036116
#
#
# Mechanical properties :
#
#
# Convention : Reuss Voigt Hill
#
# Bulk Modulus (GPa) = 26.29138 30.81613 28.55375
# Shear Modulus (GPa) = 31.24394 32.75787 32.00091
#
# Velocity S-wave (km/s) = 3.57752 3.66317 3.62060
# Velocity P-wave (km/s) = 5.27587 5.52406 5.40139
#
# Compressibility (1/GPa) = 0.03803528
#
# Stress axis : x y z
#
# Youngs Moduli (GPa) = 64.83515 112.76873 59.09073
#
# Poissons Ratio (x) = 0.23401 -0.10082
# Poissons Ratio (y) = 0.13454 0.07214
# Poissons Ratio (z) = -0.11062 0.13766
#
# Static dielectric constant tensor:
#      x y z
#    x 4.354850 0.000000 0.000000 
#    y 0.000000 4.540240 0.000000 
#    z 0.000000 0.000000 4.291020 
# 
# 
# High freq. dielectric constant tensor:
#      x y z
#    x 1.963740 0.000000 0.000000 
#    y 0.000000 1.982150 0.000000 
#    z 0.000000 0.000000 1.958800 
# 
# From -- ./inp_files/337.got.cif
#   From: 2010.03.12/outbox.cif.g09.slc.cpg/sg33_1_cif.got.tgz:337.got - 2010.04.14 01:49:19.
