data_PCOD8171099
_publ_section_title
;
Structure prediction by ZEFSAII (Michael W. Deem and Ramdas Pophale) SiO2 
 PCOD8171099
Probable space group: P N A 21
;
_chemical_formula_sum "Si O2"
_cell_formula_units_Z 24
_cell_length_a 9.147234
_cell_length_b 10.751443
_cell_length_c 10.839936
_cell_angle_alpha 90.000000
_cell_angle_beta 90.000000
_cell_angle_gamma 90.000000
_cell_volume 1066.063966
_symmetry_space_group_name_H-M "P N A 21"
_symmetry_group_IT_number 33
_symmetry_cell_setting 'orthorhombic'
loop_
_space_group_symop_operation_xyz
x,y,z
-x,-y,1/2+z
1/2-x,1/2+y,1/2+z
1/2+x,1/2-y,z
loop_
_atom_site_type_symbol
_atom_site_label
_atom_site_fract_x
_atom_site_fract_y
_atom_site_fract_z
Si Si1 0.939053 0.724758 0.163720
Si Si2 0.222071 0.284488 0.975006
Si Si3 0.565331 0.897113 0.379778
Si Si4 0.284121 0.682713 0.736772
Si Si5 0.341782 0.403132 0.752384
Si Si6 0.495253 0.175584 0.393647
O O1 0.767667 0.694265 0.181302
O O2 0.025052 0.612529 0.234407
O O3 0.993209 0.853787 0.228621
O O4 0.988261 0.742592 0.023696
O O5 0.265577 0.264928 0.118413
O O6 0.273279 0.156777 0.906538
O O7 0.306823 0.396357 0.900819
O O8 0.049759 0.312220 0.959356
O O9 0.561469 0.039687 0.417242
O O10 0.323762 0.541419 0.698469
O O11 0.425670 0.749740 0.787099
O O12 0.170510 0.674935 0.848678
#
# Coordination Sequence:
#
# PCOD8171099 Si02
#       6
#     4   4   4   4   4   4
#     4  10  21  43  68  90 133 175 213 269 335 387
#     4  10  21  42  70  93 131 177 216 272 334 393
#     4  10  22  42  70  95 129 177 220 268 335 398
#     4  12  25  44  64 104 134 170 226 278 329 408
#     4  10  22  46  66  98 132 173 226 271 327 407
#     4  12  25  43  64 100 135 172 213 282 334 387
#
# _framework density 22.512723000000001
#
# number of rings (size 3 to 8) (size 9 to 14) (size 15 to 20)
#    0.000    1.333    3.333    3.000    2.333    0.000 
#   24.000    0.000    0.000    0.000    0.000    0.000 
#    0.000    0.000    0.000    0.000    0.000    0.000 
#
# Total GULP energy -297340.340597 kJ/mol
# GULP energy per Si atom -12389.180858 kJ/mol
# Density = 2.246148 g / cm^3
# Si number density = 22.512723 Si / 1000 Ang^3
#
#
#
# Elastic Constant Matrix: (Units=GPa)
#
#
# Indices 1 2 3 4 5 6 
#
# 1 67.8448 46.2272 1.6169 0.0000 0.0000 0.0000
# 2 46.2272 82.6246 17.5807 0.0000 0.0000 0.0000
# 3 1.6169 17.5807 124.0417 0.0000 0.0000 0.0000
# 4 0.0000 0.0000 0.0000 23.4490 0.0000 0.0000
# 5 0.0000 0.0000 0.0000 0.0000 19.2808 0.0000
# 6 0.0000 0.0000 0.0000 0.0000 0.0000 30.4698
#
#
#
# Elastic Compliance Matrix: (Units=1/GPa)
#
#
# Indices 1 2 3 4 5 6 
#
# 1 0.024143 -0.013859 0.001650 0.000000 0.000000 0.000000
# 2 -0.013859 0.020434 -0.002716 0.000000 0.000000 0.000000
# 3 0.001650 -0.002716 0.008425 0.000000 0.000000 0.000000
# 4 0.000000 0.000000 0.000000 0.042646 0.000000 0.000000
# 5 0.000000 0.000000 0.000000 0.000000 0.051865 0.000000
# 6 0.000000 0.000000 0.000000 0.000000 0.000000 0.032819
#
#
# Mechanical properties :
#
#
# Convention : Reuss Voigt Hill
#
# Bulk Modulus (GPa) = 43.19045 45.04007 44.11526
# Shear Modulus (GPa) = 22.94630 28.57899 25.76265
#
# Velocity S-wave (km/s) = 3.19605 3.56681 3.38651
# Velocity P-wave (km/s) = 5.73116 6.08381 5.91012
#
# Compressibility (1/GPa) = 0.02315327
#
# Stress axis : x y z
#
# Youngs Moduli (GPa) = 41.41988 48.93700 118.69167
#
# Poissons Ratio (x) = 0.67820 -0.19578
# Poissons Ratio (y) = 0.57402 0.32232
# Poissons Ratio (z) = -0.06832 0.13289
#
# Static dielectric constant tensor:
#      x y z
#    x 3.964600 0.000000 0.000000 
#    y 0.000000 3.877760 0.000000 
#    z 0.000000 0.000000 4.060960 
# 
# 
# High freq. dielectric constant tensor:
#      x y z
#    x 1.881890 0.000000 0.000000 
#    y 0.000000 1.865890 0.000000 
#    z 0.000000 0.000000 1.889780 
# 
# From -- ./inp_files/5791.got.cif
#   From: 2010.03.12/outbox.cif.g09.slc.cpg/sg33_3_cif.got.tgz:5791.got - 2010.04.14 01:49:19.
