data_PCOD8171497
_publ_section_title
;
Structure prediction by ZEFSAII (Michael W. Deem and Ramdas Pophale) SiO2 
 PCOD8171497
Probable space group: P N A 21
;
_chemical_formula_sum "Si O2"
_cell_formula_units_Z 32
_cell_length_a 29.708019
_cell_length_b 6.744927
_cell_length_c 7.409893
_cell_angle_alpha 90.000000
_cell_angle_beta 90.000000
_cell_angle_gamma 90.000000
_cell_volume 1484.782648
_symmetry_space_group_name_H-M "P N A 21"
_symmetry_group_IT_number 33
_symmetry_cell_setting 'orthorhombic'
loop_
_space_group_symop_operation_xyz
x,y,z
-x,-y,1/2+z
1/2-x,1/2+y,1/2+z
1/2+x,1/2-y,z
loop_
_atom_site_type_symbol
_atom_site_label
_atom_site_fract_x
_atom_site_fract_y
_atom_site_fract_z
Si Si1 0.043069 0.401471 0.011890
Si Si2 0.178021 0.181850 0.704735
Si Si3 0.257794 0.444903 0.668928
Si Si4 0.842471 0.851850 0.806200
Si Si5 0.989580 0.758761 0.145091
Si Si6 0.945785 0.927509 0.798831
Si Si7 0.143116 0.443683 0.000543
Si Si8 0.201844 0.777096 0.830523
O O1 0.035387 0.244395 0.170639
O O2 0.005111 0.567671 0.032258
O O3 0.040971 0.301764 0.814893
O O4 0.091761 0.502743 0.036787
O O5 0.228257 0.265106 0.753055
O O6 0.164229 0.240115 0.503227
O O7 0.142913 0.286711 0.836594
O O8 0.174035 0.943949 0.723238
O O9 0.305829 0.474591 0.768141
O O10 0.229394 0.647941 0.687123
O O11 0.264298 0.397092 0.459215
O O12 0.891889 0.946462 0.784854
O O13 0.834892 0.667003 0.671722
O O14 0.960409 0.891961 0.006897
O O15 0.033112 0.869771 0.225112
O O16 0.169965 0.642952 0.955508
#
# Coordination Sequence:
#
# PCOD8171497 Si02
#       8
#     4   4   4   4   4   4   4   4
#     4  11  24  43  70 101 137 171 224 277 338 406
#     4  11  24  45  68  99 134 180 223 280 331 399
#     4  11  24  41  66  96 135 175 223 268 334 396
#     4  11  24  45  67  98 136 175 227 275 333 407
#     4  12  23  45  69  98 133 177 219 279 339 403
#     4  11  25  44  70  99 135 178 223 281 342 405
#     4  10  25  46  66  99 137 175 220 279 335 399
#     4  11  25  43  68  96 133 179 219 277 332 391
#
# _framework density 21.551974999999999
#
# number of rings (size 3 to 8) (size 9 to 14) (size 15 to 20)
#    0.000    1.000    5.000    0.750    5.250    0.000 
#    6.750    0.000    0.000    0.000    0.000    0.000 
#    0.000    0.000    0.000    0.000    0.000    0.000 
#
# Total GULP energy -396842.434273 kJ/mol
# GULP energy per Si atom -12401.326071 kJ/mol
# Density = 2.150292 g / cm^3
# Si number density = 21.551975 Si / 1000 Ang^3
#
#
#
# Elastic Constant Matrix: (Units=GPa)
#
#
# Indices 1 2 3 4 5 6 
#
# 1 75.2164 23.2507 11.1018 0.0000 0.0000 0.0000
# 2 23.2507 91.2859 37.7999 0.0000 0.0000 0.0000
# 3 11.1018 37.7999 128.8340 0.0000 0.0000 0.0000
# 4 0.0000 0.0000 0.0000 30.2123 0.0000 0.0000
# 5 0.0000 0.0000 0.0000 0.0000 28.8920 0.0000
# 6 0.0000 0.0000 0.0000 0.0000 0.0000 27.2333
#
#
#
# Elastic Compliance Matrix: (Units=1/GPa)
#
#
# Indices 1 2 3 4 5 6 
#
# 1 0.014435 -0.003599 -0.000188 0.000000 0.000000 0.000000
# 2 -0.003599 0.013367 -0.003612 0.000000 0.000000 0.000000
# 3 -0.000188 -0.003612 0.008838 0.000000 0.000000 0.000000
# 4 0.000000 0.000000 0.000000 0.033099 0.000000 0.000000
# 5 0.000000 0.000000 0.000000 0.000000 0.034612 0.000000
# 6 0.000000 0.000000 0.000000 0.000000 0.000000 0.036720
#
#
# Mechanical properties :
#
#
# Convention : Reuss Voigt Hill
#
# Bulk Modulus (GPa) = 45.78187 48.84901 47.31544
# Shear Modulus (GPa) = 30.64700 32.14645 31.39673
#
# Velocity S-wave (km/s) = 3.77504 3.86629 3.82093
# Velocity P-wave (km/s) = 6.34743 6.53037 6.43955
#
# Compressibility (1/GPa) = 0.02184271
#
# Stress axis : x y z
#
# Youngs Moduli (GPa) = 69.27520 74.81251 113.15033
#
# Poissons Ratio (x) = 0.26924 0.02127
# Poissons Ratio (y) = 0.24931 0.40866
# Poissons Ratio (z) = 0.01302 0.27020
#
# Static dielectric constant tensor:
#      x y z
#    x 3.794530 0.000000 0.000000 
#    y 0.000000 3.784200 0.000000 
#    z 0.000000 0.000000 3.926320 
# 
# 
# High freq. dielectric constant tensor:
#      x y z
#    x 1.843210 0.000000 0.000000 
#    y 0.000000 1.839520 0.000000 
#    z 0.000000 0.000000 1.856520 
# 
# From -- ./inp_files/5367.got.cif
#   From: 2010.03.12/outbox.cif.g09.slc.cpg/sg33_3_cif.got.tgz:5367.got - 2010.04.14 01:49:19.
