data_PCOD8171223
_publ_section_title
;
Structure prediction by ZEFSAII (Michael W. Deem and Ramdas Pophale) SiO2 
 PCOD8171223
Probable space group: P N A 21
;
_chemical_formula_sum "Si O2"
_cell_formula_units_Z 28
_cell_length_a 8.935747
_cell_length_b 12.557789
_cell_length_c 10.940924
_cell_angle_alpha 90.000000
_cell_angle_beta 90.000000
_cell_angle_gamma 90.000000
_cell_volume 1227.716371
_symmetry_space_group_name_H-M "P N A 21"
_symmetry_group_IT_number 33
_symmetry_cell_setting 'orthorhombic'
loop_
_space_group_symop_operation_xyz
x,y,z
-x,-y,1/2+z
1/2-x,1/2+y,1/2+z
1/2+x,1/2-y,z
loop_
_atom_site_type_symbol
_atom_site_label
_atom_site_fract_x
_atom_site_fract_y
_atom_site_fract_z
Si Si1 0.045091 0.677620 0.770840
Si Si2 0.724701 0.994535 0.634293
Si Si3 0.273179 0.382729 0.209507
Si Si4 0.036074 0.635519 0.035914
Si Si5 0.390194 0.547266 0.391813
Si Si6 0.655266 0.460298 0.512603
Si Si7 0.968311 0.166338 0.693364
O O1 0.172023 0.589035 0.737425
O O2 0.113633 0.790987 0.743966
O O3 0.896817 0.656396 0.691042
O O4 0.981162 0.688674 0.909958
O O5 0.815832 0.933796 0.525064
O O6 0.577529 0.046858 0.579000
O O7 0.824370 0.088469 0.693233
O O8 0.276223 0.478837 0.308965
O O9 0.334112 0.427114 0.082196
O O10 0.181177 0.578544 0.978814
O O11 0.074703 0.713878 0.150788
O O12 0.544158 0.478753 0.399288
O O13 0.443073 0.657536 0.324103
O O14 0.587336 0.367138 0.593591
#
# Coordination Sequence:
#
# PCOD8171223 Si02
#       7
#     4   4   4   4   4   4   4
#     4  12  26  41  69  99 136 175 237 282 342 411
#     4  11  23  44  67 101 142 179 228 294 349 408
#     4  11  25  42  66  99 128 182 230 282 332 415
#     4  12  23  42  70 103 133 177 231 289 342 409
#     4  10  22  46  67  98 139 183 224 285 351 412
#     4  10  22  42  65  94 137 173 222 276 343 409
#     4  10  23  39  70 100 135 179 228 276 351 416
#
# _framework density 22.806571000000002
#
# number of rings (size 3 to 8) (size 9 to 14) (size 15 to 20)
#    0.000    1.143    2.857    3.429   10.000    0.000 
#    0.000    7.143    0.000    0.000    0.000    0.000 
#    0.000    0.000    0.000    0.000    0.000    0.000 
#
# Total GULP energy -346945.440015 kJ/mol
# GULP energy per Si atom -12390.908572 kJ/mol
# Density = 2.275466 g / cm^3
# Si number density = 22.806571 Si / 1000 Ang^3
#
#
#
# Elastic Constant Matrix: (Units=GPa)
#
#
# Indices 1 2 3 4 5 6 
#
# 1 94.2630 8.9045 6.6477 0.0000 0.0000 0.0000
# 2 8.9045 75.9338 29.2107 0.0000 0.0000 0.0000
# 3 6.6477 29.2107 62.5050 0.0000 0.0000 0.0000
# 4 0.0000 0.0000 0.0000 27.5806 0.0000 0.0000
# 5 0.0000 0.0000 0.0000 0.0000 24.3979 0.0000
# 6 0.0000 0.0000 0.0000 0.0000 0.0000 32.7967
#
#
#
# Elastic Compliance Matrix: (Units=1/GPa)
#
#
# Indices 1 2 3 4 5 6 
#
# 1 0.010751 -0.001001 -0.000676 0.000000 0.000000 0.000000
# 2 -0.001001 0.016149 -0.007441 0.000000 0.000000 0.000000
# 3 -0.000676 -0.007441 0.019548 0.000000 0.000000 0.000000
# 4 0.000000 0.000000 0.000000 0.036257 0.000000 0.000000
# 5 0.000000 0.000000 0.000000 0.000000 0.040987 0.000000
# 6 0.000000 0.000000 0.000000 0.000000 0.000000 0.030491
#
#
# Mechanical properties :
#
#
# Convention : Reuss Voigt Hill
#
# Bulk Modulus (GPa) = 35.44395 35.80308 35.62351
# Shear Modulus (GPa) = 27.49951 29.48431 28.49191
#
# Velocity S-wave (km/s) = 3.47619 3.59945 3.53836
# Velocity P-wave (km/s) = 5.62909 5.74521 5.68745
#
# Compressibility (1/GPa) = 0.02821356
#
# Stress axis : x y z
#
# Youngs Moduli (GPa) = 93.01630 61.92340 51.15671
#
# Poissons Ratio (x) = 0.06197 0.03457
# Poissons Ratio (y) = 0.09309 0.38063
# Poissons Ratio (z) = 0.06285 0.46074
#
# Static dielectric constant tensor:
#      x y z
#    x 4.291010 0.000000 0.000000 
#    y 0.000000 3.848700 0.000000 
#    z 0.000000 0.000000 4.239890 
# 
# 
# High freq. dielectric constant tensor:
#      x y z
#    x 1.918580 0.000000 0.000000 
#    y 0.000000 1.877070 0.000000 
#    z 0.000000 0.000000 1.893350 
# 
# From -- ./inp_files/5835.got.cif
#   From: 2010.03.12/outbox.cif.g09.slc.cpg/sg33_3_cif.got.tgz:5835.got - 2010.04.14 01:49:19.
