data_PCOD8171271
_publ_section_title
;
Structure prediction by ZEFSAII (Michael W. Deem and Ramdas Pophale) SiO2 
 PCOD8171271
Probable space group: P N A 21
;
_chemical_formula_sum "Si O2"
_cell_formula_units_Z 24
_cell_length_a 11.778228
_cell_length_b 11.107981
_cell_length_c 7.503995
_cell_angle_alpha 90.000000
_cell_angle_beta 90.000000
_cell_angle_gamma 90.000000
_cell_volume 981.765171
_symmetry_space_group_name_H-M "P N A 21"
_symmetry_group_IT_number 33
_symmetry_cell_setting 'orthorhombic'
loop_
_space_group_symop_operation_xyz
x,y,z
-x,-y,1/2+z
1/2-x,1/2+y,1/2+z
1/2+x,1/2-y,z
loop_
_atom_site_type_symbol
_atom_site_label
_atom_site_fract_x
_atom_site_fract_y
_atom_site_fract_z
Si Si1 0.070236 0.919679 0.835440
Si Si2 0.305295 0.666054 0.276892
Si Si3 0.885491 0.500561 0.706430
Si Si4 0.370682 0.915709 0.101259
Si Si5 0.279156 0.328727 0.043744
Si Si6 0.363790 0.463049 0.719096
O O1 0.108103 0.055452 0.781599
O O2 0.145583 0.823178 0.724545
O O3 0.083742 0.895329 0.044779
O O4 0.937747 0.918599 0.774576
O O5 0.184737 0.623609 0.196914
O O6 0.355194 0.776654 0.161639
O O7 0.275561 0.702628 0.482114
O O8 0.830541 0.584273 0.554973
O O9 0.016488 0.475093 0.677358
O O10 0.869643 0.575743 0.888629
O O11 0.266296 0.996826 0.173885
O O12 0.364305 0.372246 0.886488
#
# Coordination Sequence:
#
# PCOD8171271 Si02
#       6
#     4   4   4   4   4   4
#     4  11  22  42  68  98 138 175 225 291 337 406
#     4  10  24  43  70  96 139 179 234 284 343 409
#     4  11  24  49  69 103 145 181 233 292 342 422
#     4  11  23  42  72  97 141 185 225 285 352 405
#     4  10  22  44  68  96 138 180 226 280 347 405
#     4  11  21  40  69  96 135 178 221 282 345 397
#
# _framework density 24.445761999999998
#
# number of rings (size 3 to 8) (size 9 to 14) (size 15 to 20)
#    0.000    1.333    5.000    2.000    4.667    0.000 
#    6.000    1.667    0.000    0.000    0.000    0.000 
#    0.000    0.000    0.000    0.000    0.000    0.000 
#
# Total GULP energy -297401.214805 kJ/mol
# GULP energy per Si atom -12391.717284 kJ/mol
# Density = 2.439012 g / cm^3
# Si number density = 24.445762 Si / 1000 Ang^3
#
#
#
# Elastic Constant Matrix: (Units=GPa)
#
#
# Indices 1 2 3 4 5 6 
#
# 1 136.7481 16.4268 14.6670 0.0000 0.0000 0.0000
# 2 16.4268 57.8915 -3.0778 0.0000 0.0000 0.0000
# 3 14.6670 -3.0778 107.7894 0.0000 0.0000 0.0000
# 4 0.0000 0.0000 0.0000 35.9611 0.0000 0.0000
# 5 0.0000 0.0000 0.0000 0.0000 46.8202 0.0000
# 6 0.0000 0.0000 0.0000 0.0000 0.0000 13.3770
#
#
#
# Elastic Compliance Matrix: (Units=1/GPa)
#
#
# Indices 1 2 3 4 5 6 
#
# 1 0.007702 -0.002244 -0.001112 0.000000 0.000000 0.000000
# 2 -0.002244 0.017954 0.000818 0.000000 0.000000 0.000000
# 3 -0.001112 0.000818 0.009452 0.000000 0.000000 0.000000
# 4 0.000000 0.000000 0.000000 0.027808 0.000000 0.000000
# 5 0.000000 0.000000 0.000000 0.000000 0.021358 0.000000
# 6 0.000000 0.000000 0.000000 0.000000 0.000000 0.074755
#
#
# Mechanical properties :
#
#
# Convention : Reuss Voigt Hill
#
# Bulk Modulus (GPa) = 33.29918 39.82901 36.56410
# Shear Modulus (GPa) = 28.71646 37.52584 33.12115
#
# Velocity S-wave (km/s) = 3.43111 3.92224 3.68487
# Velocity P-wave (km/s) = 5.41737 6.06961 5.75274
#
# Compressibility (1/GPa) = 0.03003077
#
# Stress axis : x y z
#
# Youngs Moduli (GPa) = 129.84306 55.69772 105.79740
#
# Poissons Ratio (x) = 0.12501 0.11765
# Poissons Ratio (y) = 0.29143 -0.08655
# Poissons Ratio (z) = 0.14439 -0.04556
#
# Static dielectric constant tensor:
#      x y z
#    x 4.760140 0.000000 0.000000 
#    y 0.000000 4.009500 0.000000 
#    z 0.000000 0.000000 4.702140 
# 
# 
# High freq. dielectric constant tensor:
#      x y z
#    x 1.989200 0.000000 0.000000 
#    y 0.000000 1.928680 0.000000 
#    z 0.000000 0.000000 1.986620 
# 
# From -- ./inp_files/3803.got.cif
#   From: 2010.03.12/outbox.cif.g09.slc.cpg/sg33_2_cif.got.tgz:3803.got - 2010.04.14 01:49:19.
