data_PCOD8171555
_publ_section_title
;
Structure prediction by ZEFSAII (Michael W. Deem and Ramdas Pophale) SiO2 
 PCOD8171555
Probable space group: P N A 21
;
_chemical_formula_sum "Si O2"
_cell_formula_units_Z 32
_cell_length_a 8.316144
_cell_length_b 11.959303
_cell_length_c 14.105654
_cell_angle_alpha 90.000000
_cell_angle_beta 90.000000
_cell_angle_gamma 90.000000
_cell_volume 1402.881851
_symmetry_space_group_name_H-M "P N A 21"
_symmetry_group_IT_number 33
_symmetry_cell_setting 'orthorhombic'
loop_
_space_group_symop_operation_xyz
x,y,z
-x,-y,1/2+z
1/2-x,1/2+y,1/2+z
1/2+x,1/2-y,z
loop_
_atom_site_type_symbol
_atom_site_label
_atom_site_fract_x
_atom_site_fract_y
_atom_site_fract_z
Si Si1 0.668946 0.352994 0.433960
Si Si2 0.490511 0.859734 0.862414
Si Si3 0.334455 0.537522 0.124604
Si Si4 0.379317 0.093974 0.785266
Si Si5 0.650275 0.854793 0.674462
Si Si6 0.380283 0.484534 0.771580
Si Si7 0.838541 0.672386 0.567850
Si Si8 0.686807 0.210455 0.850316
O O1 0.636612 0.222872 0.411614
O O2 0.859316 0.381134 0.432509
O O3 0.610681 0.378940 0.540865
O O4 0.577524 0.427607 0.355279
O O5 0.562406 0.802266 0.767014
O O6 0.402777 0.976837 0.840229
O O7 0.167930 0.573586 0.175628
O O8 0.469807 0.530602 0.203713
O O9 0.304322 0.416883 0.077854
O O10 0.536417 0.171104 0.787657
O O11 0.230105 0.160646 0.831769
O O12 0.791701 0.776951 0.634228
O O13 0.513435 0.875295 0.596113
O O14 0.728530 0.971650 0.708939
O O15 0.337154 0.367483 0.821321
O O16 0.857776 0.705184 0.459752
#
# Coordination Sequence:
#
# PCOD8171555 Si02
#       8
#     4   4   4   4   4   4   4   4
#     4  11  25  46  75 108 147 186 245 312 366 437
#     4  11  23  47  74 106 146 191 245 308 374 438
#     4  12  25  45  72 107 146 196 248 296 369 452
#     4  12  26  47  74 101 149 204 241 309 377 441
#     4  11  22  42  75 106 143 189 245 316 362 428
#     4  11  24  46  72 106 150 186 241 308 371 434
#     4  12  22  42  70 107 142 190 256 301 359 442
#     4  12  25  49  68 103 151 194 241 308 374 438
#
# _framework density 22.810189000000001
#
# number of rings (size 3 to 8) (size 9 to 14) (size 15 to 20)
#    0.000    0.500    5.000    4.500    1.750    2.000 
#    4.500    3.750    0.000    0.000    0.000    0.000 
#    0.000    0.000    0.000    0.000    0.000    0.000 
#
# Total GULP energy -396849.291642 kJ/mol
# GULP energy per Si atom -12401.540364 kJ/mol
# Density = 2.275827 g / cm^3
# Si number density = 22.810189 Si / 1000 Ang^3
#
#
#
# Elastic Constant Matrix: (Units=GPa)
#
#
# Indices 1 2 3 4 5 6 
#
# 1 88.4596 39.7526 49.8550 0.0000 0.0000 0.0000
# 2 39.7526 119.1560 57.2433 0.0000 0.0000 0.0000
# 3 49.8550 57.2433 121.3133 0.0000 0.0000 0.0000
# 4 0.0000 0.0000 0.0000 28.9540 0.0000 0.0000
# 5 0.0000 0.0000 0.0000 0.0000 37.7642 0.0000
# 6 0.0000 0.0000 0.0000 0.0000 0.0000 40.8020
#
#
#
# Elastic Compliance Matrix: (Units=1/GPa)
#
#
# Indices 1 2 3 4 5 6 
#
# 1 0.015358 -0.002705 -0.005035 0.000000 0.000000 0.000000
# 2 -0.002705 0.011329 -0.004234 0.000000 0.000000 0.000000
# 3 -0.005035 -0.004234 0.012310 0.000000 0.000000 0.000000
# 4 0.000000 0.000000 0.000000 0.034537 0.000000 0.000000
# 5 0.000000 0.000000 0.000000 0.000000 0.026480 0.000000
# 6 0.000000 0.000000 0.000000 0.000000 0.000000 0.024509
#
#
# Mechanical properties :
#
#
# Convention : Reuss Voigt Hill
#
# Bulk Modulus (GPa) = 66.45012 69.18119 67.81566
# Shear Modulus (GPa) = 32.57592 33.64258 33.10925
#
# Velocity S-wave (km/s) = 3.78316 3.84460 3.81400
# Velocity P-wave (km/s) = 6.94824 7.07834 7.01359
#
# Compressibility (1/GPa) = 0.01504888
#
# Stress axis : x y z
#
# Youngs Moduli (GPa) = 65.11324 88.27061 81.23259
#
# Poissons Ratio (x) = 0.23875 0.40902
# Poissons Ratio (y) = 0.17611 0.34395
# Poissons Ratio (z) = 0.32786 0.37375
#
# Static dielectric constant tensor:
#      x y z
#    x 4.169260 0.000000 0.000000 
#    y 0.000000 4.177040 0.000000 
#    z 0.000000 0.000000 4.093190 
# 
# 
# High freq. dielectric constant tensor:
#      x y z
#    x 1.902110 0.000000 0.000000 
#    y 0.000000 1.898550 0.000000 
#    z 0.000000 0.000000 1.899270 
# 
# From -- ./inp_files/7696.got.cif
#   From: 2010.03.12/outbox.cif.g09.slc.cpg/sg33_4_cif.got.tgz:7696.got - 2010.04.14 01:49:19.
