data_PCOD8171811
_publ_section_title
;
Structure prediction by ZEFSAII (Michael W. Deem and Ramdas Pophale) SiO2 
 PCOD8171811
Probable space group: P N A 21
;
_chemical_formula_sum "Si O2"
_cell_formula_units_Z 12
_cell_length_a 9.596510
_cell_length_b 8.015444
_cell_length_c 4.663144
_cell_angle_alpha 90.000000
_cell_angle_beta 90.000000
_cell_angle_gamma 90.000000
_cell_volume 358.690382
_symmetry_space_group_name_H-M "P N A 21"
_symmetry_group_IT_number 33
_symmetry_cell_setting 'orthorhombic'
loop_
_space_group_symop_operation_xyz
x,y,z
-x,-y,1/2+z
1/2-x,1/2+y,1/2+z
1/2+x,1/2-y,z
loop_
_atom_site_type_symbol
_atom_site_label
_atom_site_fract_x
_atom_site_fract_y
_atom_site_fract_z
Si Si1 0.750000 0.892425 0.813790
Si Si2 0.583350 0.071250 0.356314
Si Si3 0.416650 0.428750 0.271265
O O1 0.611501 0.771065 0.810150
O O2 0.723419 0.007835 0.530526
O O3 0.888499 0.771066 0.817430
O O4 0.776580 0.007835 0.097055
O O5 0.553222 0.977777 0.051952
O O6 0.446778 0.522224 0.575627
#
# Coordination Sequence:
#
# PCOD8171811 Si02
#       3
#     4   4   4
#     4  12  28  52  80 114 156 204 256 318 384 456
#     4  12  28  50  80 116 154 202 258 318 382 456
#     4  12  28  50  80 116 154 202 258 318 382 456
#
# _framework density 33.455036
#
# number of rings (size 3 to 8) (size 9 to 14) (size 15 to 20)
#    0.000    0.000    0.000    8.000    0.000   18.667 
#    0.000    0.000    0.000    0.000    0.000    0.000 
#    0.000    0.000    0.000    0.000    0.000    0.000 
#
# Total GULP energy -148972.024091 kJ/mol
# GULP energy per Si atom -12414.335341 kJ/mol
# Density = 3.337889 g / cm^3
# Si number density = 33.455036 Si / 1000 Ang^3
#
#
#
# Elastic Constant Matrix: (Units=GPa)
#
#
# Indices 1 2 3 4 5 6 
#
# 1 207.9385 43.9236 36.4185 0.0000 0.0000 0.0000
# 2 43.9236 293.3077 167.8240 0.0000 0.0000 0.0000
# 3 36.4185 167.8240 319.0294 0.0000 0.0000 0.0000
# 4 0.0000 0.0000 0.0000 88.0846 0.0000 0.0000
# 5 0.0000 0.0000 0.0000 0.0000 51.2404 0.0000
# 6 0.0000 0.0000 0.0000 0.0000 0.0000 37.4706
#
#
#
# Elastic Compliance Matrix: (Units=1/GPa)
#
#
# Indices 1 2 3 4 5 6 
#
# 1 0.004980 -0.000602 -0.000252 0.000000 0.000000 0.000000
# 2 -0.000602 0.004950 -0.002535 0.000000 0.000000 0.000000
# 3 -0.000252 -0.002535 0.004497 0.000000 0.000000 0.000000
# 4 0.000000 0.000000 0.000000 0.011353 0.000000 0.000000
# 5 0.000000 0.000000 0.000000 0.000000 0.019516 0.000000
# 6 0.000000 0.000000 0.000000 0.000000 0.000000 0.026688
#
#
# Mechanical properties :
#
#
# Convention : Reuss Voigt Hill
#
# Bulk Modulus (GPa) = 130.72760 146.28976 138.50868
# Shear Modulus (GPa) = 61.49200 73.49974 67.49587
#
# Velocity S-wave (km/s) = 4.29190 4.69227 4.49654
# Velocity P-wave (km/s) = 7.98254 8.55446 8.27344
#
# Compressibility (1/GPa) = 0.00764949
#
# Stress axis : x y z
#
# Youngs Moduli (GPa) = 200.78958 202.01480 222.37163
#
# Poissons Ratio (x) = 0.12153 0.05605
# Poissons Ratio (y) = 0.12079 0.56378
# Poissons Ratio (z) = 0.05061 0.51217
#
# Static dielectric constant tensor:
#      x y z
#    x 8.052710 0.000000 0.000000 
#    y 0.000000 6.115960 0.000000 
#    z 0.000000 0.000000 6.093380 
# 
# 
# High freq. dielectric constant tensor:
#      x y z
#    x 2.608960 0.000000 0.000000 
#    y 0.000000 2.422680 0.000000 
#    z 0.000000 0.000000 2.433670 
# 
# From -- ./inp_files/624.got.cif
#   From: 2010.03.12/outbox.cif.g09.slc.cpg/sg33_1_cif.got.tgz:624.got - 2010.04.14 01:49:19.
