data_PCOD8171904
_publ_section_title
;
Structure prediction by ZEFSAII (Michael W. Deem and Ramdas Pophale) SiO2 
 PCOD8171904
Probable space group: P N N 2
;
_chemical_formula_sum "Si O2"
_cell_formula_units_Z 32
_cell_length_a 8.625544
_cell_length_b 16.105280
_cell_length_c 11.374738
_cell_angle_alpha 90.000000
_cell_angle_beta 90.000000
_cell_angle_gamma 90.000000
_cell_volume 1580.142218
_symmetry_space_group_name_H-M "P N N 2"
_symmetry_group_IT_number 34
_symmetry_cell_setting 'orthorhombic'
loop_
_space_group_symop_operation_xyz
x,y,z
-x,-y,z
1/2-x,1/2+y,1/2+z
1/2+x,1/2-y,1/2+z
loop_
_atom_site_type_symbol
_atom_site_label
_atom_site_fract_x
_atom_site_fract_y
_atom_site_fract_z
Si Si1 0.239943 0.641130 0.183740
Si Si2 0.748310 0.210063 0.608201
Si Si3 0.673379 0.491224 0.470380
Si Si4 0.513129 0.237072 0.253101
Si Si5 0.333053 0.466841 0.206647
Si Si6 0.169753 0.366744 0.563137
Si Si7 0.930727 0.256308 0.016691
Si Si8 0.134155 0.672188 0.426384
O O1 0.415179 0.672389 0.217879
O O2 0.218129 0.542830 0.177045
O O3 0.129267 0.680042 0.285502
O O4 0.194159 0.674462 0.055524
O O5 0.773302 0.112478 0.633692
O O6 0.569299 0.237279 0.611873
O O7 0.819423 0.238926 0.482274
O O8 0.837236 0.264545 0.706599
O O9 0.500000 0.500000 0.521814
O O10 0.674123 0.543729 0.347660
O O11 0.792853 0.535086 0.561896
O O12 0.731769 0.396413 0.457622
O O13 0.617727 0.165340 0.191809
O O14 0.507516 0.223075 0.391589
O O15 0.500000 0.500000 0.163765
O O16 0.335364 0.328870 0.520687
O O17 0.036718 0.351283 0.467716
#
# Coordination Sequence:
#
# PCOD8171904 Si02
#       8
#     4   4   4   4   4   4   4   4
#     4  10  21  38  59  93 123 161 213 261 307 387
#     4  11  21  37  66  87 124 167 199 264 327 379
#     4  10  20  36  65  96 126 161 214 275 318 379
#     4  10  21  40  60  90 123 163 207 256 322 378
#     4  10  20  35  61  91 125 158 208 266 325 377
#     4  10  22  37  60  92 126 162 208 268 315 386
#     4  11  23  37  61  91 128 165 213 258 318 387
#     4  10  21  37  62  92 128 165 210 263 327 376
#
# _framework density 20.251342999999999
#
# number of rings (size 3 to 8) (size 9 to 14) (size 15 to 20)
#    0.000    1.750    2.500    1.875    5.250    0.500 
#    0.000    0.000   11.000    0.750    0.000    0.000 
#    0.000    0.000    0.000    0.000    0.000    0.000 
#
# Total GULP energy -396523.636871 kJ/mol
# GULP energy per Si atom -12391.363652 kJ/mol
# Density = 2.020525 g / cm^3
# Si number density = 20.251343 Si / 1000 Ang^3
#
#
#
# Elastic Constant Matrix: (Units=GPa)
#
#
# Indices 1 2 3 4 5 6 
#
# 1 112.4860 17.9285 34.3075 0.0000 0.0000 0.0000
# 2 17.9285 96.6034 44.3997 0.0000 0.0000 0.0000
# 3 34.3075 44.3997 83.8520 0.0000 0.0000 0.0000
# 4 0.0000 0.0000 0.0000 29.8546 0.0000 0.0000
# 5 0.0000 0.0000 0.0000 0.0000 32.5201 0.0000
# 6 0.0000 0.0000 0.0000 0.0000 0.0000 25.9979
#
#
#
# Elastic Compliance Matrix: (Units=1/GPa)
#
#
# Indices 1 2 3 4 5 6 
#
# 1 0.010158 0.000033 -0.004173 0.000000 0.000000 0.000000
# 2 0.000033 0.013681 -0.007258 0.000000 0.000000 0.000000
# 3 -0.004173 -0.007258 0.017476 0.000000 0.000000 0.000000
# 4 0.000000 0.000000 0.000000 0.033496 0.000000 0.000000
# 5 0.000000 0.000000 0.000000 0.000000 0.030750 0.000000
# 6 0.000000 0.000000 0.000000 0.000000 0.000000 0.038465
#
#
# Mechanical properties :
#
#
# Convention : Reuss Voigt Hill
#
# Bulk Modulus (GPa) = 53.99907 54.02365 54.01136
# Shear Modulus (GPa) = 28.90264 30.76158 29.83211
#
# Velocity S-wave (km/s) = 3.78192 3.90165 3.84225
# Velocity P-wave (km/s) = 6.76705 6.85796 6.81266
#
# Compressibility (1/GPa) = 0.01851884
#
# Stress axis : x y z
#
# Youngs Moduli (GPa) = 98.44854 73.09317 57.22054
#
# Poissons Ratio (x) = -0.00241 0.23880
# Poissons Ratio (y) = -0.00325 0.41529
# Poissons Ratio (z) = 0.41086 0.53049
#
# Static dielectric constant tensor:
#      x y z
#    x 3.862970 0.000000 0.000000 
#    y 0.000000 3.609040 0.000000 
#    z 0.000000 0.000000 3.531800 
# 
# 
# High freq. dielectric constant tensor:
#      x y z
#    x 1.808530 0.000000 0.000000 
#    y 0.000000 1.779110 0.000000 
#    z 0.000000 0.000000 1.762140 
# 
# From -- ./inp_files/5162.got.cif
#   From: 2010.03.12/outbox.cif.g09.slc.cpg/sg34_3_cif.got.tgz:5162.got - 2010.04.14 01:56:33.
