data_PCOD8171965
_publ_section_title
;
Structure prediction by ZEFSAII (Michael W. Deem and Ramdas Pophale) SiO2 
 PCOD8171965
Probable space group: P N N 2
;
_chemical_formula_sum "Si O2"
_cell_formula_units_Z 30
_cell_length_a 5.032682
_cell_length_b 32.268430
_cell_length_c 8.741070
_cell_angle_alpha 90.000000
_cell_angle_beta 90.000000
_cell_angle_gamma 90.000000
_cell_volume 1419.521332
_symmetry_space_group_name_H-M "P N N 2"
_symmetry_group_IT_number 34
_symmetry_cell_setting 'orthorhombic'
loop_
_space_group_symop_operation_xyz
x,y,z
-x,-y,z
1/2-x,1/2+y,1/2+z
1/2+x,1/2-y,1/2+z
loop_
_atom_site_type_symbol
_atom_site_label
_atom_site_fract_x
_atom_site_fract_y
_atom_site_fract_z
Si Si1 0.949916 0.863317 0.408500
Si Si2 0.476913 0.272914 0.960388
Si Si3 0.979456 0.283086 0.169602
Si Si4 0.500000 0.500000 0.980665
Si Si5 0.844534 0.542579 0.555083
Si Si6 0.161962 0.059819 0.233727
Si Si7 0.452332 0.872566 0.596639
Si Si8 0.853156 0.543278 0.214259
O O1 0.015042 0.815925 0.363143
O O2 0.979280 0.896244 0.272633
O O3 0.640337 0.866410 0.451444
O O4 0.143619 0.875010 0.548921
O O5 0.507522 0.236986 0.836164
O O6 0.202725 0.267862 0.051176
O O7 0.702384 0.271278 0.090264
O O8 0.002390 0.332503 0.204676
O O9 0.294698 0.527892 0.877859
O O10 0.628158 0.535461 0.087558
O O11 0.562336 0.537398 0.634138
O O12 0.760697 0.556172 0.384275
O O13 0.000000 0.500000 0.554213
O O14 0.060649 0.570790 0.647172
O O15 0.531174 0.916864 0.669579
O O16 0.000000 0.500000 0.223601
#
# Coordination Sequence:
#
# PCOD8171965 Si02
#       8
#     4   4   4   2   4   4   4   4
#     4  10  21  38  63  89 122 155 207 260 303 358
#     4  10  21  40  64  93 125 164 201 256 311 370
#     4  10  21  40  66  92 127 164 202 257 310 371
#     4  12  24  36  72  84 112 164 222 244 284 384
#     4  11  25  41  57  82 131 158 191 259 321 350
#     4  12  23  41  61  89 117 160 206 253 305 362
#     4  10  21  40  62  91 123 159 207 258 301 359
#     4  11  26  40  62  91 122 167 208 257 308 367
#
# _framework density 21.133886
#
# number of rings (size 3 to 8) (size 9 to 14) (size 15 to 20)
#    0.000    1.333    2.667    2.400    5.600    0.000 
#    4.800    0.000    0.000    0.000    0.000    0.000 
#    0.000    0.000    0.000    0.000    0.000    0.000 
#
# Total GULP energy -371655.480473 kJ/mol
# GULP energy per Si atom -12388.516016 kJ/mol
# Density = 2.108578 g / cm^3
# Si number density = 21.133886 Si / 1000 Ang^3
#
#
#
# Elastic Constant Matrix: (Units=GPa)
#
#
# Indices 1 2 3 4 5 6 
#
# 1 79.6076 15.0574 24.0937 0.0000 0.0000 0.0000
# 2 15.0574 117.4637 38.3610 0.0000 0.0000 0.0000
# 3 24.0937 38.3610 94.2527 0.0000 0.0000 0.0000
# 4 0.0000 0.0000 0.0000 22.9211 0.0000 0.0000
# 5 0.0000 0.0000 0.0000 0.0000 -184.1595 0.0000
# 6 0.0000 0.0000 0.0000 0.0000 0.0000 24.0837
#
#
#
# Elastic Compliance Matrix: (Units=1/GPa)
#
#
# Indices 1 2 3 4 5 6 
#
# 1 0.013665 -0.000705 -0.003207 0.000000 0.000000 0.000000
# 2 -0.000705 0.009855 -0.003831 0.000000 0.000000 0.000000
# 3 -0.003207 -0.003831 0.012989 0.000000 0.000000 0.000000
# 4 0.000000 0.000000 0.000000 0.043628 0.000000 0.000000
# 5 0.000000 0.000000 0.000000 0.000000 -0.005430 0.000000
# 6 0.000000 0.000000 0.000000 0.000000 0.000000 0.041522
#
#
# Mechanical properties :
#
#
# Convention : Reuss Voigt Hill
#
# Bulk Modulus (GPa) = 47.56260 49.59427 48.57844
# Shear Modulus (GPa) = 36.04381 -13.17680 11.43351
#
# Velocity S-wave (km/s) = 4.13425 -2.49969 2.32847
# Velocity P-wave (km/s) = 6.73376 3.89697 5.50136
#
# Compressibility (1/GPa) = 0.02102492
#
# Stress axis : x y z
#
# Youngs Moduli (GPa) = 73.17781 101.47528 76.99075
#
# Poissons Ratio (x) = 0.07150 0.24687
# Poissons Ratio (y) = 0.05156 0.29493
# Poissons Ratio (z) = 0.23465 0.38873
#
# Static dielectric constant tensor:
#      x y z
#    x 3.971640 0.000000 0.000000 
#    y 0.000000 4.099060 0.000000 
#    z 0.000000 0.000000 3.996100 
# 
# 
# High freq. dielectric constant tensor:
#      x y z
#    x 1.833020 0.000000 0.000000 
#    y 0.000000 1.831660 0.000000 
#    z 0.000000 0.000000 1.808230 
# 
# From -- ./inp_files/2196.got.cif
#   From: 2010.03.12/outbox.cif.g09.slc.cpg/sg34_2_cif.got.tgz:2196.got - 2010.04.14 01:56:33.
