data_PCOD8171310
_publ_section_title
;
Structure prediction by ZEFSAII (Michael W. Deem and Ramdas Pophale) SiO2 
 PCOD8171310
Probable space group: P N A 21
;
_chemical_formula_sum "Si O2"
_cell_formula_units_Z 32
_cell_length_a 12.503217
_cell_length_b 20.298437
_cell_length_c 5.514060
_cell_angle_alpha 90.000000
_cell_angle_beta 90.000000
_cell_angle_gamma 90.000000
_cell_volume 1399.445063
_symmetry_space_group_name_H-M "P N A 21"
_symmetry_group_IT_number 33
_symmetry_cell_setting 'orthorhombic'
loop_
_space_group_symop_operation_xyz
x,y,z
-x,-y,1/2+z
1/2-x,1/2+y,1/2+z
1/2+x,1/2-y,z
loop_
_atom_site_type_symbol
_atom_site_label
_atom_site_fract_x
_atom_site_fract_y
_atom_site_fract_z
Si Si1 0.030779 0.310520 0.172720
Si Si2 0.512052 0.393186 0.769195
Si Si3 0.290500 0.453461 0.828653
Si Si4 0.778269 0.615476 0.831404
Si Si5 0.284190 0.591680 0.005511
Si Si6 0.852373 0.328798 0.817553
Si Si7 0.390015 0.285457 0.489095
Si Si8 0.644519 0.317154 0.119024
O O1 0.095225 0.366640 0.319623
O O2 0.122694 0.260155 0.086065
O O3 0.946431 0.271168 0.333877
O O4 0.965811 0.342594 0.948495
O O5 0.418712 0.445462 0.820250
O O6 0.621007 0.431027 0.690083
O O7 0.472833 0.341535 0.565747
O O8 0.539543 0.354286 0.015572
O O9 0.238205 0.423960 0.583849
O O10 0.248335 0.423039 0.082213
O O11 0.262645 0.531091 0.824267
O O12 0.707360 0.682088 0.840898
O O13 0.169712 0.613750 0.118267
O O14 0.335384 0.658030 0.890968
O O15 0.846563 0.253698 0.722185
O O16 0.752569 0.337714 0.990706
#
# Coordination Sequence:
#
# PCOD8171310 Si02
#       8
#     4   4   4   4   4   4   4   4
#     4  12  23  41  73  99 143 184 240 296 369 431
#     4  10  23  38  71 105 142 179 231 290 375 431
#     4  11  28  47  71 104 149 188 247 299 348 431
#     4  11  28  45  73 105 142 193 240 303 360 426
#     4  11  25  45  71 101 144 191 242 291 366 428
#     4  11  25  41  69 104 141 189 232 304 355 439
#     4  11  23  42  67 107 143 179 233 302 370 437
#     4  11  23  41  67 105 140 181 231 295 371 437
#
# _framework density 22.866205999999998
#
# number of rings (size 3 to 8) (size 9 to 14) (size 15 to 20)
#    0.000    1.000    2.500    3.000   15.750    0.000 
#    0.000    0.000    5.500    0.000    0.000    0.000 
#    0.000    0.000    0.000    0.000    0.000    0.000 
#
# Total GULP energy -396585.550907 kJ/mol
# GULP energy per Si atom -12393.298466 kJ/mol
# Density = 2.281416 g / cm^3
# Si number density = 22.866206 Si / 1000 Ang^3
#
#
#
# Elastic Constant Matrix: (Units=GPa)
#
#
# Indices 1 2 3 4 5 6 
#
# 1 122.7403 60.5865 52.7457 0.0000 0.0000 0.0000
# 2 60.5865 88.1619 37.6384 0.0000 0.0000 0.0000
# 3 52.7457 37.6384 113.4846 0.0000 0.0000 0.0000
# 4 0.0000 0.0000 0.0000 35.7420 0.0000 0.0000
# 5 0.0000 0.0000 0.0000 0.0000 41.1881 0.0000
# 6 0.0000 0.0000 0.0000 0.0000 0.0000 21.6767
#
#
#
# Elastic Compliance Matrix: (Units=1/GPa)
#
#
# Indices 1 2 3 4 5 6 
#
# 1 0.013571 -0.007728 -0.003745 0.000000 0.000000 0.000000
# 2 -0.007728 0.017614 -0.002250 0.000000 0.000000 0.000000
# 3 -0.003745 -0.002250 0.011299 0.000000 0.000000 0.000000
# 4 0.000000 0.000000 0.000000 0.027978 0.000000 0.000000
# 5 0.000000 0.000000 0.000000 0.000000 0.024279 0.000000
# 6 0.000000 0.000000 0.000000 0.000000 0.000000 0.046132
#
#
# Mechanical properties :
#
#
# Convention : Reuss Voigt Hill
#
# Bulk Modulus (GPa) = 66.49540 69.59200 68.04370
# Shear Modulus (GPa) = 28.84662 31.28244 30.06453
#
# Velocity S-wave (km/s) = 3.55567 3.70275 3.62995
# Velocity P-wave (km/s) = 6.78236 6.98434 6.88409
#
# Compressibility (1/GPa) = 0.01503864
#
# Stress axis : x y z
#
# Youngs Moduli (GPa) = 73.68710 56.77321 88.50721
#
# Poissons Ratio (x) = 0.43872 0.33142
# Poissons Ratio (y) = 0.56942 0.19916
# Poissons Ratio (z) = 0.27593 0.12775
#
# Static dielectric constant tensor:
#      x y z
#    x 4.155650 0.000000 0.000000 
#    y 0.000000 3.998020 0.000000 
#    z 0.000000 0.000000 4.329150 
# 
# 
# High freq. dielectric constant tensor:
#      x y z
#    x 1.905740 0.000000 0.000000 
#    y 0.000000 1.880850 0.000000 
#    z 0.000000 0.000000 1.909480 
# 
# From -- ./inp_files/1045.got.cif
#   From: 2010.03.12/outbox.cif.g09.slc.cpg/sg33_1_cif.got.tgz:1045.got - 2010.04.14 01:49:19.
