data_PCOD8171837
_publ_section_title
;
Structure prediction by ZEFSAII (Michael W. Deem and Ramdas Pophale) SiO2 
 PCOD8171837
Probable space group: P N N 2
;
_chemical_formula_sum "Si O2"
_cell_formula_units_Z 30
_cell_length_a 8.652818
_cell_length_b 19.184788
_cell_length_c 9.308177
_cell_angle_alpha 90.000000
_cell_angle_beta 90.000000
_cell_angle_gamma 90.000000
_cell_volume 1545.180456
_symmetry_space_group_name_H-M "P N N 2"
_symmetry_group_IT_number 34
_symmetry_cell_setting 'orthorhombic'
loop_
_space_group_symop_operation_xyz
x,y,z
-x,-y,z
1/2-x,1/2+y,1/2+z
1/2+x,1/2-y,1/2+z
loop_
_atom_site_type_symbol
_atom_site_label
_atom_site_fract_x
_atom_site_fract_y
_atom_site_fract_z
Si Si1 0.330103 0.289903 0.445960
Si Si2 0.500000 0.000000 0.620294
Si Si3 0.810554 0.631581 0.188723
Si Si4 0.126040 0.661237 0.741779
Si Si5 0.783699 0.693837 0.747655
Si Si6 0.905478 0.095995 0.431471
Si Si7 0.767234 0.952130 0.413493
Si Si8 0.344609 0.729786 0.523024
O O1 0.255648 0.349634 0.345716
O O2 0.334942 0.216510 0.365666
O O3 0.230569 0.276878 0.587909
O O4 0.498121 0.314502 0.505268
O O5 0.574585 0.064896 0.709390
O O6 0.365853 0.037700 0.530696
O O7 0.887976 0.699395 0.112644
O O8 0.669486 0.611843 0.085081
O O9 0.194666 0.585639 0.775874
O O10 0.203941 0.687429 0.594256
O O11 0.942519 0.649964 0.739148
O O12 0.637730 0.649610 0.804954
O O13 0.794484 0.756895 0.859392
O O14 0.088044 0.095404 0.465719
O O15 0.838556 0.024945 0.365871
#
# Coordination Sequence:
#
# PCOD8171837 Si02
#       8
#     4   2   4   4   4   4   4   4
#     4  10  20  34  53  75 107 139 172 218 272 322
#     4  10  18  34  56  80 110 142 186 228 268 324
#     4   9  19  35  53  78 106 138 180 226 267 323
#     4  10  20  33  53  81 105 134 178 221 264 320
#     4  10  20  35  53  77 108 141 174 218 267 318
#     4   9  19  34  55  78 104 138 179 216 263 320
#     4  10  18  32  57  81 103 140 179 219 264 317
#     4   9  19  34  52  78 108 138 175 219 269 324
#
# _framework density 19.415208
#
# number of rings (size 3 to 8) (size 9 to 14) (size 15 to 20)
#    0.000    2.400    0.000    4.000    0.000    6.400 
#    0.000    2.667    0.000   12.800    0.000    0.000 
#    0.000    0.000    0.000    0.000    0.000    0.000 
#
# Total GULP energy -371682.850035 kJ/mol
# GULP energy per Si atom -12389.428335 kJ/mol
# Density = 1.937102 g / cm^3
# Si number density = 19.415208 Si / 1000 Ang^3
#
#
#
# Elastic Constant Matrix: (Units=GPa)
#
#
# Indices 1 2 3 4 5 6 
#
# 1 122.6545 31.7981 46.6023 0.0000 0.0000 0.0000
# 2 31.7981 55.8882 29.3608 0.0000 0.0000 0.0000
# 3 46.6023 29.3608 122.1486 0.0000 0.0000 0.0000
# 4 0.0000 0.0000 0.0000 19.8034 0.0000 0.0000
# 5 0.0000 0.0000 0.0000 0.0000 19.9325 0.0000
# 6 0.0000 0.0000 0.0000 0.0000 0.0000 32.8093
#
#
#
# Elastic Compliance Matrix: (Units=1/GPa)
#
#
# Indices 1 2 3 4 5 6 
#
# 1 0.010396 -0.004385 -0.002912 0.000000 0.000000 0.000000
# 2 -0.004385 0.022328 -0.003694 0.000000 0.000000 0.000000
# 3 -0.002912 -0.003694 0.010186 0.000000 0.000000 0.000000
# 4 0.000000 0.000000 0.000000 0.050496 0.000000 0.000000
# 5 0.000000 0.000000 0.000000 0.000000 0.050169 0.000000
# 6 0.000000 0.000000 0.000000 0.000000 0.000000 0.030479
#
#
# Mechanical properties :
#
#
# Convention : Reuss Voigt Hill
#
# Bulk Modulus (GPa) = 47.78389 57.35709 52.57049
# Shear Modulus (GPa) = 24.62877 27.37104 25.99990
#
# Velocity S-wave (km/s) = 3.56551 3.75877 3.66341
# Velocity P-wave (km/s) = 6.45100 6.96019 6.71043
#
# Compressibility (1/GPa) = 0.02092755
#
# Stress axis : x y z
#
# Youngs Moduli (GPa) = 96.18750 44.78587 98.17552
#
# Poissons Ratio (x) = 0.19639 0.28593
# Poissons Ratio (y) = 0.42179 0.36267
# Poissons Ratio (z) = 0.28014 0.16544
#
# Static dielectric constant tensor:
#      x y z
#    x 3.854650 0.000000 0.000000 
#    y 0.000000 3.503400 0.000000 
#    z 0.000000 0.000000 3.365000 
# 
# 
# High freq. dielectric constant tensor:
#      x y z
#    x 1.772580 0.000000 0.000000 
#    y 0.000000 1.737990 0.000000 
#    z 0.000000 0.000000 1.735760 
# 
# From -- ./inp_files/2863.got.cif
#   From: 2010.03.12/outbox.cif.g09.slc.cpg/sg34_2_cif.got.tgz:2863.got - 2010.04.14 01:56:33.
