data_PCOD8171319
_publ_section_title
;
Structure prediction by ZEFSAII (Michael W. Deem and Ramdas Pophale) SiO2 
 PCOD8171319
Probable space group: P N A 21
;
_chemical_formula_sum "Si O2"
_cell_formula_units_Z 24
_cell_length_a 9.514184
_cell_length_b 8.439830
_cell_length_c 14.517726
_cell_angle_alpha 90.000000
_cell_angle_beta 90.000000
_cell_angle_gamma 90.000000
_cell_volume 1165.745749
_symmetry_space_group_name_H-M "P N A 21"
_symmetry_group_IT_number 33
_symmetry_cell_setting 'orthorhombic'
loop_
_space_group_symop_operation_xyz
x,y,z
-x,-y,1/2+z
1/2-x,1/2+y,1/2+z
1/2+x,1/2-y,z
loop_
_atom_site_type_symbol
_atom_site_label
_atom_site_fract_x
_atom_site_fract_y
_atom_site_fract_z
Si Si1 0.613741 0.547977 0.867420
Si Si2 0.468045 0.846160 0.611413
Si Si3 0.676676 0.612781 0.334541
Si Si4 0.844299 0.429552 0.743829
Si Si5 0.416324 0.123936 0.299883
Si Si6 0.756303 0.332484 0.000531
O O1 0.468157 0.456994 0.868725
O O2 0.694739 0.502796 0.772894
O O3 0.591918 0.737364 0.875591
O O4 0.699656 0.495990 0.957859
O O5 0.550406 0.786172 0.702718
O O6 0.347820 0.722358 0.582049
O O7 0.584811 0.867806 0.532758
O O8 0.390121 0.012987 0.640825
O O9 0.655868 0.739199 0.251360
O O10 0.770430 0.470395 0.295623
O O11 0.749089 0.697839 0.421634
O O12 0.957975 0.498577 0.818920
#
# Coordination Sequence:
#
# PCOD8171319 Si02
#       6
#     4   4   4   4   4   4
#     4  11  21  38  66  96 125 173 229 263 328 408
#     4  10  23  41  65 100 130 175 217 283 345 386
#     4  11  22  41  69  94 124 182 230 269 329 410
#     4   9  21  38  66  91 125 170 228 267 323 402
#     4  10  23  40  69  92 127 172 232 273 323 406
#     4  11  22  42  67  97 139 176 212 279 354 390
#
# _framework density 20.587681
#
# number of rings (size 3 to 8) (size 9 to 14) (size 15 to 20)
#    1.000    0.667    1.667    4.000    4.667    0.000 
#    0.000    1.667    3.667    0.000    0.000    0.000 
#    0.000    0.000    0.000    0.000    0.000    0.000 
#
# Total GULP energy -297419.988328 kJ/mol
# GULP energy per Si atom -12392.499514 kJ/mol
# Density = 2.054082 g / cm^3
# Si number density = 20.587681 Si / 1000 Ang^3
#
#
#
# Elastic Constant Matrix: (Units=GPa)
#
#
# Indices 1 2 3 4 5 6 
#
# 1 93.1436 28.2932 22.3635 0.0000 0.0000 0.0000
# 2 28.2932 117.1207 30.9906 0.0000 0.0000 0.0000
# 3 22.3635 30.9906 75.1304 0.0000 0.0000 0.0000
# 4 0.0000 0.0000 0.0000 26.8683 0.0000 0.0000
# 5 0.0000 0.0000 0.0000 0.0000 40.6904 0.0000
# 6 0.0000 0.0000 0.0000 0.0000 0.0000 30.6965
#
#
#
# Elastic Compliance Matrix: (Units=1/GPa)
#
#
# Indices 1 2 3 4 5 6 
#
# 1 0.012048 -0.002202 -0.002678 0.000000 0.000000 0.000000
# 2 -0.002202 0.009987 -0.003464 0.000000 0.000000 0.000000
# 3 -0.002678 -0.003464 0.015536 0.000000 0.000000 0.000000
# 4 0.000000 0.000000 0.000000 0.037219 0.000000 0.000000
# 5 0.000000 0.000000 0.000000 0.000000 0.024576 0.000000
# 6 0.000000 0.000000 0.000000 0.000000 0.000000 0.032577
#
#
# Mechanical properties :
#
#
# Convention : Reuss Voigt Hill
#
# Bulk Modulus (GPa) = 47.88553 49.85438 48.86996
# Shear Modulus (GPa) = 32.13556 33.23420 32.68488
#
# Velocity S-wave (km/s) = 3.95512 4.02216 3.98878
# Velocity P-wave (km/s) = 6.64584 6.77042 6.70842
#
# Compressibility (1/GPa) = 0.02088314
#
# Stress axis : x y z
#
# Youngs Moduli (GPa) = 83.00188 100.13311 64.36578
#
# Poissons Ratio (x) = 0.22048 0.17237
# Poissons Ratio (y) = 0.18276 0.22296
# Poissons Ratio (z) = 0.22228 0.34686
#
# Static dielectric constant tensor:
#      x y z
#    x 3.860570 0.000000 0.000000 
#    y 0.000000 3.572550 0.000000 
#    z 0.000000 0.000000 3.424870 
# 
# 
# High freq. dielectric constant tensor:
#      x y z
#    x 1.827570 0.000000 0.000000 
#    y 0.000000 1.793150 0.000000 
#    z 0.000000 0.000000 1.772820 
# 
# From -- ./inp_files/8439.got.cif
#   From: 2010.03.12/outbox.cif.g09.slc.cpg/sg33_5_cif.got.tgz:8439.got - 2010.04.14 01:49:19.
