data_PCOD8171411
_publ_section_title
;
Structure prediction by ZEFSAII (Michael W. Deem and Ramdas Pophale) SiO2 
 PCOD8171411
Probable space group: P N A 21
;
_chemical_formula_sum "Si O2"
_cell_formula_units_Z 16
_cell_length_a 10.099852
_cell_length_b 12.339186
_cell_length_c 4.911501
_cell_angle_alpha 90.000000
_cell_angle_beta 90.000000
_cell_angle_gamma 90.000000
_cell_volume 612.090667
_symmetry_space_group_name_H-M "P N A 21"
_symmetry_group_IT_number 33
_symmetry_cell_setting 'orthorhombic'
loop_
_space_group_symop_operation_xyz
x,y,z
-x,-y,1/2+z
1/2-x,1/2+y,1/2+z
1/2+x,1/2-y,z
loop_
_atom_site_type_symbol
_atom_site_label
_atom_site_fract_x
_atom_site_fract_y
_atom_site_fract_z
Si Si1 0.934770 0.453376 0.192480
Si Si2 0.607288 0.233832 0.244213
Si Si3 0.699511 0.563739 0.486662
Si Si4 0.939752 0.870392 0.257139
O O1 0.793512 0.486254 0.308742
O O2 0.050753 0.504770 0.384034
O O3 0.963429 0.324293 0.196298
O O4 0.609769 0.275942 0.553072
O O5 0.723333 0.149325 0.174549
O O6 0.619543 0.337920 0.050174
O O7 0.613738 0.489038 0.687924
O O8 0.599542 0.624392 0.279316
#
# Coordination Sequence:
#
# PCOD8171411 Si02
#       4
#     4   4   4   4
#     4  10  23  46  77 107 151 202 254 322 390 462
#     4  11  27  48  79 115 153 215 263 318 405 482
#     4  11  28  51  78 116 168 195 276 330 398 476
#     4  12  28  47  80 116 158 212 257 332 405 458
#
# _framework density 26.139915999999999
#
# number of rings (size 3 to 8) (size 9 to 14) (size 15 to 20)
#    0.000    1.000    0.000    4.500    7.000   16.000 
#    0.000    0.000    0.000    0.000    0.000    0.000 
#    0.000    0.000    0.000    0.000    0.000    0.000 
#
# Total GULP energy -198415.331124 kJ/mol
# GULP energy per Si atom -12400.958195 kJ/mol
# Density = 2.608042 g / cm^3
# Si number density = 26.139916 Si / 1000 Ang^3
#
#
#
# Elastic Constant Matrix: (Units=GPa)
#
#
# Indices 1 2 3 4 5 6 
#
# 1 148.4114 58.9046 35.5464 0.0000 0.0000 0.0000
# 2 58.9046 110.8503 39.6087 0.0000 0.0000 0.0000
# 3 35.5464 39.6087 98.0854 0.0000 0.0000 0.0000
# 4 0.0000 0.0000 0.0000 50.4588 0.0000 0.0000
# 5 0.0000 0.0000 0.0000 0.0000 41.0563 0.0000
# 6 0.0000 0.0000 0.0000 0.0000 0.0000 46.9538
#
#
#
# Elastic Compliance Matrix: (Units=1/GPa)
#
#
# Indices 1 2 3 4 5 6 
#
# 1 0.008726 -0.004098 -0.001507 0.000000 0.000000 0.000000
# 2 -0.004098 0.012467 -0.003549 0.000000 0.000000 0.000000
# 3 -0.001507 -0.003549 0.012175 0.000000 0.000000 0.000000
# 4 0.000000 0.000000 0.000000 0.019818 0.000000 0.000000
# 5 0.000000 0.000000 0.000000 0.000000 0.024357 0.000000
# 6 0.000000 0.000000 0.000000 0.000000 0.000000 0.021298
#
#
# Mechanical properties :
#
#
# Convention : Reuss Voigt Hill
#
# Bulk Modulus (GPa) = 66.40967 69.49626 67.95296
# Shear Modulus (GPa) = 40.92707 42.57959 41.75333
#
# Velocity S-wave (km/s) = 3.96118 4.04036 4.00096
# Velocity P-wave (km/s) = 6.81042 6.95772 6.88447
#
# Compressibility (1/GPa) = 0.01505805
#
# Stress axis : x y z
#
# Youngs Moduli (GPa) = 114.60554 80.21125 82.13755
#
# Poissons Ratio (x) = 0.32871 0.12380
# Poissons Ratio (y) = 0.46966 0.29153
# Poissons Ratio (z) = 0.17274 0.28469
#
# Static dielectric constant tensor:
#      x y z
#    x 4.704660 0.000000 0.000000 
#    y 0.000000 4.789540 0.000000 
#    z 0.000000 0.000000 4.610490 
# 
# 
# High freq. dielectric constant tensor:
#      x y z
#    x 2.046510 0.000000 0.000000 
#    y 0.000000 2.055770 0.000000 
#    z 0.000000 0.000000 2.054160 
# 
# From -- ./inp_files/260.got.cif
#   From: 2010.03.12/outbox.cif.g09.slc.cpg/sg33_1_cif.got.tgz:260.got - 2010.04.14 01:49:19.
