data_PCOD8171317
_publ_section_title
;
Structure prediction by ZEFSAII (Michael W. Deem and Ramdas Pophale) SiO2 
 PCOD8171317
Probable space group: P N A 21
;
_chemical_formula_sum "Si O2"
_cell_formula_units_Z 32
_cell_length_a 5.382523
_cell_length_b 30.595510
_cell_length_c 8.784741
_cell_angle_alpha 90.000000
_cell_angle_beta 90.000000
_cell_angle_gamma 90.000000
_cell_volume 1446.680251
_symmetry_space_group_name_H-M "P N A 21"
_symmetry_group_IT_number 33
_symmetry_cell_setting 'orthorhombic'
loop_
_space_group_symop_operation_xyz
x,y,z
-x,-y,1/2+z
1/2-x,1/2+y,1/2+z
1/2+x,1/2-y,z
loop_
_atom_site_type_symbol
_atom_site_label
_atom_site_fract_x
_atom_site_fract_y
_atom_site_fract_z
Si Si1 0.876801 0.371456 0.903000
Si Si2 0.618545 0.585606 0.526790
Si Si3 0.942377 0.272082 0.907423
Si Si4 0.531160 0.422983 0.352375
Si Si5 0.370640 0.129466 0.545753
Si Si6 0.787650 0.506931 0.371818
Si Si7 0.346150 0.956957 0.056719
Si Si8 0.036002 0.727667 0.047186
O O1 0.917862 0.322043 0.956732
O O2 0.807010 0.373048 0.724424
O O3 0.634322 0.389235 0.987686
O O4 0.131187 0.395868 0.948473
O O5 0.646672 0.589006 0.710931
O O6 0.589260 0.535201 0.471305
O O7 0.701444 0.246740 0.974799
O O8 0.953940 0.266167 0.726987
O O9 0.635016 0.379420 0.434528
O O10 0.721715 0.460299 0.292967
O O11 0.427692 0.454215 0.488500
O O12 0.557215 0.090789 0.504315
O O13 0.480824 0.176610 0.502713
O O14 0.865581 0.539505 0.236837
O O15 0.017112 0.498184 0.483056
O O16 0.289649 0.748930 0.979206
#
# Coordination Sequence:
#
# PCOD8171317 Si02
#       8
#     4   4   4   4   4   4   4   4
#     4  11  24  41  66  99 128 169 216 274 332 395
#     4  12  26  42  65  94 134 172 222 274 328 397
#     4   9  17  34  61  92 126 158 205 265 327 392
#     4  11  26  40  64  91 132 180 222 279 330 401
#     4  10  23  40  66  97 128 171 220 276 334 399
#     4  11  24  40  65  91 131 175 231 273 340 389
#     4  11  23  41  64  93 129 175 225 278 330 398
#     4   9  19  34  61  95 128 160 207 271 331 393
#
# _framework density 22.119606999999998
#
# number of rings (size 3 to 8) (size 9 to 14) (size 15 to 20)
#    0.000    1.500    1.250    3.000    8.750    4.000 
#    0.000    0.000    0.000    4.500    0.000    0.000 
#    0.000    0.000    0.000    0.000    0.000    0.000 
#
# Total GULP energy -396471.806500 kJ/mol
# GULP energy per Si atom -12389.743953 kJ/mol
# Density = 2.206926 g / cm^3
# Si number density = 22.119607 Si / 1000 Ang^3
#
#
#
# Elastic Constant Matrix: (Units=GPa)
#
#
# Indices 1 2 3 4 5 6 
#
# 1 113.9152 38.6148 20.5467 0.0000 0.0000 0.0000
# 2 38.6148 122.5261 29.8061 0.0000 0.0000 0.0000
# 3 20.5467 29.8061 94.3743 0.0000 0.0000 0.0000
# 4 0.0000 0.0000 0.0000 22.9494 0.0000 0.0000
# 5 0.0000 0.0000 0.0000 0.0000 27.3676 0.0000
# 6 0.0000 0.0000 0.0000 0.0000 0.0000 37.2697
#
#
#
# Elastic Compliance Matrix: (Units=1/GPa)
#
#
# Indices 1 2 3 4 5 6 
#
# 1 0.009968 -0.002831 -0.001276 0.000000 0.000000 0.000000
# 2 -0.002831 0.009645 -0.002430 0.000000 0.000000 0.000000
# 3 -0.001276 -0.002430 0.011641 0.000000 0.000000 0.000000
# 4 0.000000 0.000000 0.000000 0.043574 0.000000 0.000000
# 5 0.000000 0.000000 0.000000 0.000000 0.036539 0.000000
# 6 0.000000 0.000000 0.000000 0.000000 0.000000 0.026831
#
#
# Mechanical properties :
#
#
# Convention : Reuss Voigt Hill
#
# Bulk Modulus (GPa) = 55.00392 56.52786 55.76589
# Shear Modulus (GPa) = 31.77957 33.64053 32.71005
#
# Velocity S-wave (km/s) = 3.79451 3.90403 3.84966
# Velocity P-wave (km/s) = 6.64217 6.77739 6.71012
#
# Compressibility (1/GPa) = 0.01818052
#
# Stress axis : x y z
#
# Youngs Moduli (GPa) = 100.31770 103.68234 85.90096
#
# Poissons Ratio (x) = 0.29354 0.10962
# Poissons Ratio (y) = 0.28401 0.20872
# Poissons Ratio (z) = 0.12802 0.25192
#
# Static dielectric constant tensor:
#      x y z
#    x 4.028910 0.000000 0.000000 
#    y 0.000000 4.066130 0.000000 
#    z 0.000000 0.000000 3.700280 
# 
# 
# High freq. dielectric constant tensor:
#      x y z
#    x 1.868880 0.000000 0.000000 
#    y 0.000000 1.883210 0.000000 
#    z 0.000000 0.000000 1.844700 
# 
# From -- ./inp_files/2846.got.cif
#   From: 2010.03.12/outbox.cif.g09.slc.cpg/sg33_2_cif.got.tgz:2846.got - 2010.04.14 01:49:19.
