data_PCOD8171359
_publ_section_title
;
Structure prediction by ZEFSAII (Michael W. Deem and Ramdas Pophale) SiO2 
 PCOD8171359
Probable space group: P N A 21
;
_chemical_formula_sum "Si O2"
_cell_formula_units_Z 32
_cell_length_a 11.715281
_cell_length_b 15.100969
_cell_length_c 9.090915
_cell_angle_alpha 90.000000
_cell_angle_beta 90.000000
_cell_angle_gamma 90.000000
_cell_volume 1608.292820
_symmetry_space_group_name_H-M "P N A 21"
_symmetry_group_IT_number 33
_symmetry_cell_setting 'orthorhombic'
loop_
_space_group_symop_operation_xyz
x,y,z
-x,-y,1/2+z
1/2-x,1/2+y,1/2+z
1/2+x,1/2-y,z
loop_
_atom_site_type_symbol
_atom_site_label
_atom_site_fract_x
_atom_site_fract_y
_atom_site_fract_z
Si Si1 0.483947 0.586647 0.083250
Si Si2 0.785779 0.829603 0.233205
Si Si3 0.986798 0.914952 0.750164
Si Si4 0.899462 0.495577 0.057829
Si Si5 0.738309 0.654064 0.078351
Si Si6 0.273165 0.655658 0.577857
Si Si7 0.279548 0.331301 0.247261
Si Si8 0.862884 0.497432 0.715785
O O1 0.408379 0.665454 0.151969
O O2 0.456532 0.503040 0.185340
O O3 0.617422 0.606096 0.087657
O O4 0.444985 0.567950 0.916371
O O5 0.735555 0.733879 0.193718
O O6 0.801009 0.837256 0.406601
O O7 0.702449 0.906856 0.174284
O O8 0.882496 0.887288 0.650641
O O9 0.083594 0.839654 0.746721
O O10 0.834315 0.581944 0.120862
O O11 0.835500 0.406470 0.110385
O O12 0.028167 0.493859 0.112298
O O13 0.903952 0.497356 0.882742
O O14 0.761256 0.689913 0.913403
O O15 0.253036 0.752172 0.641163
O O16 0.220332 0.419996 0.186370
#
# Coordination Sequence:
#
# PCOD8171359 Si02
#       8
#     4   4   4   4   4   4   4   4
#     4  11  22  41  67  92 123 162 207 257 311 367
#     4  11  24  42  63  93 126 160 206 257 307 367
#     4  11  22  41  67  92 123 162 207 257 311 367
#     4  10  23  43  62  87 125 163 203 251 305 364
#     4  10  23  43  63  89 124 163 204 252 306 365
#     4  11  24  42  63  93 126 160 206 257 307 367
#     4  10  23  43  63  89 124 163 204 252 306 365
#     4  10  23  43  62  87 125 163 203 251 305 364
#
# _framework density 19.896874
#
# number of rings (size 3 to 8) (size 9 to 14) (size 15 to 20)
#    0.000    1.500    2.500    1.500    3.500    5.000 
#    0.000    0.000    0.000    0.000    0.000    0.000 
#    0.000    0.000    0.000    0.000    0.000    0.000 
#
# Total GULP energy -396946.375290 kJ/mol
# GULP energy per Si atom -12404.574228 kJ/mol
# Density = 1.985159 g / cm^3
# Si number density = 19.896874 Si / 1000 Ang^3
#
#
#
# Elastic Constant Matrix: (Units=GPa)
#
#
# Indices 1 2 3 4 5 6 
#
# 1 70.0614 10.2319 35.0902 0.0000 0.0000 0.0000
# 2 10.2319 100.8420 43.3268 0.0000 0.0000 0.0000
# 3 35.0902 43.3268 94.9769 0.0000 0.0000 0.0000
# 4 0.0000 0.0000 0.0000 35.3196 0.0000 0.0000
# 5 0.0000 0.0000 0.0000 0.0000 33.7051 0.0000
# 6 0.0000 0.0000 0.0000 0.0000 0.0000 40.4442
#
#
#
# Elastic Compliance Matrix: (Units=1/GPa)
#
#
# Indices 1 2 3 4 5 6 
#
# 1 0.017641 0.001257 -0.007091 0.000000 0.000000 0.000000
# 2 0.001257 0.012423 -0.006132 0.000000 0.000000 0.000000
# 3 -0.007091 -0.006132 0.015946 0.000000 0.000000 0.000000
# 4 0.000000 0.000000 0.000000 0.028313 0.000000 0.000000
# 5 0.000000 0.000000 0.000000 0.000000 0.029669 0.000000
# 6 0.000000 0.000000 0.000000 0.000000 0.000000 0.024725
#
#
# Mechanical properties :
#
#
# Convention : Reuss Voigt Hill
#
# Bulk Modulus (GPa) = 45.29276 49.24200 47.26738
# Shear Modulus (GPa) = 31.24819 33.70922 32.47871
#
# Velocity S-wave (km/s) = 3.96726 4.12053 4.04462
# Velocity P-wave (km/s) = 6.61806 6.88772 6.75424
#
# Compressibility (1/GPa) = 0.02207858
#
# Stress axis : x y z
#
# Youngs Moduli (GPa) = 56.68555 80.49291 62.71221
#
# Poissons Ratio (x) = -0.10115 0.44469
# Poissons Ratio (y) = -0.07124 0.38453
# Poissons Ratio (z) = 0.40196 0.49355
#
# Static dielectric constant tensor:
#      x y z
#    x 3.587570 0.000000 0.000000 
#    y 0.000000 3.857400 0.000000 
#    z 0.000000 0.000000 3.639720 
# 
# 
# High freq. dielectric constant tensor:
#      x y z
#    x 1.783400 0.000000 0.000000 
#    y 0.000000 1.780410 0.000000 
#    z 0.000000 0.000000 1.779270 
# 
# From -- ./inp_files/3917.got.cif
#   From: 2010.03.12/outbox.cif.g09.slc.cpg/sg33_2_cif.got.tgz:3917.got - 2010.04.14 01:49:19.
