data_PCOD8171137
_publ_section_title
;
Structure prediction by ZEFSAII (Michael W. Deem and Ramdas Pophale) SiO2 
 PCOD8171137
Probable space group: P N A 21
;
_chemical_formula_sum "Si O2"
_cell_formula_units_Z 32
_cell_length_a 9.825475
_cell_length_b 8.942309
_cell_length_c 19.012806
_cell_angle_alpha 90.000000
_cell_angle_beta 90.000000
_cell_angle_gamma 90.000000
_cell_volume 1670.511403
_symmetry_space_group_name_H-M "P N A 21"
_symmetry_group_IT_number 33
_symmetry_cell_setting 'orthorhombic'
loop_
_space_group_symop_operation_xyz
x,y,z
-x,-y,1/2+z
1/2-x,1/2+y,1/2+z
1/2+x,1/2-y,z
loop_
_atom_site_type_symbol
_atom_site_label
_atom_site_fract_x
_atom_site_fract_y
_atom_site_fract_z
Si Si1 0.750125 0.398988 0.146070
Si Si2 0.752434 0.226843 0.689034
Si Si3 0.592256 0.448045 0.326025
Si Si4 0.255017 0.854214 0.039073
Si Si5 0.995573 0.250312 0.448322
Si Si6 0.592674 0.950769 0.824623
Si Si7 0.997014 0.752706 0.277214
Si Si8 0.000387 0.749904 0.709093
O O1 0.750512 0.543148 0.200276
O O2 0.752261 0.472869 0.067769
O O3 0.874186 0.284267 0.157734
O O4 0.623305 0.287601 0.157117
O O5 0.753030 0.260145 0.605558
O O6 0.623781 0.305431 0.725453
O O7 0.884229 0.300141 0.724420
O O8 0.562221 0.379682 0.401995
O O9 0.749686 0.412106 0.307846
O O10 0.557105 0.622848 0.329559
O O11 0.490842 0.386757 0.264839
O O12 0.127040 0.826366 0.989838
O O13 0.395783 0.822977 0.000404
O O14 0.941788 0.383981 0.400231
O O15 0.491912 0.890951 0.762739
O O16 0.561385 0.126230 0.828900
#
# Coordination Sequence:
#
# PCOD8171137 Si02
#       8
#     4   4   4   4   4   4   4   4
#     4  10  22  38  63  92 132 154 209 253 313 372
#     4  10  22  37  60  93 125 160 194 265 307 379
#     4  11  22  39  63  96 128 160 205 264 308 375
#     4  10  22  43  61  93 121 164 221 246 292 385
#     4  11  23  42  72  82 121 177 214 252 302 365
#     4  11  22  39  63  96 128 160 205 264 308 375
#     4  12  19  40  62  94 135 148 202 264 326 358
#     4  11  18  40  62  96 126 155 200 262 320 365
#
# _framework density 19.155811
#
# number of rings (size 3 to 8) (size 9 to 14) (size 15 to 20)
#    0.750    0.500    6.250    0.750    0.000    2.000 
#    0.000    2.500    0.000    0.000    0.000    0.000 
#    0.000    0.000    0.000    0.000    0.000    0.000 
#
# Total GULP energy -396424.055466 kJ/mol
# GULP energy per Si atom -12388.251733 kJ/mol
# Density = 1.911221 g / cm^3
# Si number density = 19.155811 Si / 1000 Ang^3
#
#
#
# Elastic Constant Matrix: (Units=GPa)
#
#
# Indices 1 2 3 4 5 6 
#
# 1 98.1989 25.6895 23.3738 0.0000 0.0000 0.0000
# 2 25.6895 68.3689 28.3036 0.0000 0.0000 0.0000
# 3 23.3738 28.3036 88.1331 0.0000 0.0000 0.0000
# 4 0.0000 0.0000 0.0000 30.2275 0.0000 0.0000
# 5 0.0000 0.0000 0.0000 0.0000 25.4366 0.0000
# 6 0.0000 0.0000 0.0000 0.0000 0.0000 35.9122
#
#
#
# Elastic Compliance Matrix: (Units=1/GPa)
#
#
# Indices 1 2 3 4 5 6 
#
# 1 0.011571 -0.003549 -0.001929 0.000000 0.000000 0.000000
# 2 -0.003549 0.017958 -0.004826 0.000000 0.000000 0.000000
# 3 -0.001929 -0.004826 0.013408 0.000000 0.000000 0.000000
# 4 0.000000 0.000000 0.000000 0.033082 0.000000 0.000000
# 5 0.000000 0.000000 0.000000 0.000000 0.039313 0.000000
# 6 0.000000 0.000000 0.000000 0.000000 0.000000 0.027846
#
#
# Mechanical properties :
#
#
# Convention : Reuss Voigt Hill
#
# Bulk Modulus (GPa) = 44.78516 45.49276 45.13896
# Shear Modulus (GPa) = 29.20058 30.13752 29.66905
#
# Velocity S-wave (km/s) = 3.90856 3.97077 3.93978
# Velocity P-wave (km/s) = 6.61810 6.69500 6.65666
#
# Compressibility (1/GPa) = 0.02232882
#
# Stress axis : x y z
#
# Youngs Moduli (GPa) = 86.42250 55.68553 74.58321
#
# Poissons Ratio (x) = 0.19764 0.14387
# Poissons Ratio (y) = 0.30674 0.35993
# Poissons Ratio (z) = 0.16670 0.26873
#
# Static dielectric constant tensor:
#      x y z
#    x 3.625060 0.000000 0.000000 
#    y 0.000000 3.357020 0.000000 
#    z 0.000000 0.000000 3.420490 
# 
# 
# High freq. dielectric constant tensor:
#      x y z
#    x 1.752840 0.000000 0.000000 
#    y 0.000000 1.725090 0.000000 
#    z 0.000000 0.000000 1.737490 
# 
# From -- ./inp_files/8967.got.cif
#   From: 2010.03.12/outbox.cif.g09.slc.cpg/sg33_5_cif.got.tgz:8967.got - 2010.04.14 01:49:19.
