data_PCOD8171775
_publ_section_title
;
Structure prediction by ZEFSAII (Michael W. Deem and Ramdas Pophale) SiO2 
 PCOD8171775
Probable space group: P N A 21
;
_chemical_formula_sum "Si O2"
_cell_formula_units_Z 24
_cell_length_a 19.295759
_cell_length_b 8.278873
_cell_length_c 6.405655
_cell_angle_alpha 90.000000
_cell_angle_beta 90.000000
_cell_angle_gamma 90.000000
_cell_volume 1023.285055
_symmetry_space_group_name_H-M "P N A 21"
_symmetry_group_IT_number 33
_symmetry_cell_setting 'orthorhombic'
loop_
_space_group_symop_operation_xyz
x,y,z
-x,-y,1/2+z
1/2-x,1/2+y,1/2+z
1/2+x,1/2-y,z
loop_
_atom_site_type_symbol
_atom_site_label
_atom_site_fract_x
_atom_site_fract_y
_atom_site_fract_z
Si Si1 0.381480 0.781210 0.368320
Si Si2 0.408357 0.577379 0.756440
Si Si3 0.317531 0.339353 0.037855
Si Si4 0.497330 0.299149 0.598471
Si Si5 0.132958 0.653464 0.909773
Si Si6 0.752608 0.863542 0.203679
O O1 0.368704 0.688861 0.587958
O O2 0.461860 0.764516 0.302017
O O3 0.331208 0.703720 0.191861
O O4 0.359213 0.965334 0.373062
O O5 0.466535 0.476088 0.633896
O O6 0.355802 0.454827 0.871463
O O7 0.447493 0.697171 0.912070
O O8 0.372554 0.259558 0.198477
O O9 0.260121 0.443464 0.166149
O O10 0.279221 0.188513 0.927225
O O11 0.435380 0.176222 0.548844
O O12 0.202373 0.712802 0.028431
#
# Coordination Sequence:
#
# PCOD8171775 Si02
#       6
#     4   4   4   4   4   4
#     4  12  29  46  77 114 153 199 257 317 384 453
#     4  12  25  49  75 112 144 205 249 310 382 460
#     4  12  28  48  80 108 157 197 260 313 388 459
#     4  12  25  46  78 105 154 195 256 310 384 451
#     4  12  30  48  76 116 152 201 257 323 381 457
#     4  12  27  49  76 113 150 201 255 319 379 458
#
# _framework density 23.453876000000001
#
# number of rings (size 3 to 8) (size 9 to 14) (size 15 to 20)
#    0.000    0.000    6.667    2.000    7.000    1.333 
#    0.000    0.000    0.000    0.000    0.000    0.000 
#    0.000    0.000    0.000    0.000    0.000    0.000 
#
# Total GULP energy -297598.139729 kJ/mol
# GULP energy per Si atom -12399.922489 kJ/mol
# Density = 2.340049 g / cm^3
# Si number density = 23.453876 Si / 1000 Ang^3
#
#
#
# Elastic Constant Matrix: (Units=GPa)
#
#
# Indices 1 2 3 4 5 6 
#
# 1 122.3603 37.0500 54.0454 0.0000 0.0000 0.0000
# 2 37.0500 111.4876 70.7011 0.0000 0.0000 0.0000
# 3 54.0454 70.7011 111.4176 0.0000 0.0000 0.0000
# 4 0.0000 0.0000 0.0000 40.1918 0.0000 0.0000
# 5 0.0000 0.0000 0.0000 0.0000 45.7632 0.0000
# 6 0.0000 0.0000 0.0000 0.0000 0.0000 41.8765
#
#
#
# Elastic Compliance Matrix: (Units=1/GPa)
#
#
# Indices 1 2 3 4 5 6 
#
# 1 0.010413 -0.000431 -0.004778 0.000000 0.000000 0.000000
# 2 -0.000431 0.015028 -0.009327 0.000000 0.000000 0.000000
# 3 -0.004778 -0.009327 0.017211 0.000000 0.000000 0.000000
# 4 0.000000 0.000000 0.000000 0.024881 0.000000 0.000000
# 5 0.000000 0.000000 0.000000 0.000000 0.021852 0.000000
# 6 0.000000 0.000000 0.000000 0.000000 0.000000 0.023880
#
#
# Mechanical properties :
#
#
# Convention : Reuss Voigt Hill
#
# Bulk Modulus (GPa) = 73.63127 74.31760 73.97444
# Shear Modulus (GPa) = 34.04546 37.79758 35.92152
#
# Velocity S-wave (km/s) = 3.81411 4.01879 3.91779
# Velocity P-wave (km/s) = 7.13154 7.29998 7.21625
#
# Compressibility (1/GPa) = 0.01358119
#
# Stress axis : x y z
#
# Youngs Moduli (GPa) = 96.03058 66.54463 58.10102
#
# Poissons Ratio (x) = 0.02865 0.27760
# Poissons Ratio (y) = 0.04135 0.54191
# Poissons Ratio (z) = 0.45883 0.62066
#
# Static dielectric constant tensor:
#      x y z
#    x 4.313050 0.000000 0.000000 
#    y 0.000000 3.994020 0.000000 
#    z 0.000000 0.000000 4.341460 
# 
# 
# High freq. dielectric constant tensor:
#      x y z
#    x 1.940070 0.000000 0.000000 
#    y 0.000000 1.920650 0.000000 
#    z 0.000000 0.000000 1.929380 
# 
# From -- ./inp_files/1669.got.cif
#   From: 2010.03.12/outbox.cif.g09.slc.cpg/sg33_1_cif.got.tgz:1669.got - 2010.04.14 01:49:19.
