data_PCOD8171983
_publ_section_title
;
Structure prediction by ZEFSAII (Michael W. Deem and Ramdas Pophale) SiO2 
 PCOD8171983
Probable space group: P N N 2
;
_chemical_formula_sum "Si O2"
_cell_formula_units_Z 24
_cell_length_a 14.154813
_cell_length_b 9.604150
_cell_length_c 8.946221
_cell_angle_alpha 90.000000
_cell_angle_beta 90.000000
_cell_angle_gamma 90.000000
_cell_volume 1216.193542
_symmetry_space_group_name_H-M "P N N 2"
_symmetry_group_IT_number 34
_symmetry_cell_setting 'orthorhombic'
loop_
_space_group_symop_operation_xyz
x,y,z
-x,-y,z
1/2-x,1/2+y,1/2+z
1/2+x,1/2-y,1/2+z
loop_
_atom_site_type_symbol
_atom_site_label
_atom_site_fract_x
_atom_site_fract_y
_atom_site_fract_z
Si Si1 0.500000 0.000000 0.834501
Si Si2 0.348632 0.372080 0.919137
Si Si3 0.835427 0.113426 0.762512
Si Si4 0.731896 0.389238 0.755459
Si Si5 0.697113 0.936513 0.934097
Si Si6 0.000000 0.000000 0.965155
Si Si7 0.975344 0.800081 0.227685
O O1 0.589238 0.990777 0.946636
O O2 0.498375 0.864409 0.727441
O O3 0.267891 0.479529 0.865758
O O4 0.300430 0.224522 0.889915
O O5 0.447442 0.383881 0.828249
O O6 0.368713 0.400636 0.092471
O O7 0.812866 0.276679 0.795465
O O8 0.915276 0.049833 0.864144
O O9 0.743067 0.022531 0.798405
O O10 0.747240 0.453766 0.590100
O O11 0.630730 0.317685 0.786090
O O12 0.024453 0.135975 0.062201
#
# Coordination Sequence:
#
# PCOD8171983 Si02
#       7
#     2   4   4   4   4   2   4
#     4  10  22  38  68  90 124 164 212 254 314 370
#     4  10  23  38  65  93 123 163 211 251 315 371
#     4  11  24  40  63  92 126 162 214 259 305 373
#     4  11  21  41  63  89 124 163 204 253 314 370
#     4  10  21  41  61  93 123 164 206 260 306 371
#     4  12  24  40  64  94 124 166 210 258 310 374
#     4  11  20  40  66  89 124 166 203 253 313 377
#
# _framework density 19.733701
#
# number of rings (size 3 to 8) (size 9 to 14) (size 15 to 20)
#    0.000    1.333    5.000    0.000    2.333    4.000 
#    0.000    0.000    0.000    1.000    0.000    0.000 
#    0.000    0.000    0.000    0.000    0.000    0.000 
#
# Total GULP energy -297502.237378 kJ/mol
# GULP energy per Si atom -12395.926557 kJ/mol
# Density = 1.968879 g / cm^3
# Si number density = 19.733701 Si / 1000 Ang^3
#
#
#
# Elastic Constant Matrix: (Units=GPa)
#
#
# Indices 1 2 3 4 5 6 
#
# 1 99.4011 42.4701 48.6242 0.0000 0.0000 0.0000
# 2 42.4701 126.3166 70.1340 0.0000 0.0000 0.0000
# 3 48.6242 70.1340 104.0628 0.0000 0.0000 0.0000
# 4 0.0000 0.0000 0.0000 24.0698 0.0000 0.0000
# 5 0.0000 0.0000 0.0000 0.0000 31.5889 0.0000
# 6 0.0000 0.0000 0.0000 0.0000 0.0000 25.6144
#
#
#
# Elastic Compliance Matrix: (Units=1/GPa)
#
#
# Indices 1 2 3 4 5 6 
#
# 1 0.013247 -0.001625 -0.005094 0.000000 0.000000 0.000000
# 2 -0.001625 0.012850 -0.007901 0.000000 0.000000 0.000000
# 3 -0.005094 -0.007901 0.017315 0.000000 0.000000 0.000000
# 4 0.000000 0.000000 0.000000 0.041546 0.000000 0.000000
# 5 0.000000 0.000000 0.000000 0.000000 0.031657 0.000000
# 6 0.000000 0.000000 0.000000 0.000000 0.000000 0.039040
#
#
# Mechanical properties :
#
#
# Convention : Reuss Voigt Hill
#
# Bulk Modulus (GPa) = 70.56922 72.47081 71.52002
# Shear Modulus (GPa) = 26.36879 27.49144 26.93012
#
# Velocity S-wave (km/s) = 3.65942 3.73650 3.69816
# Velocity P-wave (km/s) = 7.32758 7.44442 7.38623
#
# Compressibility (1/GPa) = 0.01417048
#
# Stress axis : x y z
#
# Youngs Moduli (GPa) = 75.49095 77.82228 57.75457
#
# Poissons Ratio (x) = 0.12649 0.29421
# Poissons Ratio (y) = 0.12270 0.45630
# Poissons Ratio (z) = 0.38456 0.61485
#
# Static dielectric constant tensor:
#      x y z
#    x 3.816560 0.000000 0.000000 
#    y 0.000000 3.843530 0.000000 
#    z 0.000000 0.000000 3.450770 
# 
# 
# High freq. dielectric constant tensor:
#      x y z
#    x 1.773290 0.000000 0.000000 
#    y 0.000000 1.786180 0.000000 
#    z 0.000000 0.000000 1.750330 
# 
# From -- ./inp_files/2635.got.cif
#   From: 2010.03.12/outbox.cif.g09.slc.cpg/sg34_2_cif.got.tgz:2635.got - 2010.04.14 01:56:33.
