data_PCOD8171258
_publ_section_title
;
Structure prediction by ZEFSAII (Michael W. Deem and Ramdas Pophale) SiO2 
 PCOD8171258
Probable space group: P N A 21
;
_chemical_formula_sum "Si O2"
_cell_formula_units_Z 32
_cell_length_a 9.723514
_cell_length_b 28.346726
_cell_length_c 5.313391
_cell_angle_alpha 90.000000
_cell_angle_beta 90.000000
_cell_angle_gamma 90.000000
_cell_volume 1464.528830
_symmetry_space_group_name_H-M "P N A 21"
_symmetry_group_IT_number 33
_symmetry_cell_setting 'orthorhombic'
loop_
_space_group_symop_operation_xyz
x,y,z
-x,-y,1/2+z
1/2-x,1/2+y,1/2+z
1/2+x,1/2-y,z
loop_
_atom_site_type_symbol
_atom_site_label
_atom_site_fract_x
_atom_site_fract_y
_atom_site_fract_z
Si Si1 0.700055 0.853588 0.243780
Si Si2 0.520269 0.647360 0.222089
Si Si3 0.302247 0.202798 0.246554
Si Si4 0.823157 0.533348 0.808254
Si Si5 0.828724 0.969469 0.703844
Si Si6 0.020490 0.796308 0.727104
Si Si7 0.092253 0.556784 0.036700
Si Si8 0.094824 0.940264 0.478761
O O1 0.659880 0.827360 0.499891
O O2 0.623182 0.904292 0.249836
O O3 0.860123 0.863730 0.220291
O O4 0.652019 0.824395 0.998846
O O5 0.557465 0.679181 0.463462
O O6 0.600157 0.597212 0.249901
O O7 0.567159 0.671038 0.961705
O O8 0.391539 0.249465 0.239374
O O9 0.140932 0.215889 0.248635
O O10 0.904521 0.497298 0.627266
O O11 0.725412 0.569600 0.657941
O O12 0.728325 0.501959 0.984777
O O13 0.936809 0.565555 0.943876
O O14 0.947322 0.933165 0.616555
O O15 0.708097 0.937095 0.819535
O O16 0.896749 0.004714 0.905801
#
# Coordination Sequence:
#
# PCOD8171258 Si02
#       8
#     4   4   4   4   4   4   4   4
#     4  10  23  39  70  99 127 171 222 267 318 413
#     4  10  23  40  68  98 129 168 216 270 325 398
#     4  10  22  44  68  99 127 164 216 264 340 404
#     4  11  23  41  60  89 133 177 222 279 327 388
#     4  11  23  39  62  87 131 177 220 276 325 388
#     4  10  22  43  70  94 130 167 205 269 337 400
#     4  11  24  40  64  89 130 180 224 273 334 385
#     4  11  24  38  62  95 127 172 231 274 326 384
#
# _framework density 21.85003
#
# number of rings (size 3 to 8) (size 9 to 14) (size 15 to 20)
#    0.000    1.500    2.500    1.500   10.500    0.000 
#    2.250    0.000    0.000    0.000    0.000    0.000 
#    0.000    0.000    0.000    0.000    0.000    0.000 
#
# Total GULP energy -396854.497096 kJ/mol
# GULP energy per Si atom -12401.703034 kJ/mol
# Density = 2.180030 g / cm^3
# Si number density = 21.850030 Si / 1000 Ang^3
#
#
#
# Elastic Constant Matrix: (Units=GPa)
#
#
# Indices 1 2 3 4 5 6 
#
# 1 97.9465 43.9076 40.1120 0.0000 0.0000 0.0000
# 2 43.9076 99.0672 33.7541 0.0000 0.0000 0.0000
# 3 40.1120 33.7541 123.7755 0.0000 0.0000 0.0000
# 4 0.0000 0.0000 0.0000 32.4065 0.0000 0.0000
# 5 0.0000 0.0000 0.0000 0.0000 26.5838 0.0000
# 6 0.0000 0.0000 0.0000 0.0000 0.0000 30.4637
#
#
#
# Elastic Compliance Matrix: (Units=1/GPa)
#
#
# Indices 1 2 3 4 5 6 
#
# 1 0.013727 -0.005036 -0.003075 0.000000 0.000000 0.000000
# 2 -0.005036 0.012976 -0.001907 0.000000 0.000000 0.000000
# 3 -0.003075 -0.001907 0.009596 0.000000 0.000000 0.000000
# 4 0.000000 0.000000 0.000000 0.030858 0.000000 0.000000
# 5 0.000000 0.000000 0.000000 0.000000 0.037617 0.000000
# 6 0.000000 0.000000 0.000000 0.000000 0.000000 0.032826
#
#
# Mechanical properties :
#
#
# Convention : Reuss Voigt Hill
#
# Bulk Modulus (GPa) = 61.49020 61.81517 61.65269
# Shear Modulus (GPa) = 30.66457 31.42519 31.04488
#
# Velocity S-wave (km/s) = 3.75028 3.79650 3.77346
# Velocity P-wave (km/s) = 6.85243 6.89710 6.87480
#
# Compressibility (1/GPa) = 0.01626275
#
# Stress axis : x y z
#
# Youngs Moduli (GPa) = 72.85176 77.06685 104.21462
#
# Poissons Ratio (x) = 0.38811 0.32046
# Poissons Ratio (y) = 0.36688 0.19869
# Poissons Ratio (z) = 0.22402 0.14693
#
# Static dielectric constant tensor:
#      x y z
#    x 3.879270 0.000000 0.000000 
#    y 0.000000 3.814020 0.000000 
#    z 0.000000 0.000000 4.433430 
# 
# 
# High freq. dielectric constant tensor:
#      x y z
#    x 1.852340 0.000000 0.000000 
#    y 0.000000 1.841600 0.000000 
#    z 0.000000 0.000000 1.874010 
# 
# From -- ./inp_files/596.got.cif
#   From: 2010.03.12/outbox.cif.g09.slc.cpg/sg33_1_cif.got.tgz:596.got - 2010.04.14 01:49:19.
