data_PCOD8171773
_publ_section_title
;
Structure prediction by ZEFSAII (Michael W. Deem and Ramdas Pophale) SiO2 
 PCOD8171773
Probable space group: P N A 21
;
_chemical_formula_sum "Si O2"
_cell_formula_units_Z 16
_cell_length_a 18.696203
_cell_length_b 7.592164
_cell_length_c 4.858970
_cell_angle_alpha 90.000000
_cell_angle_beta 90.000000
_cell_angle_gamma 90.000000
_cell_volume 689.704744
_symmetry_space_group_name_H-M "P N A 21"
_symmetry_group_IT_number 33
_symmetry_cell_setting 'orthorhombic'
loop_
_space_group_symop_operation_xyz
x,y,z
-x,-y,1/2+z
1/2-x,1/2+y,1/2+z
1/2+x,1/2-y,z
loop_
_atom_site_type_symbol
_atom_site_label
_atom_site_fract_x
_atom_site_fract_y
_atom_site_fract_z
Si Si1 0.686530 0.635367 0.420840
Si Si2 0.042604 0.446065 0.716765
Si Si3 0.542801 0.446264 0.523953
Si Si4 0.685764 0.873589 0.914135
O O1 0.612826 0.530144 0.388463
O O2 0.696378 0.699766 0.731803
O O3 0.751248 0.508023 0.346315
O O4 0.686476 0.808033 0.228105
O O5 0.060166 0.249099 0.624611
O O6 0.111454 0.532966 0.850946
O O7 0.018569 0.559181 0.451464
O O8 0.483214 0.437948 0.283950
#
# Coordination Sequence:
#
# PCOD8171773 Si02
#       4
#     4   4   4   4
#     4  12  26  46  69  99 135 177 223 274 331 395
#     4  12  25  44  69  99 134 175 221 274 332 395
#     4  12  25  44  69  99 134 175 221 274 332 395
#     4  12  26  46  69  99 135 177 223 274 331 395
#
# _framework density 23.198329999999999
#
# number of rings (size 3 to 8) (size 9 to 14) (size 15 to 20)
#    0.000    0.000    0.000   12.000    0.000    4.000 
#    0.000    0.000    0.000    0.000    0.000    0.000 
#    0.000    0.000    0.000    0.000    0.000    0.000 
#
# Total GULP energy -198576.077701 kJ/mol
# GULP energy per Si atom -12411.004856 kJ/mol
# Density = 2.314553 g / cm^3
# Si number density = 23.198330 Si / 1000 Ang^3
#
#
#
# Elastic Constant Matrix: (Units=GPa)
#
#
# Indices 1 2 3 4 5 6 
#
# 1 122.0801 57.1514 30.8718 0.0000 0.0000 0.0000
# 2 57.1514 113.5364 24.2266 0.0000 0.0000 0.0000
# 3 30.8718 24.2266 106.7499 0.0000 0.0000 0.0000
# 4 0.0000 0.0000 0.0000 57.9928 0.0000 0.0000
# 5 0.0000 0.0000 0.0000 0.0000 37.5398 0.0000
# 6 0.0000 0.0000 0.0000 0.0000 0.0000 40.6043
#
#
#
# Elastic Compliance Matrix: (Units=1/GPa)
#
#
# Indices 1 2 3 4 5 6 
#
# 1 0.011126 -0.005164 -0.002046 0.000000 0.000000 0.000000
# 2 -0.005164 0.011653 -0.001151 0.000000 0.000000 0.000000
# 3 -0.002046 -0.001151 0.010221 0.000000 0.000000 0.000000
# 4 0.000000 0.000000 0.000000 0.017244 0.000000 0.000000
# 5 0.000000 0.000000 0.000000 0.000000 0.026638 0.000000
# 6 0.000000 0.000000 0.000000 0.000000 0.000000 0.024628
#
#
# Mechanical properties :
#
#
# Convention : Reuss Voigt Hill
#
# Bulk Modulus (GPa) = 61.43369 62.98513 62.20941
# Shear Modulus (GPa) = 40.43429 42.56848 41.50139
#
# Velocity S-wave (km/s) = 4.17943 4.28831 4.23422
# Velocity P-wave (km/s) = 7.05901 7.19230 7.12597
#
# Compressibility (1/GPa) = 0.01627771
#
# Stress axis : x y z
#
# Youngs Moduli (GPa) = 89.87751 85.81558 97.84218
#
# Poissons Ratio (x) = 0.44317 0.20015
# Poissons Ratio (y) = 0.46414 0.11263
# Poissons Ratio (z) = 0.18386 0.09878
#
# Static dielectric constant tensor:
#      x y z
#    x 4.173590 0.000000 0.000000 
#    y 0.000000 3.767890 0.000000 
#    z 0.000000 0.000000 4.413150 
# 
# 
# High freq. dielectric constant tensor:
#      x y z
#    x 1.925450 0.000000 0.000000 
#    y 0.000000 1.926900 0.000000 
#    z 0.000000 0.000000 1.935880 
# 
# From -- ./inp_files/1604.got.cif
#   From: 2010.03.12/outbox.cif.g09.slc.cpg/sg33_1_cif.got.tgz:1604.got - 2010.04.14 01:49:19.
