data_PCOD8171840
_publ_section_title
;
Structure prediction by ZEFSAII (Michael W. Deem and Ramdas Pophale) SiO2 
 PCOD8171840
Probable space group: P N N 2
;
_chemical_formula_sum "Si O2"
_cell_formula_units_Z 32
_cell_length_a 11.243877
_cell_length_b 9.070502
_cell_length_c 16.009234
_cell_angle_alpha 90.000000
_cell_angle_beta 90.000000
_cell_angle_gamma 90.000000
_cell_volume 1632.743495
_symmetry_space_group_name_H-M "P N N 2"
_symmetry_group_IT_number 34
_symmetry_cell_setting 'orthorhombic'
loop_
_space_group_symop_operation_xyz
x,y,z
-x,-y,z
1/2-x,1/2+y,1/2+z
1/2+x,1/2-y,1/2+z
loop_
_atom_site_type_symbol
_atom_site_label
_atom_site_fract_x
_atom_site_fract_y
_atom_site_fract_z
Si Si1 0.410816 0.821645 0.496080
Si Si2 0.732412 0.005045 0.617542
Si Si3 0.934559 0.222226 0.573597
Si Si4 0.239791 0.571037 0.475293
Si Si5 0.694038 0.255938 0.010432
Si Si6 0.188886 0.041677 0.793461
Si Si7 0.363431 0.101289 0.405872
Si Si8 0.526551 0.735613 0.263101
O O1 0.365977 0.652782 0.490960
O O2 0.550627 0.827534 0.478418
O O3 0.374748 0.889126 0.586609
O O4 0.348512 0.926772 0.424652
O O5 0.726244 0.843590 0.577548
O O6 0.721630 0.984232 0.716416
O O7 0.861007 0.071870 0.587932
O O8 0.863702 0.332443 0.514570
O O9 0.959385 0.283664 0.666828
O O10 0.056789 0.203376 0.523663
O O11 0.227829 0.414735 0.520894
O O12 0.228478 0.552057 0.375358
O O13 0.736849 0.315701 0.918511
O O14 0.110727 0.191365 0.781009
O O15 0.103096 0.901541 0.795832
O O16 0.424929 0.125072 0.316111
#
# Coordination Sequence:
#
# PCOD8171840 Si02
#       8
#     4   4   4   4   4   4   4   4
#     4   9  20  35  53  82 116 149 187 244 306 345
#     4   9  19  37  61  82 110 154 199 241 292 369
#     4  10  21  37  57  85 120 154 193 246 306 360
#     4  11  21  35  54  86 124 150 190 248 306 347
#     4  11  20  34  56  83 116 154 194 237 301 362
#     4  10  18  33  61  88 110 149 198 247 296 350
#     4  10  19  35  58  84 113 146 199 243 292 356
#     4  10  18  34  60  88 111 147 202 247 289 354
#
# _framework density 19.598915000000002
#
# number of rings (size 3 to 8) (size 9 to 14) (size 15 to 20)
#    0.000    2.000    3.750    0.750    0.000    0.500 
#    6.750    0.000   11.000    0.000    0.000    0.000 
#    0.000    0.000    0.000    0.000    0.000    0.000 
#
# Total GULP energy -396418.856246 kJ/mol
# GULP energy per Si atom -12388.089258 kJ/mol
# Density = 1.955431 g / cm^3
# Si number density = 19.598915 Si / 1000 Ang^3
#
#
#
# Elastic Constant Matrix: (Units=GPa)
#
#
# Indices 1 2 3 4 5 6 
#
# 1 70.0206 11.6652 44.9588 0.0000 0.0000 0.0000
# 2 11.6652 80.5651 30.5039 0.0000 0.0000 0.0000
# 3 44.9588 30.5039 134.9985 0.0000 0.0000 0.0000
# 4 0.0000 0.0000 0.0000 25.4093 0.0000 0.0000
# 5 0.0000 0.0000 0.0000 0.0000 28.4694 0.0000
# 6 0.0000 0.0000 0.0000 0.0000 0.0000 19.6903
#
#
#
# Elastic Compliance Matrix: (Units=1/GPa)
#
#
# Indices 1 2 3 4 5 6 
#
# 1 0.018176 -0.000372 -0.005969 0.000000 0.000000 0.000000
# 2 -0.000372 0.013581 -0.002945 0.000000 0.000000 0.000000
# 3 -0.005969 -0.002945 0.010061 0.000000 0.000000 0.000000
# 4 0.000000 0.000000 0.000000 0.039356 0.000000 0.000000
# 5 0.000000 0.000000 0.000000 0.000000 0.035125 0.000000
# 6 0.000000 0.000000 0.000000 0.000000 0.000000 0.050786
#
#
# Mechanical properties :
#
#
# Convention : Reuss Voigt Hill
#
# Bulk Modulus (GPa) = 43.01738 51.09334 47.05536
# Shear Modulus (GPa) = 25.85231 27.94424 26.89827
#
# Velocity S-wave (km/s) = 3.63584 3.78008 3.70866
# Velocity P-wave (km/s) = 6.29462 6.72146 6.51154
#
# Compressibility (1/GPa) = 0.02324642
#
# Stress axis : x y z
#
# Youngs Moduli (GPa) = 55.01702 73.63131 99.39476
#
# Poissons Ratio (x) = 0.02736 0.59332
# Poissons Ratio (y) = 0.02045 0.29272
# Poissons Ratio (z) = 0.32841 0.21684
#
# Static dielectric constant tensor:
#      x y z
#    x 3.536860 0.000000 0.000000 
#    y 0.000000 3.646310 0.000000 
#    z 0.000000 0.000000 3.600250 
# 
# 
# High freq. dielectric constant tensor:
#      x y z
#    x 1.742580 0.000000 0.000000 
#    y 0.000000 1.764790 0.000000 
#    z 0.000000 0.000000 1.750010 
# 
# From -- ./inp_files/7727.got.cif
#   From: 2010.03.12/outbox.cif.g09.slc.cpg/sg34_4_cif.got.tgz:7727.got - 2010.04.14 01:56:33.
