data_PCOD8171781
_publ_section_title
;
Structure prediction by ZEFSAII (Michael W. Deem and Ramdas Pophale) SiO2 
 PCOD8171781
Probable space group: P N A 21
;
_chemical_formula_sum "Si O2"
_cell_formula_units_Z 24
_cell_length_a 14.357528
_cell_length_b 5.883661
_cell_length_c 11.848079
_cell_angle_alpha 90.000000
_cell_angle_beta 90.000000
_cell_angle_gamma 90.000000
_cell_volume 1000.864430
_symmetry_space_group_name_H-M "P N A 21"
_symmetry_group_IT_number 33
_symmetry_cell_setting 'orthorhombic'
loop_
_space_group_symop_operation_xyz
x,y,z
-x,-y,1/2+z
1/2-x,1/2+y,1/2+z
1/2+x,1/2-y,z
loop_
_atom_site_type_symbol
_atom_site_label
_atom_site_fract_x
_atom_site_fract_y
_atom_site_fract_z
Si Si1 0.020795 0.514260 0.246510
Si Si2 0.402820 0.682141 0.393242
Si Si3 0.673207 0.335001 0.285173
Si Si4 0.859534 0.168209 0.214036
Si Si5 0.387288 0.342914 0.584257
Si Si6 0.257416 0.486515 0.995632
O O1 0.983908 0.638923 0.360242
O O2 0.953056 0.314342 0.205411
O O3 0.120048 0.404865 0.279263
O O4 0.035289 0.675985 0.137727
O O5 0.379469 0.572192 0.272380
O O6 0.435001 0.486881 0.482282
O O7 0.313968 0.803112 0.446250
O O8 0.784695 0.302173 0.288867
O O9 0.643532 0.491532 0.183190
O O10 0.660350 0.453983 0.406406
O O11 0.813776 0.134219 0.093598
O O12 0.297490 0.208076 0.539403
#
# Coordination Sequence:
#
# PCOD8171781 Si02
#       6
#     4   4   4   4   4   4
#     4  12  28  52  74 122 162 202 270 320 392 472
#     4  12  25  51  79 112 156 205 263 324 391 470
#     4  12  26  53  78 114 155 211 259 325 391 468
#     4  12  26  53  78 114 155 211 259 325 391 468
#     4  12  25  51  79 112 156 205 263 324 391 470
#     4  12  26  50  84 108 152 206 262 330 392 460
#
# _framework density 23.979274
#
# number of rings (size 3 to 8) (size 9 to 14) (size 15 to 20)
#    0.000    0.000    6.667    2.000    0.000    0.000 
#   30.000    0.000    0.000    0.000    0.000    0.000 
#    0.000    0.000    0.000    0.000    0.000    0.000 
#
# Total GULP energy -297661.800999 kJ/mol
# GULP energy per Si atom -12402.575042 kJ/mol
# Density = 2.392470 g / cm^3
# Si number density = 23.979274 Si / 1000 Ang^3
#
#
#
# Elastic Constant Matrix: (Units=GPa)
#
#
# Indices 1 2 3 4 5 6 
#
# 1 69.8101 26.8455 41.1356 0.0000 0.0000 0.0000
# 2 26.8455 112.0190 54.4080 0.0000 0.0000 0.0000
# 3 41.1356 54.4080 132.7178 0.0000 0.0000 0.0000
# 4 0.0000 0.0000 0.0000 51.4751 0.0000 0.0000
# 5 0.0000 0.0000 0.0000 0.0000 27.1640 0.0000
# 6 0.0000 0.0000 0.0000 0.0000 0.0000 17.5615
#
#
#
# Elastic Compliance Matrix: (Units=1/GPa)
#
#
# Indices 1 2 3 4 5 6 
#
# 1 0.017873 -0.001989 -0.004725 0.000000 0.000000 0.000000
# 2 -0.001989 0.011368 -0.004044 0.000000 0.000000 0.000000
# 3 -0.004725 -0.004044 0.010657 0.000000 0.000000 0.000000
# 4 0.000000 0.000000 0.000000 0.019427 0.000000 0.000000
# 5 0.000000 0.000000 0.000000 0.000000 0.036813 0.000000
# 6 0.000000 0.000000 0.000000 0.000000 0.000000 0.056943
#
#
# Mechanical properties :
#
#
# Convention : Reuss Voigt Hill
#
# Bulk Modulus (GPa) = 54.39550 62.14723 58.27137
# Shear Modulus (GPa) = 27.66668 32.05065 29.85866
#
# Velocity S-wave (km/s) = 3.40041 3.65992 3.53255
# Velocity P-wave (km/s) = 6.17662 6.62067 6.40250
#
# Compressibility (1/GPa) = 0.01838387
#
# Stress axis : x y z
#
# Youngs Moduli (GPa) = 55.94960 87.96812 93.83562
#
# Poissons Ratio (x) = 0.17494 0.44333
# Poissons Ratio (y) = 0.11126 0.37946
# Poissons Ratio (z) = 0.26434 0.35573
#
# Static dielectric constant tensor:
#      x y z
#    x 4.320200 0.000000 0.000000 
#    y 0.000000 4.650710 0.000000 
#    z 0.000000 0.000000 4.649360 
# 
# 
# High freq. dielectric constant tensor:
#      x y z
#    x 1.942410 0.000000 0.000000 
#    y 0.000000 1.967200 0.000000 
#    z 0.000000 0.000000 1.969250 
# 
# From -- ./inp_files/6619.got.cif
#   From: 2010.03.12/outbox.cif.g09.slc.cpg/sg33_4_cif.got.tgz:6619.got - 2010.04.14 01:49:19.
