data_PCOD8171900
_publ_section_title
;
Structure prediction by ZEFSAII (Michael W. Deem and Ramdas Pophale) SiO2 
 PCOD8171900
Probable space group: P N N 2
;
_chemical_formula_sum "Si O2"
_cell_formula_units_Z 28
_cell_length_a 14.058294
_cell_length_b 5.039184
_cell_length_c 20.516661
_cell_angle_alpha 90.000000
_cell_angle_beta 90.000000
_cell_angle_gamma 90.000000
_cell_volume 1453.448073
_symmetry_space_group_name_H-M "P N N 2"
_symmetry_group_IT_number 34
_symmetry_cell_setting 'orthorhombic'
loop_
_space_group_symop_operation_xyz
x,y,z
-x,-y,z
1/2-x,1/2+y,1/2+z
1/2+x,1/2-y,1/2+z
loop_
_atom_site_type_symbol
_atom_site_label
_atom_site_fract_x
_atom_site_fract_y
_atom_site_fract_z
Si Si1 0.110727 0.469561 0.182570
Si Si2 0.596388 0.173572 0.080094
Si Si3 0.309879 0.963628 0.823863
Si Si4 0.727955 0.545010 0.654829
Si Si5 0.000000 0.000000 0.679081
Si Si6 0.299202 0.959285 0.297827
Si Si7 0.062709 0.249875 0.439078
Si Si8 0.000000 0.500000 0.765541
O O1 0.122348 0.488835 0.261056
O O2 0.163804 0.697421 0.142335
O O3 0.000000 0.500000 0.166502
O O4 0.154487 0.196892 0.156490
O O5 0.691955 0.009516 0.098525
O O6 0.587838 0.413514 0.132469
O O7 0.500000 0.000000 0.085424
O O8 0.612248 0.308525 0.008841
O O9 0.223820 0.762808 0.812455
O O10 0.365607 0.838525 0.883722
O O11 0.264185 0.251865 0.840274
O O12 0.782569 0.597907 0.722120
O O13 0.034251 0.750161 0.722073
O O14 0.411377 0.915374 0.311104
O O15 0.000000 0.500000 0.455423
O O16 0.000000 0.000000 0.414765
#
# Coordination Sequence:
#
# PCOD8171900 Si02
#       8
#     4   4   4   4   2   4   4   2
#     4  10  21  36  55  79 109 146 189 234 278 324
#     4  11  23  36  56  88 123 149 184 227 288 360
#     4  10  21  36  54  79 112 143 192 233 275 329
#     4  10  21  33  55  82 113 143 181 227 287 333
#     4  12  20  32  54  82 128 144 178 226 280 364
#     4  10  20  34  52  82 111 144 182 233 282 345
#     4  11  23  37  57  82 112 154 187 222 284 347
#     4  12  22  32  58  84 118 152 182 228 306 348
#
# _framework density 19.264534999999999
#
# number of rings (size 3 to 8) (size 9 to 14) (size 15 to 20)
#    0.000    1.429    2.857    2.571    6.000    2.286 
#    0.000    0.000    0.000    0.000   11.143    0.000 
#    0.000    0.000    0.000    0.000    0.000    0.000 
#
# Total GULP energy -347089.263985 kJ/mol
# GULP energy per Si atom -12396.045142 kJ/mol
# Density = 1.922069 g / cm^3
# Si number density = 19.264535 Si / 1000 Ang^3
#
#
#
# Elastic Constant Matrix: (Units=GPa)
#
#
# Indices 1 2 3 4 5 6 
#
# 1 138.3502 36.5740 36.8597 0.0000 0.0000 0.0000
# 2 36.5740 106.5752 12.8610 0.0000 0.0000 0.0000
# 3 36.8597 12.8610 60.0489 0.0000 0.0000 0.0000
# 4 0.0000 0.0000 0.0000 17.0218 0.0000 0.0000
# 5 0.0000 0.0000 0.0000 0.0000 21.4781 0.0000
# 6 0.0000 0.0000 0.0000 0.0000 0.0000 29.3937
#
#
#
# Elastic Compliance Matrix: (Units=1/GPa)
#
#
# Indices 1 2 3 4 5 6 
#
# 1 0.009276 -0.002562 -0.005145 0.000000 0.000000 0.000000
# 2 -0.002562 0.010340 -0.000642 0.000000 0.000000 0.000000
# 3 -0.005145 -0.000642 0.019949 0.000000 0.000000 0.000000
# 4 0.000000 0.000000 0.000000 0.058748 0.000000 0.000000
# 5 0.000000 0.000000 0.000000 0.000000 0.046559 0.000000
# 6 0.000000 0.000000 0.000000 0.000000 0.000000 0.034021
#
#
# Mechanical properties :
#
#
# Convention : Reuss Voigt Hill
#
# Bulk Modulus (GPa) = 43.73252 53.06264 48.39758
# Shear Modulus (GPa) = 24.60465 28.15736 26.38100
#
# Velocity S-wave (km/s) = 3.57767 3.82726 3.70457
# Velocity P-wave (km/s) = 6.31004 6.86546 6.59360
#
# Compressibility (1/GPa) = 0.02286628
#
# Stress axis : x y z
#
# Youngs Moduli (GPa) = 107.80225 96.71311 50.12840
#
# Poissons Ratio (x) = 0.24783 0.25792
# Poissons Ratio (y) = 0.27624 0.03216
# Poissons Ratio (z) = 0.55466 0.06205
#
# Static dielectric constant tensor:
#      x y z
#    x 3.470270 0.000000 0.000000 
#    y 0.000000 3.780550 0.000000 
#    z 0.000000 0.000000 3.379080 
# 
# 
# High freq. dielectric constant tensor:
#      x y z
#    x 1.743920 0.000000 0.000000 
#    y 0.000000 1.769480 0.000000 
#    z 0.000000 0.000000 1.704490 
# 
# From -- ./inp_files/8145.got.cif
#   From: 2010.03.12/outbox.cif.g09.slc.cpg/sg34_5_cif.got.tgz:8145.got - 2010.04.14 01:56:33.
