data_PCOD8171559
_publ_section_title
;
Structure prediction by ZEFSAII (Michael W. Deem and Ramdas Pophale) SiO2 
 PCOD8171559
Probable space group: P N A 21
;
_chemical_formula_sum "Si O2"
_cell_formula_units_Z 32
_cell_length_a 9.144797
_cell_length_b 14.307615
_cell_length_c 10.957933
_cell_angle_alpha 90.000000
_cell_angle_beta 90.000000
_cell_angle_gamma 90.000000
_cell_volume 1433.738526
_symmetry_space_group_name_H-M "P N A 21"
_symmetry_group_IT_number 33
_symmetry_cell_setting 'orthorhombic'
loop_
_space_group_symop_operation_xyz
x,y,z
-x,-y,1/2+z
1/2-x,1/2+y,1/2+z
1/2+x,1/2-y,z
loop_
_atom_site_type_symbol
_atom_site_label
_atom_site_fract_x
_atom_site_fract_y
_atom_site_fract_z
Si Si1 0.162916 0.125856 0.186410
Si Si2 0.633896 0.719354 0.738122
Si Si3 0.468825 0.163590 0.879513
Si Si4 0.213401 0.831965 0.481553
Si Si5 0.492534 0.272135 0.644403
Si Si6 0.773255 0.680488 0.997521
Si Si7 0.754649 0.975353 0.452546
Si Si8 0.026613 0.949910 0.304786
O O1 0.319897 0.171069 0.223574
O O2 0.040956 0.203843 0.224521
O O3 0.131436 0.028018 0.249700
O O4 0.174180 0.102396 0.042892
O O5 0.701654 0.658400 0.627499
O O6 0.702915 0.687387 0.864972
O O7 0.615377 0.162178 0.956977
O O8 0.351919 0.234983 0.934686
O O9 0.510504 0.188529 0.740761
O O10 0.389856 0.063355 0.885134
O O11 0.122664 0.912651 0.416381
O O12 0.326313 0.278068 0.604109
O O13 0.582492 0.243778 0.521361
O O14 0.528729 0.372045 0.707259
O O15 0.796245 0.569905 0.021178
O O16 0.879872 0.998854 0.353713
#
# Coordination Sequence:
#
# PCOD8171559 Si02
#       8
#     4   4   4   4   4   4   4   4
#     4  12  25  45  71 103 142 183 234 289 358 427
#     4  12  25  44  68  99 145 184 221 291 363 426
#     4  11  23  43  72 102 135 174 241 298 342 410
#     4  11  22  43  71 105 132 181 234 290 354 411
#     4  11  24  46  71  99 135 188 233 294 350 418
#     4  12  26  46  66 100 146 182 230 283 365 422
#     4  12  24  45  69 105 137 183 237 287 346 433
#     4  11  23  46  76  99 136 187 246 290 344 425
#
# _framework density 22.319272000000002
#
# number of rings (size 3 to 8) (size 9 to 14) (size 15 to 20)
#    0.000    0.500    5.000    5.250    0.000    0.000 
#    6.750    0.000    0.000    0.000    0.000    0.000 
#    0.000    0.000    0.000    0.000    0.000    0.000 
#
# Total GULP energy -396640.358404 kJ/mol
# GULP energy per Si atom -12395.011200 kJ/mol
# Density = 2.226847 g / cm^3
# Si number density = 22.319272 Si / 1000 Ang^3
#
#
#
# Elastic Constant Matrix: (Units=GPa)
#
#
# Indices 1 2 3 4 5 6 
#
# 1 65.5264 40.9348 4.2009 0.0000 0.0000 0.0000
# 2 40.9348 106.0289 28.2623 0.0000 0.0000 0.0000
# 3 4.2009 28.2623 92.3021 0.0000 0.0000 0.0000
# 4 0.0000 0.0000 0.0000 28.8212 0.0000 0.0000
# 5 0.0000 0.0000 0.0000 0.0000 34.6986 0.0000
# 6 0.0000 0.0000 0.0000 0.0000 0.0000 38.8026
#
#
#
# Elastic Compliance Matrix: (Units=1/GPa)
#
#
# Indices 1 2 3 4 5 6 
#
# 1 0.020329 -0.008277 0.001609 0.000000 0.000000 0.000000
# 2 -0.008277 0.013640 -0.003800 0.000000 0.000000 0.000000
# 3 0.001609 -0.003800 0.011924 0.000000 0.000000 0.000000
# 4 0.000000 0.000000 0.000000 0.034697 0.000000 0.000000
# 5 0.000000 0.000000 0.000000 0.000000 0.028820 0.000000
# 6 0.000000 0.000000 0.000000 0.000000 0.000000 0.025771
#
#
# Mechanical properties :
#
#
# Convention : Reuss Voigt Hill
#
# Bulk Modulus (GPa) = 40.06851 45.62816 42.84834
# Shear Modulus (GPa) = 30.40710 33.16178 31.78444
#
# Velocity S-wave (km/s) = 3.69503 3.85878 3.77779
# Velocity P-wave (km/s) = 6.01629 6.35148 6.18616
#
# Compressibility (1/GPa) = 0.02495725
#
# Stress axis : x y z
#
# Youngs Moduli (GPa) = 49.19134 73.31452 83.86309
#
# Poissons Ratio (x) = 0.60685 -0.13496
# Poissons Ratio (y) = 0.40717 0.31866
# Poissons Ratio (z) = -0.07916 0.27857
#
# Static dielectric constant tensor:
#      x y z
#    x 4.016470 0.000000 0.000000 
#    y 0.000000 3.993000 0.000000 
#    z 0.000000 0.000000 4.149870 
# 
# 
# High freq. dielectric constant tensor:
#      x y z
#    x 1.880320 0.000000 0.000000 
#    y 0.000000 1.869950 0.000000 
#    z 0.000000 0.000000 1.888010 
# 
# From -- ./inp_files/5991.got.cif
#   From: 2010.03.12/outbox.cif.g09.slc.cpg/sg33_3_cif.got.tgz:5991.got - 2010.04.14 01:49:19.
