data_PCOD8171899
_publ_section_title
;
Structure prediction by ZEFSAII (Michael W. Deem and Ramdas Pophale) SiO2 
 PCOD8171899
Probable space group: P N N 2
;
_chemical_formula_sum "Si O2"
_cell_formula_units_Z 24
_cell_length_a 13.877466
_cell_length_b 9.233817
_cell_length_c 9.011910
_cell_angle_alpha 90.000000
_cell_angle_beta 90.000000
_cell_angle_gamma 90.000000
_cell_volume 1154.804004
_symmetry_space_group_name_H-M "P N N 2"
_symmetry_group_IT_number 34
_symmetry_cell_setting 'orthorhombic'
loop_
_space_group_symop_operation_xyz
x,y,z
-x,-y,z
1/2-x,1/2+y,1/2+z
1/2+x,1/2-y,1/2+z
loop_
_atom_site_type_symbol
_atom_site_label
_atom_site_fract_x
_atom_site_fract_y
_atom_site_fract_z
Si Si1 0.804589 0.332398 0.132760
Si Si2 0.103824 0.934425 0.970034
Si Si3 0.604609 0.005604 0.407762
Si Si4 0.115108 0.323515 0.630970
Si Si5 0.092466 0.757751 0.687669
Si Si6 0.200886 0.594412 0.470405
O O1 0.695334 0.293722 0.093819
O O2 0.824783 0.369178 0.302013
O O3 0.876224 0.204920 0.074617
O O4 0.819770 0.479999 0.039034
O O5 0.104605 0.897891 0.792936
O O6 0.187244 0.053338 0.995717
O O7 0.000000 0.000000 0.014804
O O8 0.606674 0.879705 0.289051
O O9 0.500000 0.000000 0.484310
O O10 0.626668 0.147805 0.309820
O O11 0.130842 0.464113 0.526750
O O12 0.011228 0.250414 0.604893
O O13 0.175989 0.741381 0.562784
#
# Coordination Sequence:
#
# PCOD8171899 Si02
#       6
#     4   4   4   4   4   4
#     4  10  20  33  53  81 106 136 179 227 272 309
#     4  10  21  39  58  78 110 148 182 217 266 330
#     4   8  16  31  51  72 101 142 178 211 264 330
#     4   9  18  35  54  73 107 143 178 219 263 331
#     4   9  18  36  56  76 105 145 180 212 268 331
#     4  10  20  34  54  82 109 136 180 230 269 311
#
# _framework density 20.782745999999999
#
# number of rings (size 3 to 8) (size 9 to 14) (size 15 to 20)
#    0.000    2.667    0.000    2.500    0.000    2.667 
#    0.000   10.833    0.000    0.000    0.000    0.000 
#    0.000    0.000    0.000    0.000    0.000    0.000 
#
# Total GULP energy -297369.576874 kJ/mol
# GULP energy per Si atom -12390.399036 kJ/mol
# Density = 2.073544 g / cm^3
# Si number density = 20.782746 Si / 1000 Ang^3
#
#
#
# Elastic Constant Matrix: (Units=GPa)
#
#
# Indices 1 2 3 4 5 6 
#
# 1 134.2160 35.4680 61.3135 0.0000 0.0000 0.0000
# 2 35.4680 35.8322 30.9386 0.0000 0.0000 0.0000
# 3 61.3135 30.9386 110.3742 0.0000 0.0000 0.0000
# 4 0.0000 0.0000 0.0000 30.7662 0.0000 0.0000
# 5 0.0000 0.0000 0.0000 0.0000 0.8350 0.0000
# 6 0.0000 0.0000 0.0000 0.0000 0.0000 24.8403
#
#
#
# Elastic Compliance Matrix: (Units=1/GPa)
#
#
# Indices 1 2 3 4 5 6 
#
# 1 0.011383 -0.007662 -0.004176 0.000000 0.000000 0.000000
# 2 -0.007662 0.041976 -0.007510 0.000000 0.000000 0.000000
# 3 -0.004176 -0.007510 0.013485 0.000000 0.000000 0.000000
# 4 0.000000 0.000000 0.000000 0.032503 0.000000 0.000000
# 5 0.000000 0.000000 0.000000 0.000000 1.197666 0.000000
# 6 0.000000 0.000000 0.000000 0.000000 0.000000 0.040257
#
#
# Mechanical properties :
#
#
# Convention : Reuss Voigt Hill
#
# Bulk Modulus (GPa) = 35.52527 59.54028 47.53278
# Shear Modulus (GPa) = 3.60920 21.46844 12.53882
#
# Velocity S-wave (km/s) = 1.31924 3.21751 2.45894
# Velocity P-wave (km/s) = 4.41036 6.52029 5.56622
#
# Compressibility (1/GPa) = 0.02814898
#
# Stress axis : x y z
#
# Youngs Moduli (GPa) = 87.85058 23.82298 74.15783
#
# Poissons Ratio (x) = 0.18253 0.30965
# Poissons Ratio (y) = 0.67311 0.55692
# Poissons Ratio (z) = 0.36683 0.17891
#
# Static dielectric constant tensor:
#      x y z
#    x 4.854860 0.000000 0.000000 
#    y 0.000000 3.980660 0.000000 
#    z 0.000000 0.000000 4.020070 
# 
# 
# High freq. dielectric constant tensor:
#      x y z
#    x 1.815630 0.000000 0.000000 
#    y 0.000000 1.794650 0.000000 
#    z 0.000000 0.000000 1.801370 
# 
# From -- ./inp_files/3176.got.cif
#   From: 2010.03.12/outbox.cif.g09.slc.cpg/sg34_2_cif.got.tgz:3176.got - 2010.04.14 01:56:33.
