data_PCOD8171297
_publ_section_title
;
Structure prediction by ZEFSAII (Michael W. Deem and Ramdas Pophale) SiO2 
 PCOD8171297
Probable space group: P N A 21
;
_chemical_formula_sum "Si O2"
_cell_formula_units_Z 28
_cell_length_a 9.061092
_cell_length_b 5.479607
_cell_length_c 22.912167
_cell_angle_alpha 90.000000
_cell_angle_beta 90.000000
_cell_angle_gamma 90.000000
_cell_volume 1137.617117
_symmetry_space_group_name_H-M "P N A 21"
_symmetry_group_IT_number 33
_symmetry_cell_setting 'orthorhombic'
loop_
_space_group_symop_operation_xyz
x,y,z
-x,-y,1/2+z
1/2-x,1/2+y,1/2+z
1/2+x,1/2-y,z
loop_
_atom_site_type_symbol
_atom_site_label
_atom_site_fract_x
_atom_site_fract_y
_atom_site_fract_z
Si Si1 0.357274 0.084378 0.521560
Si Si2 0.594803 0.794536 0.672021
Si Si3 0.781381 0.829344 0.358717
Si Si4 0.153543 0.406214 0.249370
Si Si5 0.076571 0.052213 0.341278
Si Si6 0.869549 0.657676 0.946024
Si Si7 0.148499 0.084656 0.093679
O O1 0.220005 0.125303 0.478037
O O2 0.512579 0.034068 0.489147
O O3 0.372722 0.339601 0.556750
O O4 0.328052 0.839057 0.558290
O O5 0.695107 0.630430 0.714580
O O6 0.483288 0.980419 0.706789
O O7 0.702070 0.955733 0.631328
O O8 0.494355 0.609592 0.634552
O O9 0.736100 0.547847 0.362779
O O10 0.681814 0.918611 0.303753
O O11 0.745469 0.958658 0.420438
O O12 0.952256 0.844302 0.343084
O O13 0.094681 0.150382 0.276104
O O14 0.035701 0.249818 0.390462
#
# Coordination Sequence:
#
# PCOD8171297 Si02
#       7
#     4   4   4   4   4   4   4
#     4  12  26  47  72 102 142 189 235 301 350 421
#     4  10  22  47  68  96 136 185 231 304 349 422
#     4  11  25  42  66 106 139 184 232 295 345 450
#     4  10  22  46  66  98 144 174 235 284 363 417
#     4  11  25  42  66 106 139 184 236 289 353 444
#     4  11  26  41  70  98 144 185 233 287 363 421
#     4  11  26  47  70 104 138 183 250 292 353 415
#
# _framework density 24.612849000000001
#
# number of rings (size 3 to 8) (size 9 to 14) (size 15 to 20)
#    0.000    1.143    2.857    1.714    8.000    0.000 
#   15.429    0.000    0.000    0.000    0.000    0.000 
#    0.000    0.000    0.000    0.000    0.000    0.000 
#
# Total GULP energy -346981.038279 kJ/mol
# GULP energy per Si atom -12392.179939 kJ/mol
# Density = 2.455683 g / cm^3
# Si number density = 24.612849 Si / 1000 Ang^3
#
#
#
# Elastic Constant Matrix: (Units=GPa)
#
#
# Indices 1 2 3 4 5 6 
#
# 1 123.9184 -4.0057 38.4662 0.0000 0.0000 0.0000
# 2 -4.0057 60.1608 24.9337 0.0000 0.0000 0.0000
# 3 38.4662 24.9337 122.0541 0.0000 0.0000 0.0000
# 4 0.0000 0.0000 0.0000 15.6953 0.0000 0.0000
# 5 0.0000 0.0000 0.0000 0.0000 48.6219 0.0000
# 6 0.0000 0.0000 0.0000 0.0000 0.0000 28.0227
#
#
#
# Elastic Compliance Matrix: (Units=1/GPa)
#
#
# Indices 1 2 3 4 5 6 
#
# 1 0.009154 0.001972 -0.003288 0.000000 0.000000 0.000000
# 2 0.001972 0.018585 -0.004418 0.000000 0.000000 0.000000
# 3 -0.003288 -0.004418 0.010132 0.000000 0.000000 0.000000
# 4 0.000000 0.000000 0.000000 0.063713 0.000000 0.000000
# 5 0.000000 0.000000 0.000000 0.000000 0.020567 0.000000
# 6 0.000000 0.000000 0.000000 0.000000 0.000000 0.035685
#
#
# Mechanical properties :
#
#
# Convention : Reuss Voigt Hill
#
# Bulk Modulus (GPa) = 37.87448 47.21351 42.54399
# Shear Modulus (GPa) = 28.07338 34.91725 31.49532
#
# Velocity S-wave (km/s) = 3.38094 3.77060 3.58107
# Velocity P-wave (km/s) = 5.53737 6.17905 5.86699
#
# Compressibility (1/GPa) = 0.02640300
#
# Stress axis : x y z
#
# Youngs Moduli (GPa) = 109.23952 53.80819 98.69874
#
# Poissons Ratio (x) = -0.10612 0.32451
# Poissons Ratio (y) = -0.21544 0.43606
# Poissons Ratio (z) = 0.35917 0.23773
#
# Static dielectric constant tensor:
#      x y z
#    x 4.511860 0.000000 0.000000 
#    y 0.000000 3.980910 0.000000 
#    z 0.000000 0.000000 4.724650 
# 
# 
# High freq. dielectric constant tensor:
#      x y z
#    x 1.997320 0.000000 0.000000 
#    y 0.000000 1.946510 0.000000 
#    z 0.000000 0.000000 1.999550 
# 
# From -- ./inp_files/9229.got.cif
#   From: 2010.03.12/outbox.cif.g09.slc.cpg/sg33_5_cif.got.tgz:9229.got - 2010.04.14 01:49:19.
