data_PCOD8171956
_publ_section_title
;
Structure prediction by ZEFSAII (Michael W. Deem and Ramdas Pophale) SiO2 
 PCOD8171956
Probable space group: P N N 2
;
_chemical_formula_sum "Si O2"
_cell_formula_units_Z 24
_cell_length_a 8.906397
_cell_length_b 13.935784
_cell_length_c 8.938148
_cell_angle_alpha 90.000000
_cell_angle_beta 90.000000
_cell_angle_gamma 90.000000
_cell_volume 1109.381700
_symmetry_space_group_name_H-M "P N N 2"
_symmetry_group_IT_number 34
_symmetry_cell_setting 'orthorhombic'
loop_
_space_group_symop_operation_xyz
x,y,z
-x,-y,z
1/2-x,1/2+y,1/2+z
1/2+x,1/2-y,1/2+z
loop_
_atom_site_type_symbol
_atom_site_label
_atom_site_fract_x
_atom_site_fract_y
_atom_site_fract_z
Si Si1 0.708461 0.330356 0.052840
Si Si2 0.841898 0.331610 0.749749
Si Si3 0.323899 0.853166 0.238871
Si Si4 0.603453 0.716906 0.966062
Si Si5 0.824964 0.983554 0.073764
Si Si6 0.627442 0.917781 0.808792
O O1 0.680253 0.254149 0.181192
O O2 0.799550 0.413999 0.141299
O O3 0.808939 0.292007 0.915266
O O4 0.542988 0.351526 0.984385
O O5 0.836363 0.246022 0.629933
O O6 0.716575 0.410443 0.707464
O O7 0.003667 0.384308 0.759151
O O8 0.229386 0.851870 0.392867
O O9 0.250667 0.916031 0.110553
O O10 0.564031 0.813934 0.868373
O O11 0.763414 0.945843 0.917173
O O12 0.000000 0.000000 0.060618
O O13 0.500000 0.000000 0.811030
#
# Coordination Sequence:
#
# PCOD8171956 Si02
#       6
#     4   4   4   4   4   4
#     4  10  21  37  59  86 116 151 199 245 290 351
#     4  10  21  38  59  86 118 151 192 242 297 357
#     4  10  21  38  61  85 115 156 196 241 297 356
#     4   9  20  38  60  86 116 153 198 245 291 351
#     4  11  22  38  60  84 116 155 196 245 301 357
#     4  10  21  39  59  85 120 160 200 244 301 356
#
# _framework density 21.633671
#
# number of rings (size 3 to 8) (size 9 to 14) (size 15 to 20)
#    0.000    2.000    0.000    4.500    0.000    9.333 
#    0.000    5.833    0.000    0.000    0.000    0.000 
#    0.000    0.000    0.000    0.000    0.000    0.000 
#
# Total GULP energy -297424.183522 kJ/mol
# GULP energy per Si atom -12392.674313 kJ/mol
# Density = 2.158443 g / cm^3
# Si number density = 21.633671 Si / 1000 Ang^3
#
#
#
# Elastic Constant Matrix: (Units=GPa)
#
#
# Indices 1 2 3 4 5 6 
#
# 1 137.8345 13.7204 55.2355 0.0000 0.0000 0.0000
# 2 13.7204 33.1118 12.6911 0.0000 0.0000 0.0000
# 3 55.2355 12.6911 138.1017 0.0000 0.0000 0.0000
# 4 0.0000 0.0000 0.0000 18.1680 0.0000 0.0000
# 5 0.0000 0.0000 0.0000 0.0000 34.7062 0.0000
# 6 0.0000 0.0000 0.0000 0.0000 0.0000 29.8423
#
#
#
# Elastic Compliance Matrix: (Units=1/GPa)
#
#
# Indices 1 2 3 4 5 6 
#
# 1 0.008818 -0.002386 -0.003308 0.000000 0.000000 0.000000
# 2 -0.002386 0.031949 -0.001982 0.000000 0.000000 0.000000
# 3 -0.003308 -0.001982 0.008746 0.000000 0.000000 0.000000
# 4 0.000000 0.000000 0.000000 0.055042 0.000000 0.000000
# 5 0.000000 0.000000 0.000000 0.000000 0.028813 0.000000
# 6 0.000000 0.000000 0.000000 0.000000 0.000000 0.033510
#
#
# Mechanical properties :
#
#
# Convention : Reuss Voigt Hill
#
# Bulk Modulus (GPa) = 29.27203 52.48243 40.87723
# Shear Modulus (GPa) = 25.82430 31.70336 28.76383
#
# Velocity S-wave (km/s) = 3.45876 3.83229 3.65030
# Velocity P-wave (km/s) = 5.43239 6.62527 6.05826
#
# Compressibility (1/GPa) = 0.03416231
#
# Stress axis : x y z
#
# Youngs Moduli (GPa) = 113.40324 31.29991 114.33710
#
# Poissons Ratio (x) = 0.07469 0.37818
# Poissons Ratio (y) = 0.27060 0.22657
# Poissons Ratio (z) = 0.37510 0.06202
#
# Static dielectric constant tensor:
#      x y z
#    x 4.260780 0.000000 0.000000 
#    y 0.000000 3.674750 0.000000 
#    z 0.000000 0.000000 4.097590 
# 
# 
# High freq. dielectric constant tensor:
#      x y z
#    x 1.859460 0.000000 0.000000 
#    y 0.000000 1.819400 0.000000 
#    z 0.000000 0.000000 1.857950 
# 
# From -- ./inp_files/2594.got.cif
#   From: 2010.03.12/outbox.cif.g09.slc.cpg/sg34_2_cif.got.tgz:2594.got - 2010.04.14 01:56:33.
