data_PCOD8171770
_publ_section_title
;
Structure prediction by ZEFSAII (Michael W. Deem and Ramdas Pophale) SiO2 
 PCOD8171770
Probable space group: P N A 21
;
_chemical_formula_sum "Si O2"
_cell_formula_units_Z 24
_cell_length_a 12.223495
_cell_length_b 13.145534
_cell_length_c 6.520659
_cell_angle_alpha 90.000000
_cell_angle_beta 90.000000
_cell_angle_gamma 90.000000
_cell_volume 1047.767978
_symmetry_space_group_name_H-M "P N A 21"
_symmetry_group_IT_number 33
_symmetry_cell_setting 'orthorhombic'
loop_
_space_group_symop_operation_xyz
x,y,z
-x,-y,1/2+z
1/2-x,1/2+y,1/2+z
1/2+x,1/2-y,z
loop_
_atom_site_type_symbol
_atom_site_label
_atom_site_fract_x
_atom_site_fract_y
_atom_site_fract_z
Si Si1 0.606271 0.926797 0.404730
Si Si2 0.699890 0.617559 0.372794
Si Si3 0.852418 0.253991 0.227853
Si Si4 0.091841 0.387694 0.664252
Si Si5 0.490784 0.318348 0.573086
Si Si6 0.271517 0.603872 0.031188
O O1 0.597152 0.839401 0.578046
O O2 0.482650 0.948764 0.326973
O O3 0.695636 0.898560 0.232503
O O4 0.639162 0.036103 0.493918
O O5 0.707215 0.670106 0.591979
O O6 0.800877 0.668048 0.251267
O O7 0.587410 0.636570 0.250726
O O8 0.730468 0.499059 0.398288
O O9 0.939385 0.181180 0.345913
O O10 0.767234 0.303955 0.386208
O O11 0.007115 0.302135 0.594796
O O12 0.602434 0.380573 0.593323
#
# Coordination Sequence:
#
# PCOD8171770 Si02
#       6
#     4   4   4   4   4   4
#     4  12  25  49  75 115 145 196 259 313 383 446
#     4  12  29  48  75 113 151 202 247 315 387 448
#     4  12  25  50  74 112 151 197 252 310 389 446
#     4  12  24  48  77 105 151 192 254 313 365 462
#     4  12  28  48  73 110 151 200 250 310 380 454
#     4  12  29  49  78 113 153 199 256 315 380 470
#
# _framework density 22.905832
#
# number of rings (size 3 to 8) (size 9 to 14) (size 15 to 20)
#    0.000    0.000    5.000    4.000    9.333    1.333 
#    0.000    0.000    0.000    0.000    0.000    0.000 
#    0.000    0.000    0.000    0.000    0.000    0.000 
#
# Total GULP energy -297555.365833 kJ/mol
# GULP energy per Si atom -12398.140243 kJ/mol
# Density = 2.285370 g / cm^3
# Si number density = 22.905832 Si / 1000 Ang^3
#
#
#
# Elastic Constant Matrix: (Units=GPa)
#
#
# Indices 1 2 3 4 5 6 
#
# 1 153.1231 27.8646 64.3161 0.0000 0.0000 0.0000
# 2 27.8646 62.8246 28.4980 0.0000 0.0000 0.0000
# 3 64.3161 28.4980 129.8804 0.0000 0.0000 0.0000
# 4 0.0000 0.0000 0.0000 37.2521 0.0000 0.0000
# 5 0.0000 0.0000 0.0000 0.0000 39.3825 0.0000
# 6 0.0000 0.0000 0.0000 0.0000 0.0000 36.4322
#
#
#
# Elastic Compliance Matrix: (Units=1/GPa)
#
#
# Indices 1 2 3 4 5 6 
#
# 1 0.008480 -0.002061 -0.003747 0.000000 0.000000 0.000000
# 2 -0.002061 0.018178 -0.002968 0.000000 0.000000 0.000000
# 3 -0.003747 -0.002968 0.010206 0.000000 0.000000 0.000000
# 4 0.000000 0.000000 0.000000 0.026844 0.000000 0.000000
# 5 0.000000 0.000000 0.000000 0.000000 0.025392 0.000000
# 6 0.000000 0.000000 0.000000 0.000000 0.000000 0.027448
#
#
# Mechanical properties :
#
#
# Convention : Reuss Voigt Hill
#
# Bulk Modulus (GPa) = 51.78236 65.24285 58.51260
# Shear Modulus (GPa) = 35.57795 37.62334 36.60064
#
# Velocity S-wave (km/s) = 3.94538 4.05720 4.00168
# Velocity P-wave (km/s) = 6.58865 7.10582 6.85212
#
# Compressibility (1/GPa) = 0.01931160
#
# Stress axis : x y z
#
# Youngs Moduli (GPa) = 117.93090 55.01210 97.98229
#
# Poissons Ratio (x) = 0.11340 0.36711
# Poissons Ratio (y) = 0.24310 0.29079
# Poissons Ratio (z) = 0.44185 0.16326
#
# Static dielectric constant tensor:
#      x y z
#    x 4.104630 0.000000 0.000000 
#    y 0.000000 4.129200 0.000000 
#    z 0.000000 0.000000 4.336690 
# 
# 
# High freq. dielectric constant tensor:
#      x y z
#    x 1.913450 0.000000 0.000000 
#    y 0.000000 1.912980 0.000000 
#    z 0.000000 0.000000 1.913780 
# 
# From -- ./inp_files/836.got.cif
#   From: 2010.03.12/outbox.cif.g09.slc.cpg/sg33_1_cif.got.tgz:836.got - 2010.04.14 01:49:19.
