data_PCOD8171166
_publ_section_title
;
Structure prediction by ZEFSAII (Michael W. Deem and Ramdas Pophale) SiO2 
 PCOD8171166
Probable space group: P N A 21
;
_chemical_formula_sum "Si O2"
_cell_formula_units_Z 28
_cell_length_a 5.149884
_cell_length_b 16.316700
_cell_length_c 14.340006
_cell_angle_alpha 90.000000
_cell_angle_beta 90.000000
_cell_angle_gamma 90.000000
_cell_volume 1204.977974
_symmetry_space_group_name_H-M "P N A 21"
_symmetry_group_IT_number 33
_symmetry_cell_setting 'orthorhombic'
loop_
_space_group_symop_operation_xyz
x,y,z
-x,-y,1/2+z
1/2-x,1/2+y,1/2+z
1/2+x,1/2-y,z
loop_
_atom_site_type_symbol
_atom_site_label
_atom_site_fract_x
_atom_site_fract_y
_atom_site_fract_z
Si Si1 0.694923 0.529195 0.710270
Si Si2 0.349813 0.013525 0.907810
Si Si3 0.142450 0.206181 0.555053
Si Si4 0.999118 0.572380 0.076047
Si Si5 0.147131 0.880151 0.417693
Si Si6 0.114002 0.862670 0.214774
Si Si7 0.354771 0.301921 0.115254
O O1 0.830403 0.536627 0.811486
O O2 0.913444 0.506435 0.634524
O O3 0.475455 0.458728 0.715611
O O4 0.586647 0.616842 0.676619
O O5 0.639117 0.048633 0.923769
O O6 0.299371 0.953389 0.995081
O O7 0.143476 0.085623 0.913504
O O8 0.356693 0.271490 0.516936
O O9 0.251644 0.116703 0.526588
O O10 0.105914 0.196769 0.669408
O O11 0.863097 0.639139 0.144668
O O12 0.189891 0.833112 0.318656
O O13 0.158132 0.819016 0.504402
O O14 0.580986 0.238505 0.141789
#
# Coordination Sequence:
#
# PCOD8171166 Si02
#       7
#     4   4   4   4   4   4   4
#     4  10  23  42  66  99 130 170 236 272 327 400
#     4  11  23  39  70  99 122 167 222 293 313 382
#     4  11  23  39  58  91 130 165 204 257 335 399
#     4  11  21  40  70  93 125 172 219 277 337 381
#     4  11  23  41  63  99 131 161 229 266 326 389
#     4  10  22  39  71  96 129 175 213 282 324 385
#     4  12  27  44  66  95 141 188 215 273 344 408
#
# _framework density 23.236939
#
# number of rings (size 3 to 8) (size 9 to 14) (size 15 to 20)
#    0.000    1.143    4.286    1.714    4.000    1.143 
#    0.000    1.429    0.000    0.000    0.000    0.000 
#    0.000    0.000    0.000    0.000    0.000    0.000 
#
# Total GULP energy -346952.797872 kJ/mol
# GULP energy per Si atom -12391.171353 kJ/mol
# Density = 2.318405 g / cm^3
# Si number density = 23.236939 Si / 1000 Ang^3
#
#
#
# Elastic Constant Matrix: (Units=GPa)
#
#
# Indices 1 2 3 4 5 6 
#
# 1 97.1724 15.1967 9.1832 0.0000 0.0000 0.0000
# 2 15.1967 53.9379 11.7406 0.0000 0.0000 0.0000
# 3 9.1832 11.7406 68.9269 0.0000 0.0000 0.0000
# 4 0.0000 0.0000 0.0000 26.2748 0.0000 0.0000
# 5 0.0000 0.0000 0.0000 0.0000 26.8988 0.0000
# 6 0.0000 0.0000 0.0000 0.0000 0.0000 36.6323
#
#
#
# Elastic Compliance Matrix: (Units=1/GPa)
#
#
# Indices 1 2 3 4 5 6 
#
# 1 0.010826 -0.002842 -0.000958 0.000000 0.000000 0.000000
# 2 -0.002842 0.020000 -0.003028 0.000000 0.000000 0.000000
# 3 -0.000958 -0.003028 0.015152 0.000000 0.000000 0.000000
# 4 0.000000 0.000000 0.000000 0.038059 0.000000 0.000000
# 5 0.000000 0.000000 0.000000 0.000000 0.037176 0.000000
# 6 0.000000 0.000000 0.000000 0.000000 0.000000 0.027298
#
#
# Mechanical properties :
#
#
# Convention : Reuss Voigt Hill
#
# Bulk Modulus (GPa) = 30.93943 32.47537 31.70740
# Shear Modulus (GPa) = 28.91166 30.22229 29.56698
#
# Velocity S-wave (km/s) = 3.53116 3.61032 3.57096
# Velocity P-wave (km/s) = 5.47441 5.60226 5.53870
#
# Compressibility (1/GPa) = 0.03232122
#
# Stress axis : x y z
#
# Youngs Moduli (GPa) = 92.37072 50.00117 65.99974
#
# Poissons Ratio (x) = 0.14208 0.06325
# Poissons Ratio (y) = 0.26248 0.19985
# Poissons Ratio (z) = 0.08852 0.15141
#
# Static dielectric constant tensor:
#      x y z
#    x 4.221030 0.000000 0.000000 
#    y 0.000000 3.987620 0.000000 
#    z 0.000000 0.000000 4.240430 
# 
# 
# High freq. dielectric constant tensor:
#      x y z
#    x 1.928830 0.000000 0.000000 
#    y 0.000000 1.908180 0.000000 
#    z 0.000000 0.000000 1.900000 
# 
# From -- ./inp_files/7418.got.cif
#   From: 2010.03.12/outbox.cif.g09.slc.cpg/sg33_4_cif.got.tgz:7418.got - 2010.04.14 01:49:19.
