data_PCOD8171519
_publ_section_title
;
Structure prediction by ZEFSAII (Michael W. Deem and Ramdas Pophale) SiO2 
 PCOD8171519
Probable space group: P N A 21
;
_chemical_formula_sum "Si O2"
_cell_formula_units_Z 28
_cell_length_a 8.493775
_cell_length_b 15.965015
_cell_length_c 9.272836
_cell_angle_alpha 90.000000
_cell_angle_beta 90.000000
_cell_angle_gamma 90.000000
_cell_volume 1257.426655
_symmetry_space_group_name_H-M "P N A 21"
_symmetry_group_IT_number 33
_symmetry_cell_setting 'orthorhombic'
loop_
_space_group_symop_operation_xyz
x,y,z
-x,-y,1/2+z
1/2-x,1/2+y,1/2+z
1/2+x,1/2-y,z
loop_
_atom_site_type_symbol
_atom_site_label
_atom_site_fract_x
_atom_site_fract_y
_atom_site_fract_z
Si Si1 0.589574 0.063651 0.299840
Si Si2 0.944121 0.671308 0.539825
Si Si3 0.852428 0.028800 0.521486
Si Si4 0.903911 0.842205 0.932353
Si Si5 0.424799 0.182209 0.513131
Si Si6 0.392946 0.904944 0.239208
Si Si7 0.811083 0.846002 0.603939
O O1 0.640751 0.130711 0.178642
O O2 0.746035 0.034362 0.379353
O O3 0.470291 0.104221 0.413009
O O4 0.501357 0.986880 0.224136
O O5 0.130574 0.657057 0.553107
O O6 0.869300 0.623338 0.403320
O O7 0.906140 0.769650 0.532501
O O8 0.772315 0.074693 0.659747
O O9 0.018663 0.071296 0.483628
O O10 0.889244 0.931934 0.550361
O O11 0.762069 0.820076 0.041793
O O12 0.824336 0.845304 0.775898
O O13 0.035197 0.770068 0.937093
O O14 0.517124 0.172516 0.663277
#
# Coordination Sequence:
#
# PCOD8171519 Si02
#       7
#     4   4   4   4   4   4   4
#     4  11  20  45  75  97 136 190 231 280 359 427
#     4  12  25  44  75 101 141 183 236 292 361 414
#     4  11  26  46  72 107 141 184 241 293 355 431
#     4  12  24  46  72 102 139 189 237 288 354 433
#     4  11  23  42  73  97 137 188 232 283 349 434
#     4  11  23  45  71 103 139 181 237 295 351 420
#     4  12  25  48  70 107 141 183 240 295 351 433
#
# _framework density 22.267702
#
# number of rings (size 3 to 8) (size 9 to 14) (size 15 to 20)
#    0.000    0.571    5.714    2.571    2.000    3.429 
#    7.714    0.000    0.000    0.000    0.000    0.000 
#    0.000    0.000    0.000    0.000    0.000    0.000 
#
# Total GULP energy -347350.542545 kJ/mol
# GULP energy per Si atom -12405.376519 kJ/mol
# Density = 2.221702 g / cm^3
# Si number density = 22.267702 Si / 1000 Ang^3
#
#
#
# Elastic Constant Matrix: (Units=GPa)
#
#
# Indices 1 2 3 4 5 6 
#
# 1 59.5478 24.2976 18.3057 0.0000 0.0000 0.0000
# 2 24.2976 128.2622 21.2853 0.0000 0.0000 0.0000
# 3 18.3057 21.2853 91.8081 0.0000 0.0000 0.0000
# 4 0.0000 0.0000 0.0000 41.5637 0.0000 0.0000
# 5 0.0000 0.0000 0.0000 0.0000 16.2570 0.0000
# 6 0.0000 0.0000 0.0000 0.0000 0.0000 41.9259
#
#
#
# Elastic Compliance Matrix: (Units=1/GPa)
#
#
# Indices 1 2 3 4 5 6 
#
# 1 0.018998 -0.003089 -0.003072 0.000000 0.000000 0.000000
# 2 -0.003089 0.008611 -0.001380 0.000000 0.000000 0.000000
# 3 -0.003072 -0.001380 0.011825 0.000000 0.000000 0.000000
# 4 0.000000 0.000000 0.000000 0.024059 0.000000 0.000000
# 5 0.000000 0.000000 0.000000 0.000000 0.061512 0.000000
# 6 0.000000 0.000000 0.000000 0.000000 0.000000 0.023852
#
#
# Mechanical properties :
#
#
# Convention : Reuss Voigt Hill
#
# Bulk Modulus (GPa) = 41.06634 45.26615 43.16625
# Shear Modulus (GPa) = 29.06023 34.33127 31.69575
#
# Velocity S-wave (km/s) = 3.61645 3.93077 3.77688
# Velocity P-wave (km/s) = 5.99337 6.40106 6.20057
#
# Compressibility (1/GPa) = 0.02435084
#
# Stress axis : x y z
#
# Youngs Moduli (GPa) = 52.63704 116.13297 84.56788
#
# Poissons Ratio (x) = 0.35875 0.25978
# Poissons Ratio (y) = 0.16260 0.11674
# Poissons Ratio (z) = 0.16169 0.16031
#
# Static dielectric constant tensor:
#      x y z
#    x 3.843710 0.000000 0.000000 
#    y 0.000000 4.148810 0.000000 
#    z 0.000000 0.000000 4.078040 
# 
# 
# High freq. dielectric constant tensor:
#      x y z
#    x 1.865290 0.000000 0.000000 
#    y 0.000000 1.889540 0.000000 
#    z 0.000000 0.000000 1.875160 
# 
# From -- ./inp_files/3206.got.cif
#   From: 2010.03.12/outbox.cif.g09.slc.cpg/sg33_2_cif.got.tgz:3206.got - 2010.04.14 01:49:19.
