data_PCOD8171325
_publ_section_title
;
Structure prediction by ZEFSAII (Michael W. Deem and Ramdas Pophale) SiO2 
 PCOD8171325
Probable space group: P N A 21
;
_chemical_formula_sum "Si O2"
_cell_formula_units_Z 32
_cell_length_a 21.715489
_cell_length_b 8.011582
_cell_length_c 8.737314
_cell_angle_alpha 90.000000
_cell_angle_beta 90.000000
_cell_angle_gamma 90.000000
_cell_volume 1520.077880
_symmetry_space_group_name_H-M "P N A 21"
_symmetry_group_IT_number 33
_symmetry_cell_setting 'orthorhombic'
loop_
_space_group_symop_operation_xyz
x,y,z
-x,-y,1/2+z
1/2-x,1/2+y,1/2+z
1/2+x,1/2-y,z
loop_
_atom_site_type_symbol
_atom_site_label
_atom_site_fract_x
_atom_site_fract_y
_atom_site_fract_z
Si Si1 0.347270 0.975513 0.942750
Si Si2 0.849269 0.738331 0.663230
Si Si3 0.253491 0.027822 0.197980
Si Si4 0.148581 0.771046 0.226787
Si Si5 0.010579 0.813865 0.244501
Si Si6 0.045372 0.538602 0.672745
Si Si7 0.358148 0.067647 0.437574
Si Si8 0.527825 0.363092 0.076763
O O1 0.357407 0.810900 0.841719
O O2 0.325719 0.116967 0.824958
O O3 0.409852 0.027237 0.027497
O O4 0.293388 0.941497 0.065169
O O5 0.780088 0.805769 0.635467
O O6 0.861677 0.592538 0.544109
O O7 0.901047 0.878446 0.630548
O O8 0.198646 0.911958 0.256397
O O9 0.296029 0.074141 0.340357
O O10 0.082028 0.820706 0.291707
O O11 0.141616 0.730018 0.045951
O O12 0.994329 0.631901 0.175700
O O13 0.971124 0.848659 0.394856
O O14 0.994298 0.964527 0.126862
O O15 0.082065 0.565716 0.830063
O O16 0.001577 0.698030 0.653298
#
# Coordination Sequence:
#
# PCOD8171325 Si02
#       8
#     4   4   4   4   4   4   4   4
#     4  10  23  41  66  93 128 178 221 270 337 399
#     4  11  22  41  64  93 131 171 220 276 333 396
#     4  11  22  40  64  96 130 167 224 276 336 397
#     4  11  22  41  64  93 131 171 220 276 333 396
#     4  12  27  43  68 102 137 178 226 276 341 407
#     4  11  24  44  68  96 138 177 226 276 334 405
#     4  10  23  41  66  93 128 178 221 270 337 399
#     4  12  27  43  68 102 137 178 226 276 341 407
#
# _framework density 21.051552000000001
#
# number of rings (size 3 to 8) (size 9 to 14) (size 15 to 20)
#    0.000    1.000    3.750    3.000    3.500    0.000 
#    0.000    0.000    0.000    0.000    0.000    0.000 
#    0.000    0.000    0.000    0.000    0.000    0.000 
#
# Total GULP energy -396881.330236 kJ/mol
# GULP energy per Si atom -12402.541570 kJ/mol
# Density = 2.100364 g / cm^3
# Si number density = 21.051552 Si / 1000 Ang^3
#
#
#
# Elastic Constant Matrix: (Units=GPa)
#
#
# Indices 1 2 3 4 5 6 
#
# 1 100.4904 8.0252 17.6157 0.0000 0.0000 0.0000
# 2 8.0252 80.5447 6.6571 0.0000 0.0000 0.0000
# 3 17.6157 6.6571 88.5772 0.0000 0.0000 0.0000
# 4 0.0000 0.0000 0.0000 26.7502 0.0000 0.0000
# 5 0.0000 0.0000 0.0000 0.0000 24.9319 0.0000
# 6 0.0000 0.0000 0.0000 0.0000 0.0000 32.1132
#
#
#
# Elastic Compliance Matrix: (Units=1/GPa)
#
#
# Indices 1 2 3 4 5 6 
#
# 1 0.010371 -0.000868 -0.001997 0.000000 0.000000 0.000000
# 2 -0.000868 0.012566 -0.000772 0.000000 0.000000 0.000000
# 3 -0.001997 -0.000772 0.011745 0.000000 0.000000 0.000000
# 4 0.000000 0.000000 0.000000 0.037383 0.000000 0.000000
# 5 0.000000 0.000000 0.000000 0.000000 0.040109 0.000000
# 6 0.000000 0.000000 0.000000 0.000000 0.000000 0.031140
#
#
# Mechanical properties :
#
#
# Convention : Reuss Voigt Hill
#
# Bulk Modulus (GPa) = 36.48720 37.13427 36.81073
# Shear Modulus (GPa) = 31.30417 32.58001 31.94209
#
# Velocity S-wave (km/s) = 3.86038 3.93826 3.89951
# Velocity P-wave (km/s) = 6.10246 6.19337 6.14808
#
# Compressibility (1/GPa) = 0.02740687
#
# Stress axis : x y z
#
# Youngs Moduli (GPa) = 96.42611 79.58136 85.14426
#
# Poissons Ratio (x) = 0.06909 0.17005
# Poissons Ratio (y) = 0.08372 0.06571
# Poissons Ratio (z) = 0.19258 0.06141
#
# Static dielectric constant tensor:
#      x y z
#    x 3.843880 0.000000 0.000000 
#    y 0.000000 3.797820 0.000000 
#    z 0.000000 0.000000 3.880020 
# 
# 
# High freq. dielectric constant tensor:
#      x y z
#    x 1.829750 0.000000 0.000000 
#    y 0.000000 1.824600 0.000000 
#    z 0.000000 0.000000 1.832840 
# 
# From -- ./inp_files/4976.got.cif
#   From: 2010.03.12/outbox.cif.g09.slc.cpg/sg33_3_cif.got.tgz:4976.got - 2010.04.14 01:49:19.
