data_PCOD8171594
_publ_section_title
;
Structure prediction by ZEFSAII (Michael W. Deem and Ramdas Pophale) SiO2 
 PCOD8171594
Probable space group: P N A 21
;
_chemical_formula_sum "Si O2"
_cell_formula_units_Z 28
_cell_length_a 25.139926
_cell_length_b 6.537582
_cell_length_c 7.550181
_cell_angle_alpha 90.000000
_cell_angle_beta 90.000000
_cell_angle_gamma 90.000000
_cell_volume 1240.904922
_symmetry_space_group_name_H-M "P N A 21"
_symmetry_group_IT_number 33
_symmetry_cell_setting 'orthorhombic'
loop_
_space_group_symop_operation_xyz
x,y,z
-x,-y,1/2+z
1/2-x,1/2+y,1/2+z
1/2+x,1/2-y,z
loop_
_atom_site_type_symbol
_atom_site_label
_atom_site_fract_x
_atom_site_fract_y
_atom_site_fract_z
Si Si1 0.140137 0.795064 0.164650
Si Si2 0.919780 0.530611 0.842641
Si Si3 0.308012 0.491949 0.009728
Si Si4 0.870335 0.637501 0.180062
Si Si5 0.206320 0.689739 0.835029
Si Si6 0.020986 0.265525 0.863135
Si Si7 0.954041 0.922913 0.706555
O O1 0.118934 0.562203 0.191483
O O2 0.164641 0.866053 0.351593
O O3 0.088973 0.930473 0.115971
O O4 0.178599 0.812122 0.996844
O O5 0.924002 0.777655 0.847597
O O6 0.978703 0.439971 0.820202
O O7 0.891890 0.481951 0.029747
O O8 0.262364 0.622346 0.914304
O O9 0.347178 0.651142 0.104270
O O10 0.286508 0.337134 0.163450
O O11 0.825733 0.515427 0.288414
O O12 0.920021 0.683818 0.304313
O O13 0.021823 0.242030 0.072985
O O14 0.002754 0.047310 0.786767
#
# Coordination Sequence:
#
# PCOD8171594 Si02
#       7
#     4   4   4   4   4   4   4
#     4  11  25  46  72 102 144 189 238 300 374 436
#     4  11  23  42  70 103 144 192 241 301 362 454
#     4  12  28  49  75 107 145 191 248 312 373 444
#     4  12  25  46  74 104 151 193 246 313 377 443
#     4  12  29  47  76 108 142 191 254 307 379 444
#     4  11  25  38  68 104 142 195 242 296 372 448
#     4  11  23  42  65 100 146 187 241 297 367 439
#
# _framework density 22.564177000000001
#
# number of rings (size 3 to 8) (size 9 to 14) (size 15 to 20)
#    0.000    0.571    2.857    4.286    4.000   10.286 
#    0.000    0.000    0.000    0.000    0.000    0.000 
#    0.000    0.000    0.000    0.000    0.000    0.000 
#
# Total GULP energy -347097.096093 kJ/mol
# GULP energy per Si atom -12396.324860 kJ/mol
# Density = 2.251282 g / cm^3
# Si number density = 22.564177 Si / 1000 Ang^3
#
#
#
# Elastic Constant Matrix: (Units=GPa)
#
#
# Indices 1 2 3 4 5 6 
#
# 1 83.1408 17.9531 15.5966 0.0000 0.0000 0.0000
# 2 17.9531 91.2955 26.5060 0.0000 0.0000 0.0000
# 3 15.5966 26.5060 98.3902 0.0000 0.0000 0.0000
# 4 0.0000 0.0000 0.0000 41.8353 0.0000 0.0000
# 5 0.0000 0.0000 0.0000 0.0000 27.9597 0.0000
# 6 0.0000 0.0000 0.0000 0.0000 0.0000 24.8139
#
#
#
# Elastic Compliance Matrix: (Units=1/GPa)
#
#
# Indices 1 2 3 4 5 6 
#
# 1 0.012752 -0.002084 -0.001460 0.000000 0.000000 0.000000
# 2 -0.002084 0.012223 -0.002963 0.000000 0.000000 0.000000
# 3 -0.001460 -0.002963 0.011193 0.000000 0.000000 0.000000
# 4 0.000000 0.000000 0.000000 0.023903 0.000000 0.000000
# 5 0.000000 0.000000 0.000000 0.000000 0.035766 0.000000
# 6 0.000000 0.000000 0.000000 0.000000 0.000000 0.040300
#
#
# Mechanical properties :
#
#
# Convention : Reuss Voigt Hill
#
# Bulk Modulus (GPa) = 43.18634 43.65975 43.42304
# Shear Modulus (GPa) = 31.87387 33.10650 32.49019
#
# Velocity S-wave (km/s) = 3.76252 3.83458 3.79872
# Velocity P-wave (km/s) = 6.16898 6.24472 6.20696
#
# Compressibility (1/GPa) = 0.02315547
#
# Stress axis : x y z
#
# Youngs Moduli (GPa) = 78.42140 81.81067 89.34021
#
# Poissons Ratio (x) = 0.17047 0.13044
# Poissons Ratio (y) = 0.16341 0.26468
# Poissons Ratio (z) = 0.11450 0.24237
#
# Static dielectric constant tensor:
#      x y z
#    x 4.275070 0.000000 0.000000 
#    y 0.000000 4.539370 0.000000 
#    z 0.000000 0.000000 4.166910 
# 
# 
# High freq. dielectric constant tensor:
#      x y z
#    x 1.896850 0.000000 0.000000 
#    y 0.000000 1.896800 0.000000 
#    z 0.000000 0.000000 1.901050 
# 
# From -- ./inp_files/5144.got.cif
#   From: 2010.03.12/outbox.cif.g09.slc.cpg/sg33_3_cif.got.tgz:5144.got - 2010.04.14 01:49:19.
