data_PCOD8171314
_publ_section_title
;
Structure prediction by ZEFSAII (Michael W. Deem and Ramdas Pophale) SiO2 
 PCOD8171314
Probable space group: P N A 21
;
_chemical_formula_sum "Si O2"
_cell_formula_units_Z 32
_cell_length_a 13.139223
_cell_length_b 11.101525
_cell_length_c 10.381694
_cell_angle_alpha 90.000000
_cell_angle_beta 90.000000
_cell_angle_gamma 90.000000
_cell_volume 1514.330079
_symmetry_space_group_name_H-M "P N A 21"
_symmetry_group_IT_number 33
_symmetry_cell_setting 'orthorhombic'
loop_
_space_group_symop_operation_xyz
x,y,z
-x,-y,1/2+z
1/2-x,1/2+y,1/2+z
1/2+x,1/2-y,z
loop_
_atom_site_type_symbol
_atom_site_label
_atom_site_fract_x
_atom_site_fract_y
_atom_site_fract_z
Si Si1 0.661264 0.833691 0.901830
Si Si2 0.997573 0.644583 0.696323
Si Si3 0.812666 0.353525 0.855186
Si Si4 0.611885 0.291275 0.757066
Si Si5 0.310100 0.507642 0.067892
Si Si6 0.459367 0.314973 0.983688
Si Si7 0.287049 0.889342 0.807355
Si Si8 0.467884 0.115492 0.628386
O O1 0.607089 0.866616 0.767136
O O2 0.724278 0.711472 0.883442
O O3 0.566279 0.815796 0.999257
O O4 0.733724 0.938726 0.959609
O O5 0.985158 0.767986 0.613139
O O6 0.905301 0.649354 0.799353
O O7 0.988014 0.526250 0.605471
O O8 0.717377 0.263676 0.830973
O O9 0.881433 0.295879 0.963801
O O10 0.775933 0.488486 0.893486
O O11 0.871838 0.369769 0.721667
O O12 0.633455 0.391660 0.651011
O O13 0.532022 0.337155 0.862971
O O14 0.570210 0.172933 0.686577
O O15 0.253632 0.412831 0.162026
O O16 0.400926 0.439776 0.996013
#
# Coordination Sequence:
#
# PCOD8171314 Si02
#       8
#     4   4   4   4   4   4   4   4
#     4  12  24  41  71  96 135 181 215 294 338 400
#     4  11  25  40  69 100 128 182 229 279 341 408
#     4   9  21  43  63  93 133 175 214 287 334 396
#     4  10  23  41  66  91 134 176 212 282 345 393
#     4  11  24  46  61  99 141 172 226 288 339 410
#     4  11  25  41  67  97 134 174 231 272 341 416
#     4  10  23  44  64  96 136 168 230 275 342 406
#     4  10  23  40  65 100 127 172 239 265 340 413
#
# _framework density 21.131457999999999
#
# number of rings (size 3 to 8) (size 9 to 14) (size 15 to 20)
#    0.000    1.500    5.000    0.000   10.500    3.000 
#    0.000    0.000    0.000    0.000    0.000    0.000 
#    0.000    0.000    0.000    0.000    0.000    0.000 
#
# Total GULP energy -396675.084897 kJ/mol
# GULP energy per Si atom -12396.096403 kJ/mol
# Density = 2.108336 g / cm^3
# Si number density = 21.131458 Si / 1000 Ang^3
#
#
#
# Elastic Constant Matrix: (Units=GPa)
#
#
# Indices 1 2 3 4 5 6 
#
# 1 104.0101 41.5031 18.7179 0.0000 0.0000 0.0000
# 2 41.5031 68.4025 21.1193 0.0000 0.0000 0.0000
# 3 18.7179 21.1193 57.9245 0.0000 0.0000 0.0000
# 4 0.0000 0.0000 0.0000 32.8736 0.0000 0.0000
# 5 0.0000 0.0000 0.0000 0.0000 29.4902 0.0000
# 6 0.0000 0.0000 0.0000 0.0000 0.0000 37.7813
#
#
#
# Elastic Compliance Matrix: (Units=1/GPa)
#
#
# Indices 1 2 3 4 5 6 
#
# 1 0.012796 -0.007310 -0.001470 0.000000 0.000000 0.000000
# 2 -0.007310 0.020650 -0.005167 0.000000 0.000000 0.000000
# 3 -0.001470 -0.005167 0.019623 0.000000 0.000000 0.000000
# 4 0.000000 0.000000 0.000000 0.030420 0.000000 0.000000
# 5 0.000000 0.000000 0.000000 0.000000 0.033910 0.000000
# 6 0.000000 0.000000 0.000000 0.000000 0.000000 0.026468
#
#
# Mechanical properties :
#
#
# Convention : Reuss Voigt Hill
#
# Bulk Modulus (GPa) = 39.72135 43.66863 41.69499
# Shear Modulus (GPa) = 27.75457 29.96215 28.85836
#
# Velocity S-wave (km/s) = 3.62805 3.76958 3.69949
# Velocity P-wave (km/s) = 6.03228 6.29733 6.16623
#
# Compressibility (1/GPa) = 0.02517538
#
# Stress axis : x y z
#
# Youngs Moduli (GPa) = 78.15005 48.42610 50.96175
#
# Poissons Ratio (x) = 0.35400 0.07490
# Poissons Ratio (y) = 0.57129 0.26331
# Poissons Ratio (z) = 0.11485 0.25021
#
# Static dielectric constant tensor:
#      x y z
#    x 4.087300 0.000000 0.000000 
#    y 0.000000 3.870560 0.000000 
#    z 0.000000 0.000000 3.682430 
# 
# 
# High freq. dielectric constant tensor:
#      x y z
#    x 1.841810 0.000000 0.000000 
#    y 0.000000 1.815510 0.000000 
#    z 0.000000 0.000000 1.818760 
# 
# From -- ./inp_files/6450.got.cif
#   From: 2010.03.12/outbox.cif.g09.slc.cpg/sg33_4_cif.got.tgz:6450.got - 2010.04.14 01:49:19.
