data_PCOD8171992
_publ_section_title
;
Structure prediction by ZEFSAII (Michael W. Deem and Ramdas Pophale) SiO2 
 PCOD8171992
Probable space group: P N N 2
;
_chemical_formula_sum "Si O2"
_cell_formula_units_Z 30
_cell_length_a 14.974271
_cell_length_b 11.673050
_cell_length_c 8.274442
_cell_angle_alpha 90.000000
_cell_angle_beta 90.000000
_cell_angle_gamma 90.000000
_cell_volume 1446.334516
_symmetry_space_group_name_H-M "P N N 2"
_symmetry_group_IT_number 34
_symmetry_cell_setting 'orthorhombic'
loop_
_space_group_symop_operation_xyz
x,y,z
-x,-y,z
1/2-x,1/2+y,1/2+z
1/2+x,1/2-y,1/2+z
loop_
_atom_site_type_symbol
_atom_site_label
_atom_site_fract_x
_atom_site_fract_y
_atom_site_fract_z
Si Si1 0.792188 0.623907 0.406610
Si Si2 0.100854 0.148297 0.391772
Si Si3 0.585613 0.940272 0.358781
Si Si4 0.089562 0.548998 0.235863
Si Si5 0.087256 0.801811 0.233031
Si Si6 0.768604 0.020437 0.238815
Si Si7 0.898634 0.187220 0.851516
Si Si8 0.000000 0.000000 0.642631
O O1 0.858095 0.730066 0.453738
O O2 0.833110 0.539582 0.274176
O O3 0.761771 0.545109 0.556216
O O4 0.705609 0.671554 0.318611
O O5 0.078752 0.062154 0.539968
O O6 0.008296 0.162834 0.299662
O O7 0.172822 0.094585 0.266272
O O8 0.572109 0.933776 0.548398
O O9 0.583519 0.813877 0.282063
O O10 0.500000 0.000000 0.276423
O O11 0.676495 0.010914 0.335490
O O12 0.111760 0.675838 0.299015
O O13 0.000000 0.500000 0.319395
O O14 0.168334 0.877300 0.304182
O O15 0.080113 0.819293 0.041349
O O16 0.956363 0.095636 0.755545
#
# Coordination Sequence:
#
# PCOD8171992 Si02
#       8
#     4   4   4   4   4   4   4   2
#     4  11  25  42  68  97 136 172 227 276 330 410
#     4  12  24  46  68  99 138 176 219 281 336 396
#     4  10  23  44  65  92 136 175 219 276 342 398
#     4  10  21  42  66  96 128 174 220 270 333 405
#     4  10  22  44  70  93 136 177 218 274 344 398
#     4  11  24  43  65  97 133 180 217 277 333 396
#     4  10  25  44  64  96 131 174 225 279 330 399
#     4  12  28  40  72 100 132 178 234 280 328 408
#
# _framework density 20.742089
#
# number of rings (size 3 to 8) (size 9 to 14) (size 15 to 20)
#    0.000    1.333    4.000    0.000    7.467    1.600 
#    2.400    0.000    0.000    0.000    0.000    0.000 
#    0.000    0.000    0.000    0.000    0.000    0.000 
#
# Total GULP energy -371799.770355 kJ/mol
# GULP energy per Si atom -12393.325678 kJ/mol
# Density = 2.069488 g / cm^3
# Si number density = 20.742089 Si / 1000 Ang^3
#
#
#
# Elastic Constant Matrix: (Units=GPa)
#
#
# Indices 1 2 3 4 5 6 
#
# 1 167.8654 82.8241 30.2507 0.0000 0.0000 0.0000
# 2 82.8241 163.5938 52.0744 0.0000 0.0000 0.0000
# 3 30.2507 52.0744 42.5617 0.0000 0.0000 0.0000
# 4 0.0000 0.0000 0.0000 20.2212 0.0000 0.0000
# 5 0.0000 0.0000 0.0000 0.0000 30.7695 0.0000
# 6 0.0000 0.0000 0.0000 0.0000 0.0000 44.8103
#
#
#
# Elastic Compliance Matrix: (Units=1/GPa)
#
#
# Indices 1 2 3 4 5 6 
#
# 1 0.007978 -0.003659 -0.001193 0.000000 0.000000 0.000000
# 2 -0.003659 0.011690 -0.011702 0.000000 0.000000 0.000000
# 3 -0.001193 -0.011702 0.038661 0.000000 0.000000 0.000000
# 4 0.000000 0.000000 0.000000 0.049453 0.000000 0.000000
# 5 0.000000 0.000000 0.000000 0.000000 0.032500 0.000000
# 6 0.000000 0.000000 0.000000 0.000000 0.000000 0.022316
#
#
# Mechanical properties :
#
#
# Convention : Reuss Voigt Hill
#
# Bulk Modulus (GPa) = 39.65140 78.25770 58.95455
# Shear Modulus (GPa) = 24.49613 33.08497 28.79055
#
# Velocity S-wave (km/s) = 3.44028 3.99816 3.72966
# Velocity P-wave (km/s) = 5.91089 7.68925 6.85796
#
# Compressibility (1/GPa) = 0.02521979
#
# Stress axis : x y z
#
# Youngs Moduli (GPa) = 125.35206 85.54138 25.86572
#
# Poissons Ratio (x) = 0.31300 0.03086
# Poissons Ratio (y) = 0.45867 0.30269
# Poissons Ratio (z) = 0.14957 1.00104
#
# Static dielectric constant tensor:
#      x y z
#    x 4.153560 0.000000 0.000000 
#    y 0.000000 4.231720 0.000000 
#    z 0.000000 0.000000 3.491480 
# 
# 
# High freq. dielectric constant tensor:
#      x y z
#    x 1.828570 0.000000 0.000000 
#    y 0.000000 1.831350 0.000000 
#    z 0.000000 0.000000 1.785830 
# 
# From -- ./inp_files/3642.got.cif
#   From: 2010.03.12/outbox.cif.g09.slc.cpg/sg34_2_cif.got.tgz:3642.got - 2010.04.14 01:56:33.
