data_PCOD8171749
_publ_section_title
;
Structure prediction by ZEFSAII (Michael W. Deem and Ramdas Pophale) SiO2 
 PCOD8171749
Probable space group: P N A 21
;
_chemical_formula_sum "Si O2"
_cell_formula_units_Z 32
_cell_length_a 8.254695
_cell_length_b 11.825340
_cell_length_c 13.813023
_cell_angle_alpha 90.000000
_cell_angle_beta 90.000000
_cell_angle_gamma 90.000000
_cell_volume 1348.352369
_symmetry_space_group_name_H-M "P N A 21"
_symmetry_group_IT_number 33
_symmetry_cell_setting 'orthorhombic'
loop_
_space_group_symop_operation_xyz
x,y,z
-x,-y,1/2+z
1/2-x,1/2+y,1/2+z
1/2+x,1/2-y,z
loop_
_atom_site_type_symbol
_atom_site_label
_atom_site_fract_x
_atom_site_fract_y
_atom_site_fract_z
Si Si1 0.141668 0.916739 0.273580
Si Si2 0.616998 0.994671 0.242218
Si Si3 0.886581 0.353347 0.151992
Si Si4 0.095808 0.208826 0.038198
Si Si5 0.218177 0.799995 0.826095
Si Si6 0.896616 0.888144 0.914723
Si Si7 0.447126 0.789928 0.324540
Si Si8 0.433108 0.501902 0.108847
O O1 0.294720 0.834452 0.263486
O O2 0.986954 0.835532 0.288042
O O3 0.093888 0.987826 0.177313
O O4 0.176479 0.999288 0.364650
O O5 0.440454 0.022236 0.191124
O O6 0.648591 0.101355 0.312743
O O7 0.594661 0.879471 0.304492
O O8 0.765802 0.987422 0.167192
O O9 0.767637 0.353448 0.058176
O O10 0.800146 0.277555 0.232212
O O11 0.059808 0.302186 0.119973
O O12 0.095503 0.275004 0.937103
O O13 0.949887 0.116869 0.050723
O O14 0.053105 0.861359 0.851318
O O15 0.274227 0.717452 0.912113
O O16 0.936095 0.901732 0.027448
#
# Coordination Sequence:
#
# PCOD8171749 Si02
#       8
#     4   4   4   4   4   4   4   4
#     4  12  26  50  75 109 159 202 248 324 391 461
#     4  12  25  47  75 111 151 207 249 322 402 459
#     4  12  22  42  75 108 145 194 260 320 374 452
#     4  12  23  44  73 114 146 198 266 318 370 471
#     4  12  23  46  74 107 147 195 250 318 383 448
#     4  12  27  46  75 108 148 195 255 318 376 455
#     4  12  28  46  75 112 161 203 248 317 405 468
#     4  12  26  49  76 109 153 202 260 317 387 466
#
# _framework density 23.732668
#
# number of rings (size 3 to 8) (size 9 to 14) (size 15 to 20)
#    0.000    0.000    6.250    3.750    1.750    3.000 
#    0.000    2.500    0.000    0.000    0.000    0.000 
#    0.000    0.000    0.000    0.000    0.000    0.000 
#
# Total GULP energy -396740.832913 kJ/mol
# GULP energy per Si atom -12398.151029 kJ/mol
# Density = 2.367865 g / cm^3
# Si number density = 23.732668 Si / 1000 Ang^3
#
#
#
# Elastic Constant Matrix: (Units=GPa)
#
#
# Indices 1 2 3 4 5 6 
#
# 1 70.7724 14.1718 17.6148 0.0000 0.0000 0.0000
# 2 14.1718 110.2106 37.4778 0.0000 0.0000 0.0000
# 3 17.6148 37.4778 89.0648 0.0000 0.0000 0.0000
# 4 0.0000 0.0000 0.0000 35.4868 0.0000 0.0000
# 5 0.0000 0.0000 0.0000 0.0000 29.9845 0.0000
# 6 0.0000 0.0000 0.0000 0.0000 0.0000 36.8191
#
#
#
# Elastic Compliance Matrix: (Units=1/GPa)
#
#
# Indices 1 2 3 4 5 6 
#
# 1 0.014969 -0.001071 -0.002510 0.000000 0.000000 0.000000
# 2 -0.001071 0.010665 -0.004276 0.000000 0.000000 0.000000
# 3 -0.002510 -0.004276 0.013523 0.000000 0.000000 0.000000
# 4 0.000000 0.000000 0.000000 0.028180 0.000000 0.000000
# 5 0.000000 0.000000 0.000000 0.000000 0.033351 0.000000
# 6 0.000000 0.000000 0.000000 0.000000 0.000000 0.027160
#
#
# Mechanical properties :
#
#
# Convention : Reuss Voigt Hill
#
# Bulk Modulus (GPa) = 42.65546 45.39739 44.02642
# Shear Modulus (GPa) = 33.03024 33.84364 33.43694
#
# Velocity S-wave (km/s) = 3.73468 3.78039 3.75760
# Velocity P-wave (km/s) = 6.05057 6.18266 6.11697
#
# Compressibility (1/GPa) = 0.02344366
#
# Stress axis : x y z
#
# Youngs Moduli (GPa) = 66.80476 93.76117 73.94563
#
# Poissons Ratio (x) = 0.10046 0.18558
# Poissons Ratio (y) = 0.07158 0.31619
# Poissons Ratio (z) = 0.16766 0.40092
#
# Static dielectric constant tensor:
#      x y z
#    x 4.275720 0.000000 0.000000 
#    y 0.000000 4.531620 0.000000 
#    z 0.000000 0.000000 4.043080 
# 
# 
# High freq. dielectric constant tensor:
#      x y z
#    x 1.953470 0.000000 0.000000 
#    y 0.000000 1.950450 0.000000 
#    z 0.000000 0.000000 1.918810 
# 
# From -- ./inp_files/7678.got.cif
#   From: 2010.03.12/outbox.cif.g09.slc.cpg/sg33_4_cif.got.tgz:7678.got - 2010.04.14 01:49:19.
