data_PCOD8171791
_publ_section_title
;
Structure prediction by ZEFSAII (Michael W. Deem and Ramdas Pophale) SiO2 
 PCOD8171791
Probable space group: P N A 21
;
_chemical_formula_sum "Si O2"
_cell_formula_units_Z 28
_cell_length_a 14.074517
_cell_length_b 14.288753
_cell_length_c 5.960456
_cell_angle_alpha 90.000000
_cell_angle_beta 90.000000
_cell_angle_gamma 90.000000
_cell_volume 1198.691195
_symmetry_space_group_name_H-M "P N A 21"
_symmetry_group_IT_number 33
_symmetry_cell_setting 'orthorhombic'
loop_
_space_group_symop_operation_xyz
x,y,z
-x,-y,1/2+z
1/2-x,1/2+y,1/2+z
1/2+x,1/2-y,z
loop_
_atom_site_type_symbol
_atom_site_label
_atom_site_fract_x
_atom_site_fract_y
_atom_site_fract_z
Si Si1 0.438520 0.874835 0.285120
Si Si2 0.814442 0.342970 0.286021
Si Si3 0.589959 0.731563 0.161275
Si Si4 0.746925 0.681088 0.499055
Si Si5 0.516617 0.455429 0.676968
Si Si6 0.895202 0.483282 0.948872
Si Si7 0.278663 0.521633 0.113535
O O1 0.505131 0.784707 0.286789
O O2 0.354307 0.849124 0.451490
O O3 0.498452 0.967325 0.354749
O O4 0.390189 0.911895 0.053401
O O5 0.890447 0.293083 0.444450
O O6 0.745010 0.420991 0.389486
O O7 0.748565 0.260143 0.189117
O O8 0.879679 0.395696 0.110618
O O9 0.689342 0.726571 0.293460
O O10 0.551046 0.629525 0.108222
O O11 0.692919 0.586609 0.572433
O O12 0.515851 0.509288 0.428743
O O13 0.627650 0.430579 0.720678
O O14 0.813690 0.473081 0.766045
#
# Coordination Sequence:
#
# PCOD8171791 Si02
#       7
#     4   4   4   4   4   4   4
#     4  12  26  47  80 110 153 209 259 331 411 483
#     4  12  26  49  78 111 162 201 270 341 402 495
#     4  12  28  50  72 117 154 207 274 329 406 492
#     4  12  27  49  76 114 156 203 265 339 407 486
#     4  12  30  52  82 116 162 221 270 334 418 495
#     4  12  26  51  75 115 159 202 271 332 409 489
#     4  12  27  50  79 115 160 211 265 346 409 486
#
# _framework density 23.358809999999998
#
# number of rings (size 3 to 8) (size 9 to 14) (size 15 to 20)
#    0.000    0.000    5.714    2.571   10.000    1.143 
#    0.000    0.000    0.000    0.000    0.000    0.000 
#    0.000    0.000    0.000    0.000    0.000    0.000 
#
# Total GULP energy -346914.589324 kJ/mol
# GULP energy per Si atom -12389.806762 kJ/mol
# Density = 2.330564 g / cm^3
# Si number density = 23.358810 Si / 1000 Ang^3
#
#
#
# Elastic Constant Matrix: (Units=GPa)
#
#
# Indices 1 2 3 4 5 6 
#
# 1 118.8053 7.3116 22.1322 0.0000 0.0000 0.0000
# 2 7.3116 107.6772 34.8736 0.0000 0.0000 0.0000
# 3 22.1322 34.8736 95.2524 0.0000 0.0000 0.0000
# 4 0.0000 0.0000 0.0000 47.6686 0.0000 0.0000
# 5 0.0000 0.0000 0.0000 0.0000 20.0366 0.0000
# 6 0.0000 0.0000 0.0000 0.0000 0.0000 40.4000
#
#
#
# Elastic Compliance Matrix: (Units=1/GPa)
#
#
# Indices 1 2 3 4 5 6 
#
# 1 0.008798 0.000073 -0.002071 0.000000 0.000000 0.000000
# 2 0.000073 0.010537 -0.003875 0.000000 0.000000 0.000000
# 3 -0.002071 -0.003875 0.012398 0.000000 0.000000 0.000000
# 4 0.000000 0.000000 0.000000 0.020978 0.000000 0.000000
# 5 0.000000 0.000000 0.000000 0.000000 0.049909 0.000000
# 6 0.000000 0.000000 0.000000 0.000000 0.000000 0.024752
#
#
# Mechanical properties :
#
#
# Convention : Reuss Voigt Hill
#
# Bulk Modulus (GPa) = 50.02898 50.04109 50.03503
# Shear Modulus (GPa) = 34.29798 38.78220 36.54009
#
# Velocity S-wave (km/s) = 3.83601 4.07908 3.95941
# Velocity P-wave (km/s) = 6.40969 6.60715 6.50917
#
# Compressibility (1/GPa) = 0.01998842
#
# Stress axis : x y z
#
# Youngs Moduli (GPa) = 113.65621 94.90388 80.65605
#
# Poissons Ratio (x) = -0.00696 0.16706
# Poissons Ratio (y) = -0.00834 0.31253
# Poissons Ratio (z) = 0.23541 0.36774
#
# Static dielectric constant tensor:
#      x y z
#    x 4.324320 0.000000 0.000000 
#    y 0.000000 4.628170 0.000000 
#    z 0.000000 0.000000 4.434840 
# 
# 
# High freq. dielectric constant tensor:
#      x y z
#    x 1.938020 0.000000 0.000000 
#    y 0.000000 1.934480 0.000000 
#    z 0.000000 0.000000 1.924600 
# 
# From -- ./inp_files/1415.got.cif
#   From: 2010.03.12/outbox.cif.g09.slc.cpg/sg33_1_cif.got.tgz:1415.got - 2010.04.14 01:49:19.
