data_PCOD8171947
_publ_section_title
;
Structure prediction by ZEFSAII (Michael W. Deem and Ramdas Pophale) SiO2 
 PCOD8171947
Probable space group: P N N 2
;
_chemical_formula_sum "Si O2"
_cell_formula_units_Z 30
_cell_length_a 10.230443
_cell_length_b 19.883828
_cell_length_c 7.459559
_cell_angle_alpha 90.000000
_cell_angle_beta 90.000000
_cell_angle_gamma 90.000000
_cell_volume 1517.426244
_symmetry_space_group_name_H-M "P N N 2"
_symmetry_group_IT_number 34
_symmetry_cell_setting 'orthorhombic'
loop_
_space_group_symop_operation_xyz
x,y,z
-x,-y,z
1/2-x,1/2+y,1/2+z
1/2+x,1/2-y,1/2+z
loop_
_atom_site_type_symbol
_atom_site_label
_atom_site_fract_x
_atom_site_fract_y
_atom_site_fract_z
Si Si1 0.918963 0.431813 0.595210
Si Si2 0.737249 0.416342 0.282875
Si Si3 0.132374 0.865327 0.899485
Si Si4 0.888278 0.778669 0.834406
Si Si5 0.000000 0.000000 0.837189
Si Si6 0.952696 0.425790 0.988450
Si Si7 0.391000 0.816951 0.008244
Si Si8 0.332540 0.823638 0.627762
O O1 0.784945 0.439144 0.481638
O O2 0.889112 0.405497 0.796894
O O3 0.000000 0.500000 0.590109
O O4 0.004984 0.376032 0.498612
O O5 0.707836 0.337713 0.277686
O O6 0.611318 0.460901 0.224266
O O7 0.847181 0.428618 0.140705
O O8 0.198368 0.860540 0.697370
O O9 0.021044 0.808532 0.918047
O O10 0.073181 0.939428 0.945102
O O11 0.245351 0.848415 0.045215
O O12 0.925667 0.737782 0.656104
O O13 0.810256 0.733722 0.979343
O O14 0.000000 0.500000 0.960429
O O15 0.072228 0.377747 0.037254
O O16 0.394633 0.787421 0.804777
#
# Coordination Sequence:
#
# PCOD8171947 Si02
#       8
#     4   4   4   4   2   4   4   4
#     4  11  22  37  64  95 118 156 208 255 302 358
#     4  11  23  39  66  86 125 168 198 256 300 376
#     4   9  22  38  61  85 117 160 195 248 293 367
#     4  11  24  38  58  90 120 161 199 248 308 350
#     4  10  20  44  64  84 122 160 206 236 318 352
#     4  11  22  37  64  95 118 156 208 255 302 358
#     4  10  22  38  60  87 123 156 197 253 300 358
#     4  10  22  38  60  87 123 156 197 253 300 358
#
# _framework density 19.770320999999999
#
# number of rings (size 3 to 8) (size 9 to 14) (size 15 to 20)
#    0.800    0.800    2.667    2.000    3.733    1.067 
#    0.000    0.667    2.933    0.000    0.000    0.000 
#    0.000    0.000    0.000    0.000    0.000    0.000 
#
# Total GULP energy -371680.772410 kJ/mol
# GULP energy per Si atom -12389.359080 kJ/mol
# Density = 1.972532 g / cm^3
# Si number density = 19.770321 Si / 1000 Ang^3
#
#
#
# Elastic Constant Matrix: (Units=GPa)
#
#
# Indices 1 2 3 4 5 6 
#
# 1 66.1689 12.9971 7.7616 0.0000 0.0000 0.0000
# 2 12.9971 93.3223 20.7337 0.0000 0.0000 0.0000
# 3 7.7616 20.7337 91.2565 0.0000 0.0000 0.0000
# 4 0.0000 0.0000 0.0000 26.9856 0.0000 0.0000
# 5 0.0000 0.0000 0.0000 0.0000 0.1487 0.0000
# 6 0.0000 0.0000 0.0000 0.0000 0.0000 23.8996
#
#
#
# Elastic Compliance Matrix: (Units=1/GPa)
#
#
# Indices 1 2 3 4 5 6 
#
# 1 0.015604 -0.001978 -0.000878 0.000000 0.000000 0.000000
# 2 -0.001978 0.011536 -0.002453 0.000000 0.000000 0.000000
# 3 -0.000878 -0.002453 0.011590 0.000000 0.000000 0.000000
# 4 0.000000 0.000000 0.000000 0.037057 0.000000 0.000000
# 5 0.000000 0.000000 0.000000 0.000000 6.723121 0.000000
# 6 0.000000 0.000000 0.000000 0.000000 0.000000 0.041842
#
#
# Mechanical properties :
#
#
# Convention : Reuss Voigt Hill
#
# Bulk Modulus (GPa) = 35.57075 37.08138 36.32606
# Shear Modulus (GPa) = 0.72878 24.15714 12.44296
#
# Velocity S-wave (km/s) = 0.60780 3.49935 2.51146
# Velocity P-wave (km/s) = 4.30391 5.92655 5.17917
#
# Compressibility (1/GPa) = 0.02811299
#
# Stress axis : x y z
#
# Youngs Moduli (GPa) = 64.08459 86.68519 86.28090
#
# Poissons Ratio (x) = 0.17148 0.07573
# Poissons Ratio (y) = 0.12677 0.21163
# Poissons Ratio (z) = 0.05625 0.21262
#
# Static dielectric constant tensor:
#      x y z
#    x 3.633650 0.000000 0.000000 
#    y 0.000000 3.669860 0.000000 
#    z 0.000000 0.000000 3.554060 
# 
# 
# High freq. dielectric constant tensor:
#      x y z
#    x 1.770470 0.000000 0.000000 
#    y 0.000000 1.778540 0.000000 
#    z 0.000000 0.000000 1.752630 
# 
# From -- ./inp_files/2875.got.cif
#   From: 2010.03.12/outbox.cif.g09.slc.cpg/sg34_2_cif.got.tgz:2875.got - 2010.04.14 01:56:33.
