data_PCOD8171116
_publ_section_title
;
Structure prediction by ZEFSAII (Michael W. Deem and Ramdas Pophale) SiO2 
 PCOD8171116
Probable space group: P N A 21
;
_chemical_formula_sum "Si O2"
_cell_formula_units_Z 24
_cell_length_a 10.724612
_cell_length_b 16.638731
_cell_length_c 5.382509
_cell_angle_alpha 90.000000
_cell_angle_beta 90.000000
_cell_angle_gamma 90.000000
_cell_volume 960.476082
_symmetry_space_group_name_H-M "P N A 21"
_symmetry_group_IT_number 33
_symmetry_cell_setting 'orthorhombic'
loop_
_space_group_symop_operation_xyz
x,y,z
-x,-y,1/2+z
1/2-x,1/2+y,1/2+z
1/2+x,1/2-y,z
loop_
_atom_site_type_symbol
_atom_site_label
_atom_site_fract_x
_atom_site_fract_y
_atom_site_fract_z
Si Si1 0.602049 0.578739 0.429520
Si Si2 0.283844 0.786298 0.571241
Si Si3 0.424509 0.829119 0.067756
Si Si4 0.318188 0.150216 0.361539
Si Si5 0.146744 0.075979 0.714602
Si Si6 0.803625 0.508222 0.098220
O O1 0.678836 0.645371 0.578802
O O2 0.464179 0.615586 0.377140
O O3 0.578391 0.498396 0.583710
O O4 0.679760 0.555897 0.184033
O O5 0.369909 0.790303 0.323458
O O6 0.214323 0.700127 0.608436
O O7 0.359813 0.795440 0.823619
O O8 0.411565 0.926094 0.067889
O O9 0.571564 0.810423 0.028227
O O10 0.193393 0.145884 0.530215
O O11 0.353119 0.058280 0.292710
O O12 0.268263 0.040436 0.851509
#
# Coordination Sequence:
#
# PCOD8171116 Si02
#       6
#     4   4   4   4   4   4
#     4  10  21  43  75 108 154 195 257 315 382 456
#     4  11  27  52  74 112 156 209 250 325 398 464
#     4  11  27  51  79 108 161 205 257 323 395 468
#     4  11  29  46  78 114 153 204 268 321 397 473
#     4  11  21  42  74 113 148 205 259 318 381 471
#     4  10  23  42  74 111 146 200 261 314 385 458
#
# _framework density 24.987608999999999
#
# number of rings (size 3 to 8) (size 9 to 14) (size 15 to 20)
#    0.000    1.333    3.333    0.000    7.000    1.333 
#    6.000    0.000    0.000    0.000    0.000    0.000 
#    0.000    0.000    0.000    0.000    0.000    0.000 
#
# Total GULP energy -297491.733154 kJ/mol
# GULP energy per Si atom -12395.488881 kJ/mol
# Density = 2.493074 g / cm^3
# Si number density = 24.987609 Si / 1000 Ang^3
#
#
#
# Elastic Constant Matrix: (Units=GPa)
#
#
# Indices 1 2 3 4 5 6 
#
# 1 130.6557 44.5302 55.8007 0.0000 0.0000 0.0000
# 2 44.5302 96.8319 38.6334 0.0000 0.0000 0.0000
# 3 55.8007 38.6334 145.3405 0.0000 0.0000 0.0000
# 4 0.0000 0.0000 0.0000 41.3246 0.0000 0.0000
# 5 0.0000 0.0000 0.0000 0.0000 35.7534 0.0000
# 6 0.0000 0.0000 0.0000 0.0000 0.0000 17.0674
#
#
#
# Elastic Compliance Matrix: (Units=1/GPa)
#
#
# Indices 1 2 3 4 5 6 
#
# 1 0.010097 -0.003464 -0.002956 0.000000 0.000000 0.000000
# 2 -0.003464 0.012741 -0.002057 0.000000 0.000000 0.000000
# 3 -0.002956 -0.002057 0.008562 0.000000 0.000000 0.000000
# 4 0.000000 0.000000 0.000000 0.024199 0.000000 0.000000
# 5 0.000000 0.000000 0.000000 0.000000 0.027969 0.000000
# 6 0.000000 0.000000 0.000000 0.000000 0.000000 0.058591
#
#
# Mechanical properties :
#
#
# Convention : Reuss Voigt Hill
#
# Bulk Modulus (GPa) = 69.22055 72.30631 70.76343
# Shear Modulus (GPa) = 30.50145 34.42000 32.46073
#
# Velocity S-wave (km/s) = 3.49759 3.71547 3.60818
# Velocity P-wave (km/s) = 6.63874 6.88520 6.76310
#
# Compressibility (1/GPa) = 0.01444658
#
# Stress axis : x y z
#
# Youngs Moduli (GPa) = 99.04351 78.48860 116.79699
#
# Poissons Ratio (x) = 0.27188 0.34521
# Poissons Ratio (y) = 0.34308 0.24022
# Poissons Ratio (z) = 0.29274 0.16143
#
# Static dielectric constant tensor:
#      x y z
#    x 4.262500 0.000000 0.000000 
#    y 0.000000 4.635180 0.000000 
#    z 0.000000 0.000000 4.533000 
# 
# 
# High freq. dielectric constant tensor:
#      x y z
#    x 1.987030 0.000000 0.000000 
#    y 0.000000 1.999840 0.000000 
#    z 0.000000 0.000000 1.995460 
# 
# From -- ./inp_files/882.got.cif
#   From: 2010.03.12/outbox.cif.g09.slc.cpg/sg33_1_cif.got.tgz:882.got - 2010.04.14 01:49:19.
