data_PCOD8171831
_publ_section_title
;
Structure prediction by ZEFSAII (Michael W. Deem and Ramdas Pophale) SiO2 
 PCOD8171831
Probable space group: P N N 2
;
_chemical_formula_sum "Si O2"
_cell_formula_units_Z 32
_cell_length_a 11.394117
_cell_length_b 5.221084
_cell_length_c 28.936056
_cell_angle_alpha 90.000000
_cell_angle_beta 90.000000
_cell_angle_gamma 90.000000
_cell_volume 1721.395611
_symmetry_space_group_name_H-M "P N N 2"
_symmetry_group_IT_number 34
_symmetry_cell_setting 'orthorhombic'
loop_
_space_group_symop_operation_xyz
x,y,z
-x,-y,z
1/2-x,1/2+y,1/2+z
1/2+x,1/2-y,1/2+z
loop_
_atom_site_type_symbol
_atom_site_label
_atom_site_fract_x
_atom_site_fract_y
_atom_site_fract_z
Si Si1 0.276340 0.023009 0.750000
Si Si2 0.130674 0.684004 0.344600
Si Si3 0.864835 0.476277 0.730564
Si Si4 0.632804 0.958947 0.650110
Si Si5 0.270317 0.048971 0.130781
Si Si6 0.632660 0.476350 0.986667
Si Si7 0.368962 0.684355 0.881342
Si Si8 0.635982 0.980741 0.031064
O O1 0.363563 0.070800 0.792951
O O2 0.189810 0.261012 0.747738
O O3 0.358451 0.007866 0.705254
O O4 0.199342 0.764224 0.755123
O O5 0.193091 0.463221 0.376914
O O6 0.998858 0.747695 0.361797
O O7 0.193895 0.961924 0.350074
O O8 0.854573 0.450601 0.675191
O O9 0.000000 0.500000 0.744654
O O10 0.675955 0.679858 0.634103
O O11 0.500000 0.000000 0.634562
O O12 0.707236 0.178901 0.625450
O O13 0.350679 0.024668 0.085954
O O14 0.500000 0.500000 0.005083
O O15 0.697473 0.237834 0.011369
O O16 0.694522 0.739293 0.003917
O O17 0.632992 0.432495 0.932117
O O18 0.500000 0.000000 0.017490
#
# Coordination Sequence:
#
# PCOD8171831 Si02
#       8
#     4   4   4   4   4   4   4   4
#     4  10  21  34  50  81 102 136 191 211 251 315
#     4  10  19  30  47  70 105 142 174 202 241 314
#     4  10  20  36  55  71 105 140 175 231 260 299
#     4  10  21  35  53  72 107 139 171 223 255 303
#     4  10  20  36  51  77 102 135 183 208 264 315
#     4  10  18  30  45  72 104 137 167 193 262 310
#     4  10  19  30  47  70 105 154 156 205 249 326
#     4  10  20  30  51  73 104 138 166 213 245 324
#
# _framework density 18.589568
#
# number of rings (size 3 to 8) (size 9 to 14) (size 15 to 20)
#    0.000    2.000    1.250    3.375    5.250    0.000 
#    4.500    3.750    0.000    0.000    0.000    0.000 
#    0.000   70.000    0.000    0.000    0.000    0.000 
#
# Total GULP energy -396450.019807 kJ/mol
# GULP energy per Si atom -12389.063119 kJ/mol
# Density = 1.854726 g / cm^3
# Si number density = 18.589568 Si / 1000 Ang^3
#
#
#
# Elastic Constant Matrix: (Units=GPa)
#
#
# Indices 1 2 3 4 5 6 
#
# 1 30.5562 6.6776 7.4678 0.0000 0.0000 0.0000
# 2 6.6776 167.6711 42.5169 0.0000 0.0000 0.0000
# 3 7.4678 42.5169 96.1414 0.0000 0.0000 0.0000
# 4 0.0000 0.0000 0.0000 29.7468 0.0000 0.0000
# 5 0.0000 0.0000 0.0000 0.0000 15.5638 0.0000
# 6 0.0000 0.0000 0.0000 0.0000 0.0000 10.6513
#
#
#
# Elastic Compliance Matrix: (Units=1/GPa)
#
#
# Indices 1 2 3 4 5 6 
#
# 1 0.033445 -0.000758 -0.002263 0.000000 0.000000 0.000000
# 2 -0.000758 0.006735 -0.002919 0.000000 0.000000 0.000000
# 3 -0.002263 -0.002919 0.011868 0.000000 0.000000 0.000000
# 4 0.000000 0.000000 0.000000 0.033617 0.000000 0.000000
# 5 0.000000 0.000000 0.000000 0.000000 0.064251 0.000000
# 6 0.000000 0.000000 0.000000 0.000000 0.000000 0.093885
#
#
# Mechanical properties :
#
#
# Convention : Reuss Voigt Hill
#
# Bulk Modulus (GPa) = 24.89570 45.29927 35.09748
# Shear Modulus (GPa) = 18.58243 27.03947 22.81095
#
# Velocity S-wave (km/s) = 3.16510 3.81799 3.50678
# Velocity P-wave (km/s) = 5.17480 6.62247 5.94288
#
# Compressibility (1/GPa) = 0.04016759
#
# Stress axis : x y z
#
# Youngs Moduli (GPa) = 29.89964 148.48871 84.25940
#
# Poissons Ratio (x) = 0.11259 0.19064
# Poissons Ratio (y) = 0.02267 0.24598
# Poissons Ratio (z) = 0.06765 0.43349
#
# Static dielectric constant tensor:
#      x y z
#    x 2.924450 0.000000 0.000000 
#    y 0.000000 9.027300 0.000000 
#    z 0.000000 0.000000 3.344500 
# 
# 
# High freq. dielectric constant tensor:
#      x y z
#    x 1.648960 0.000000 0.000000 
#    y 0.000000 1.766500 0.000000 
#    z 0.000000 0.000000 1.716520 
# 
# From -- ./inp_files/8478.got.cif
#   From: 2010.03.12/outbox.cif.g09.slc.cpg/sg34_5_cif.got.tgz:8478.got - 2010.04.14 01:56:33.
