data_PCOD8171111
_publ_section_title
;
Structure prediction by ZEFSAII (Michael W. Deem and Ramdas Pophale) SiO2 
 PCOD8171111
Probable space group: P N A 21
;
_chemical_formula_sum "Si O2"
_cell_formula_units_Z 32
_cell_length_a 13.524288
_cell_length_b 8.689837
_cell_length_c 11.580333
_cell_angle_alpha 90.000000
_cell_angle_beta 90.000000
_cell_angle_gamma 90.000000
_cell_volume 1360.965414
_symmetry_space_group_name_H-M "P N A 21"
_symmetry_group_IT_number 33
_symmetry_cell_setting 'orthorhombic'
loop_
_space_group_symop_operation_xyz
x,y,z
-x,-y,1/2+z
1/2-x,1/2+y,1/2+z
1/2+x,1/2-y,z
loop_
_atom_site_type_symbol
_atom_site_label
_atom_site_fract_x
_atom_site_fract_y
_atom_site_fract_z
Si Si1 0.951013 0.750816 0.992210
Si Si2 0.306288 0.802331 0.170842
Si Si3 0.667285 0.887268 0.023531
Si Si4 0.223216 0.618245 0.774122
Si Si5 0.783042 0.720691 0.556649
Si Si6 0.536273 0.703552 0.769050
Si Si7 0.896156 0.890116 0.367030
Si Si8 0.435598 0.399617 0.029945
O O1 0.062939 0.695694 0.011057
O O2 0.941129 0.760678 0.851560
O O3 0.871847 0.642833 0.058650
O O4 0.929677 0.917590 0.046392
O O5 0.379499 0.721536 0.260456
O O6 0.254513 0.945356 0.232750
O O7 0.220653 0.684455 0.134358
O O8 0.741348 0.862824 0.912041
O O9 0.648719 0.069371 0.042131
O O10 0.287739 0.728578 0.691155
O O11 0.105872 0.647457 0.757307
O O12 0.817093 0.857160 0.469950
O O13 0.671125 0.676574 0.524127
O O14 0.605291 0.568488 0.827471
O O15 0.500607 0.657174 0.641539
O O16 0.005604 0.852120 0.415295
#
# Coordination Sequence:
#
# PCOD8171111 Si02
#       8
#     4   4   4   4   4   4   4   4
#     4  10  22  40  71  98 134 185 226 285 351 411
#     4  12  23  44  66 102 140 175 235 290 337 422
#     4  11  24  45  70 100 142 182 232 290 349 415
#     4  10  24  42  68  98 137 176 229 290 349 407
#     4  11  23  45  70 102 139 188 227 295 352 422
#     4   9  20  43  65  95 139 176 228 291 335 421
#     4  11  23  40  71  98 138 180 236 282 346 427
#     4  10  21  43  69  97 137 190 233 281 355 419
#
# _framework density 23.512720000000002
#
# number of rings (size 3 to 8) (size 9 to 14) (size 15 to 20)
#    0.000    1.500    3.750    0.750    5.250    4.000 
#    0.000    1.250    0.000    0.000    0.000    0.000 
#    0.000    0.000    0.000    0.000    0.000    0.000 
#
# Total GULP energy -396648.842318 kJ/mol
# GULP energy per Si atom -12395.276322 kJ/mol
# Density = 2.345920 g / cm^3
# Si number density = 23.512720 Si / 1000 Ang^3
#
#
#
# Elastic Constant Matrix: (Units=GPa)
#
#
# Indices 1 2 3 4 5 6 
#
# 1 35.6869 5.5089 -2.3673 0.0000 0.0000 0.0000
# 2 5.5089 75.0449 19.3681 0.0000 0.0000 0.0000
# 3 -2.3673 19.3681 85.5178 0.0000 0.0000 0.0000
# 4 0.0000 0.0000 0.0000 35.8209 0.0000 0.0000
# 5 0.0000 0.0000 0.0000 0.0000 40.6693 0.0000
# 6 0.0000 0.0000 0.0000 0.0000 0.0000 27.6670
#
#
#
# Elastic Compliance Matrix: (Units=1/GPa)
#
#
# Indices 1 2 3 4 5 6 
#
# 1 0.028487 -0.002437 0.001341 0.000000 0.000000 0.000000
# 2 -0.002437 0.014361 -0.003320 0.000000 0.000000 0.000000
# 3 0.001341 -0.003320 0.012482 0.000000 0.000000 0.000000
# 4 0.000000 0.000000 0.000000 0.027917 0.000000 0.000000
# 5 0.000000 0.000000 0.000000 0.000000 0.024589 0.000000
# 6 0.000000 0.000000 0.000000 0.000000 0.000000 0.036144
#
#
# Mechanical properties :
#
#
# Convention : Reuss Voigt Hill
#
# Bulk Modulus (GPa) = 21.50673 26.80768 24.15720
# Shear Modulus (GPa) = 29.70676 32.41409 31.06043
#
# Velocity S-wave (km/s) = 3.55834 3.71695 3.63851
# Velocity P-wave (km/s) = 5.10383 5.46324 5.28659
#
# Compressibility (1/GPa) = 0.04649708
#
# Stress axis : x y z
#
# Youngs Moduli (GPa) = 35.10416 69.63257 80.11223
#
# Poissons Ratio (x) = 0.16970 -0.10739
# Poissons Ratio (y) = 0.08555 0.26597
# Poissons Ratio (z) = -0.04706 0.23118
#
# Static dielectric constant tensor:
#      x y z
#    x 3.848030 0.000000 0.000000 
#    y 0.000000 4.224020 0.000000 
#    z 0.000000 0.000000 4.656780 
# 
# 
# High freq. dielectric constant tensor:
#      x y z
#    x 1.912400 0.000000 0.000000 
#    y 0.000000 1.918720 0.000000 
#    z 0.000000 0.000000 1.950770 
# 
# From -- ./inp_files/6824.got.cif
#   From: 2010.03.12/outbox.cif.g09.slc.cpg/sg33_4_cif.got.tgz:6824.got - 2010.04.14 01:49:19.
