data_PCOD8171302
_publ_section_title
;
Structure prediction by ZEFSAII (Michael W. Deem and Ramdas Pophale) SiO2 
 PCOD8171302
Probable space group: P N A 21
;
_chemical_formula_sum "Si O2"
_cell_formula_units_Z 20
_cell_length_a 13.377919
_cell_length_b 8.898072
_cell_length_c 7.052605
_cell_angle_alpha 90.000000
_cell_angle_beta 90.000000
_cell_angle_gamma 90.000000
_cell_volume 839.525783
_symmetry_space_group_name_H-M "P N A 21"
_symmetry_group_IT_number 33
_symmetry_cell_setting 'orthorhombic'
loop_
_space_group_symop_operation_xyz
x,y,z
-x,-y,1/2+z
1/2-x,1/2+y,1/2+z
1/2+x,1/2-y,z
loop_
_atom_site_type_symbol
_atom_site_label
_atom_site_fract_x
_atom_site_fract_y
_atom_site_fract_z
Si Si1 0.188274 0.748978 0.186680
Si Si2 0.907363 0.692186 0.080819
Si Si3 0.569670 0.016226 0.203812
Si Si4 0.053574 0.919608 0.916239
Si Si5 0.539686 0.713460 0.516919
O O1 0.160365 0.580582 0.106813
O O2 0.140031 0.753984 0.397110
O O3 0.306370 0.770920 0.192582
O O4 0.145556 0.881057 0.053677
O O5 0.893136 0.577862 0.905047
O O6 0.952116 0.844712 0.995039
O O7 0.983521 0.615144 0.231981
O O8 0.526447 0.140533 0.064741
O O9 0.080475 0.860066 0.709459
O O10 0.034733 0.098591 0.907424
#
# Coordination Sequence:
#
# PCOD8171302 Si02
#       5
#     4   4   4   4   4
#     4  11  23  46  71 104 145 194 257 295 374 460
#     4  10  23  45  69 104 143 191 253 303 375 444
#     4  10  22  47  72 101 149 195 239 317 375 435
#     4  10  23  43  68 105 145 191 242 309 369 434
#     4  11  21  45  74 100 150 193 237 310 375 437
#
# _framework density 23.822973000000001
#
# number of rings (size 3 to 8) (size 9 to 14) (size 15 to 20)
#    0.000    1.600    4.000    0.000    0.000    1.600 
#   14.400    2.000    0.000    0.000    0.000    0.000 
#    0.000    0.000    0.000    0.000    0.000    0.000 
#
# Total GULP energy -247921.561648 kJ/mol
# GULP energy per Si atom -12396.078082 kJ/mol
# Density = 2.376875 g / cm^3
# Si number density = 23.822973 Si / 1000 Ang^3
#
#
#
# Elastic Constant Matrix: (Units=GPa)
#
#
# Indices 1 2 3 4 5 6 
#
# 1 150.3424 44.5884 46.7157 0.0000 0.0000 0.0000
# 2 44.5884 128.0439 11.2901 0.0000 0.0000 0.0000
# 3 46.7157 11.2901 117.7126 0.0000 0.0000 0.0000
# 4 0.0000 0.0000 0.0000 29.5754 0.0000 0.0000
# 5 0.0000 0.0000 0.0000 0.0000 38.8852 0.0000
# 6 0.0000 0.0000 0.0000 0.0000 0.0000 17.7826
#
#
#
# Elastic Compliance Matrix: (Units=1/GPa)
#
#
# Indices 1 2 3 4 5 6 
#
# 1 0.008394 -0.002652 -0.003077 0.000000 0.000000 0.000000
# 2 -0.002652 0.008714 0.000217 0.000000 0.000000 0.000000
# 3 -0.003077 0.000217 0.009696 0.000000 0.000000 0.000000
# 4 0.000000 0.000000 0.000000 0.033812 0.000000 0.000000
# 5 0.000000 0.000000 0.000000 0.000000 0.025717 0.000000
# 6 0.000000 0.000000 0.000000 0.000000 0.000000 0.056235
#
#
# Mechanical properties :
#
#
# Convention : Reuss Voigt Hill
#
# Bulk Modulus (GPa) = 63.37298 66.80970 65.09134
# Shear Modulus (GPa) = 31.47597 36.81560 34.14578
#
# Velocity S-wave (km/s) = 3.63884 3.93540 3.79002
# Velocity P-wave (km/s) = 6.65689 6.98247 6.82163
#
# Compressibility (1/GPa) = 0.01577960
#
# Stress axis : x y z
#
# Youngs Moduli (GPa) = 119.13232 114.75614 103.13935
#
# Poissons Ratio (x) = 0.30430 0.31735
# Poissons Ratio (y) = 0.31591 -0.02234
# Poissons Ratio (z) = 0.36656 -0.02485
#
# Static dielectric constant tensor:
#      x y z
#    x 3.825840 0.000000 0.000000 
#    y 0.000000 4.801280 0.000000 
#    z 0.000000 0.000000 4.390930 
# 
# 
# High freq. dielectric constant tensor:
#      x y z
#    x 1.906400 0.000000 0.000000 
#    y 0.000000 1.969230 0.000000 
#    z 0.000000 0.000000 1.960630 
# 
# From -- ./inp_files/3701.got.cif
#   From: 2010.03.12/outbox.cif.g09.slc.cpg/sg33_2_cif.got.tgz:3701.got - 2010.04.14 01:49:19.
