data_PCOD8171617
_publ_section_title
;
Structure prediction by ZEFSAII (Michael W. Deem and Ramdas Pophale) SiO2 
 PCOD8171617
Probable space group: P N A 21
;
_chemical_formula_sum "Si O2"
_cell_formula_units_Z 32
_cell_length_a 14.020852
_cell_length_b 8.937794
_cell_length_c 11.612232
_cell_angle_alpha 90.000000
_cell_angle_beta 90.000000
_cell_angle_gamma 90.000000
_cell_volume 1455.192507
_symmetry_space_group_name_H-M "P N A 21"
_symmetry_group_IT_number 33
_symmetry_cell_setting 'orthorhombic'
loop_
_space_group_symop_operation_xyz
x,y,z
-x,-y,1/2+z
1/2-x,1/2+y,1/2+z
1/2+x,1/2-y,z
loop_
_atom_site_type_symbol
_atom_site_label
_atom_site_fract_x
_atom_site_fract_y
_atom_site_fract_z
Si Si1 0.758369 0.557450 0.238720
Si Si2 0.772095 0.845152 0.113273
Si Si3 0.607448 0.372703 0.112433
Si Si4 0.954881 0.761445 0.836636
Si Si5 0.709333 0.029407 0.326664
Si Si6 0.230720 0.752880 0.464154
Si Si7 0.574871 0.517431 0.505902
Si Si8 0.835746 0.299795 0.375404
O O1 0.796065 0.672671 0.142189
O O2 0.658364 0.500951 0.187616
O O3 0.759123 0.651485 0.354871
O O4 0.823183 0.413815 0.267546
O O5 0.708632 0.931828 0.208915
O O6 0.716842 0.857854 0.991021
O O7 0.876245 0.921810 0.108066
O O8 0.536758 0.285878 0.199518
O O9 0.682616 0.253437 0.057526
O O10 0.537851 0.450926 0.019914
O O11 0.884917 0.622673 0.851258
O O12 0.052497 0.717076 0.899064
O O13 0.912190 0.914427 0.892131
O O14 0.799068 0.140120 0.330745
O O15 0.714603 0.919722 0.435260
O O16 0.132347 0.825936 0.507049
#
# Coordination Sequence:
#
# PCOD8171617 Si02
#       8
#     4   4   4   4   4   4   4   4
#     4  11  24  46  70 101 143 182 238 290 359 432
#     4  11  23  45  73  99 140 195 226 297 364 416
#     4  12  25  43  75 102 139 191 237 289 369 419
#     4  12  25  44  68 104 141 183 235 302 350 433
#     4  11  23  45  68 102 140 181 243 290 362 423
#     4  11  24  45  71 101 142 188 235 302 349 433
#     4  12  24  46  72 102 145 185 246 291 361 432
#     4  12  24  48  69 101 148 183 238 301 358 426
#
# _framework density 21.990217999999999
#
# number of rings (size 3 to 8) (size 9 to 14) (size 15 to 20)
#    0.000    0.500    5.000    3.750    1.750    2.000 
#    6.750    0.000    0.000    0.000    0.000    0.000 
#    0.000    0.000    0.000    0.000    0.000    0.000 
#
# Total GULP energy -396564.687673 kJ/mol
# GULP energy per Si atom -12392.646490 kJ/mol
# Density = 2.194017 g / cm^3
# Si number density = 21.990218 Si / 1000 Ang^3
#
#
#
# Elastic Constant Matrix: (Units=GPa)
#
#
# Indices 1 2 3 4 5 6 
#
# 1 126.0171 56.4049 42.2449 0.0000 0.0000 0.0000
# 2 56.4049 139.4860 39.8650 0.0000 0.0000 0.0000
# 3 42.2449 39.8650 68.1330 0.0000 0.0000 0.0000
# 4 0.0000 0.0000 0.0000 49.5315 0.0000 0.0000
# 5 0.0000 0.0000 0.0000 0.0000 24.1918 0.0000
# 6 0.0000 0.0000 0.0000 0.0000 0.0000 29.1310
#
#
#
# Elastic Compliance Matrix: (Units=1/GPa)
#
#
# Indices 1 2 3 4 5 6 
#
# 1 0.010967 -0.002992 -0.005050 0.000000 0.000000 0.000000
# 2 -0.002992 0.009425 -0.003660 0.000000 0.000000 0.000000
# 3 -0.005050 -0.003660 0.019949 0.000000 0.000000 0.000000
# 4 0.000000 0.000000 0.000000 0.020189 0.000000 0.000000
# 5 0.000000 0.000000 0.000000 0.000000 0.041336 0.000000
# 6 0.000000 0.000000 0.000000 0.000000 0.000000 0.034328
#
#
# Mechanical properties :
#
#
# Convention : Reuss Voigt Hill
#
# Bulk Modulus (GPa) = 59.03304 67.85172 63.44238
# Shear Modulus (GPa) = 30.25842 33.57893 31.91867
#
# Velocity S-wave (km/s) = 3.71346 3.91192 3.81398
# Velocity P-wave (km/s) = 6.72977 7.16425 6.95041
#
# Compressibility (1/GPa) = 0.01693967
#
# Stress axis : x y z
#
# Youngs Moduli (GPa) = 91.17996 106.10228 50.12696
#
# Poissons Ratio (x) = 0.31743 0.25312
# Poissons Ratio (y) = 0.27279 0.18344
# Poissons Ratio (z) = 0.46043 0.38829
#
# Static dielectric constant tensor:
#      x y z
#    x 3.689460 0.000000 0.000000 
#    y 0.000000 4.414150 0.000000 
#    z 0.000000 0.000000 4.246060 
# 
# 
# High freq. dielectric constant tensor:
#      x y z
#    x 1.843820 0.000000 0.000000 
#    y 0.000000 1.882780 0.000000 
#    z 0.000000 0.000000 1.875080 
# 
# From -- ./inp_files/6814.got.cif
#   From: 2010.03.12/outbox.cif.g09.slc.cpg/sg33_4_cif.got.tgz:6814.got - 2010.04.14 01:49:19.
