data_PCOD8171380
_publ_section_title
;
Structure prediction by ZEFSAII (Michael W. Deem and Ramdas Pophale) SiO2 
 PCOD8171380
Probable space group: P N A 21
;
_chemical_formula_sum "Si O2"
_cell_formula_units_Z 20
_cell_length_a 8.203459
_cell_length_b 18.076491
_cell_length_c 4.885536
_cell_angle_alpha 90.000000
_cell_angle_beta 90.000000
_cell_angle_gamma 90.000000
_cell_volume 724.474926
_symmetry_space_group_name_H-M "P N A 21"
_symmetry_group_IT_number 33
_symmetry_cell_setting 'orthorhombic'
loop_
_space_group_symop_operation_xyz
x,y,z
-x,-y,1/2+z
1/2-x,1/2+y,1/2+z
1/2+x,1/2-y,z
loop_
_atom_site_type_symbol
_atom_site_label
_atom_site_fract_x
_atom_site_fract_y
_atom_site_fract_z
Si Si1 0.891759 0.791796 0.358880
Si Si2 0.157909 0.582506 0.299175
Si Si3 0.185141 0.371919 0.965351
Si Si4 0.555692 0.639371 0.876102
Si Si5 0.812977 0.984262 0.800349
O O1 0.725459 0.833947 0.278617
O O2 0.844792 0.706391 0.325265
O O3 0.949625 0.811743 0.662990
O O4 0.040206 0.814996 0.157831
O O5 0.277497 0.535532 0.489814
O O6 0.981081 0.582050 0.439205
O O7 0.166425 0.544645 0.000480
O O8 0.254312 0.363283 0.276714
O O9 0.321957 0.425069 0.813777
O O10 0.481030 0.555552 0.898233
#
# Coordination Sequence:
#
# PCOD8171380 Si02
#       5
#     4   4   4   4   4
#     4  10  24  44  64  96 138 177 224 286 347 411
#     4  10  23  44  65  95 137 178 225 285 348 416
#     4  12  24  42  74 100 128 185 238 279 345 423
#     4  10  25  44  64  98 141 175 221 288 348 407
#     4  10  24  44  65  97 140 177 224 290 350 409
#
# _framework density 27.606200000000001
#
# number of rings (size 3 to 8) (size 9 to 14) (size 15 to 20)
#    0.000    1.600    0.000    2.400    0.000   17.600 
#    0.000    0.000    0.000    0.000    0.000    0.000 
#    0.000    0.000    0.000    0.000    0.000    0.000 
#
# Total GULP energy -248007.797114 kJ/mol
# GULP energy per Si atom -12400.389856 kJ/mol
# Density = 2.754337 g / cm^3
# Si number density = 27.606200 Si / 1000 Ang^3
#
#
#
# Elastic Constant Matrix: (Units=GPa)
#
#
# Indices 1 2 3 4 5 6 
#
# 1 124.0597 27.2507 13.8258 0.0000 0.0000 0.0000
# 2 27.2507 194.8707 38.4937 0.0000 0.0000 0.0000
# 3 13.8258 38.4937 85.9498 0.0000 0.0000 0.0000
# 4 0.0000 0.0000 0.0000 22.1702 0.0000 0.0000
# 5 0.0000 0.0000 0.0000 0.0000 53.6149 0.0000
# 6 0.0000 0.0000 0.0000 0.0000 0.0000 31.0943
#
#
#
# Elastic Compliance Matrix: (Units=1/GPa)
#
#
# Indices 1 2 3 4 5 6 
#
# 1 0.008379 -0.000993 -0.000903 0.000000 0.000000 0.000000
# 2 -0.000993 0.005747 -0.002414 0.000000 0.000000 0.000000
# 3 -0.000903 -0.002414 0.012861 0.000000 0.000000 0.000000
# 4 0.000000 0.000000 0.000000 0.045106 0.000000 0.000000
# 5 0.000000 0.000000 0.000000 0.000000 0.018652 0.000000
# 6 0.000000 0.000000 0.000000 0.000000 0.000000 0.032160
#
#
# Mechanical properties :
#
#
# Convention : Reuss Voigt Hill
#
# Bulk Modulus (GPa) = 54.44615 62.66895 58.55755
# Shear Modulus (GPa) = 36.32425 43.06321 39.69373
#
# Velocity S-wave (km/s) = 3.63133 3.95386 3.79602
# Velocity P-wave (km/s) = 6.11125 6.60260 6.36167
#
# Compressibility (1/GPa) = 0.01836677
#
# Stress axis : x y z
#
# Youngs Moduli (GPa) = 119.33910 173.99098 77.75320
#
# Poissons Ratio (x) = 0.17284 0.07021
# Poissons Ratio (y) = 0.11855 0.18772
# Poissons Ratio (z) = 0.10776 0.42006
#
# Static dielectric constant tensor:
#      x y z
#    x 4.981560 0.000000 0.000000 
#    y 0.000000 5.055490 0.000000 
#    z 0.000000 0.000000 4.923300 
# 
# 
# High freq. dielectric constant tensor:
#      x y z
#    x 2.111710 0.000000 0.000000 
#    y 0.000000 2.129300 0.000000 
#    z 0.000000 0.000000 2.113540 
# 
# From -- ./inp_files/359.got.cif
#   From: 2010.03.12/outbox.cif.g09.slc.cpg/sg33_1_cif.got.tgz:359.got - 2010.04.14 01:49:19.
