data_PCOD8171753
_publ_section_title
;
Structure prediction by ZEFSAII (Michael W. Deem and Ramdas Pophale) SiO2 
 PCOD8171753
Probable space group: P N A 21
;
_chemical_formula_sum "Si O2"
_cell_formula_units_Z 20
_cell_length_a 26.466700
_cell_length_b 6.424241
_cell_length_c 4.757669
_cell_angle_alpha 90.000000
_cell_angle_beta 90.000000
_cell_angle_gamma 90.000000
_cell_volume 808.939130
_symmetry_space_group_name_H-M "P N A 21"
_symmetry_group_IT_number 33
_symmetry_cell_setting 'orthorhombic'
loop_
_space_group_symop_operation_xyz
x,y,z
-x,-y,1/2+z
1/2-x,1/2+y,1/2+z
1/2+x,1/2-y,z
loop_
_atom_site_type_symbol
_atom_site_label
_atom_site_fract_x
_atom_site_fract_y
_atom_site_fract_z
Si Si1 0.071017 0.008930 0.021550
Si Si2 0.002491 0.351361 0.309823
Si Si3 0.799174 0.384315 0.229714
Si Si4 0.268408 0.686136 0.210849
Si Si5 0.137202 0.941997 0.533618
O O1 0.045375 0.212230 0.157312
O O2 0.116612 0.934245 0.219606
O O3 0.034405 0.813284 0.962667
O O4 0.096851 0.067868 0.724779
O O5 0.022080 0.506887 0.558638
O O6 0.775424 0.254361 0.487144
O O7 0.804858 0.626224 0.313363
O O8 0.854564 0.295360 0.144338
O O9 0.759258 0.403183 0.978317
O O10 0.305073 0.522326 0.051333
#
# Coordination Sequence:
#
# PCOD8171753 Si02
#       5
#     4   4   4   4   4
#     4  12  27  48  72 114 146 186 244 306 373 436
#     4  12  26  50  82 106 150 196 238 304 390 460
#     4  12  23  42  66  95 135 189 238 286 352 411
#     4  12  23  42  66  95 135 189 238 286 352 411
#     4  12  25  42  72 104 150 184 244 308 343 436
#
# _framework density 24.723739999999999
#
# number of rings (size 3 to 8) (size 9 to 14) (size 15 to 20)
#    0.000    0.000    4.000    7.200    0.000    4.800 
#    0.000    0.000    0.000    0.000    0.000    0.000 
#    0.000    0.000    0.000    0.000    0.000    0.000 
#
# Total GULP energy -247801.533169 kJ/mol
# GULP energy per Si atom -12390.076658 kJ/mol
# Density = 2.466747 g / cm^3
# Si number density = 24.723740 Si / 1000 Ang^3
#
#
#
# Elastic Constant Matrix: (Units=GPa)
#
#
# Indices 1 2 3 4 5 6 
#
# 1 36.8990 9.0012 -12.9421 0.0000 0.0000 0.0000
# 2 9.0012 72.5681 22.4847 0.0000 0.0000 0.0000
# 3 -12.9421 22.4847 86.1690 0.0000 0.0000 0.0000
# 4 0.0000 0.0000 0.0000 36.1383 0.0000 0.0000
# 5 0.0000 0.0000 0.0000 0.0000 56.4494 0.0000
# 6 0.0000 0.0000 0.0000 0.0000 0.0000 30.8673
#
#
#
# Elastic Compliance Matrix: (Units=1/GPa)
#
#
# Indices 1 2 3 4 5 6 
#
# 1 0.030620 -0.005682 0.006082 0.000000 0.000000 0.000000
# 2 -0.005682 0.016047 -0.005041 0.000000 0.000000 0.000000
# 3 0.006082 -0.005041 0.013834 0.000000 0.000000 0.000000
# 4 0.000000 0.000000 0.000000 0.027672 0.000000 0.000000
# 5 0.000000 0.000000 0.000000 0.000000 0.017715 0.000000
# 6 0.000000 0.000000 0.000000 0.000000 0.000000 0.032397
#
#
# Mechanical properties :
#
#
# Convention : Reuss Voigt Hill
#
# Bulk Modulus (GPa) = 19.52428 25.85819 22.69124
# Shear Modulus (GPa) = 30.36931 36.49714 33.43323
#
# Velocity S-wave (km/s) = 3.50858 3.84630 3.68131
# Velocity P-wave (km/s) = 4.93230 5.49608 5.22181
#
# Compressibility (1/GPa) = 0.05121828
#
# Stress axis : x y z
#
# Youngs Moduli (GPa) = 32.65798 62.31763 72.28637
#
# Poissons Ratio (x) = 0.35412 -0.43963
# Poissons Ratio (y) = 0.18558 0.36437
# Poissons Ratio (z) = -0.19862 0.31412
#
# Static dielectric constant tensor:
#      x y z
#    x 4.095700 0.000000 0.000000 
#    y 0.000000 4.714360 0.000000 
#    z 0.000000 0.000000 4.767600 
# 
# 
# High freq. dielectric constant tensor:
#      x y z
#    x 1.958400 0.000000 0.000000 
#    y 0.000000 1.995280 0.000000 
#    z 0.000000 0.000000 2.005100 
# 
# From -- ./inp_files/2343.got.cif
#   From: 2010.03.12/outbox.cif.g09.slc.cpg/sg33_2_cif.got.tgz:2343.got - 2010.04.14 01:49:19.
