data_PCOD8171133
_publ_section_title
;
Structure prediction by ZEFSAII (Michael W. Deem and Ramdas Pophale) SiO2 
 PCOD8171133
Probable space group: P N A 21
;
_chemical_formula_sum "Si O2"
_cell_formula_units_Z 16
_cell_length_a 8.649345
_cell_length_b 16.632037
_cell_length_c 5.053872
_cell_angle_alpha 90.000000
_cell_angle_beta 90.000000
_cell_angle_gamma 90.000000
_cell_volume 727.030953
_symmetry_space_group_name_H-M "P N A 21"
_symmetry_group_IT_number 33
_symmetry_cell_setting 'orthorhombic'
loop_
_space_group_symop_operation_xyz
x,y,z
-x,-y,1/2+z
1/2-x,1/2+y,1/2+z
1/2+x,1/2-y,z
loop_
_atom_site_type_symbol
_atom_site_label
_atom_site_fract_x
_atom_site_fract_y
_atom_site_fract_z
Si Si1 0.184731 0.847893 0.500000
Si Si2 0.012567 0.447938 0.006282
Si Si3 0.682606 0.811323 0.757512
Si Si4 0.505043 0.675476 0.984791
O O1 0.330918 0.901777 0.432906
O O2 0.240948 0.754862 0.540564
O O3 0.098613 0.877446 0.766929
O O4 0.057443 0.854426 0.270290
O O5 0.952430 0.487359 0.735254
O O6 0.879688 0.388949 0.108361
O O7 0.548384 0.770322 0.938973
O O8 0.822554 0.836940 0.949655
#
# Coordination Sequence:
#
# PCOD8171133 Si02
#       4
#     4   4   4   4
#     4  10  22  42  65 100 134 179 240 281 338 440
#     4  12  27  44  69 103 149 187 230 305 381 420
#     4  10  23  41  69 102 130 189 237 290 342 432
#     4  10  22  35  73  93 131 169 253 282 329 406
#
# _framework density 22.007314999999998
#
# number of rings (size 3 to 8) (size 9 to 14) (size 15 to 20)
#    1.500    0.000    2.500    1.500   10.500    0.000 
#    0.000    5.000    0.000    0.000    0.000    0.000 
#    0.000    0.000    0.000    0.000    0.000    0.000 
#
# Total GULP energy -198347.368754 kJ/mol
# GULP energy per Si atom -12396.710547 kJ/mol
# Density = 2.195723 g / cm^3
# Si number density = 22.007315 Si / 1000 Ang^3
#
#
#
# Elastic Constant Matrix: (Units=GPa)
#
#
# Indices 1 2 3 4 5 6 
#
# 1 99.6656 13.0976 2.2370 0.0000 0.0000 0.0000
# 2 13.0976 53.6109 -5.8535 0.0000 0.0000 0.0000
# 3 2.2370 -5.8535 94.8443 0.0000 0.0000 0.0000
# 4 0.0000 0.0000 0.0000 19.2741 0.0000 0.0000
# 5 0.0000 0.0000 0.0000 0.0000 45.5938 0.0000
# 6 0.0000 0.0000 0.0000 0.0000 0.0000 23.7059
#
#
#
# Elastic Compliance Matrix: (Units=1/GPa)
#
#
# Indices 1 2 3 4 5 6 
#
# 1 0.010382 -0.002580 -0.000404 0.000000 0.000000 0.000000
# 2 -0.002580 0.019421 0.001259 0.000000 0.000000 0.000000
# 3 -0.000404 0.001259 0.010631 0.000000 0.000000 0.000000
# 4 0.000000 0.000000 0.000000 0.051883 0.000000 0.000000
# 5 0.000000 0.000000 0.000000 0.000000 0.021933 0.000000
# 6 0.000000 0.000000 0.000000 0.000000 0.000000 0.042184
#
#
# Mechanical properties :
#
#
# Convention : Reuss Voigt Hill
#
# Bulk Modulus (GPa) = 27.03931 29.67589 28.35760
# Shear Modulus (GPa) = 29.03414 33.62407 31.32911
#
# Velocity S-wave (km/s) = 3.63615 3.91302 3.77713
# Velocity P-wave (km/s) = 5.47193 5.82490 5.65117
#
# Compressibility (1/GPa) = 0.03698319
#
# Stress axis : x y z
#
# Youngs Moduli (GPa) = 96.32299 51.49101 94.06581
#
# Poissons Ratio (x) = 0.13287 0.03801
# Poissons Ratio (y) = 0.24856 -0.11847
# Poissons Ratio (z) = 0.03893 -0.06485
#
# Static dielectric constant tensor:
#      x y z
#    x 3.676170 0.000000 0.000000 
#    y 0.000000 3.725370 0.000000 
#    z 0.000000 0.000000 3.879320 
# 
# 
# High freq. dielectric constant tensor:
#      x y z
#    x 1.864460 0.000000 0.000000 
#    y 0.000000 1.832500 0.000000 
#    z 0.000000 0.000000 1.872010 
# 
# From -- ./inp_files/273.got.cif
#   From: 2010.03.12/outbox.cif.g09.slc.cpg/sg33_1_cif.got.tgz:273.got - 2010.04.14 01:49:19.
