data_PCOD8171055
_publ_section_title
;
Structure prediction by ZEFSAII (Michael W. Deem and Ramdas Pophale) SiO2 
 PCOD8171055
Probable space group: P N A 21
;
_chemical_formula_sum "Si O2"
_cell_formula_units_Z 32
_cell_length_a 17.534647
_cell_length_b 5.458287
_cell_length_c 12.962592
_cell_angle_alpha 90.000000
_cell_angle_beta 90.000000
_cell_angle_gamma 90.000000
_cell_volume 1240.638478
_symmetry_space_group_name_H-M "P N A 21"
_symmetry_group_IT_number 33
_symmetry_cell_setting 'orthorhombic'
loop_
_space_group_symop_operation_xyz
x,y,z
-x,-y,1/2+z
1/2-x,1/2+y,1/2+z
1/2+x,1/2-y,z
loop_
_atom_site_type_symbol
_atom_site_label
_atom_site_fract_x
_atom_site_fract_y
_atom_site_fract_z
Si Si1 0.956755 0.374748 0.106710
Si Si2 0.403707 0.785772 0.940610
Si Si3 0.927473 0.389599 0.755864
Si Si4 0.693837 0.757667 0.712390
Si Si5 0.519224 0.404943 0.909977
Si Si6 0.758462 0.351505 0.443055
Si Si7 0.805684 0.848883 0.440091
Si Si8 0.766202 0.255227 0.721001
O O1 0.895176 0.242671 0.180384
O O2 0.032071 0.442611 0.170685
O O3 0.913772 0.604234 0.054638
O O4 0.984495 0.204982 0.014131
O O5 0.485309 0.676453 0.907068
O O6 0.332649 0.596280 0.939394
O O7 0.384319 0.971918 0.848722
O O8 0.993421 0.222736 0.804299
O O9 0.857944 0.239672 0.703847
O O10 0.701136 0.769396 0.835972
O O11 0.732452 0.504995 0.669145
O O12 0.733685 0.005131 0.669126
O O13 0.609044 0.407615 0.908152
O O14 0.798907 0.585177 0.500598
O O15 0.771151 0.086273 0.502034
O O16 0.755695 0.760587 0.341631
#
# Coordination Sequence:
#
# PCOD8171055 Si02
#       8
#     4   4   4   4   4   4   4   4
#     4  11  28  45  68 110 149 193 252 311 377 451
#     4  11  25  46  73 106 147 200 246 318 376 452
#     4  11  23  47  73 102 145 199 247 306 376 453
#     4  10  21  42  68  99 138 185 238 299 365 435
#     4  11  26  44  75 102 152 196 246 310 385 447
#     4  10  21  43  73 102 136 190 253 299 371 441
#     4  10  21  40  70 106 136 188 243 298 361 444
#     4  10  21  41  72 105 131 187 247 295 359 437
#
# _framework density 25.793172999999999
#
# number of rings (size 3 to 8) (size 9 to 14) (size 15 to 20)
#    0.000    1.500    2.500    3.000   10.500    1.000 
#    4.500    0.000    0.000    0.000    0.000    0.000 
#    0.000    0.000    0.000    0.000    0.000    0.000 
#
# Total GULP energy -396484.278525 kJ/mol
# GULP energy per Si atom -12390.133704 kJ/mol
# Density = 2.573447 g / cm^3
# Si number density = 25.793173 Si / 1000 Ang^3
#
#
#
# Elastic Constant Matrix: (Units=GPa)
#
#
# Indices 1 2 3 4 5 6 
#
# 1 153.0380 27.6068 -2.9393 0.0000 0.0000 0.0000
# 2 27.6068 168.2100 -26.7087 0.0000 0.0000 0.0000
# 3 -2.9393 -26.7087 54.1540 0.0000 0.0000 0.0000
# 4 0.0000 0.0000 0.0000 -13.3075 0.0000 0.0000
# 5 0.0000 0.0000 0.0000 0.0000 19.5198 0.0000
# 6 0.0000 0.0000 0.0000 0.0000 0.0000 47.6165
#
#
#
# Elastic Compliance Matrix: (Units=1/GPa)
#
#
# Indices 1 2 3 4 5 6 
#
# 1 0.006736 -0.001136 -0.000195 0.000000 0.000000 0.000000
# 2 -0.001136 0.006642 0.003214 0.000000 0.000000 0.000000
# 3 -0.000195 0.003214 0.020040 0.000000 0.000000 0.000000
# 4 0.000000 0.000000 0.000000 -0.075146 0.000000 0.000000
# 5 0.000000 0.000000 0.000000 0.000000 0.051230 0.000000
# 6 0.000000 0.000000 0.000000 0.000000 0.000000 0.021001
#
#
# Mechanical properties :
#
#
# Convention : Reuss Voigt Hill
#
# Bulk Modulus (GPa) = 26.89375 41.25772 34.07573
# Shear Modulus (GPa) = 127.77231 35.92865 81.85048
#
# Velocity S-wave (km/s) = 7.04591 3.73628 5.63935
# Velocity P-wave (km/s) = 8.75456 5.88586 7.45941
#
# Compressibility (1/GPa) = 0.03718336
#
# Stress axis : x y z
#
# Youngs Moduli (GPa) = 148.46533 150.56186 49.89908
#
# Poissons Ratio (x) = 0.17110 0.00972
# Poissons Ratio (y) = 0.16871 -0.16038
# Poissons Ratio (z) = 0.02893 -0.48391
#
# Static dielectric constant tensor:
#      x y z
#    x 4.368550 0.000000 0.000000 
#    y 0.000000 5.428540 0.000000 
#    z 0.000000 0.000000 4.395970 
# 
# 
# High freq. dielectric constant tensor:
#      x y z
#    x 2.035650 0.000000 0.000000 
#    y 0.000000 2.041760 0.000000 
#    z 0.000000 0.000000 2.024670 
# 
# From -- ./inp_files/8262.got.cif
#   From: 2010.03.12/outbox.cif.g09.slc.cpg/sg33_5_cif.got.tgz:8262.got - 2010.04.14 01:49:19.
