data_PCOD8171637
_publ_section_title
;
Structure prediction by ZEFSAII (Michael W. Deem and Ramdas Pophale) SiO2 
 PCOD8171637
Probable space group: P N A 21
;
_chemical_formula_sum "Si O2"
_cell_formula_units_Z 20
_cell_length_a 9.885712
_cell_length_b 9.221731
_cell_length_c 9.928398
_cell_angle_alpha 90.000000
_cell_angle_beta 90.000000
_cell_angle_gamma 90.000000
_cell_volume 905.106288
_symmetry_space_group_name_H-M "P N A 21"
_symmetry_group_IT_number 33
_symmetry_cell_setting 'orthorhombic'
loop_
_space_group_symop_operation_xyz
x,y,z
-x,-y,1/2+z
1/2-x,1/2+y,1/2+z
1/2+x,1/2-y,z
loop_
_atom_site_type_symbol
_atom_site_label
_atom_site_fract_x
_atom_site_fract_y
_atom_site_fract_z
Si Si1 0.381930 0.778776 0.877530
Si Si2 0.946183 0.958764 0.083720
Si Si3 0.628067 0.890887 0.440565
Si Si4 0.077265 0.146595 0.869780
Si Si5 0.633506 0.737108 0.699178
O O1 0.482485 0.730992 0.758957
O O2 0.231318 0.756976 0.825105
O O3 0.411866 0.944095 0.915166
O O4 0.383616 0.680094 0.010338
O O5 0.993794 0.907691 0.231909
O O6 0.840039 0.090746 0.110165
O O7 0.062689 0.025365 0.987790
O O8 0.759729 0.837460 0.354947
O O9 0.495207 0.796851 0.405488
O O10 0.656377 0.872984 0.600362
#
# Coordination Sequence:
#
# PCOD8171637 Si02
#       5
#     4   4   4   4   4
#     4  12  25  44  73 103 138 190 239 285 360 428
#     4  11  23  47  72 100 143 189 225 295 357 423
#     4  11  26  45  72 105 141 187 238 295 355 428
#     4  11  25  48  72 104 147 185 236 291 366 416
#     4  11  25  46  67 104 145 181 236 298 348 425
#
# _framework density 22.096851999999998
#
# number of rings (size 3 to 8) (size 9 to 14) (size 15 to 20)
#    0.000    0.800    4.000    2.400    2.800    8.000 
#    0.000    0.000    0.000    0.000    0.000    0.000 
#    0.000    0.000    0.000    0.000    0.000    0.000 
#
# Total GULP energy -247940.745799 kJ/mol
# GULP energy per Si atom -12397.037290 kJ/mol
# Density = 2.204656 g / cm^3
# Si number density = 22.096852 Si / 1000 Ang^3
#
#
#
# Elastic Constant Matrix: (Units=GPa)
#
#
# Indices 1 2 3 4 5 6 
#
# 1 80.5405 41.1503 14.0264 0.0000 0.0000 0.0000
# 2 41.1503 151.2077 53.2526 0.0000 0.0000 0.0000
# 3 14.0264 53.2526 130.5296 0.0000 0.0000 0.0000
# 4 0.0000 0.0000 0.0000 46.7715 0.0000 0.0000
# 5 0.0000 0.0000 0.0000 0.0000 32.8020 0.0000
# 6 0.0000 0.0000 0.0000 0.0000 0.0000 21.4539
#
#
#
# Elastic Compliance Matrix: (Units=1/GPa)
#
#
# Indices 1 2 3 4 5 6 
#
# 1 0.014422 -0.003946 0.000060 0.000000 0.000000 0.000000
# 2 -0.003946 0.008803 -0.003167 0.000000 0.000000 0.000000
# 3 0.000060 -0.003167 0.008947 0.000000 0.000000 0.000000
# 4 0.000000 0.000000 0.000000 0.021381 0.000000 0.000000
# 5 0.000000 0.000000 0.000000 0.000000 0.030486 0.000000
# 6 0.000000 0.000000 0.000000 0.000000 0.000000 0.046612
#
#
# Mechanical properties :
#
#
# Convention : Reuss Voigt Hill
#
# Bulk Modulus (GPa) = 55.35544 64.34850 59.85197
# Shear Modulus (GPa) = 33.16148 37.12870 35.14509
#
# Velocity S-wave (km/s) = 3.87813 4.10356 3.99244
# Velocity P-wave (km/s) = 6.72004 7.18586 6.95685
#
# Compressibility (1/GPa) = 0.01806507
#
# Stress axis : x y z
#
# Youngs Moduli (GPa) = 69.33971 113.60091 111.77189
#
# Poissons Ratio (x) = 0.44827 -0.00672
# Poissons Ratio (y) = 0.27361 0.35401
# Poissons Ratio (z) = -0.00417 0.35980
#
# Static dielectric constant tensor:
#      x y z
#    x 3.683420 0.000000 0.000000 
#    y 0.000000 4.120890 0.000000 
#    z 0.000000 0.000000 4.144800 
# 
# 
# High freq. dielectric constant tensor:
#      x y z
#    x 1.848040 0.000000 0.000000 
#    y 0.000000 1.880120 0.000000 
#    z 0.000000 0.000000 1.882310 
# 
# From -- ./inp_files/2933.got.cif
#   From: 2010.03.12/outbox.cif.g09.slc.cpg/sg33_2_cif.got.tgz:2933.got - 2010.04.14 01:49:19.
