data_PCOD8171715
_publ_section_title
;
Structure prediction by ZEFSAII (Michael W. Deem and Ramdas Pophale) SiO2 
 PCOD8171715
Probable space group: P N A 21
;
_chemical_formula_sum "Si O2"
_cell_formula_units_Z 32
_cell_length_a 13.104117
_cell_length_b 18.193066
_cell_length_c 6.062727
_cell_angle_alpha 90.000000
_cell_angle_beta 90.000000
_cell_angle_gamma 90.000000
_cell_volume 1445.378765
_symmetry_space_group_name_H-M "P N A 21"
_symmetry_group_IT_number 33
_symmetry_cell_setting 'orthorhombic'
loop_
_space_group_symop_operation_xyz
x,y,z
-x,-y,1/2+z
1/2-x,1/2+y,1/2+z
1/2+x,1/2-y,z
loop_
_atom_site_type_symbol
_atom_site_label
_atom_site_fract_x
_atom_site_fract_y
_atom_site_fract_z
Si Si1 0.820727 0.313170 0.067920
Si Si2 0.753839 0.468765 0.907639
Si Si3 0.176830 0.226116 0.424011
Si Si4 0.912429 0.925572 0.080774
Si Si5 0.864805 0.053510 0.741185
Si Si6 0.047951 0.320995 0.126189
Si Si7 0.773562 0.682628 0.317042
Si Si8 0.957743 0.523130 0.764962
O O1 0.785386 0.295295 0.316698
O O2 0.939452 0.296874 0.029438
O O3 0.795228 0.397519 0.029335
O O4 0.759493 0.262460 0.901210
O O5 0.645461 0.454429 0.794537
O O6 0.840484 0.497213 0.739843
O O7 0.728449 0.532516 0.081048
O O8 0.129205 0.155962 0.542469
O O9 0.093758 0.249625 0.243498
O O10 0.198567 0.299457 0.565346
O O11 0.033071 0.920634 0.118719
O O12 0.890294 0.982489 0.885857
O O13 0.817470 0.124477 0.864419
O O14 0.032204 0.389479 0.290833
O O15 0.123636 0.346690 0.931518
O O16 0.005169 0.503822 0.515965
#
# Coordination Sequence:
#
# PCOD8171715 Si02
#       8
#     4   4   4   4   4   4   4   4
#     4  11  25  45  71 104 141 192 246 305 384 461
#     4  12  25  46  73 102 148 192 253 312 378 467
#     4  11  26  45  72 103 146 191 249 308 386 457
#     4  12  26  46  74 102 146 197 248 314 382 468
#     4  12  27  46  73 111 144 193 255 312 388 458
#     4  11  27  46  71 107 148 192 254 309 391 461
#     4  11  27  46  72 109 144 194 245 324 377 462
#     4  12  29  48  78 114 153 203 254 320 394 468
#
# _framework density 22.139527999999999
#
# number of rings (size 3 to 8) (size 9 to 14) (size 15 to 20)
#    0.000    0.500    5.000    1.500   10.500    2.000 
#    0.000    0.000    0.000    0.000    0.000    0.000 
#    0.000    0.000    0.000    0.000    0.000    0.000 
#
# Total GULP energy -396552.962656 kJ/mol
# GULP energy per Si atom -12392.280083 kJ/mol
# Density = 2.208914 g / cm^3
# Si number density = 22.139528 Si / 1000 Ang^3
#
#
#
# Elastic Constant Matrix: (Units=GPa)
#
#
# Indices 1 2 3 4 5 6 
#
# 1 151.6855 27.2273 35.0429 0.0000 0.0000 0.0000
# 2 27.2273 77.2863 12.1191 0.0000 0.0000 0.0000
# 3 35.0429 12.1191 84.2858 0.0000 0.0000 0.0000
# 4 0.0000 0.0000 0.0000 30.9780 0.0000 0.0000
# 5 0.0000 0.0000 0.0000 0.0000 29.5495 0.0000
# 6 0.0000 0.0000 0.0000 0.0000 0.0000 34.9260
#
#
#
# Elastic Compliance Matrix: (Units=1/GPa)
#
#
# Indices 1 2 3 4 5 6 
#
# 1 0.007657 -0.002249 -0.002860 0.000000 0.000000 0.000000
# 2 -0.002249 0.013898 -0.001063 0.000000 0.000000 0.000000
# 3 -0.002860 -0.001063 0.013206 0.000000 0.000000 0.000000
# 4 0.000000 0.000000 0.000000 0.032281 0.000000 0.000000
# 5 0.000000 0.000000 0.000000 0.000000 0.033842 0.000000
# 6 0.000000 0.000000 0.000000 0.000000 0.000000 0.028632
#
#
# Mechanical properties :
#
#
# Convention : Reuss Voigt Hill
#
# Bulk Modulus (GPa) = 44.60988 51.33735 47.97361
# Shear Modulus (GPa) = 33.48225 35.01526 34.24875
#
# Velocity S-wave (km/s) = 3.89309 3.98121 3.93740
# Velocity P-wave (km/s) = 6.35620 6.66122 6.51050
#
# Compressibility (1/GPa) = 0.02241656
#
# Stress axis : x y z
#
# Youngs Moduli (GPa) = 130.59872 71.95311 75.72075
#
# Poissons Ratio (x) = 0.16182 0.21657
# Poissons Ratio (y) = 0.29372 0.08051
# Poissons Ratio (z) = 0.37353 0.07651
#
# Static dielectric constant tensor:
#      x y z
#    x 4.222480 0.000000 0.000000 
#    y 0.000000 3.989490 0.000000 
#    z 0.000000 0.000000 4.170840 
# 
# 
# High freq. dielectric constant tensor:
#      x y z
#    x 1.884500 0.000000 0.000000 
#    y 0.000000 1.886260 0.000000 
#    z 0.000000 0.000000 1.866630 
# 
# From -- ./inp_files/1079.got.cif
#   From: 2010.03.12/outbox.cif.g09.slc.cpg/sg33_1_cif.got.tgz:1079.got - 2010.04.14 01:49:19.
