data_PCOD8171369
_publ_section_title
;
Structure prediction by ZEFSAII (Michael W. Deem and Ramdas Pophale) SiO2 
 PCOD8171369
Probable space group: P N A 21
;
_chemical_formula_sum "Si O2"
_cell_formula_units_Z 32
_cell_length_a 14.972506
_cell_length_b 8.965683
_cell_length_c 11.422832
_cell_angle_alpha 90.000000
_cell_angle_beta 90.000000
_cell_angle_gamma 90.000000
_cell_volume 1533.386604
_symmetry_space_group_name_H-M "P N A 21"
_symmetry_group_IT_number 33
_symmetry_cell_setting 'orthorhombic'
loop_
_space_group_symop_operation_xyz
x,y,z
-x,-y,1/2+z
1/2-x,1/2+y,1/2+z
1/2+x,1/2-y,z
loop_
_atom_site_type_symbol
_atom_site_label
_atom_site_fract_x
_atom_site_fract_y
_atom_site_fract_z
Si Si1 0.143747 0.239317 0.050800
Si Si2 0.506956 0.664011 0.721272
Si Si3 0.183322 0.149053 0.571716
Si Si4 0.342269 0.305995 0.044661
Si Si5 0.076817 0.641002 0.341276
Si Si6 0.583363 0.349188 0.802052
Si Si7 0.377579 0.080997 0.588574
Si Si8 0.460863 0.838848 0.947788
O O1 0.248385 0.233958 0.085498
O O2 0.116286 0.413084 0.038239
O O3 0.086234 0.154534 0.149818
O O4 0.128001 0.149543 0.930197
O O5 0.581592 0.739188 0.637576
O O6 0.533384 0.503748 0.772852
O O7 0.496831 0.778286 0.826059
O O8 0.160250 0.182640 0.707123
O O9 0.288546 0.168249 0.547302
O O10 0.129111 0.257533 0.486976
O O11 0.156843 0.982849 0.539012
O O12 0.363989 0.259731 0.911834
O O13 0.127535 0.574342 0.229246
O O14 0.060109 0.511889 0.434765
O O15 0.986099 0.714594 0.296028
O O16 0.461056 0.178670 0.544150
#
# Coordination Sequence:
#
# PCOD8171369 Si02
#       8
#     4   4   4   4   4   4   4   4
#     4  11  22  44  68  96 132 178 214 277 336 391
#     4  11  24  41  66  97 131 173 222 269 331 397
#     4  10  24  44  64  99 132 170 226 278 327 403
#     4  10  23  43  69  94 131 170 222 275 333 396
#     4  12  22  42  70  94 129 176 217 273 338 397
#     4  11  22  40  71  91 130 177 218 270 333 390
#     4  11  23  43  68  97 133 175 221 276 335 398
#     4  12  24  41  68  94 134 171 216 272 335 398
#
# _framework density 20.868839000000001
#
# number of rings (size 3 to 8) (size 9 to 14) (size 15 to 20)
#    0.000    1.000    5.000    1.500    1.750    1.000 
#    6.750    0.000    0.000    0.000    0.000    0.000 
#    0.000    0.000    0.000    0.000    0.000    0.000 
#
# Total GULP energy -396867.107861 kJ/mol
# GULP energy per Si atom -12402.097121 kJ/mol
# Density = 2.082134 g / cm^3
# Si number density = 20.868839 Si / 1000 Ang^3
#
#
#
# Elastic Constant Matrix: (Units=GPa)
#
#
# Indices 1 2 3 4 5 6 
#
# 1 134.1374 48.1308 51.9570 0.0000 0.0000 0.0000
# 2 48.1308 74.8170 40.7533 0.0000 0.0000 0.0000
# 3 51.9570 40.7533 127.5889 0.0000 0.0000 0.0000
# 4 0.0000 0.0000 0.0000 41.0735 0.0000 0.0000
# 5 0.0000 0.0000 0.0000 0.0000 24.0405 0.0000
# 6 0.0000 0.0000 0.0000 0.0000 0.0000 28.2109
#
#
#
# Elastic Compliance Matrix: (Units=1/GPa)
#
#
# Indices 1 2 3 4 5 6 
#
# 1 0.010321 -0.005267 -0.002521 0.000000 0.000000 0.000000
# 2 -0.005267 0.018869 -0.003882 0.000000 0.000000 0.000000
# 3 -0.002521 -0.003882 0.010104 0.000000 0.000000 0.000000
# 4 0.000000 0.000000 0.000000 0.024347 0.000000 0.000000
# 5 0.000000 0.000000 0.000000 0.000000 0.041596 0.000000
# 6 0.000000 0.000000 0.000000 0.000000 0.000000 0.035447
#
#
# Mechanical properties :
#
#
# Convention : Reuss Voigt Hill
#
# Bulk Modulus (GPa) = 62.67689 68.69175 65.68432
# Shear Modulus (GPa) = 29.52604 31.71180 30.61892
#
# Velocity S-wave (km/s) = 3.76551 3.90240 3.83457
# Velocity P-wave (km/s) = 7.00031 7.30016 7.15181
#
# Compressibility (1/GPa) = 0.01595484
#
# Stress axis : x y z
#
# Youngs Moduli (GPa) = 96.88766 52.99774 98.96873
#
# Poissons Ratio (x) = 0.27912 0.24948
# Poissons Ratio (y) = 0.51028 0.38421
# Poissons Ratio (z) = 0.24423 0.20575
#
# Static dielectric constant tensor:
#      x y z
#    x 3.951540 0.000000 0.000000 
#    y 0.000000 3.636380 0.000000 
#    z 0.000000 0.000000 3.819750 
# 
# 
# High freq. dielectric constant tensor:
#      x y z
#    x 1.824560 0.000000 0.000000 
#    y 0.000000 1.808820 0.000000 
#    z 0.000000 0.000000 1.824800 
# 
# From -- ./inp_files/6818.got.cif
#   From: 2010.03.12/outbox.cif.g09.slc.cpg/sg33_4_cif.got.tgz:6818.got - 2010.04.14 01:49:19.
