data_PCOD8171343
_publ_section_title
;
Structure prediction by ZEFSAII (Michael W. Deem and Ramdas Pophale) SiO2 
 PCOD8171343
Probable space group: P N A 21
;
_chemical_formula_sum "Si O2"
_cell_formula_units_Z 32
_cell_length_a 8.680182
_cell_length_b 11.718726
_cell_length_c 14.630477
_cell_angle_alpha 90.000000
_cell_angle_beta 90.000000
_cell_angle_gamma 90.000000
_cell_volume 1488.221989
_symmetry_space_group_name_H-M "P N A 21"
_symmetry_group_IT_number 33
_symmetry_cell_setting 'orthorhombic'
loop_
_space_group_symop_operation_xyz
x,y,z
-x,-y,1/2+z
1/2-x,1/2+y,1/2+z
1/2+x,1/2-y,z
loop_
_atom_site_type_symbol
_atom_site_label
_atom_site_fract_x
_atom_site_fract_y
_atom_site_fract_z
Si Si1 0.140687 0.729402 0.948270
Si Si2 0.103347 0.266202 0.580110
Si Si3 0.525198 0.398681 0.003651
Si Si4 0.509796 0.006001 0.663630
Si Si5 0.879619 0.340971 0.022337
Si Si6 0.625603 0.552391 0.848508
Si Si7 0.979314 0.511621 0.874118
Si Si8 0.846696 0.965518 0.152518
O O1 0.078146 0.817939 0.871891
O O2 0.100523 0.602600 0.914154
O O3 0.317285 0.748106 0.979399
O O4 0.072682 0.752094 0.049804
O O5 0.142218 0.172499 0.657249
O O6 0.116084 0.394615 0.619176
O O7 0.459950 0.491121 0.074038
O O8 0.697395 0.358230 0.023162
O O9 0.409991 0.292311 0.008063
O O10 0.526590 0.460598 0.905483
O O11 0.331539 0.009189 0.635072
O O12 0.566965 0.885661 0.622223
O O13 0.534710 0.018233 0.772054
O O14 0.976119 0.403207 0.941690
O O15 0.805539 0.554429 0.871783
O O16 0.591874 0.524042 0.744125
#
# Coordination Sequence:
#
# PCOD8171343 Si02
#       8
#     4   4   4   4   4   4   4   4
#     4  12  21  43  67  94 127 171 221 274 329 389
#     4  12  22  40  70  94 126 171 221 276 330 387
#     4  11  24  43  65  92 133 174 211 268 327 389
#     4  11  24  43  67  96 129 173 220 272 327 391
#     4  11  23  44  63  92 133 172 213 266 329 388
#     4  10  23  42  65  95 130 170 220 269 323 390
#     4  10  23  43  67  93 128 172 219 270 326 388
#     4  11  24  42  66  96 132 171 221 271 325 388
#
# _framework density 21.50217
#
# number of rings (size 3 to 8) (size 9 to 14) (size 15 to 20)
#    0.000    1.000    5.000    1.500    3.500    0.000 
#    2.250    0.000    0.000    0.000    0.000    0.000 
#    0.000    0.000    0.000    0.000    0.000    0.000 
#
# Total GULP energy -396592.188851 kJ/mol
# GULP energy per Si atom -12393.505902 kJ/mol
# Density = 2.145323 g / cm^3
# Si number density = 21.502170 Si / 1000 Ang^3
#
#
#
# Elastic Constant Matrix: (Units=GPa)
#
#
# Indices 1 2 3 4 5 6 
#
# 1 60.5869 23.5872 25.7080 0.0000 0.0000 0.0000
# 2 23.5872 108.2273 24.9026 0.0000 0.0000 0.0000
# 3 25.7080 24.9026 104.2364 0.0000 0.0000 0.0000
# 4 0.0000 0.0000 0.0000 34.7413 0.0000 0.0000
# 5 0.0000 0.0000 0.0000 0.0000 31.3768 0.0000
# 6 0.0000 0.0000 0.0000 0.0000 0.0000 32.6108
#
#
#
# Elastic Compliance Matrix: (Units=1/GPa)
#
#
# Indices 1 2 3 4 5 6 
#
# 1 0.019504 -0.003327 -0.004016 0.000000 0.000000 0.000000
# 2 -0.003327 0.010345 -0.001651 0.000000 0.000000 0.000000
# 3 -0.004016 -0.001651 0.010978 0.000000 0.000000 0.000000
# 4 0.000000 0.000000 0.000000 0.028784 0.000000 0.000000
# 5 0.000000 0.000000 0.000000 0.000000 0.031871 0.000000
# 6 0.000000 0.000000 0.000000 0.000000 0.000000 0.030665
#
#
# Mechanical properties :
#
#
# Convention : Reuss Voigt Hill
#
# Bulk Modulus (GPa) = 43.78143 46.82737 45.30440
# Shear Modulus (GPa) = 31.69632 33.00265 32.34948
#
# Velocity S-wave (km/s) = 3.84356 3.92197 3.88296
# Velocity P-wave (km/s) = 6.33269 6.50649 6.42017
#
# Compressibility (1/GPa) = 0.02284073
#
# Stress axis : x y z
#
# Youngs Moduli (GPa) = 51.27081 96.66751 91.08825
#
# Poissons Ratio (x) = 0.32160 0.36577
# Poissons Ratio (y) = 0.17057 0.15038
# Poissons Ratio (z) = 0.20588 0.15959
#
# Static dielectric constant tensor:
#      x y z
#    x 3.794080 0.000000 0.000000 
#    y 0.000000 3.884280 0.000000 
#    z 0.000000 0.000000 3.941690 
# 
# 
# High freq. dielectric constant tensor:
#      x y z
#    x 1.848180 0.000000 0.000000 
#    y 0.000000 1.848980 0.000000 
#    z 0.000000 0.000000 1.837760 
# 
# From -- ./inp_files/7702.got.cif
#   From: 2010.03.12/outbox.cif.g09.slc.cpg/sg33_4_cif.got.tgz:7702.got - 2010.04.14 01:49:19.
