data_PCOD8171520
_publ_section_title
;
Structure prediction by ZEFSAII (Michael W. Deem and Ramdas Pophale) SiO2 
 PCOD8171520
Probable space group: P N A 21
;
_chemical_formula_sum "Si O2"
_cell_formula_units_Z 32
_cell_length_a 12.945202
_cell_length_b 10.518050
_cell_length_c 12.739741
_cell_angle_alpha 90.000000
_cell_angle_beta 90.000000
_cell_angle_gamma 90.000000
_cell_volume 1734.621246
_symmetry_space_group_name_H-M "P N A 21"
_symmetry_group_IT_number 33
_symmetry_cell_setting 'orthorhombic'
loop_
_space_group_symop_operation_xyz
x,y,z
-x,-y,1/2+z
1/2-x,1/2+y,1/2+z
1/2+x,1/2-y,z
loop_
_atom_site_type_symbol
_atom_site_label
_atom_site_fract_x
_atom_site_fract_y
_atom_site_fract_z
Si Si1 0.625130 0.363623 0.288240
Si Si2 0.355655 0.117191 0.222937
Si Si3 0.500000 0.426524 0.896987
Si Si4 0.374870 0.363623 0.505734
Si Si5 0.045443 0.138732 0.673118
Si Si6 0.355655 0.882809 0.071037
Si Si7 0.545443 0.638732 0.620857
Si Si8 0.500000 0.156229 0.396987
O O1 0.746931 0.360645 0.277541
O O2 0.594081 0.487062 0.355747
O O3 0.567656 0.361008 0.175363
O O4 0.593548 0.240456 0.353443
O O5 0.384281 0.248875 0.165660
O O6 0.445143 0.075057 0.305583
O O7 0.345068 1.000000 0.146988
O O8 0.536940 0.340387 0.798855
O O9 0.594081 0.512939 0.938227
O O10 0.463060 0.340387 0.995120
O O11 0.432344 0.361008 0.618611
O O12 0.253069 0.360645 0.516433
O O13 0.406452 0.240456 0.440531
O O14 0.115719 0.251124 0.628314
O O15 0.096290 1.000000 0.646987
O O16 0.445143 0.924943 0.988391
#
# Coordination Sequence:
#
# PCOD8171520 Si02
#       8
#     4   4   4   4   4   4   4   4
#     4   9  18  36  57  74 101 143 182 206 250 320
#     4  11  21  35  54  80 110 137 169 215 266 311
#     4   9  16  33  58  78  96 132 184 226 246 288
#     4   9  18  36  57  74 101 143 182 206 250 320
#     4   9  19  35  54  77 103 137 179 218 251 302
#     4  11  21  35  54  80 110 137 169 215 266 311
#     4   9  19  35  54  77 103 137 179 218 251 302
#     4   9  20  35  54  76 104 144 176 206 256 318
#
# _framework density 18.447831000000001
#
# number of rings (size 3 to 8) (size 9 to 14) (size 15 to 20)
#    0.000    2.500    0.000    4.500    0.000    1.000 
#    0.000   15.000    0.000    0.000    0.000    0.000 
#    0.000    0.000    0.000    0.000    0.000    0.000 
#
# Total GULP energy -396619.366151 kJ/mol
# GULP energy per Si atom -12394.355192 kJ/mol
# Density = 1.840584 g / cm^3
# Si number density = 18.447831 Si / 1000 Ang^3
#
#
#
# Elastic Constant Matrix: (Units=GPa)
#
#
# Indices 1 2 3 4 5 6 
#
# 1 116.4646 28.1979 35.6436 0.0000 0.0000 0.0000
# 2 28.1979 50.9917 6.3841 0.0000 0.0000 0.0000
# 3 35.6436 6.3841 112.9901 0.0000 0.0000 0.0000
# 4 0.0000 0.0000 0.0000 -238.1299 0.0000 0.0000
# 5 0.0000 0.0000 0.0000 0.0000 25.1154 0.0000
# 6 0.0000 0.0000 0.0000 0.0000 0.0000 16.5052
#
#
#
# Elastic Compliance Matrix: (Units=1/GPa)
#
#
# Indices 1 2 3 4 5 6 
#
# 1 0.010908 -0.005641 -0.003122 0.000000 0.000000 0.000000
# 2 -0.005641 0.022668 0.000499 0.000000 0.000000 0.000000
# 3 -0.003122 0.000499 0.009807 0.000000 0.000000 0.000000
# 4 0.000000 0.000000 0.000000 -0.004199 0.000000 0.000000
# 5 0.000000 0.000000 0.000000 0.000000 0.039816 0.000000
# 6 0.000000 0.000000 0.000000 0.000000 0.000000 0.060587
#
#
# Mechanical properties :
#
#
# Convention : Reuss Voigt Hill
#
# Bulk Modulus (GPa) = 37.23857 46.76641 42.00249
# Shear Modulus (GPa) = 30.29083 -25.28715 2.50184
#
# Velocity S-wave (km/s) = 4.05652 -3.70637 1.16581
# Velocity P-wave (km/s) = 6.49386 2.66261 4.96285
#
# Compressibility (1/GPa) = 0.02685388
#
# Stress axis : x y z
#
# Youngs Moduli (GPa) = 91.67940 44.11514 101.96723
#
# Poissons Ratio (x) = 0.24885 0.31836
# Poissons Ratio (y) = 0.51715 -0.05085
# Poissons Ratio (z) = 0.28624 -0.02200
#
# Static dielectric constant tensor:
#      x y z
#    x 3.166220 0.000000 0.000000 
#    y 0.000000 3.285620 0.000000 
#    z 0.000000 0.000000 3.753540 
# 
# 
# High freq. dielectric constant tensor:
#      x y z
#    x 1.700140 0.000000 0.000000 
#    y 0.000000 1.693650 0.000000 
#    z 0.000000 0.000000 1.735410 
# 
# From -- ./inp_files/6475.got.cif
#   From: 2010.03.12/outbox.cif.g09.slc.cpg/sg33_4_cif.got.tgz:6475.got - 2010.04.14 01:49:19.
