data_PCOD8171349
_publ_section_title
;
Structure prediction by ZEFSAII (Michael W. Deem and Ramdas Pophale) SiO2 
 PCOD8171349
Probable space group: P N A 21
;
_chemical_formula_sum "Si O2"
_cell_formula_units_Z 28
_cell_length_a 22.262115
_cell_length_b 6.559973
_cell_length_c 8.489135
_cell_angle_alpha 90.000000
_cell_angle_beta 90.000000
_cell_angle_gamma 90.000000
_cell_volume 1239.743711
_symmetry_space_group_name_H-M "P N A 21"
_symmetry_group_IT_number 33
_symmetry_cell_setting 'orthorhombic'
loop_
_space_group_symop_operation_xyz
x,y,z
-x,-y,1/2+z
1/2-x,1/2+y,1/2+z
1/2+x,1/2-y,z
loop_
_atom_site_type_symbol
_atom_site_label
_atom_site_fract_x
_atom_site_fract_y
_atom_site_fract_z
Si Si1 0.332364 0.376842 0.751350
Si Si2 0.593790 0.978349 0.197288
Si Si3 0.515079 0.310101 0.701248
Si Si4 0.939655 0.866796 0.867987
Si Si5 0.708915 0.499817 0.933838
Si Si6 0.777925 0.385111 0.226858
Si Si7 0.626155 0.142157 0.866370
O O1 0.375952 0.539226 0.828401
O O2 0.334719 0.388038 0.559490
O O3 0.265940 0.443786 0.809819
O O4 0.353237 0.145704 0.790588
O O5 0.561344 0.132876 0.314738
O O6 0.542827 0.817425 0.145118
O O7 0.623992 0.092009 0.051058
O O8 0.553815 0.379684 0.553833
O O9 0.494790 0.515310 0.788485
O O10 0.557938 0.178940 0.814040
O O11 0.733917 0.662381 0.805008
O O12 0.668592 0.337940 0.839344
O O13 0.762542 0.388143 0.038032
O O14 0.845915 0.456416 0.263372
#
# Coordination Sequence:
#
# PCOD8171349 Si02
#       7
#     4   4   4   4   4   4   4
#     4   9  22  41  65  94 133 179 221 283 345 408
#     4  11  21  44  70  94 136 183 225 290 351 419
#     4  11  27  40  69 101 133 182 231 289 353 421
#     4  11  23  43  65  95 139 173 233 283 352 414
#     4  10  23  42  67  97 139 182 223 292 344 429
#     4  10  23  42  67  99 139 176 234 281 357 426
#     4  12  23  42  71  98 135 183 229 288 358 419
#
# _framework density 22.585314
#
# number of rings (size 3 to 8) (size 9 to 14) (size 15 to 20)
#    0.857    0.571    2.857    1.714    4.000    5.714 
#    0.000    0.000    0.000    0.000    0.000    0.000 
#    0.000    0.000    0.000    0.000    0.000    0.000 
#
# Total GULP energy -347063.903466 kJ/mol
# GULP energy per Si atom -12395.139410 kJ/mol
# Density = 2.253391 g / cm^3
# Si number density = 22.585314 Si / 1000 Ang^3
#
#
#
# Elastic Constant Matrix: (Units=GPa)
#
#
# Indices 1 2 3 4 5 6 
#
# 1 71.1625 28.6344 3.1634 0.0000 0.0000 0.0000
# 2 28.6344 106.2767 32.3287 0.0000 0.0000 0.0000
# 3 3.1634 32.3287 53.5675 0.0000 0.0000 0.0000
# 4 0.0000 0.0000 0.0000 32.3728 0.0000 0.0000
# 5 0.0000 0.0000 0.0000 0.0000 34.7493 0.0000
# 6 0.0000 0.0000 0.0000 0.0000 0.0000 48.4028
#
#
#
# Elastic Compliance Matrix: (Units=1/GPa)
#
#
# Indices 1 2 3 4 5 6 
#
# 1 0.015938 -0.004909 0.002021 0.000000 0.000000 0.000000
# 2 -0.004909 0.013037 -0.007578 0.000000 0.000000 0.000000
# 3 0.002021 -0.007578 0.023122 0.000000 0.000000 0.000000
# 4 0.000000 0.000000 0.000000 0.030890 0.000000 0.000000
# 5 0.000000 0.000000 0.000000 0.000000 0.028778 0.000000
# 6 0.000000 0.000000 0.000000 0.000000 0.000000 0.020660
#
#
# Mechanical properties :
#
#
# Convention : Reuss Voigt Hill
#
# Bulk Modulus (GPa) = 32.08664 39.91775 36.00220
# Shear Modulus (GPa) = 30.53522 34.23033 32.38277
#
# Velocity S-wave (km/s) = 3.68094 3.89730 3.79066
# Velocity P-wave (km/s) = 5.68361 6.16153 5.92739
#
# Compressibility (1/GPa) = 0.03116562
#
# Stress axis : x y z
#
# Youngs Moduli (GPa) = 62.74387 76.70279 43.24836
#
# Poissons Ratio (x) = 0.37654 -0.08743
# Poissons Ratio (y) = 0.30802 0.32775
# Poissons Ratio (z) = -0.12684 0.58128
#
# Static dielectric constant tensor:
#      x y z
#    x 3.959250 0.000000 0.000000 
#    y 0.000000 4.105850 0.000000 
#    z 0.000000 0.000000 3.782730 
# 
# 
# High freq. dielectric constant tensor:
#      x y z
#    x 1.892920 0.000000 0.000000 
#    y 0.000000 1.896360 0.000000 
#    z 0.000000 0.000000 1.871350 
# 
# From -- ./inp_files/5145.got.cif
#   From: 2010.03.12/outbox.cif.g09.slc.cpg/sg33_3_cif.got.tgz:5145.got - 2010.04.14 01:49:19.
