data_PCOD8171037
_publ_section_title
;
Structure prediction by ZEFSAII (Michael W. Deem and Ramdas Pophale) SiO2 
 PCOD8171037
Probable space group: P N A 21
;
_chemical_formula_sum "Si O2"
_cell_formula_units_Z 28
_cell_length_a 23.250003
_cell_length_b 5.151656
_cell_length_c 11.099703
_cell_angle_alpha 90.000000
_cell_angle_beta 90.000000
_cell_angle_gamma 90.000000
_cell_volume 1329.478220
_symmetry_space_group_name_H-M "P N A 21"
_symmetry_group_IT_number 33
_symmetry_cell_setting 'orthorhombic'
loop_
_space_group_symop_operation_xyz
x,y,z
-x,-y,1/2+z
1/2-x,1/2+y,1/2+z
1/2+x,1/2-y,z
loop_
_atom_site_type_symbol
_atom_site_label
_atom_site_fract_x
_atom_site_fract_y
_atom_site_fract_z
Si Si1 0.416659 0.057347 0.147600
Si Si2 0.133943 0.065386 0.539205
Si Si3 0.545641 0.067597 0.220830
Si Si4 0.769963 0.971356 0.222809
Si Si5 0.152000 0.613944 0.107167
Si Si6 0.178881 0.525003 0.834137
Si Si7 0.903098 0.069099 0.789569
O O1 0.404564 0.349513 0.105560
O O2 0.484219 0.020296 0.162906
O O3 0.384095 0.003053 0.273916
O O4 0.396045 0.845926 0.050166
O O5 0.197175 0.081852 0.596834
O O6 0.140476 0.991479 0.398975
O O7 0.548596 0.345411 0.285134
O O8 0.596189 0.072943 0.118652
O O9 0.560970 0.835029 0.314584
O O10 0.702565 0.978870 0.196090
O O11 0.788075 0.750515 0.320373
O O12 0.784023 0.256291 0.269254
O O13 0.132783 0.895762 0.163602
O O14 0.172385 0.619009 0.970799
#
# Coordination Sequence:
#
# PCOD8171037 Si02
#       7
#     4   4   4   4   4   4   4
#     4  10  21  43  62  91 123 164 212 251 313 376
#     4  10  21  40  64  87 124 163 209 255 309 372
#     4  10  23  39  60  96 124 162 208 256 316 372
#     4  10  24  40  63  91 122 165 209 253 310 373
#     4  10  26  39  65  92 130 160 211 254 322 367
#     4  10  24  42  64  90 123 168 203 260 309 370
#     4  10  23  39  58  97 120 160 204 255 317 364
#
# _framework density 21.060893
#
# number of rings (size 3 to 8) (size 9 to 14) (size 15 to 20)
#    0.857    1.143    0.000    1.714    6.000    2.286 
#    2.571    0.000    0.000    0.000    0.000    0.000 
#    0.000    0.000    0.000    0.000    0.000    0.000 
#
# Total GULP energy -347000.046613 kJ/mol
# GULP energy per Si atom -12392.858808 kJ/mol
# Density = 2.101296 g / cm^3
# Si number density = 21.060893 Si / 1000 Ang^3
#
#
#
# Elastic Constant Matrix: (Units=GPa)
#
#
# Indices 1 2 3 4 5 6 
#
# 1 122.2602 16.8447 15.8028 0.0000 0.0000 0.0000
# 2 16.8447 112.6658 10.0561 0.0000 0.0000 0.0000
# 3 15.8028 10.0561 93.7202 0.0000 0.0000 0.0000
# 4 0.0000 0.0000 0.0000 25.9078 0.0000 0.0000
# 5 0.0000 0.0000 0.0000 0.0000 14.4461 0.0000
# 6 0.0000 0.0000 0.0000 0.0000 0.0000 21.2034
#
#
#
# Elastic Compliance Matrix: (Units=1/GPa)
#
#
# Indices 1 2 3 4 5 6 
#
# 1 0.008508 -0.001155 -0.001311 0.000000 0.000000 0.000000
# 2 -0.001155 0.009118 -0.000784 0.000000 0.000000 0.000000
# 3 -0.001311 -0.000784 0.010975 0.000000 0.000000 0.000000
# 4 0.000000 0.000000 0.000000 0.038598 0.000000 0.000000
# 5 0.000000 0.000000 0.000000 0.000000 0.069223 0.000000
# 6 0.000000 0.000000 0.000000 0.000000 0.000000 0.047162
#
#
# Mechanical properties :
#
#
# Convention : Reuss Voigt Hill
#
# Bulk Modulus (GPa) = 45.24314 46.00594 45.62454
# Shear Modulus (GPa) = 25.32274 31.37431 28.34852
#
# Velocity S-wave (km/s) = 3.47127 3.86384 3.67280
# Velocity P-wave (km/s) = 6.13147 6.46509 6.30049
#
# Compressibility (1/GPa) = 0.02210280
#
# Stress axis : x y z
#
# Youngs Moduli (GPa) = 117.53897 109.66791 91.11509
#
# Poissons Ratio (x) = 0.12667 0.11942
# Poissons Ratio (y) = 0.13576 0.07140
# Poissons Ratio (z) = 0.15405 0.08594
#
# Static dielectric constant tensor:
#      x y z
#    x 3.654910 0.000000 0.000000 
#    y 0.000000 3.945180 0.000000 
#    z 0.000000 0.000000 3.546020 
# 
# 
# High freq. dielectric constant tensor:
#      x y z
#    x 1.820280 0.000000 0.000000 
#    y 0.000000 1.838460 0.000000 
#    z 0.000000 0.000000 1.804350 
# 
# From -- ./inp_files/7295.got.cif
#   From: 2010.03.12/outbox.cif.g09.slc.cpg/sg33_4_cif.got.tgz:7295.got - 2010.04.14 01:49:19.
