data_PCOD8171771
_publ_section_title
;
Structure prediction by ZEFSAII (Michael W. Deem and Ramdas Pophale) SiO2 
 PCOD8171771
Probable space group: P N A 21
;
_chemical_formula_sum "Si O2"
_cell_formula_units_Z 32
_cell_length_a 9.010687
_cell_length_b 11.417072
_cell_length_c 13.953036
_cell_angle_alpha 90.000000
_cell_angle_beta 90.000000
_cell_angle_gamma 90.000000
_cell_volume 1435.427819
_symmetry_space_group_name_H-M "P N A 21"
_symmetry_group_IT_number 33
_symmetry_cell_setting 'orthorhombic'
loop_
_space_group_symop_operation_xyz
x,y,z
-x,-y,1/2+z
1/2-x,1/2+y,1/2+z
1/2+x,1/2-y,z
loop_
_atom_site_type_symbol
_atom_site_label
_atom_site_fract_x
_atom_site_fract_y
_atom_site_fract_z
Si Si1 0.872819 0.921927 0.468800
Si Si2 0.056799 0.141180 0.757317
Si Si3 0.223409 0.359372 0.703367
Si Si4 0.658514 0.491343 0.569433
Si Si5 0.369815 0.158749 0.435065
Si Si6 0.665308 0.221252 0.114767
Si Si7 0.620865 0.883553 0.717260
Si Si8 0.695834 0.137916 0.495234
O O1 0.894682 0.916652 0.355932
O O2 0.860998 0.793950 0.516619
O O3 0.000522 0.997691 0.518796
O O4 0.723098 0.998743 0.482817
O O5 0.109953 0.275763 0.759859
O O6 0.879222 0.132830 0.757673
O O7 0.137162 0.075078 0.669982
O O8 0.144989 0.483484 0.686313
O O9 0.252103 0.310761 0.596998
O O10 0.765460 0.427385 0.495035
O O11 0.719777 0.619645 0.591257
O O12 0.407502 0.110916 0.330165
O O13 0.523722 0.168810 0.490448
O O14 0.292482 0.285509 0.420448
O O15 0.514770 0.168960 0.157063
O O16 0.732354 0.308559 0.194269
#
# Coordination Sequence:
#
# PCOD8171771 Si02
#       8
#     4   4   4   4   4   4   4   4
#     4  12  28  48  76 105 154 195 246 302 376 444
#     4  12  29  47  78 108 148 197 248 305 372 441
#     4  12  26  51  71 107 147 192 244 305 367 434
#     4  12  26  50  71 107 152 194 240 309 369 434
#     4  12  27  42  78 108 144 192 248 301 364 442
#     4  12  27  49  72 108 149 194 240 309 368 438
#     4  12  27  48  76 108 149 192 246 300 370 441
#     4  12  24  49  70 107 143 194 240 305 364 432
#
# _framework density 22.293005999999998
#
# number of rings (size 3 to 8) (size 9 to 14) (size 15 to 20)
#    0.000    0.000    5.000    3.750    8.750    0.000 
#    0.000    0.000    0.000    0.000    0.000    0.000 
#    0.000    0.000    0.000    0.000    0.000    0.000 
#
# Total GULP energy -396958.000195 kJ/mol
# GULP energy per Si atom -12404.937506 kJ/mol
# Density = 2.224227 g / cm^3
# Si number density = 22.293006 Si / 1000 Ang^3
#
#
#
# Elastic Constant Matrix: (Units=GPa)
#
#
# Indices 1 2 3 4 5 6 
#
# 1 93.5123 45.4117 4.1131 0.0000 0.0000 0.0000
# 2 45.4117 123.7184 24.9174 0.0000 0.0000 0.0000
# 3 4.1131 24.9174 109.3729 0.0000 0.0000 0.0000
# 4 0.0000 0.0000 0.0000 29.9841 0.0000 0.0000
# 5 0.0000 0.0000 0.0000 0.0000 22.9013 0.0000
# 6 0.0000 0.0000 0.0000 0.0000 0.0000 46.2043
#
#
#
# Elastic Compliance Matrix: (Units=1/GPa)
#
#
# Indices 1 2 3 4 5 6 
#
# 1 0.013055 -0.004919 0.000630 0.000000 0.000000 0.000000
# 2 -0.004919 0.010325 -0.002167 0.000000 0.000000 0.000000
# 3 0.000630 -0.002167 0.009613 0.000000 0.000000 0.000000
# 4 0.000000 0.000000 0.000000 0.033351 0.000000 0.000000
# 5 0.000000 0.000000 0.000000 0.000000 0.043666 0.000000
# 6 0.000000 0.000000 0.000000 0.000000 0.000000 0.021643
#
#
# Mechanical properties :
#
#
# Convention : Reuss Voigt Hill
#
# Bulk Modulus (GPa) = 49.80051 52.83200 51.31626
# Shear Modulus (GPa) = 33.05610 36.62870 34.84240
#
# Velocity S-wave (km/s) = 3.85489 4.05786 3.95768
# Velocity P-wave (km/s) = 6.49624 6.76057 6.62973
#
# Compressibility (1/GPa) = 0.02008011
#
# Stress axis : x y z
#
# Youngs Moduli (GPa) = 76.60081 96.85437 104.02472
#
# Poissons Ratio (x) = 0.47639 -0.06550
# Poissons Ratio (y) = 0.37677 0.22545
# Poissons Ratio (z) = -0.04823 0.20991
#
# Static dielectric constant tensor:
#      x y z
#    x 4.029430 0.000000 0.000000 
#    y 0.000000 4.125250 0.000000 
#    z 0.000000 0.000000 3.992160 
# 
# 
# High freq. dielectric constant tensor:
#      x y z
#    x 1.886110 0.000000 0.000000 
#    y 0.000000 1.892260 0.000000 
#    z 0.000000 0.000000 1.885710 
# 
# From -- ./inp_files/7660.got.cif
#   From: 2010.03.12/outbox.cif.g09.slc.cpg/sg33_4_cif.got.tgz:7660.got - 2010.04.14 01:49:19.
