data_PCOD8171535
_publ_section_title
;
Structure prediction by ZEFSAII (Michael W. Deem and Ramdas Pophale) SiO2 
 PCOD8171535
Probable space group: P N A 21
;
_chemical_formula_sum "Si O2"
_cell_formula_units_Z 32
_cell_length_a 28.872849
_cell_length_b 6.509156
_cell_length_c 8.127064
_cell_angle_alpha 90.000000
_cell_angle_beta 90.000000
_cell_angle_gamma 90.000000
_cell_volume 1527.383165
_symmetry_space_group_name_H-M "P N A 21"
_symmetry_group_IT_number 33
_symmetry_cell_setting 'orthorhombic'
loop_
_space_group_symop_operation_xyz
x,y,z
-x,-y,1/2+z
1/2-x,1/2+y,1/2+z
1/2+x,1/2-y,z
loop_
_atom_site_type_symbol
_atom_site_label
_atom_site_fract_x
_atom_site_fract_y
_atom_site_fract_z
Si Si1 0.713064 0.282157 0.338280
Si Si2 0.077529 0.379252 0.638387
Si Si3 0.208630 0.917716 0.627323
Si Si4 0.152695 0.599693 0.419809
Si Si5 0.125123 0.040481 0.823311
Si Si6 0.540387 0.444742 0.400281
Si Si7 0.956832 0.205774 0.186105
Si Si8 0.369987 0.455978 0.701911
O O1 0.754336 0.231746 0.212480
O O2 0.730025 0.411548 0.500289
O O3 0.675618 0.414771 0.241627
O O4 0.693060 0.061966 0.387048
O O5 0.110258 0.485903 0.504262
O O6 0.106909 0.270743 0.783812
O O7 0.044505 0.219350 0.547043
O O8 0.044104 0.550374 0.718644
O O9 0.172221 0.778614 0.532809
O O10 0.178801 0.033829 0.767179
O O11 0.136030 0.715796 0.252235
O O12 0.094326 0.880463 0.721536
O O13 0.120173 0.976043 0.010691
O O14 0.532953 0.662750 0.492479
O O15 0.495244 0.401085 0.296066
O O16 0.586540 0.441592 0.292476
#
# Coordination Sequence:
#
# PCOD8171535 Si02
#       8
#     4   4   4   4   4   4   4   4
#     4  11  25  42  64  95 125 169 217 268 321 393
#     4  11  21  44  68  88 130 174 213 264 328 389
#     4  11  25  41  65  93 128 167 217 267 329 384
#     4  11  21  45  67  86 130 174 206 267 330 380
#     4  11  24  42  64  97 129 167 216 267 321 395
#     4  11  23  41  66  94 130 166 217 269 319 393
#     4  11  23  43  66  95 130 171 211 269 329 379
#     4  11  24  42  64  96 130 168 215 265 327 387
#
# _framework density 20.950866999999999
#
# number of rings (size 3 to 8) (size 9 to 14) (size 15 to 20)
#    0.000    1.000    5.000    2.250    3.500    6.000 
#    2.250    0.000    0.000    0.000    0.000    0.000 
#    0.000    0.000    0.000    0.000    0.000    0.000 
#
# Total GULP energy -396776.629053 kJ/mol
# GULP energy per Si atom -12399.269658 kJ/mol
# Density = 2.090318 g / cm^3
# Si number density = 20.950867 Si / 1000 Ang^3
#
#
#
# Elastic Constant Matrix: (Units=GPa)
#
#
# Indices 1 2 3 4 5 6 
#
# 1 81.0886 14.4015 26.7239 0.0000 0.0000 0.0000
# 2 14.4015 95.5690 30.0656 0.0000 0.0000 0.0000
# 3 26.7239 30.0656 111.9653 0.0000 0.0000 0.0000
# 4 0.0000 0.0000 0.0000 33.1459 0.0000 0.0000
# 5 0.0000 0.0000 0.0000 0.0000 28.7751 0.0000
# 6 0.0000 0.0000 0.0000 0.0000 0.0000 28.1697
#
#
#
# Elastic Compliance Matrix: (Units=1/GPa)
#
#
# Indices 1 2 3 4 5 6 
#
# 1 0.013493 -0.001114 -0.002921 0.000000 0.000000 0.000000
# 2 -0.001114 0.011521 -0.002828 0.000000 0.000000 0.000000
# 3 -0.002921 -0.002828 0.010388 0.000000 0.000000 0.000000
# 4 0.000000 0.000000 0.000000 0.030170 0.000000 0.000000
# 5 0.000000 0.000000 0.000000 0.000000 0.034752 0.000000
# 6 0.000000 0.000000 0.000000 0.000000 0.000000 0.035499
#
#
# Mechanical properties :
#
#
# Convention : Reuss Voigt Hill
#
# Bulk Modulus (GPa) = 46.13543 47.88944 47.01244
# Shear Modulus (GPa) = 31.89290 32.51359 32.20325
#
# Velocity S-wave (km/s) = 3.90586 3.94369 3.92482
# Velocity P-wave (km/s) = 6.51226 6.60640 6.55950
#
# Compressibility (1/GPa) = 0.02167531
#
# Stress axis : x y z
#
# Youngs Moduli (GPa) = 74.11340 86.79678 96.26564
#
# Poissons Ratio (x) = 0.09671 0.28122
# Poissons Ratio (y) = 0.08258 0.27222
# Poissons Ratio (z) = 0.21651 0.24544
#
# Static dielectric constant tensor:
#      x y z
#    x 3.720600 0.000000 0.000000 
#    y 0.000000 4.129530 0.000000 
#    z 0.000000 0.000000 3.843860 
# 
# 
# High freq. dielectric constant tensor:
#      x y z
#    x 1.819680 0.000000 0.000000 
#    y 0.000000 1.830340 0.000000 
#    z 0.000000 0.000000 1.818950 
# 
# From -- ./inp_files/5331.got.cif
#   From: 2010.03.12/outbox.cif.g09.slc.cpg/sg33_3_cif.got.tgz:5331.got - 2010.04.14 01:49:19.
