data_PCOD8171328
_publ_section_title
;
Structure prediction by ZEFSAII (Michael W. Deem and Ramdas Pophale) SiO2 
 PCOD8171328
Probable space group: P N A 21
;
_chemical_formula_sum "Si O2"
_cell_formula_units_Z 24
_cell_length_a 5.006385
_cell_length_b 16.646143
_cell_length_c 11.666205
_cell_angle_alpha 90.000000
_cell_angle_beta 90.000000
_cell_angle_gamma 90.000000
_cell_volume 972.226533
_symmetry_space_group_name_H-M "P N A 21"
_symmetry_group_IT_number 33
_symmetry_cell_setting 'orthorhombic'
loop_
_space_group_symop_operation_xyz
x,y,z
-x,-y,1/2+z
1/2-x,1/2+y,1/2+z
1/2+x,1/2-y,z
loop_
_atom_site_type_symbol
_atom_site_label
_atom_site_fract_x
_atom_site_fract_y
_atom_site_fract_z
Si Si1 0.613470 0.412963 0.069000
Si Si2 0.895723 0.929165 0.191062
Si Si3 0.116453 0.494676 0.389412
Si Si4 0.401362 0.308364 0.876688
Si Si5 0.702211 0.796063 0.753797
Si Si6 0.627317 0.395802 0.449189
O O1 0.514468 0.498202 0.114683
O O2 0.735930 0.372660 0.179078
O O3 0.844461 0.431742 0.976783
O O4 0.409127 0.353690 0.000638
O O5 0.083105 0.876539 0.275861
O O6 0.652761 0.968604 0.261766
O O7 0.812782 0.873518 0.082836
O O8 0.324417 0.421249 0.414344
O O9 0.812294 0.468120 0.401702
O O10 0.628218 0.240424 0.865257
O O11 0.393785 0.778975 0.725598
O O12 0.779891 0.815525 0.884642
#
# Coordination Sequence:
#
# PCOD8171328 Si02
#       6
#     4   4   4   4   4   4
#     4  10  23  44  73 104 137 184 245 293 350 428
#     4  10  24  44  76 102 140 191 241 295 347 435
#     4  10  23  41  67 101 130 172 233 299 339 404
#     4  11  26  48  71 107 148 188 237 300 371 424
#     4  12  26  42  65  96 142 184 223 286 357 416
#     4  11  24  41  64  98 137 175 233 283 346 413
#
# _framework density 24.685601999999999
#
# number of rings (size 3 to 8) (size 9 to 14) (size 15 to 20)
#    0.000    1.333    1.667    2.000    2.333   13.333 
#    0.000    0.000    0.000    0.000    0.000    0.000 
#    0.000    0.000    0.000    0.000    0.000    0.000 
#
# Total GULP energy -297357.905398 kJ/mol
# GULP energy per Si atom -12389.912725 kJ/mol
# Density = 2.462942 g / cm^3
# Si number density = 24.685602 Si / 1000 Ang^3
#
#
#
# Elastic Constant Matrix: (Units=GPa)
#
#
# Indices 1 2 3 4 5 6 
#
# 1 47.0887 12.7505 5.0663 0.0000 0.0000 0.0000
# 2 12.7505 75.5714 29.1763 0.0000 0.0000 0.0000
# 3 5.0663 29.1763 147.8423 0.0000 0.0000 0.0000
# 4 0.0000 0.0000 0.0000 42.2286 0.0000 0.0000
# 5 0.0000 0.0000 0.0000 0.0000 14.2677 0.0000
# 6 0.0000 0.0000 0.0000 0.0000 0.0000 9.7594
#
#
#
# Elastic Compliance Matrix: (Units=1/GPa)
#
#
# Indices 1 2 3 4 5 6 
#
# 1 0.022253 -0.003746 -0.000023 0.000000 0.000000 0.000000
# 2 -0.003746 0.014954 -0.002823 0.000000 0.000000 0.000000
# 3 -0.000023 -0.002823 0.007322 0.000000 0.000000 0.000000
# 4 0.000000 0.000000 0.000000 0.023681 0.000000 0.000000
# 5 0.000000 0.000000 0.000000 0.000000 0.070088 0.000000
# 6 0.000000 0.000000 0.000000 0.000000 0.000000 0.102466
#
#
# Mechanical properties :
#
#
# Convention : Reuss Voigt Hill
#
# Bulk Modulus (GPa) = 31.90221 40.49873 36.20047
# Shear Modulus (GPa) = 18.91100 28.15176 23.53138
#
# Velocity S-wave (km/s) = 2.77081 3.38066 3.09081
# Velocity P-wave (km/s) = 4.81539 5.62849 5.23774
#
# Compressibility (1/GPa) = 0.03134580
#
# Stress axis : x y z
#
# Youngs Moduli (GPa) = 44.93732 66.87039 136.57759
#
# Poissons Ratio (x) = 0.25047 0.00320
# Poissons Ratio (y) = 0.16831 0.38554
# Poissons Ratio (z) = 0.00105 0.18876
#
# Static dielectric constant tensor:
#      x y z
#    x 4.133910 0.000000 0.000000 
#    y 0.000000 4.511160 0.000000 
#    z 0.000000 0.000000 5.192530 
# 
# 
# High freq. dielectric constant tensor:
#      x y z
#    x 1.959490 0.000000 0.000000 
#    y 0.000000 1.983450 0.000000 
#    z 0.000000 0.000000 2.005910 
# 
# From -- ./inp_files/5427.got.cif
#   From: 2010.03.12/outbox.cif.g09.slc.cpg/sg33_3_cif.got.tgz:5427.got - 2010.04.14 01:49:19.
