data_PCOD8171318
_publ_section_title
;
Structure prediction by ZEFSAII (Michael W. Deem and Ramdas Pophale) SiO2 
 PCOD8171318
Probable space group: P N A 21
;
_chemical_formula_sum "Si O2"
_cell_formula_units_Z 32
_cell_length_a 9.047368
_cell_length_b 15.575839
_cell_length_c 11.068014
_cell_angle_alpha 90.000000
_cell_angle_beta 90.000000
_cell_angle_gamma 90.000000
_cell_volume 1559.708377
_symmetry_space_group_name_H-M "P N A 21"
_symmetry_group_IT_number 33
_symmetry_cell_setting 'orthorhombic'
loop_
_space_group_symop_operation_xyz
x,y,z
-x,-y,1/2+z
1/2-x,1/2+y,1/2+z
1/2+x,1/2-y,z
loop_
_atom_site_type_symbol
_atom_site_label
_atom_site_fract_x
_atom_site_fract_y
_atom_site_fract_z
Si Si1 0.847807 0.510270 0.512720
Si Si2 0.586180 0.157197 0.838179
Si Si3 0.183177 0.150411 0.422173
Si Si4 0.699397 0.780954 0.467136
Si Si5 0.350474 0.929232 0.100323
Si Si6 0.157393 0.820079 0.925356
Si Si7 0.153143 0.866976 0.652690
Si Si8 0.828477 0.909060 0.657597
O O1 0.859712 0.567551 0.393513
O O2 0.729401 0.435925 0.490023
O O3 0.790144 0.571619 0.620058
O O4 0.005908 0.473588 0.546138
O O5 0.420905 0.176995 0.879873
O O6 0.684231 0.237507 0.877994
O O7 0.599608 0.144908 0.694085
O O8 0.289168 0.226452 0.467810
O O9 0.206028 0.143793 0.278578
O O10 0.014390 0.170084 0.457824
O O11 0.631840 0.711791 0.559788
O O12 0.773729 0.857545 0.541085
O O13 0.249430 0.999337 0.166776
O O14 0.254534 0.890998 0.992170
O O15 0.187588 0.829739 0.783622
O O16 0.004387 0.923210 0.648971
#
# Coordination Sequence:
#
# PCOD8171318 Si02
#       8
#     4   4   4   4   4   4   4   4
#     4  11  24  41  67  93 138 168 231 272 341 400
#     4  11  25  42  65 101 132 180 220 287 340 403
#     4  11  23  43  65  98 132 176 222 279 332 411
#     4  11  21  42  68  97 131 169 230 277 337 408
#     4  12  26  43  65  98 141 179 221 285 350 401
#     4  11  25  41  69  96 137 174 228 273 343 398
#     4  10  23  40  67 101 125 177 222 282 332 402
#     4  11  21  40  68  96 132 169 226 281 333 405
#
# _framework density 20.516653999999999
#
# number of rings (size 3 to 8) (size 9 to 14) (size 15 to 20)
#    0.000    1.000    5.000    1.500    1.750    3.000 
#    0.000    1.250    0.000    0.000    0.000    0.000 
#    0.000    0.000    0.000    0.000    0.000    0.000 
#
# Total GULP energy -396937.866235 kJ/mol
# GULP energy per Si atom -12404.308320 kJ/mol
# Density = 2.046996 g / cm^3
# Si number density = 20.516654 Si / 1000 Ang^3
#
#
#
# Elastic Constant Matrix: (Units=GPa)
#
#
# Indices 1 2 3 4 5 6 
#
# 1 85.7670 35.0071 21.9978 0.0000 0.0000 0.0000
# 2 35.0071 89.1314 20.5857 0.0000 0.0000 0.0000
# 3 21.9978 20.5857 59.1888 0.0000 0.0000 0.0000
# 4 0.0000 0.0000 0.0000 14.7042 0.0000 0.0000
# 5 0.0000 0.0000 0.0000 0.0000 28.0670 0.0000
# 6 0.0000 0.0000 0.0000 0.0000 0.0000 41.7358
#
#
#
# Elastic Compliance Matrix: (Units=1/GPa)
#
#
# Indices 1 2 3 4 5 6 
#
# 1 0.014607 -0.004875 -0.003733 0.000000 0.000000 0.000000
# 2 -0.004875 0.013826 -0.002997 0.000000 0.000000 0.000000
# 3 -0.003733 -0.002997 0.019325 0.000000 0.000000 0.000000
# 4 0.000000 0.000000 0.000000 0.068008 0.000000 0.000000
# 5 0.000000 0.000000 0.000000 0.000000 0.035629 0.000000
# 6 0.000000 0.000000 0.000000 0.000000 0.000000 0.023960
#
#
# Mechanical properties :
#
#
# Convention : Reuss Voigt Hill
#
# Bulk Modulus (GPa) = 40.73667 43.25204 41.99436
# Shear Modulus (GPa) = 24.18413 27.33452 25.75933
#
# Velocity S-wave (km/s) = 3.43703 3.65404 3.54719
# Velocity P-wave (km/s) = 5.97071 6.23938 6.10652
#
# Compressibility (1/GPa) = 0.02454791
#
# Stress axis : x y z
#
# Youngs Moduli (GPa) = 68.46186 72.32670 51.74666
#
# Poissons Ratio (x) = 0.35257 0.19318
# Poissons Ratio (y) = 0.33373 0.15509
# Poissons Ratio (z) = 0.25558 0.21676
#
# Static dielectric constant tensor:
#      x y z
#    x 3.748800 0.000000 0.000000 
#    y 0.000000 3.712440 0.000000 
#    z 0.000000 0.000000 3.611430 
# 
# 
# High freq. dielectric constant tensor:
#      x y z
#    x 1.813280 0.000000 0.000000 
#    y 0.000000 1.808980 0.000000 
#    z 0.000000 0.000000 1.796800 
# 
# From -- ./inp_files/5973.got.cif
#   From: 2010.03.12/outbox.cif.g09.slc.cpg/sg33_3_cif.got.tgz:5973.got - 2010.04.14 01:49:19.
