data_PCOD8171132
_publ_section_title
;
Structure prediction by ZEFSAII (Michael W. Deem and Ramdas Pophale) SiO2 
 PCOD8171132
Probable space group: P N A 21
;
_chemical_formula_sum "Si O2"
_cell_formula_units_Z 32
_cell_length_a 9.975830
_cell_length_b 9.379846
_cell_length_c 18.343997
_cell_angle_alpha 90.000000
_cell_angle_beta 90.000000
_cell_angle_gamma 90.000000
_cell_volume 1716.479885
_symmetry_space_group_name_H-M "P N A 21"
_symmetry_group_IT_number 33
_symmetry_cell_setting 'orthorhombic'
loop_
_space_group_symop_operation_xyz
x,y,z
-x,-y,1/2+z
1/2-x,1/2+y,1/2+z
1/2+x,1/2-y,z
loop_
_atom_site_type_symbol
_atom_site_label
_atom_site_fract_x
_atom_site_fract_y
_atom_site_fract_z
Si Si1 0.233620 0.749493 0.267730
Si Si2 0.157668 0.962854 0.726779
Si Si3 0.845253 0.958035 0.727385
Si Si4 0.998610 0.642800 0.515099
Si Si5 0.248926 0.749545 0.606000
Si Si6 0.519676 0.187033 0.856766
Si Si7 0.254330 0.754849 0.850144
Si Si8 0.991810 0.393531 0.413836
O O1 0.262790 0.612084 0.217767
O O2 0.337580 0.750343 0.334264
O O3 0.087273 0.750168 0.301972
O O4 0.239653 0.895042 0.220749
O O5 0.186440 0.872958 0.654941
O O6 0.206841 0.885015 0.799872
O O7 0.001264 0.992399 0.732783
O O8 0.817835 0.869901 0.654925
O O9 0.800918 0.875382 0.799866
O O10 0.861586 0.681850 0.555308
O O11 0.129974 0.675335 0.561573
O O12 0.006948 0.735489 0.440415
O O13 0.993714 0.473751 0.492781
O O14 0.516828 0.014454 0.850621
O O15 0.374117 0.802518 0.902884
O O16 0.136085 0.708650 0.904850
#
# Coordination Sequence:
#
# PCOD8171132 Si02
#       8
#     4   4   4   4   4   4   4   4
#     4  12  21  38  62  96 127 146 200 256 326 342
#     4  11  22  36  64  92 124 158 198 258 297 368
#     4  11  22  36  64  92 124 158 198 258 297 368
#     4  10  22  41  61  89 119 159 210 247 289 362
#     4  11  23  42  64  86 119 169 214 234 294 373
#     4  10  22  35  62  93 119 157 187 261 306 361
#     4  11  20  38  62  98 120 153 202 250 320 357
#     4  10  22  36  63  92 124 154 195 256 305 353
#
# _framework density 18.642804000000002
#
# number of rings (size 3 to 8) (size 9 to 14) (size 15 to 20)
#    0.750    0.500    6.250    0.750    0.000    1.000 
#    0.000    2.500    0.000    0.000    0.000    0.000 
#    0.000    0.000    0.000    0.000    0.000    0.000 
#
# Total GULP energy -396712.956511 kJ/mol
# GULP energy per Si atom -12397.279891 kJ/mol
# Density = 1.860037 g / cm^3
# Si number density = 18.642804 Si / 1000 Ang^3
#
#
#
# Elastic Constant Matrix: (Units=GPa)
#
#
# Indices 1 2 3 4 5 6 
#
# 1 132.8136 48.9093 45.5076 0.0000 0.0000 0.0000
# 2 48.9093 123.0993 47.5322 0.0000 0.0000 0.0000
# 3 45.5076 47.5322 75.1472 0.0000 0.0000 0.0000
# 4 0.0000 0.0000 0.0000 20.8386 0.0000 0.0000
# 5 0.0000 0.0000 0.0000 0.0000 29.7934 0.0000
# 6 0.0000 0.0000 0.0000 0.0000 0.0000 34.8560
#
#
#
# Elastic Compliance Matrix: (Units=1/GPa)
#
#
# Indices 1 2 3 4 5 6 
#
# 1 0.009911 -0.002144 -0.004646 0.000000 0.000000 0.000000
# 2 -0.002144 0.011212 -0.005794 0.000000 0.000000 0.000000
# 3 -0.004646 -0.005794 0.019785 0.000000 0.000000 0.000000
# 4 0.000000 0.000000 0.000000 0.047988 0.000000 0.000000
# 5 0.000000 0.000000 0.000000 0.000000 0.033564 0.000000
# 6 0.000000 0.000000 0.000000 0.000000 0.000000 0.028689
#
#
# Mechanical properties :
#
#
# Convention : Reuss Voigt Hill
#
# Bulk Modulus (GPa) = 63.52568 68.32871 65.92719
# Shear Modulus (GPa) = 27.53847 29.70500 28.62173
#
# Velocity S-wave (km/s) = 3.84756 3.99604 3.92250
# Velocity P-wave (km/s) = 7.34080 7.61723 7.48030
#
# Compressibility (1/GPa) = 0.01574167
#
# Stress axis : x y z
#
# Youngs Moduli (GPa) = 100.90181 89.18630 50.54264
#
# Poissons Ratio (x) = 0.19120 0.23480
# Poissons Ratio (y) = 0.21632 0.29284
# Poissons Ratio (z) = 0.46875 0.51673
#
# Static dielectric constant tensor:
#      x y z
#    x 3.449580 0.000000 0.000000 
#    y 0.000000 3.464620 0.000000 
#    z 0.000000 0.000000 3.179170 
# 
# 
# High freq. dielectric constant tensor:
#      x y z
#    x 1.742570 0.000000 0.000000 
#    y 0.000000 1.725780 0.000000 
#    z 0.000000 0.000000 1.698230 
# 
# From -- ./inp_files/9265.got.cif
#   From: 2010.03.12/outbox.cif.g09.slc.cpg/sg33_5_cif.got.tgz:9265.got - 2010.04.14 01:49:19.
