data_PCOD8171819
_publ_section_title
;
Structure prediction by ZEFSAII (Michael W. Deem and Ramdas Pophale) SiO2 
 PCOD8171819
Probable space group: P N N 2
;
_chemical_formula_sum "Si O2"
_cell_formula_units_Z 24
_cell_length_a 15.785114
_cell_length_b 9.779201
_cell_length_c 8.040853
_cell_angle_alpha 90.000000
_cell_angle_beta 90.000000
_cell_angle_gamma 90.000000
_cell_volume 1241.232727
_symmetry_space_group_name_H-M "P N N 2"
_symmetry_group_IT_number 34
_symmetry_cell_setting 'orthorhombic'
loop_
_space_group_symop_operation_xyz
x,y,z
-x,-y,z
1/2-x,1/2+y,1/2+z
1/2+x,1/2-y,1/2+z
loop_
_atom_site_type_symbol
_atom_site_label
_atom_site_fract_x
_atom_site_fract_y
_atom_site_fract_z
Si Si1 0.850870 0.153660 0.352210
Si Si2 0.476619 0.753613 0.247812
Si Si3 0.602283 0.913838 0.039022
Si Si4 0.914529 0.303674 0.043223
Si Si5 0.165989 0.449896 0.845434
Si Si6 0.500000 0.500000 0.022678
Si Si7 0.000000 0.500000 0.259158
O O1 0.851482 0.277463 0.480508
O O2 0.858947 0.203793 0.159684
O O3 0.762059 0.082724 0.386005
O O4 0.926278 0.050835 0.400287
O O5 0.513167 0.874308 0.130333
O O6 0.547676 0.719325 0.388371
O O7 0.392655 0.813199 0.338209
O O8 0.460298 0.617826 0.140707
O O9 0.666682 0.987662 0.160936
O O10 0.582947 0.008239 0.878038
O O11 0.993870 0.361885 0.150923
O O12 0.864159 0.438921 0.981530
#
# Coordination Sequence:
#
# PCOD8171819 Si02
#       7
#     4   4   4   4   4   2   2
#     4  10  24  39  59  91 126 153 204 256 297 367
#     4  10  19  39  65  84 115 166 194 245 304 374
#     4   9  18  37  60  85 114 157 200 243 300 359
#     4  10  20  37  61  92 115 150 214 255 283 364
#     4  11  20  39  63  89 119 158 206 252 306 350
#     4  10  24  44  60  82 134 168 192 234 338 370
#     4  10  14  32  60  86 110 142 196 250 282 340
#
# _framework density 19.335615000000001
#
# number of rings (size 3 to 8) (size 9 to 14) (size 15 to 20)
#    0.000    2.000    3.333    1.000    2.333    0.667 
#    6.000    5.000    0.000    0.000    0.000    0.000 
#    0.000    0.000    0.000    0.000    0.000    0.000 
#
# Total GULP energy -297455.432229 kJ/mol
# GULP energy per Si atom -12393.976343 kJ/mol
# Density = 1.929161 g / cm^3
# Si number density = 19.335615 Si / 1000 Ang^3
#
#
#
# Elastic Constant Matrix: (Units=GPa)
#
#
# Indices 1 2 3 4 5 6 
#
# 1 118.4281 49.2456 38.2688 0.0000 0.0000 0.0000
# 2 49.2456 89.2841 41.8901 0.0000 0.0000 0.0000
# 3 38.2688 41.8901 102.7793 0.0000 0.0000 0.0000
# 4 0.0000 0.0000 0.0000 38.2994 0.0000 0.0000
# 5 0.0000 0.0000 0.0000 0.0000 20.2358 0.0000
# 6 0.0000 0.0000 0.0000 0.0000 0.0000 21.9444
#
#
#
# Elastic Compliance Matrix: (Units=1/GPa)
#
#
# Indices 1 2 3 4 5 6 
#
# 1 0.011299 -0.005265 -0.002061 0.000000 0.000000 0.000000
# 2 -0.005265 0.016302 -0.004684 0.000000 0.000000 0.000000
# 3 -0.002061 -0.004684 0.012406 0.000000 0.000000 0.000000
# 4 0.000000 0.000000 0.000000 0.026110 0.000000 0.000000
# 5 0.000000 0.000000 0.000000 0.000000 0.049417 0.000000
# 6 0.000000 0.000000 0.000000 0.000000 0.000000 0.045570
#
#
# Mechanical properties :
#
#
# Convention : Reuss Voigt Hill
#
# Bulk Modulus (GPa) = 62.55143 63.25561 62.90352
# Shear Modulus (GPa) = 26.25310 28.16840 27.21075
#
# Velocity S-wave (km/s) = 3.68878 3.82096 3.75545
# Velocity P-wave (km/s) = 7.11079 7.22855 7.16991
#
# Compressibility (1/GPa) = 0.01598684
#
# Stress axis : x y z
#
# Youngs Moduli (GPa) = 88.49992 61.34295 80.60592
#
# Poissons Ratio (x) = 0.32298 0.16615
# Poissons Ratio (y) = 0.46597 0.37754
# Poissons Ratio (z) = 0.18242 0.28731
#
# Static dielectric constant tensor:
#      x y z
#    x 3.172080 0.000000 0.000000 
#    y 0.000000 3.410160 0.000000 
#    z 0.000000 0.000000 3.848680 
# 
# 
# High freq. dielectric constant tensor:
#      x y z
#    x 1.720950 0.000000 0.000000 
#    y 0.000000 1.741830 0.000000 
#    z 0.000000 0.000000 1.773130 
# 
# From -- ./inp_files/2738.got.cif
#   From: 2010.03.12/outbox.cif.g09.slc.cpg/sg34_2_cif.got.tgz:2738.got - 2010.04.14 01:56:33.
