data_PCOD8171723
_publ_section_title
;
Structure prediction by ZEFSAII (Michael W. Deem and Ramdas Pophale) SiO2 
 PCOD8171723
Probable space group: P N A 21
;
_chemical_formula_sum "Si O2"
_cell_formula_units_Z 20
_cell_length_a 10.580200
_cell_length_b 15.695574
_cell_length_c 4.948462
_cell_angle_alpha 90.000000
_cell_angle_beta 90.000000
_cell_angle_gamma 90.000000
_cell_volume 821.753041
_symmetry_space_group_name_H-M "P N A 21"
_symmetry_group_IT_number 33
_symmetry_cell_setting 'orthorhombic'
loop_
_space_group_symop_operation_xyz
x,y,z
-x,-y,1/2+z
1/2-x,1/2+y,1/2+z
1/2+x,1/2-y,z
loop_
_atom_site_type_symbol
_atom_site_label
_atom_site_fract_x
_atom_site_fract_y
_atom_site_fract_z
Si Si1 0.073644 0.522826 0.979220
Si Si2 0.834157 0.053793 0.022342
Si Si3 0.131162 0.791588 0.204368
Si Si4 0.953151 0.879771 0.872394
Si Si5 0.196283 0.685784 0.723441
O O1 0.103822 0.612974 0.839468
O O2 0.016898 0.464389 0.738189
O O3 0.197045 0.478777 0.113690
O O4 0.911820 0.115996 0.220433
O O5 0.923533 0.973016 0.981379
O O6 0.810041 0.114852 0.765027
O O7 0.137256 0.723487 0.449584
O O8 0.984254 0.811194 0.112104
O O9 0.211446 0.755672 0.955769
O O10 0.838701 0.849799 0.677142
#
# Coordination Sequence:
#
# PCOD8171723 Si02
#       5
#     4   4   4   4   4
#     4  11  27  49  73 104 150 199 245 291 366 458
#     4  11  25  46  80 107 143 202 256 301 366 446
#     4  12  25  45  70 111 148 192 236 314 383 425
#     4  11  25  47  78 108 147 194 263 310 361 461
#     4  11  28  45  71 112 150 187 246 314 380 434
#
# _framework density 24.338211999999999
#
# number of rings (size 3 to 8) (size 9 to 14) (size 15 to 20)
#    0.000    0.800    4.000    1.200    5.600    4.800 
#    0.000    0.000    0.000    0.000    0.000    0.000 
#    0.000    0.000    0.000    0.000    0.000    0.000 
#
# Total GULP energy -247803.472708 kJ/mol
# GULP energy per Si atom -12390.173635 kJ/mol
# Density = 2.428282 g / cm^3
# Si number density = 24.338212 Si / 1000 Ang^3
#
#
#
# Elastic Constant Matrix: (Units=GPa)
#
#
# Indices 1 2 3 4 5 6 
#
# 1 119.3846 60.1889 53.6735 0.0000 0.0000 0.0000
# 2 60.1889 103.7371 40.2108 0.0000 0.0000 0.0000
# 3 53.6735 40.2108 123.8448 0.0000 0.0000 0.0000
# 4 0.0000 0.0000 0.0000 40.0912 0.0000 0.0000
# 5 0.0000 0.0000 0.0000 0.0000 38.7849 0.0000
# 6 0.0000 0.0000 0.0000 0.0000 0.0000 29.6893
#
#
#
# Elastic Compliance Matrix: (Units=1/GPa)
#
#
# Indices 1 2 3 4 5 6 
#
# 1 0.013165 -0.006208 -0.003690 0.000000 0.000000 0.000000
# 2 -0.006208 0.013955 -0.001840 0.000000 0.000000 0.000000
# 3 -0.003690 -0.001840 0.010271 0.000000 0.000000 0.000000
# 4 0.000000 0.000000 0.000000 0.024943 0.000000 0.000000
# 5 0.000000 0.000000 0.000000 0.000000 0.025783 0.000000
# 6 0.000000 0.000000 0.000000 0.000000 0.000000 0.033682
#
#
# Mechanical properties :
#
#
# Convention : Reuss Voigt Hill
#
# Bulk Modulus (GPa) = 71.86760 72.79032 72.32896
# Shear Modulus (GPa) = 33.35205 34.57261 33.96233
#
# Velocity S-wave (km/s) = 3.70585 3.77305 3.73960
# Velocity P-wave (km/s) = 6.92126 6.99671 6.95909
#
# Compressibility (1/GPa) = 0.01391448
#
# Stress axis : x y z
#
# Youngs Moduli (GPa) = 75.95801 71.65791 97.35756
#
# Poissons Ratio (x) = 0.44487 0.35925
# Poissons Ratio (y) = 0.47156 0.17918
# Poissons Ratio (z) = 0.28028 0.13188
#
# Static dielectric constant tensor:
#      x y z
#    x 4.286760 0.000000 0.000000 
#    y 0.000000 4.662770 0.000000 
#    z 0.000000 0.000000 4.446870 
# 
# 
# High freq. dielectric constant tensor:
#      x y z
#    x 1.956720 0.000000 0.000000 
#    y 0.000000 1.981870 0.000000 
#    z 0.000000 0.000000 1.965150 
# 
# From -- ./inp_files/334.got.cif
#   From: 2010.03.12/outbox.cif.g09.slc.cpg/sg33_1_cif.got.tgz:334.got - 2010.04.14 01:49:19.
