data_PCOD8171818
_publ_section_title
;
Structure prediction by ZEFSAII (Michael W. Deem and Ramdas Pophale) SiO2 
 PCOD8171818
Probable space group: P N A 21
;
_chemical_formula_sum "Si O2"
_cell_formula_units_Z 32
_cell_length_a 19.878136
_cell_length_b 8.643142
_cell_length_c 9.584621
_cell_angle_alpha 90.000000
_cell_angle_beta 90.000000
_cell_angle_gamma 90.000000
_cell_volume 1646.729441
_symmetry_space_group_name_H-M "P N A 21"
_symmetry_group_IT_number 33
_symmetry_cell_setting 'orthorhombic'
loop_
_space_group_symop_operation_xyz
x,y,z
-x,-y,1/2+z
1/2-x,1/2+y,1/2+z
1/2+x,1/2-y,z
loop_
_atom_site_type_symbol
_atom_site_label
_atom_site_fract_x
_atom_site_fract_y
_atom_site_fract_z
Si Si1 0.775769 0.002901 0.719980
Si Si2 0.339620 0.801759 0.734055
Si Si3 0.807501 0.696261 0.419681
Si Si4 0.807501 0.303738 0.588046
Si Si5 0.275768 0.502902 0.287749
Si Si6 0.060779 0.469167 0.846048
Si Si7 0.560778 0.969168 0.161676
Si Si8 0.839620 0.301757 0.273672
O O1 0.757025 0.112793 0.850686
O O2 0.799126 0.117099 0.596069
O O3 0.836761 0.883095 0.759184
O O4 0.712384 0.893932 0.672038
O O5 0.311878 0.851939 0.580247
O O6 0.287618 0.893933 0.835690
O O7 0.415143 0.869908 0.738819
O O8 0.876949 0.650249 0.341168
O O9 0.799125 0.882900 0.411660
O O10 0.742976 0.387205 0.657043
O O11 0.876950 0.349750 0.666557
O O12 0.811878 0.351936 0.427480
O O13 0.336760 0.383097 0.248544
O O14 0.084858 0.630093 0.768907
O O15 0.000001 0.400939 0.753861
O O16 0.035938 0.499999 0.003862
#
# Coordination Sequence:
#
# PCOD8171818 Si02
#       8
#     4   4   4   4   4   4   4   4
#     4   9  16  28  48  72  91 119 156 185 234 295
#     4   9  17  30  48  69  97 126 152 193 242 285
#     4   9  17  30  48  69  97 126 152 193 242 285
#     4   9  17  30  48  69  97 126 152 193 242 285
#     4   9  16  28  48  72  91 119 156 185 234 295
#     4   9  18  34  50  66  93 129 167 201 237 281
#     4   9  18  34  50  66  93 129 167 201 237 281
#     4   9  17  30  48  69  97 126 152 193 242 285
#
# _framework density 19.432456999999999
#
# number of rings (size 3 to 8) (size 9 to 14) (size 15 to 20)
#    0.000    3.000    0.000    3.000    0.000    0.000 
#    0.000   26.250    0.000    0.000    0.000    0.000 
#    0.000    0.000    0.000    0.000    0.000    0.000 
#
# Total GULP energy -396470.446340 kJ/mol
# GULP energy per Si atom -12389.701448 kJ/mol
# Density = 1.938823 g / cm^3
# Si number density = 19.432457 Si / 1000 Ang^3
#
#
#
# Elastic Constant Matrix: (Units=GPa)
#
#
# Indices 1 2 3 4 5 6 
#
# 1 78.1473 26.2959 26.4232 0.0000 0.0000 0.0000
# 2 26.2959 107.5415 -0.5474 0.0000 0.0000 0.0000
# 3 26.4232 -0.5474 25.6146 0.0000 0.0000 0.0000
# 4 0.0000 0.0000 0.0000 28.2594 0.0000 0.0000
# 5 0.0000 0.0000 0.0000 0.0000 28.3240 0.0000
# 6 0.0000 0.0000 0.0000 0.0000 0.0000 17.5840
#
#
#
# Elastic Compliance Matrix: (Units=1/GPa)
#
#
# Indices 1 2 3 4 5 6 
#
# 1 0.022634 -0.005654 -0.023470 0.000000 0.000000 0.000000
# 2 -0.005654 0.010712 0.006061 0.000000 0.000000 0.000000
# 3 -0.023470 0.006061 0.063380 0.000000 0.000000 0.000000
# 4 0.000000 0.000000 0.000000 0.035386 0.000000 0.000000
# 5 0.000000 0.000000 0.000000 0.000000 0.035306 0.000000
# 6 0.000000 0.000000 0.000000 0.000000 0.000000 0.056870
#
#
# Mechanical properties :
#
#
# Convention : Reuss Voigt Hill
#
# Bulk Modulus (GPa) = 19.76199 35.07186 27.41693
# Shear Modulus (GPa) = 17.40454 25.44227 21.42341
#
# Velocity S-wave (km/s) = 2.99598 3.62230 3.32393
# Velocity P-wave (km/s) = 4.70739 5.96507 5.37315
#
# Compressibility (1/GPa) = 0.05060218
#
# Stress axis : x y z
#
# Youngs Moduli (GPa) = 44.18035 93.35236 15.77775
#
# Poissons Ratio (x) = 0.52782 0.37030
# Poissons Ratio (y) = 0.24980 -0.09564
# Poissons Ratio (z) = 1.03691 -0.56585
#
# Static dielectric constant tensor:
#      x y z
#    x 3.239740 0.000000 0.000000 
#    y 0.000000 3.905860 0.000000 
#    z 0.000000 0.000000 3.303370 
# 
# 
# High freq. dielectric constant tensor:
#      x y z
#    x 1.711640 0.000000 0.000000 
#    y 0.000000 1.770410 0.000000 
#    z 0.000000 0.000000 1.737160 
# 
# From -- ./inp_files/4995.got.cif
#   From: 2010.03.12/outbox.cif.g09.slc.cpg/sg33_3_cif.got.tgz:4995.got - 2010.04.14 01:49:19.
