data_PCOD8171788
_publ_section_title
;
Structure prediction by ZEFSAII (Michael W. Deem and Ramdas Pophale) SiO2 
 PCOD8171788
Probable space group: P N A 21
;
_chemical_formula_sum "Si O2"
_cell_formula_units_Z 12
_cell_length_a 16.745388
_cell_length_b 5.959203
_cell_length_c 4.674999
_cell_angle_alpha 90.000000
_cell_angle_beta 90.000000
_cell_angle_gamma 90.000000
_cell_volume 466.514253
_symmetry_space_group_name_H-M "P N A 21"
_symmetry_group_IT_number 33
_symmetry_cell_setting 'orthorhombic'
loop_
_space_group_symop_operation_xyz
x,y,z
-x,-y,1/2+z
1/2-x,1/2+y,1/2+z
1/2+x,1/2-y,z
loop_
_atom_site_type_symbol
_atom_site_label
_atom_site_fract_x
_atom_site_fract_y
_atom_site_fract_z
Si Si1 0.826826 0.828653 0.701810
Si Si2 0.051498 0.530663 0.041816
Si Si3 0.842726 0.130190 0.214865
O O1 0.882365 0.609106 0.722669
O O2 0.735300 0.779525 0.775433
O O3 0.831592 0.893578 0.371211
O O4 0.855445 0.047467 0.887544
O O5 0.083250 0.738107 0.852399
O O6 0.005329 0.380978 0.800613
#
# Coordination Sequence:
#
# PCOD8171788 Si02
#       3
#     4   4   4
#     4  12  26  46  80 110 144 197 257 306 373 454
#     4  12  28  48  74 110 160 196 248 322 382 440
#     4  12  26  46  80 110 144 197 257 306 373 454
#
# _framework density 25.722688999999999
#
# number of rings (size 3 to 8) (size 9 to 14) (size 15 to 20)
#    0.000    0.000    3.333    6.000    4.667    5.333 
#    0.000    0.000    0.000    0.000    0.000    0.000 
#    0.000    0.000    0.000    0.000    0.000    0.000 
#
# Total GULP energy -148748.633923 kJ/mol
# GULP energy per Si atom -12395.719494 kJ/mol
# Density = 2.566414 g / cm^3
# Si number density = 25.722689 Si / 1000 Ang^3
#
#
#
# Elastic Constant Matrix: (Units=GPa)
#
#
# Indices 1 2 3 4 5 6 
#
# 1 81.3201 11.2999 32.8644 0.0000 0.0000 0.0000
# 2 11.2999 68.7225 13.0736 0.0000 0.0000 0.0000
# 3 32.8644 13.0736 119.7350 0.0000 0.0000 0.0000
# 4 0.0000 0.0000 0.0000 64.0210 0.0000 0.0000
# 5 0.0000 0.0000 0.0000 0.0000 46.4931 0.0000
# 6 0.0000 0.0000 0.0000 0.0000 0.0000 25.0213
#
#
#
# Elastic Compliance Matrix: (Units=1/GPa)
#
#
# Indices 1 2 3 4 5 6 
#
# 1 0.014002 -0.001605 -0.003668 0.000000 0.000000 0.000000
# 2 -0.001605 0.015044 -0.001202 0.000000 0.000000 0.000000
# 3 -0.003668 -0.001202 0.009490 0.000000 0.000000 0.000000
# 4 0.000000 0.000000 0.000000 0.015620 0.000000 0.000000
# 5 0.000000 0.000000 0.000000 0.000000 0.021509 0.000000
# 6 0.000000 0.000000 0.000000 0.000000 0.000000 0.039966
#
#
# Mechanical properties :
#
#
# Convention : Reuss Voigt Hill
#
# Bulk Modulus (GPa) = 39.08336 42.69482 40.88909
# Shear Modulus (GPa) = 36.46729 41.27638 38.87183
#
# Velocity S-wave (km/s) = 3.76933 4.01018 3.89162
# Velocity P-wave (km/s) = 5.84559 6.17059 6.01029
#
# Compressibility (1/GPa) = 0.02558634
#
# Stress axis : x y z
#
# Youngs Moduli (GPa) = 71.41597 66.47252 105.37559
#
# Poissons Ratio (x) = 0.10666 0.38653
# Poissons Ratio (y) = 0.11459 0.12668
# Poissons Ratio (z) = 0.26196 0.07991
#
# Static dielectric constant tensor:
#      x y z
#    x 4.774540 0.000000 0.000000 
#    y 0.000000 4.082730 0.000000 
#    z 0.000000 0.000000 4.793650 
# 
# 
# High freq. dielectric constant tensor:
#      x y z
#    x 2.030340 0.000000 0.000000 
#    y 0.000000 2.008240 0.000000 
#    z 0.000000 0.000000 2.056050 
# 
# From -- ./inp_files/72.got.cif
#   From: 2010.03.12/outbox.cif.g09.slc.cpg/sg33_1_cif.got.tgz:72.got - 2010.04.14 01:49:19.
