data_PCOD8171517
_publ_section_title
;
Structure prediction by ZEFSAII (Michael W. Deem and Ramdas Pophale) SiO2 
 PCOD8171517
Probable space group: P N A 21
;
_chemical_formula_sum "Si O2"
_cell_formula_units_Z 24
_cell_length_a 9.170091
_cell_length_b 12.859271
_cell_length_c 8.351300
_cell_angle_alpha 90.000000
_cell_angle_beta 90.000000
_cell_angle_gamma 90.000000
_cell_volume 984.791019
_symmetry_space_group_name_H-M "P N A 21"
_symmetry_group_IT_number 33
_symmetry_cell_setting 'orthorhombic'
loop_
_space_group_symop_operation_xyz
x,y,z
-x,-y,1/2+z
1/2-x,1/2+y,1/2+z
1/2+x,1/2-y,z
loop_
_atom_site_type_symbol
_atom_site_label
_atom_site_fract_x
_atom_site_fract_y
_atom_site_fract_z
Si Si1 0.315136 0.783189 0.713460
Si Si2 0.059036 0.062469 0.828000
Si Si3 0.378218 0.855946 0.070583
Si Si4 0.696781 0.459841 0.154832
Si Si5 0.926801 0.246180 0.002504
Si Si6 0.195017 0.670884 0.204015
O O1 0.272531 0.659200 0.705390
O O2 0.175020 0.828223 0.616639
O O3 0.460459 0.806849 0.615172
O O4 0.334663 0.835668 0.885253
O O5 0.186291 0.076560 0.690311
O O6 0.921929 0.994184 0.783393
O O7 0.007444 0.179368 0.867995
O O8 0.123580 0.012607 0.986435
O O9 0.342974 0.969647 0.145970
O O10 0.275787 0.778236 0.167394
O O11 0.552641 0.842054 0.092498
O O12 0.840364 0.331375 0.896406
#
# Coordination Sequence:
#
# PCOD8171517 Si02
#       6
#     4   4   4   4   4   4
#     4  11  26  44  71 101 140 189 241 294 374 432
#     4  11  25  44  71 100 140 185 243 297 363 439
#     4  12  25  45  72 105 145 188 242 305 366 443
#     4  11  26  45  68 107 140 188 246 300 363 446
#     4  11  20  45  67  96 135 185 232 294 358 430
#     4  12  22  45  71  99 140 191 234 296 382 426
#
# _framework density 24.370652
#
# number of rings (size 3 to 8) (size 9 to 14) (size 15 to 20)
#    0.000    0.667    6.667    1.000    9.333    0.000 
#    6.000    0.000    0.000    0.000    0.000    0.000 
#    0.000    0.000    0.000    0.000    0.000    0.000 
#
# Total GULP energy -297330.314749 kJ/mol
# GULP energy per Si atom -12388.763115 kJ/mol
# Density = 2.431518 g / cm^3
# Si number density = 24.370652 Si / 1000 Ang^3
#
#
#
# Elastic Constant Matrix: (Units=GPa)
#
#
# Indices 1 2 3 4 5 6 
#
# 1 121.7850 0.1231 29.1754 0.0000 0.0000 0.0000
# 2 0.1231 52.1931 -2.6673 0.0000 0.0000 0.0000
# 3 29.1754 -2.6673 81.5400 0.0000 0.0000 0.0000
# 4 0.0000 0.0000 0.0000 26.0793 0.0000 0.0000
# 5 0.0000 0.0000 0.0000 0.0000 50.3185 0.0000
# 6 0.0000 0.0000 0.0000 0.0000 0.0000 8.5207
#
#
#
# Elastic Compliance Matrix: (Units=1/GPa)
#
#
# Indices 1 2 3 4 5 6 
#
# 1 0.008983 -0.000186 -0.003220 0.000000 0.000000 0.000000
# 2 -0.000186 0.019196 0.000694 0.000000 0.000000 0.000000
# 3 -0.003220 0.000694 0.013439 0.000000 0.000000 0.000000
# 4 0.000000 0.000000 0.000000 0.038345 0.000000 0.000000
# 5 0.000000 0.000000 0.000000 0.000000 0.019873 0.000000
# 6 0.000000 0.000000 0.000000 0.000000 0.000000 0.117362
#
#
# Mechanical properties :
#
#
# Convention : Reuss Voigt Hill
#
# Bulk Modulus (GPa) = 27.62881 34.30896 30.96889
# Shear Modulus (GPa) = 21.30519 32.24282 26.77401
#
# Velocity S-wave (km/s) = 2.95992 3.64128 3.31813
# Velocity P-wave (km/s) = 4.80032 5.63800 5.23594
#
# Compressibility (1/GPa) = 0.03619410
#
# Stress axis : x y z
#
# Youngs Moduli (GPa) = 111.32363 52.09539 74.41125
#
# Poissons Ratio (x) = 0.00968 0.23962
# Poissons Ratio (y) = 0.02068 -0.05167
# Poissons Ratio (z) = 0.35848 -0.03617
#
# Static dielectric constant tensor:
#      x y z
#    x 5.310300 0.000000 0.000000 
#    y 0.000000 4.084900 0.000000 
#    z 0.000000 0.000000 4.475020 
# 
# 
# High freq. dielectric constant tensor:
#      x y z
#    x 1.996170 0.000000 0.000000 
#    y 0.000000 1.941290 0.000000 
#    z 0.000000 0.000000 1.970870 
# 
# From -- ./inp_files/3155.got.cif
#   From: 2010.03.12/outbox.cif.g09.slc.cpg/sg33_2_cif.got.tgz:3155.got - 2010.04.14 01:49:19.
