data_PCOD8171486
_publ_section_title
;
Structure prediction by ZEFSAII (Michael W. Deem and Ramdas Pophale) SiO2 
 PCOD8171486
Probable space group: P N A 21
;
_chemical_formula_sum "Si O2"
_cell_formula_units_Z 28
_cell_length_a 11.982653
_cell_length_b 9.501947
_cell_length_c 11.122829
_cell_angle_alpha 90.000000
_cell_angle_beta 90.000000
_cell_angle_gamma 90.000000
_cell_volume 1266.429001
_symmetry_space_group_name_H-M "P N A 21"
_symmetry_group_IT_number 33
_symmetry_cell_setting 'orthorhombic'
loop_
_space_group_symop_operation_xyz
x,y,z
-x,-y,1/2+z
1/2-x,1/2+y,1/2+z
1/2+x,1/2-y,z
loop_
_atom_site_type_symbol
_atom_site_label
_atom_site_fract_x
_atom_site_fract_y
_atom_site_fract_z
Si Si1 0.300280 0.199225 0.578650
Si Si2 0.650163 0.474554 0.754166
Si Si3 0.852135 0.837625 0.861272
Si Si4 0.672926 0.788336 0.693536
Si Si5 0.026519 0.628279 0.898756
Si Si6 0.163787 0.597887 0.425794
Si Si7 0.596457 0.633916 0.277197
O O1 0.236155 0.090060 0.660480
O O2 0.221526 0.235080 0.466187
O O3 0.409646 0.120956 0.525743
O O4 0.338156 0.341168 0.650009
O O5 0.623177 0.631502 0.707533
O O6 0.713845 0.457826 0.882988
O O7 0.534925 0.388558 0.754679
O O8 0.802534 0.781787 0.734529
O O9 0.978153 0.786196 0.879378
O O10 0.851828 0.007026 0.855389
O O11 0.609589 0.895627 0.785723
O O12 0.666852 0.854388 0.562947
O O13 0.924887 0.522740 0.901086
O O14 0.116094 0.727249 0.352045
#
# Coordination Sequence:
#
# PCOD8171486 Si02
#       7
#     4   4   4   4   4   4   4
#     4  10  25  42  71 100 142 185 235 295 355 423
#     4  11  23  47  67 106 141 180 248 287 358 434
#     4  11  23  44  69 100 140 182 242 284 361 425
#     4  11  25  43  71 101 142 189 229 299 354 426
#     4  11  24  44  69 102 145 184 236 294 359 421
#     4  11  27  43  72 105 142 185 236 299 354 426
#     4  11  25  45  71 104 140 189 236 300 355 429
#
# _framework density 22.109411999999999
#
# number of rings (size 3 to 8) (size 9 to 14) (size 15 to 20)
#    0.000    1.143    2.857    1.714    6.000    6.857 
#    2.571    0.000    0.000    0.000    0.000    0.000 
#    0.000    0.000    0.000    0.000    0.000    0.000 
#
# Total GULP energy -347066.874808 kJ/mol
# GULP energy per Si atom -12395.245529 kJ/mol
# Density = 2.205909 g / cm^3
# Si number density = 22.109412 Si / 1000 Ang^3
#
#
#
# Elastic Constant Matrix: (Units=GPa)
#
#
# Indices 1 2 3 4 5 6 
#
# 1 115.6919 27.4047 53.9180 0.0000 0.0000 0.0000
# 2 27.4047 86.0757 41.6782 0.0000 0.0000 0.0000
# 3 53.9180 41.6782 146.5856 0.0000 0.0000 0.0000
# 4 0.0000 0.0000 0.0000 16.4168 0.0000 0.0000
# 5 0.0000 0.0000 0.0000 0.0000 34.1699 0.0000
# 6 0.0000 0.0000 0.0000 0.0000 0.0000 33.7528
#
#
#
# Elastic Compliance Matrix: (Units=1/GPa)
#
#
# Indices 1 2 3 4 5 6 
#
# 1 0.010650 -0.001732 -0.003425 0.000000 0.000000 0.000000
# 2 -0.001732 0.013754 -0.003273 0.000000 0.000000 0.000000
# 3 -0.003425 -0.003273 0.009012 0.000000 0.000000 0.000000
# 4 0.000000 0.000000 0.000000 0.060913 0.000000 0.000000
# 5 0.000000 0.000000 0.000000 0.000000 0.029266 0.000000
# 6 0.000000 0.000000 0.000000 0.000000 0.000000 0.029627
#
#
# Mechanical properties :
#
#
# Convention : Reuss Voigt Hill
#
# Bulk Modulus (GPa) = 60.40342 66.03947 63.22144
# Shear Modulus (GPa) = 28.47336 31.89138 30.18237
#
# Velocity S-wave (km/s) = 3.59254 3.80206 3.69878
# Velocity P-wave (km/s) = 6.67742 7.01487 6.84823
#
# Compressibility (1/GPa) = 0.01655536
#
# Stress axis : x y z
#
# Youngs Moduli (GPa) = 93.89527 72.70457 110.95797
#
# Poissons Ratio (x) = 0.12596 0.38001
# Poissons Ratio (y) = 0.16267 0.36322
# Poissons Ratio (z) = 0.32157 0.23800
#
# Static dielectric constant tensor:
#      x y z
#    x 4.288730 0.000000 0.000000 
#    y 0.000000 4.130570 0.000000 
#    z 0.000000 0.000000 4.367370 
# 
# 
# High freq. dielectric constant tensor:
#      x y z
#    x 1.883170 0.000000 0.000000 
#    y 0.000000 1.867250 0.000000 
#    z 0.000000 0.000000 1.875670 
# 
# From -- ./inp_files/6323.got.cif
#   From: 2010.03.12/outbox.cif.g09.slc.cpg/sg33_4_cif.got.tgz:6323.got - 2010.04.14 01:49:19.
