data_PCOD8171198
_publ_section_title
;
Structure prediction by ZEFSAII (Michael W. Deem and Ramdas Pophale) SiO2 
 PCOD8171198
Probable space group: P N A 21
;
_chemical_formula_sum "Si O2"
_cell_formula_units_Z 28
_cell_length_a 15.753819
_cell_length_b 6.605756
_cell_length_c 12.394885
_cell_angle_alpha 90.000000
_cell_angle_beta 90.000000
_cell_angle_gamma 90.000000
_cell_volume 1289.884669
_symmetry_space_group_name_H-M "P N A 21"
_symmetry_group_IT_number 33
_symmetry_cell_setting 'orthorhombic'
loop_
_space_group_symop_operation_xyz
x,y,z
-x,-y,1/2+z
1/2-x,1/2+y,1/2+z
1/2+x,1/2-y,z
loop_
_atom_site_type_symbol
_atom_site_label
_atom_site_fract_x
_atom_site_fract_y
_atom_site_fract_z
Si Si1 0.984130 0.057435 0.733610
Si Si2 0.646418 0.191671 0.691419
Si Si3 0.964254 0.335639 0.143935
Si Si4 0.737767 0.284456 0.473145
Si Si5 0.610224 0.643444 0.438160
Si Si6 0.884195 0.383666 0.616303
Si Si7 0.721032 0.934312 0.315121
O O1 0.969506 0.098018 0.860294
O O2 0.908398 0.161460 0.664078
O O3 0.072514 0.143280 0.690484
O O4 0.985250 0.813942 0.723561
O O5 0.694848 0.180587 0.577324
O O6 0.708788 0.261560 0.787743
O O7 0.606489 0.966923 0.709032
O O8 0.031370 0.489105 0.089679
O O9 0.922989 0.185898 0.057084
O O10 0.676926 0.461449 0.432413
O O11 0.830799 0.365709 0.506538
O O12 0.757476 0.132562 0.374160
O O13 0.654119 0.847763 0.399362
O O14 0.825932 0.499676 0.704651
#
# Coordination Sequence:
#
# PCOD8171198 Si02
#       7
#     4   4   4   4   4   4   4
#     4  10  22  41  62  96 127 173 220 273 323 402
#     4  10  22  41  64  91 131 173 218 277 337 384
#     4  11  21  43  66  92 135 174 218 280 327 402
#     4  11  21  41  64  93 131 174 222 278 332 400
#     4  11  23  38  67  94 127 178 219 265 344 388
#     4   9  23  40  64  92 132 169 217 276 336 383
#     4  10  22  42  61  96 129 169 222 275 323 409
#
# _framework density 21.707367999999999
#
# number of rings (size 3 to 8) (size 9 to 14) (size 15 to 20)
#    0.000    1.714    2.857    0.857    0.000    4.571 
#    2.571    0.000    0.000    0.000    0.000    0.000 
#    0.000    0.000    0.000    0.000    0.000    0.000 
#
# Total GULP energy -347143.920064 kJ/mol
# GULP energy per Si atom -12397.997145 kJ/mol
# Density = 2.165796 g / cm^3
# Si number density = 21.707368 Si / 1000 Ang^3
#
#
#
# Elastic Constant Matrix: (Units=GPa)
#
#
# Indices 1 2 3 4 5 6 
#
# 1 92.0648 28.8994 26.9903 0.0000 0.0000 0.0000
# 2 28.8994 109.6847 36.5683 0.0000 0.0000 0.0000
# 3 26.9903 36.5683 75.1089 0.0000 0.0000 0.0000
# 4 0.0000 0.0000 0.0000 32.3947 0.0000 0.0000
# 5 0.0000 0.0000 0.0000 0.0000 27.3935 0.0000
# 6 0.0000 0.0000 0.0000 0.0000 0.0000 35.1631
#
#
#
# Elastic Compliance Matrix: (Units=1/GPa)
#
#
# Indices 1 2 3 4 5 6 
#
# 1 0.012553 -0.002153 -0.003463 0.000000 0.000000 0.000000
# 2 -0.002153 0.011253 -0.004705 0.000000 0.000000 0.000000
# 3 -0.003463 -0.004705 0.016849 0.000000 0.000000 0.000000
# 4 0.000000 0.000000 0.000000 0.030869 0.000000 0.000000
# 5 0.000000 0.000000 0.000000 0.000000 0.036505 0.000000
# 6 0.000000 0.000000 0.000000 0.000000 0.000000 0.028439
#
#
# Mechanical properties :
#
#
# Convention : Reuss Voigt Hill
#
# Bulk Modulus (GPa) = 49.96620 51.30826 50.63723
# Shear Modulus (GPa) = 30.52867 31.28362 30.90615
#
# Velocity S-wave (km/s) = 3.75423 3.80037 3.77737
# Velocity P-wave (km/s) = 6.46996 6.55322 6.51173
#
# Compressibility (1/GPa) = 0.02001353
#
# Stress axis : x y z
#
# Youngs Moduli (GPa) = 79.66309 88.86564 59.35053
#
# Poissons Ratio (x) = 0.19132 0.20551
# Poissons Ratio (y) = 0.17151 0.27925
# Poissons Ratio (z) = 0.27584 0.41812
#
# Static dielectric constant tensor:
#      x y z
#    x 4.020250 0.000000 0.000000 
#    y 0.000000 3.827720 0.000000 
#    z 0.000000 0.000000 3.717460 
# 
# 
# High freq. dielectric constant tensor:
#      x y z
#    x 1.857760 0.000000 0.000000 
#    y 0.000000 1.851020 0.000000 
#    z 0.000000 0.000000 1.839110 
# 
# From -- ./inp_files/6958.got.cif
#   From: 2010.03.12/outbox.cif.g09.slc.cpg/sg33_4_cif.got.tgz:6958.got - 2010.04.14 01:49:19.
