data_PCOD8171605
_publ_section_title
;
Structure prediction by ZEFSAII (Michael W. Deem and Ramdas Pophale) SiO2 
 PCOD8171605
Probable space group: P N A 21
;
_chemical_formula_sum "Si O2"
_cell_formula_units_Z 32
_cell_length_a 8.912915
_cell_length_b 12.091390
_cell_length_c 14.071734
_cell_angle_alpha 90.000000
_cell_angle_beta 90.000000
_cell_angle_gamma 90.000000
_cell_volume 1516.504178
_symmetry_space_group_name_H-M "P N A 21"
_symmetry_group_IT_number 33
_symmetry_cell_setting 'orthorhombic'
loop_
_space_group_symop_operation_xyz
x,y,z
-x,-y,1/2+z
1/2-x,1/2+y,1/2+z
1/2+x,1/2-y,z
loop_
_atom_site_type_symbol
_atom_site_label
_atom_site_fract_x
_atom_site_fract_y
_atom_site_fract_z
Si Si1 0.652115 0.283568 0.426420
Si Si2 0.309225 0.024952 0.335453
Si Si3 0.400507 0.607847 0.362424
Si Si4 0.164199 0.819621 0.636660
Si Si5 0.551153 0.508257 0.189512
Si Si6 0.787879 0.196987 0.922267
Si Si7 0.371437 0.396490 0.498020
Si Si8 0.540811 0.163162 0.248075
O O1 0.777463 0.378787 0.412623
O O2 0.525929 0.329025 0.496211
O O3 0.727591 0.176101 0.471905
O O4 0.568598 0.254434 0.328483
O O5 0.472695 0.048760 0.290072
O O6 0.175363 0.038876 0.260143
O O7 0.312259 0.904736 0.383246
O O8 0.432665 0.579616 0.251854
O O9 0.258328 0.689184 0.370393
O O10 0.538398 0.677118 0.403903
O O11 0.375395 0.497801 0.424087
O O12 0.234475 0.791358 0.534816
O O13 0.302071 0.864300 0.699257
O O14 0.088379 0.709678 0.678578
O O15 0.037169 0.913075 0.633104
O O16 0.642910 0.572901 0.108640
#
# Coordination Sequence:
#
# PCOD8171605 Si02
#       8
#     4   4   4   4   4   4   4   4
#     4  12  21  44  68  96 136 174 225 289 345 394
#     4  11  23  44  64  97 135 181 225 285 340 401
#     4  11  24  45  66  96 140 182 221 279 347 407
#     4  12  21  40  67 104 129 176 235 287 333 412
#     4  11  23  45  69  93 137 183 227 276 351 406
#     4  11  25  43  65  93 145 177 217 279 347 410
#     4  12  25  43  71 102 133 183 227 292 345 408
#     4  12  22  36  72  99 131 172 237 289 338 396
#
# _framework density 21.10116
#
# number of rings (size 3 to 8) (size 9 to 14) (size 15 to 20)
#    0.000    0.500    7.500    1.500    1.750    4.000 
#    2.250    1.250    0.000    0.000    0.000    0.000 
#    0.000    0.000    0.000    0.000    0.000    0.000 
#
# Total GULP energy -396871.729682 kJ/mol
# GULP energy per Si atom -12402.241553 kJ/mol
# Density = 2.105313 g / cm^3
# Si number density = 21.101160 Si / 1000 Ang^3
#
#
#
# Elastic Constant Matrix: (Units=GPa)
#
#
# Indices 1 2 3 4 5 6 
#
# 1 65.9750 37.0357 1.6273 0.0000 0.0000 0.0000
# 2 37.0357 111.4342 32.1991 0.0000 0.0000 0.0000
# 3 1.6273 32.1991 87.7344 0.0000 0.0000 0.0000
# 4 0.0000 0.0000 0.0000 25.4284 0.0000 0.0000
# 5 0.0000 0.0000 0.0000 0.0000 27.4891 0.0000
# 6 0.0000 0.0000 0.0000 0.0000 0.0000 42.9031
#
#
#
# Elastic Compliance Matrix: (Units=1/GPa)
#
#
# Indices 1 2 3 4 5 6 
#
# 1 0.019006 -0.006952 0.002199 0.000000 0.000000 0.000000
# 2 -0.006952 0.012581 -0.004489 0.000000 0.000000 0.000000
# 3 0.002199 -0.004489 0.013005 0.000000 0.000000 0.000000
# 4 0.000000 0.000000 0.000000 0.039326 0.000000 0.000000
# 5 0.000000 0.000000 0.000000 0.000000 0.036378 0.000000
# 6 0.000000 0.000000 0.000000 0.000000 0.000000 0.023308
#
#
# Mechanical properties :
#
#
# Convention : Reuss Voigt Hill
#
# Bulk Modulus (GPa) = 38.30188 45.20753 41.75470
# Shear Modulus (GPa) = 29.27569 32.11619 30.69594
#
# Velocity S-wave (km/s) = 3.72882 3.90553 3.81820
# Velocity P-wave (km/s) = 6.06051 6.46593 6.26650
#
# Compressibility (1/GPa) = 0.02610838
#
# Stress axis : x y z
#
# Youngs Moduli (GPa) = 52.61611 79.48239 76.89603
#
# Poissons Ratio (x) = 0.55256 -0.16909
# Poissons Ratio (y) = 0.36579 0.34515
# Poissons Ratio (z) = -0.11570 0.35676
#
# Static dielectric constant tensor:
#      x y z
#    x 3.752550 0.000000 0.000000 
#    y 0.000000 3.749540 0.000000 
#    z 0.000000 0.000000 3.811990 
# 
# 
# High freq. dielectric constant tensor:
#      x y z
#    x 1.829240 0.000000 0.000000 
#    y 0.000000 1.824150 0.000000 
#    z 0.000000 0.000000 1.822720 
# 
# From -- ./inp_files/7633.got.cif
#   From: 2010.03.12/outbox.cif.g09.slc.cpg/sg33_4_cif.got.tgz:7633.got - 2010.04.14 01:49:19.
