data_PCOD8171120
_publ_section_title
;
Structure prediction by ZEFSAII (Michael W. Deem and Ramdas Pophale) SiO2 
 PCOD8171120
Probable space group: P N A 21
;
_chemical_formula_sum "Si O2"
_cell_formula_units_Z 32
_cell_length_a 12.811119
_cell_length_b 6.099362
_cell_length_c 18.483285
_cell_angle_alpha 90.000000
_cell_angle_beta 90.000000
_cell_angle_gamma 90.000000
_cell_volume 1444.277465
_symmetry_space_group_name_H-M "P N A 21"
_symmetry_group_IT_number 33
_symmetry_cell_setting 'orthorhombic'
loop_
_space_group_symop_operation_xyz
x,y,z
-x,-y,1/2+z
1/2-x,1/2+y,1/2+z
1/2+x,1/2-y,z
loop_
_atom_site_type_symbol
_atom_site_label
_atom_site_fract_x
_atom_site_fract_y
_atom_site_fract_z
Si Si1 0.808479 0.872279 0.443890
Si Si2 0.291638 0.911871 0.573683
Si Si3 0.960473 0.922351 0.245832
Si Si4 0.833528 0.298429 0.194371
Si Si5 0.651066 0.055487 0.827993
Si Si6 0.502111 0.891421 0.127610
Si Si7 0.145508 0.271336 0.498723
Si Si8 0.486263 0.331779 0.380312
O O1 0.845651 0.725700 0.510786
O O2 0.772871 0.701036 0.379824
O O3 0.716409 0.030594 0.469658
O O4 0.910692 0.995551 0.418334
O O5 0.243646 0.727210 0.627131
O O6 0.379252 0.042495 0.616067
O O7 0.208189 0.081687 0.540413
O O8 0.932333 0.710811 0.291048
O O9 0.016504 0.835043 0.173217
O O10 0.857386 0.051940 0.220219
O O11 0.022881 0.086688 0.299918
O O12 0.784801 0.429852 0.263728
O O13 0.939698 0.420913 0.170575
O O14 0.581150 0.890236 0.875838
O O15 0.444336 0.855095 0.051831
O O16 0.091193 0.182195 0.426503
#
# Coordination Sequence:
#
# PCOD8171120 Si02
#       8
#     4   4   4   4   4   4   4   4
#     4  11  23  41  65 101 138 183 227 292 349 414
#     4  12  26  41  69 104 134 182 235 281 355 416
#     4   9  20  44  71  92 136 179 223 291 340 405
#     4  10  21  44  68  98 135 181 228 291 339 413
#     4   9  20  43  68  94 134 182 227 282 342 414
#     4  11  23  42  68 100 139 179 230 286 350 414
#     4  12  24  41  67 101 141 179 231 288 354 411
#     4  10  23  44  70  96 137 179 233 283 349 419
#
# _framework density 22.156410000000001
#
# number of rings (size 3 to 8) (size 9 to 14) (size 15 to 20)
#    0.000    1.500    2.500    2.250    1.750    3.000 
#    0.000   21.250    0.000    0.000    0.000    0.000 
#    0.000    0.000    0.000    0.000    0.000    0.000 
#
# Total GULP energy -396541.739363 kJ/mol
# GULP energy per Si atom -12391.929355 kJ/mol
# Density = 2.210598 g / cm^3
# Si number density = 22.156410 Si / 1000 Ang^3
#
#
#
# Elastic Constant Matrix: (Units=GPa)
#
#
# Indices 1 2 3 4 5 6 
#
# 1 61.3830 22.3965 38.2856 0.0000 0.0000 0.0000
# 2 22.3965 104.7550 52.1463 0.0000 0.0000 0.0000
# 3 38.2856 52.1463 139.4240 0.0000 0.0000 0.0000
# 4 0.0000 0.0000 0.0000 53.9715 0.0000 0.0000
# 5 0.0000 0.0000 0.0000 0.0000 32.9280 0.0000
# 6 0.0000 0.0000 0.0000 0.0000 0.0000 22.3582
#
#
#
# Elastic Compliance Matrix: (Units=1/GPa)
#
#
# Indices 1 2 3 4 5 6 
#
# 1 0.019958 -0.001891 -0.004773 0.000000 0.000000 0.000000
# 2 -0.001891 0.011909 -0.003935 0.000000 0.000000 0.000000
# 3 -0.004773 -0.003935 0.009955 0.000000 0.000000 0.000000
# 4 0.000000 0.000000 0.000000 0.018528 0.000000 0.000000
# 5 0.000000 0.000000 0.000000 0.000000 0.030369 0.000000
# 6 0.000000 0.000000 0.000000 0.000000 0.000000 0.044726
#
#
# Mechanical properties :
#
#
# Convention : Reuss Voigt Hill
#
# Bulk Modulus (GPa) = 48.48731 59.02430 53.75581
# Shear Modulus (GPa) = 30.57747 34.70044 32.63895
#
# Velocity S-wave (km/s) = 3.71896 3.96176 3.84228
# Velocity P-wave (km/s) = 6.35394 6.90109 6.63316
#
# Compressibility (1/GPa) = 0.02062395
#
# Stress axis : x y z
#
# Youngs Moduli (GPa) = 50.10452 83.96909 100.45393
#
# Poissons Ratio (x) = 0.15878 0.47949
# Poissons Ratio (y) = 0.09474 0.39528
# Poissons Ratio (z) = 0.23916 0.33041
#
# Static dielectric constant tensor:
#      x y z
#    x 3.416910 0.000000 0.000000 
#    y 0.000000 4.395470 0.000000 
#    z 0.000000 0.000000 4.682120 
# 
# 
# High freq. dielectric constant tensor:
#      x y z
#    x 1.825010 0.000000 0.000000 
#    y 0.000000 1.893260 0.000000 
#    z 0.000000 0.000000 1.903880 
# 
# From -- ./inp_files/9142.got.cif
#   From: 2010.03.12/outbox.cif.g09.slc.cpg/sg33_5_cif.got.tgz:9142.got - 2010.04.14 01:49:19.
