data_PCOD8171053
_publ_section_title
;
Structure prediction by ZEFSAII (Michael W. Deem and Ramdas Pophale) SiO2 
 PCOD8171053
Probable space group: P N A 21
;
_chemical_formula_sum "Si O2"
_cell_formula_units_Z 32
_cell_length_a 15.082870
_cell_length_b 9.011386
_cell_length_c 10.864547
_cell_angle_alpha 90.000000
_cell_angle_beta 90.000000
_cell_angle_gamma 90.000000
_cell_volume 1476.682757
_symmetry_space_group_name_H-M "P N A 21"
_symmetry_group_IT_number 33
_symmetry_cell_setting 'orthorhombic'
loop_
_space_group_symop_operation_xyz
x,y,z
-x,-y,1/2+z
1/2-x,1/2+y,1/2+z
1/2+x,1/2-y,z
loop_
_atom_site_type_symbol
_atom_site_label
_atom_site_fract_x
_atom_site_fract_y
_atom_site_fract_z
Si Si1 0.762231 0.792414 0.911190
Si Si2 0.374956 0.960233 0.807085
Si Si3 0.723533 0.371110 0.685959
Si Si4 0.291266 0.407749 0.803521
Si Si5 0.160838 0.691149 0.508306
Si Si6 0.857327 0.906303 0.588698
Si Si7 0.110896 0.927969 0.855609
Si Si8 0.993303 0.275163 0.200771
O O1 0.836512 0.705082 0.833362
O O2 0.676086 0.692370 0.915948
O O3 0.738068 0.945864 0.843762
O O4 0.797676 0.834755 0.045780
O O5 0.475941 0.933344 0.759872
O O6 0.319600 0.051048 0.704427
O O7 0.374167 0.048671 0.934742
O O8 0.721330 0.215576 0.759179
O O9 0.650927 0.482453 0.740013
O O10 0.344100 0.336669 0.920128
O O11 0.354416 0.460919 0.690437
O O12 0.259896 0.658342 0.557030
O O13 0.097209 0.712105 0.624648
O O14 0.920507 0.771334 0.624331
O O15 0.908494 0.963120 0.467519
O O16 0.023156 0.845709 0.808506
#
# Coordination Sequence:
#
# PCOD8171053 Si02
#       8
#     4   4   4   4   4   4   4   4
#     4  11  20  38  73  95 128 179 224 274 343 405
#     4  10  23  45  63 103 138 174 231 284 340 416
#     4  10  21  40  69  98 130 179 224 277 341 412
#     4  11  21  39  72 101 129 181 230 275 345 417
#     4  11  25  49  70 102 143 182 235 289 349 421
#     4  12  24  47  71 101 145 181 230 292 348 416
#     4  11  24  43  64 103 136 177 228 286 340 413
#     4  12  28  41  72 105 139 185 234 295 346 416
#
# _framework density 21.670192
#
# number of rings (size 3 to 8) (size 9 to 14) (size 15 to 20)
#    0.000    1.000    6.250    1.500    5.250    2.000 
#    2.250    0.000    0.000    0.000    0.000    0.000 
#    0.000    0.000    0.000    0.000    0.000    0.000 
#
# Total GULP energy -396670.392221 kJ/mol
# GULP energy per Si atom -12395.949757 kJ/mol
# Density = 2.162087 g / cm^3
# Si number density = 21.670192 Si / 1000 Ang^3
#
#
#
# Elastic Constant Matrix: (Units=GPa)
#
#
# Indices 1 2 3 4 5 6 
#
# 1 48.9137 10.9115 28.2102 0.0000 0.0000 0.0000
# 2 10.9115 101.2506 19.1103 0.0000 0.0000 0.0000
# 3 28.2102 19.1103 93.0123 0.0000 0.0000 0.0000
# 4 0.0000 0.0000 0.0000 41.2755 0.0000 0.0000
# 5 0.0000 0.0000 0.0000 0.0000 23.8998 0.0000
# 6 0.0000 0.0000 0.0000 0.0000 0.0000 21.3583
#
#
#
# Elastic Compliance Matrix: (Units=1/GPa)
#
#
# Indices 1 2 3 4 5 6 
#
# 1 0.024945 -0.001311 -0.007296 0.000000 0.000000 0.000000
# 2 -0.001311 0.010344 -0.001728 0.000000 0.000000 0.000000
# 3 -0.007296 -0.001728 0.013319 0.000000 0.000000 0.000000
# 4 0.000000 0.000000 0.000000 0.024227 0.000000 0.000000
# 5 0.000000 0.000000 0.000000 0.000000 0.041841 0.000000
# 6 0.000000 0.000000 0.000000 0.000000 0.000000 0.046820
#
#
# Mechanical properties :
#
#
# Convention : Reuss Voigt Hill
#
# Bulk Modulus (GPa) = 35.79385 39.96009 37.87697
# Shear Modulus (GPa) = 26.11252 29.63635 27.87444
#
# Velocity S-wave (km/s) = 3.47507 3.70213 3.59040
# Velocity P-wave (km/s) = 5.71445 6.06255 5.89107
#
# Compressibility (1/GPa) = 0.02793776
#
# Stress axis : x y z
#
# Youngs Moduli (GPa) = 40.08881 96.67581 75.08001
#
# Poissons Ratio (x) = 0.12675 0.54780
# Poissons Ratio (y) = 0.05256 0.12971
# Poissons Ratio (z) = 0.29250 0.16702
#
# Static dielectric constant tensor:
#      x y z
#    x 3.537420 0.000000 0.000000 
#    y 0.000000 4.142700 0.000000 
#    z 0.000000 0.000000 4.209040 
# 
# 
# High freq. dielectric constant tensor:
#      x y z
#    x 1.811290 0.000000 0.000000 
#    y 0.000000 1.866390 0.000000 
#    z 0.000000 0.000000 1.870390 
# 
# From -- ./inp_files/6764.got.cif
#   From: 2010.03.12/outbox.cif.g09.slc.cpg/sg33_4_cif.got.tgz:6764.got - 2010.04.14 01:49:19.
