data_PCOD8171522
_publ_section_title
;
Structure prediction by ZEFSAII (Michael W. Deem and Ramdas Pophale) SiO2 
 PCOD8171522
Probable space group: P N A 21
;
_chemical_formula_sum "Si O2"
_cell_formula_units_Z 32
_cell_length_a 9.743435
_cell_length_b 19.050450
_cell_length_c 8.586530
_cell_angle_alpha 90.000000
_cell_angle_beta 90.000000
_cell_angle_gamma 90.000000
_cell_volume 1593.804405
_symmetry_space_group_name_H-M "P N A 21"
_symmetry_group_IT_number 33
_symmetry_cell_setting 'orthorhombic'
loop_
_space_group_symop_operation_xyz
x,y,z
-x,-y,1/2+z
1/2-x,1/2+y,1/2+z
1/2+x,1/2-y,z
loop_
_atom_site_type_symbol
_atom_site_label
_atom_site_fract_x
_atom_site_fract_y
_atom_site_fract_z
Si Si1 0.654415 0.972456 0.493580
Si Si2 0.590050 0.543025 0.854426
Si Si3 0.113117 0.528580 0.857859
Si Si4 0.858081 0.044162 0.991939
Si Si5 0.210783 0.682990 0.487487
Si Si6 0.515511 0.696639 0.856626
Si Si7 0.709510 0.818615 0.858780
Si Si8 0.480784 0.306312 0.988533
O O1 0.626478 0.978624 0.674752
O O2 0.652330 0.892168 0.434037
O O3 0.804321 0.003327 0.464529
O O4 0.545645 0.017885 0.398084
O O5 0.623102 0.530889 0.674239
O O6 0.592158 0.624711 0.900556
O O7 0.440142 0.512427 0.889319
O O8 0.160256 0.605249 0.916321
O O9 0.199400 0.468266 0.947150
O O10 0.904408 0.121885 0.943192
O O11 0.214962 0.685151 0.673266
O O12 0.364677 0.694513 0.419371
O O13 0.109378 0.742445 0.418917
O O14 0.603313 0.761025 0.926278
O O15 0.361298 0.697754 0.926125
O O16 0.507932 0.702707 0.671979
#
# Coordination Sequence:
#
# PCOD8171522 Si02
#       8
#     4   4   4   4   4   4   4   4
#     4  11  23  39  59  87 118 151 193 241 291 342
#     4  11  21  37  61  87 115 152 192 236 287 340
#     4  11  23  39  59  87 118 151 193 241 291 342
#     4  11  21  37  61  87 115 152 192 236 287 340
#     4   9  18  33  54  82 113 145 190 239 277 330
#     4   9  18  32  54  83 112 146 191 237 279 329
#     4   9  18  33  54  82 113 145 190 239 277 330
#     4   9  18  32  54  83 112 146 191 237 279 329
#
# _framework density 20.077745
#
# number of rings (size 3 to 8) (size 9 to 14) (size 15 to 20)
#    0.000    2.000    2.500    1.500    3.500    0.000 
#    0.000    0.000    0.000    9.000    0.000    0.000 
#    0.000    0.000    0.000    0.000    0.000    0.000 
#
# Total GULP energy -396852.911973 kJ/mol
# GULP energy per Si atom -12401.653499 kJ/mol
# Density = 2.003205 g / cm^3
# Si number density = 20.077745 Si / 1000 Ang^3
#
#
#
# Elastic Constant Matrix: (Units=GPa)
#
#
# Indices 1 2 3 4 5 6 
#
# 1 93.2091 59.3434 13.2517 0.0000 0.0000 0.0000
# 2 59.3434 145.6068 23.5737 0.0000 0.0000 0.0000
# 3 13.2517 23.5737 36.5579 0.0000 0.0000 0.0000
# 4 0.0000 0.0000 0.0000 18.0453 0.0000 0.0000
# 5 0.0000 0.0000 0.0000 0.0000 29.5574 0.0000
# 6 0.0000 0.0000 0.0000 0.0000 0.0000 20.0756
#
#
#
# Elastic Compliance Matrix: (Units=1/GPa)
#
#
# Indices 1 2 3 4 5 6 
#
# 1 0.014574 -0.005677 -0.001622 0.000000 0.000000 0.000000
# 2 -0.005677 0.009880 -0.004313 0.000000 0.000000 0.000000
# 3 -0.001622 -0.004313 0.030723 0.000000 0.000000 0.000000
# 4 0.000000 0.000000 0.000000 0.055416 0.000000 0.000000
# 5 0.000000 0.000000 0.000000 0.000000 0.033832 0.000000
# 6 0.000000 0.000000 0.000000 0.000000 0.000000 0.049812
#
#
# Mechanical properties :
#
#
# Convention : Reuss Voigt Hill
#
# Bulk Modulus (GPa) = 31.29660 51.96796 41.63228
# Shear Modulus (GPa) = 21.91913 25.48266 23.70090
#
# Velocity S-wave (km/s) = 3.30769 3.56645 3.43950
# Velocity P-wave (km/s) = 5.49630 6.54973 6.04600
#
# Compressibility (1/GPa) = 0.03195235
#
# Stress axis : x y z
#
# Youngs Moduli (GPa) = 68.61758 101.21677 32.54895
#
# Poissons Ratio (x) = 0.57460 0.05279
# Poissons Ratio (y) = 0.38954 0.14038
# Poissons Ratio (z) = 0.11130 0.43655
#
# Static dielectric constant tensor:
#      x y z
#    x 3.997070 0.000000 0.000000 
#    y 0.000000 3.857410 0.000000 
#    z 0.000000 0.000000 3.103280 
# 
# 
# High freq. dielectric constant tensor:
#      x y z
#    x 1.798130 0.000000 0.000000 
#    y 0.000000 1.793730 0.000000 
#    z 0.000000 0.000000 1.735690 
# 
# From -- ./inp_files/6081.got.cif
#   From: 2010.03.12/outbox.cif.g09.slc.cpg/sg33_4_cif.got.tgz:6081.got - 2010.04.14 01:49:19.
