data_PCOD8171441
_publ_section_title
;
Structure prediction by ZEFSAII (Michael W. Deem and Ramdas Pophale) SiO2 
 PCOD8171441
Probable space group: P N A 21
;
_chemical_formula_sum "Si O2"
_cell_formula_units_Z 28
_cell_length_a 14.507677
_cell_length_b 9.351808
_cell_length_c 9.420989
_cell_angle_alpha 90.000000
_cell_angle_beta 90.000000
_cell_angle_gamma 90.000000
_cell_volume 1278.173933
_symmetry_space_group_name_H-M "P N A 21"
_symmetry_group_IT_number 33
_symmetry_cell_setting 'orthorhombic'
loop_
_space_group_symop_operation_xyz
x,y,z
-x,-y,1/2+z
1/2-x,1/2+y,1/2+z
1/2+x,1/2-y,z
loop_
_atom_site_type_symbol
_atom_site_label
_atom_site_fract_x
_atom_site_fract_y
_atom_site_fract_z
Si Si1 0.261055 0.908179 0.131230
Si Si2 0.471191 0.766408 0.515419
Si Si3 0.221334 0.091870 0.691391
Si Si4 0.094220 0.968674 0.931606
Si Si5 0.520564 0.816579 0.834254
Si Si6 0.817277 0.523911 0.429051
Si Si7 0.879996 0.454049 0.907434
O O1 0.305798 0.750105 0.138336
O O2 0.251325 0.955858 0.293702
O O3 0.164851 0.907274 0.048085
O O4 0.326451 0.024110 0.054904
O O5 0.463414 0.596449 0.502080
O O6 0.513358 0.813461 0.665087
O O7 0.371606 0.833202 0.477143
O O8 0.545297 0.827728 0.405091
O O9 0.242922 0.002795 0.551001
O O10 0.141413 0.018549 0.784152
O O11 0.314592 0.093979 0.781387
O O12 0.022375 0.843647 0.895544
O O13 0.610752 0.897519 0.894380
O O14 0.427541 0.892739 0.883655
#
# Coordination Sequence:
#
# PCOD8171441 Si02
#       7
#     4   4   4   4   4   4   4
#     4  11  23  43  69  99 128 172 229 273 322 394
#     4  11  23  42  66 100 132 172 219 269 332 395
#     4  11  23  43  69  99 128 172 229 273 322 394
#     4  11  26  41  67 103 134 166 228 275 326 391
#     4  11  23  42  66 100 132 172 219 269 332 395
#     4  11  22  43  71  92 129 176 216 271 330 387
#     4  10  24  42  70  93 133 180 216 268 334 402
#
# _framework density 21.906251000000001
#
# number of rings (size 3 to 8) (size 9 to 14) (size 15 to 20)
#    0.000    1.143    5.714    0.000    0.000    5.714 
#    0.000    0.000    0.000    0.000    0.000    0.000 
#    0.000    0.000    0.000    0.000    0.000    0.000 
#
# Total GULP energy -347162.377022 kJ/mol
# GULP energy per Si atom -12398.656322 kJ/mol
# Density = 2.185639 g / cm^3
# Si number density = 21.906251 Si / 1000 Ang^3
#
#
#
# Elastic Constant Matrix: (Units=GPa)
#
#
# Indices 1 2 3 4 5 6 
#
# 1 34.9586 3.1770 3.4114 0.0000 0.0000 0.0000
# 2 3.1770 95.3972 9.3187 0.0000 0.0000 0.0000
# 3 3.4114 9.3187 97.5627 0.0000 0.0000 0.0000
# 4 0.0000 0.0000 0.0000 32.1842 0.0000 0.0000
# 5 0.0000 0.0000 0.0000 0.0000 10.9339 0.0000
# 6 0.0000 0.0000 0.0000 0.0000 0.0000 27.4262
#
#
#
# Elastic Compliance Matrix: (Units=1/GPa)
#
#
# Indices 1 2 3 4 5 6 
#
# 1 0.028774 -0.000868 -0.000923 0.000000 0.000000 0.000000
# 2 -0.000868 0.010607 -0.000983 0.000000 0.000000 0.000000
# 3 -0.000923 -0.000983 0.010376 0.000000 0.000000 0.000000
# 4 0.000000 0.000000 0.000000 0.031071 0.000000 0.000000
# 5 0.000000 0.000000 0.000000 0.000000 0.091459 0.000000
# 6 0.000000 0.000000 0.000000 0.000000 0.000000 0.036462
#
#
# Mechanical properties :
#
#
# Convention : Reuss Voigt Hill
#
# Bulk Modulus (GPa) = 22.61962 28.85918 25.73940
# Shear Modulus (GPa) = 21.83083 28.24295 25.03689
#
# Velocity S-wave (km/s) = 3.16025 3.59453 3.38436
# Velocity P-wave (km/s) = 4.86460 5.51634 5.20069
#
# Compressibility (1/GPa) = 0.04420941
#
# Stress axis : x y z
#
# Youngs Moduli (GPa) = 34.75330 94.27383 96.37649
#
# Poissons Ratio (x) = 0.08184 0.08898
# Poissons Ratio (y) = 0.03017 0.09472
# Poissons Ratio (z) = 0.03208 0.09265
#
# Static dielectric constant tensor:
#      x y z
#    x 3.730860 0.000000 0.000000 
#    y 0.000000 3.982050 0.000000 
#    z 0.000000 0.000000 4.056180 
# 
# 
# High freq. dielectric constant tensor:
#      x y z
#    x 1.844550 0.000000 0.000000 
#    y 0.000000 1.865380 0.000000 
#    z 0.000000 0.000000 1.875060 
# 
# From -- ./inp_files/4290.got.cif
#   From: 2010.03.12/outbox.cif.g09.slc.cpg/sg33_3_cif.got.tgz:4290.got - 2010.04.14 01:49:19.
