data_PCOD8171069
_publ_section_title
;
Structure prediction by ZEFSAII (Michael W. Deem and Ramdas Pophale) SiO2 
 PCOD8171069
Probable space group: P N A 21
;
_chemical_formula_sum "Si O2"
_cell_formula_units_Z 32
_cell_length_a 15.984437
_cell_length_b 15.248851
_cell_length_c 6.328318
_cell_angle_alpha 90.000000
_cell_angle_beta 90.000000
_cell_angle_gamma 90.000000
_cell_volume 1542.491429
_symmetry_space_group_name_H-M "P N A 21"
_symmetry_group_IT_number 33
_symmetry_cell_setting 'orthorhombic'
loop_
_space_group_symop_operation_xyz
x,y,z
-x,-y,1/2+z
1/2-x,1/2+y,1/2+z
1/2+x,1/2-y,z
loop_
_atom_site_type_symbol
_atom_site_label
_atom_site_fract_x
_atom_site_fract_y
_atom_site_fract_z
Si Si1 0.173738 0.117684 0.100210
Si Si2 0.634799 0.200333 0.266051
Si Si3 0.466798 0.629256 0.282591
Si Si4 0.878378 0.586912 0.154740
Si Si5 0.498366 0.185467 0.917350
Si Si6 0.154314 0.571502 0.395319
Si Si7 0.723847 0.044444 0.046353
Si Si8 0.096900 0.004950 0.443325
O O1 0.174608 0.203120 0.250948
O O2 0.129168 0.037348 0.217880
O O3 0.123556 0.137131 0.888790
O O4 0.266034 0.090285 0.038742
O O5 0.632046 0.175593 0.514424
O O6 0.700456 0.133710 0.163052
O O7 0.543472 0.199382 0.146639
O O8 0.500802 0.728160 0.269949
O O9 0.532161 0.574139 0.421483
O O10 0.452364 0.585049 0.055607
O O11 0.955851 0.603489 0.307911
O O12 0.799214 0.558296 0.299627
O O13 0.898829 0.507926 0.997051
O O14 0.401260 0.158636 0.918554
O O15 0.178231 0.540244 0.156438
O O16 0.823227 0.029734 0.075121
#
# Coordination Sequence:
#
# PCOD8171069 Si02
#       8
#     4   4   4   4   4   4   4   4
#     4  11  22  42  63  93 128 166 212 271 327 379
#     4   9  22  41  64  89 129 166 210 268 317 381
#     4  11  24  42  65  92 126 169 215 270 322 387
#     4  10  21  41  63  92 128 169 210 260 329 381
#     4  10  24  40  63  95 128 167 215 264 320 385
#     4  11  23  38  65  95 128 170 213 264 326 395
#     4  10  22  39  64  94 125 166 210 261 326 392
#     4  12  22  41  67  90 126 169 215 264 323 394
#
# _framework density 20.745660000000001
#
# number of rings (size 3 to 8) (size 9 to 14) (size 15 to 20)
#    0.000    1.500    3.750    0.750    7.000    0.000 
#    0.000    0.000    0.000    0.000    0.000    0.000 
#    0.000    0.000    0.000    0.000    0.000    0.000 
#
# Total GULP energy -396660.031614 kJ/mol
# GULP energy per Si atom -12395.625988 kJ/mol
# Density = 2.069844 g / cm^3
# Si number density = 20.745660 Si / 1000 Ang^3
#
#
#
# Elastic Constant Matrix: (Units=GPa)
#
#
# Indices 1 2 3 4 5 6 
#
# 1 93.3213 45.5558 31.8738 0.0000 0.0000 0.0000
# 2 45.5558 94.8811 19.7131 0.0000 0.0000 0.0000
# 3 31.8738 19.7131 86.1613 0.0000 0.0000 0.0000
# 4 0.0000 0.0000 0.0000 35.4824 0.0000 0.0000
# 5 0.0000 0.0000 0.0000 0.0000 28.0218 0.0000
# 6 0.0000 0.0000 0.0000 0.0000 0.0000 30.9928
#
#
#
# Elastic Compliance Matrix: (Units=1/GPa)
#
#
# Indices 1 2 3 4 5 6 
#
# 1 0.015307 -0.006481 -0.004180 0.000000 0.000000 0.000000
# 2 -0.006481 0.013810 -0.000762 0.000000 0.000000 0.000000
# 3 -0.004180 -0.000762 0.013327 0.000000 0.000000 0.000000
# 4 0.000000 0.000000 0.000000 0.028183 0.000000 0.000000
# 5 0.000000 0.000000 0.000000 0.000000 0.035686 0.000000
# 6 0.000000 0.000000 0.000000 0.000000 0.000000 0.032266
#
#
# Mechanical properties :
#
#
# Convention : Reuss Voigt Hill
#
# Bulk Modulus (GPa) = 51.02618 52.07210 51.54914
# Shear Modulus (GPa) = 29.76961 30.71414 30.24188
#
# Velocity S-wave (km/s) = 3.79222 3.85191 3.82218
# Velocity P-wave (km/s) = 6.61998 6.70356 6.66190
#
# Compressibility (1/GPa) = 0.01959778
#
# Stress axis : x y z
#
# Youngs Moduli (GPa) = 65.32941 72.41345 75.03734
#
# Poissons Ratio (x) = 0.46931 0.31364
# Poissons Ratio (y) = 0.42340 0.05718
# Poissons Ratio (z) = 0.27306 0.05518
#
# Static dielectric constant tensor:
#      x y z
#    x 3.671950 0.000000 0.000000 
#    y 0.000000 3.834550 0.000000 
#    z 0.000000 0.000000 3.764010 
# 
# 
# High freq. dielectric constant tensor:
#      x y z
#    x 1.802160 0.000000 0.000000 
#    y 0.000000 1.817200 0.000000 
#    z 0.000000 0.000000 1.807740 
# 
# From -- ./inp_files/1496.got.cif
#   From: 2010.03.12/outbox.cif.g09.slc.cpg/sg33_1_cif.got.tgz:1496.got - 2010.04.14 01:49:19.
