data_PCOD8171030
_publ_section_title
;
Structure prediction by ZEFSAII (Michael W. Deem and Ramdas Pophale) SiO2 
 PCOD8171030
Probable space group: P N A 21
;
_chemical_formula_sum "Si O2"
_cell_formula_units_Z 20
_cell_length_a 13.033001
_cell_length_b 9.045756
_cell_length_c 8.054326
_cell_angle_alpha 90.000000
_cell_angle_beta 90.000000
_cell_angle_gamma 90.000000
_cell_volume 949.551450
_symmetry_space_group_name_H-M "P N A 21"
_symmetry_group_IT_number 33
_symmetry_cell_setting 'orthorhombic'
loop_
_space_group_symop_operation_xyz
x,y,z
-x,-y,1/2+z
1/2-x,1/2+y,1/2+z
1/2+x,1/2-y,z
loop_
_atom_site_type_symbol
_atom_site_label
_atom_site_fract_x
_atom_site_fract_y
_atom_site_fract_z
Si Si1 0.746172 0.312136 0.182950
Si Si2 0.064087 0.811468 0.873899
Si Si3 0.574991 0.546968 0.232649
Si Si4 0.591992 0.839068 0.417787
Si Si5 0.429656 0.901495 0.692377
O O1 0.826631 0.255751 0.320833
O O2 0.678575 0.449753 0.247837
O O3 0.675860 0.173348 0.137815
O O4 0.801530 0.363608 0.014382
O O5 0.979585 0.682548 0.850977
O O6 0.068222 0.867158 0.060317
O O7 0.026813 0.946419 0.754701
O O8 0.576848 0.666409 0.379926
O O9 0.501149 0.898213 0.532639
O O10 0.593372 0.930703 0.246722
#
# Coordination Sequence:
#
# PCOD8171030 Si02
#       5
#     4   4   4   4   4
#     4  10  22  39  59  88 120 156 200 244 294 355
#     4  10  21  40  61  87 122 157 200 245 296 353
#     4  11  22  40  64  87 119 162 199 244 297 354
#     4  11  23  39  62  89 120 158 199 245 299 351
#     4  10  22  40  60  89 123 155 198 248 296 353
#
# _framework density 21.062577000000001
#
# number of rings (size 3 to 8) (size 9 to 14) (size 15 to 20)
#    0.000    1.600    0.000    6.000    0.000    4.800 
#    0.000   12.000    0.000    0.000    0.000    0.000 
#    0.000    0.000    0.000    0.000    0.000    0.000 
#
# Total GULP energy -247997.081993 kJ/mol
# GULP energy per Si atom -12399.854100 kJ/mol
# Density = 2.101464 g / cm^3
# Si number density = 21.062577 Si / 1000 Ang^3
#
#
#
# Elastic Constant Matrix: (Units=GPa)
#
#
# Indices 1 2 3 4 5 6 
#
# 1 108.7892 31.0916 31.3498 0.0000 0.0000 0.0000
# 2 31.0916 116.2949 34.3240 0.0000 0.0000 0.0000
# 3 31.3498 34.3240 90.3506 0.0000 0.0000 0.0000
# 4 0.0000 0.0000 0.0000 49.7180 0.0000 0.0000
# 5 0.0000 0.0000 0.0000 0.0000 15.5308 0.0000
# 6 0.0000 0.0000 0.0000 0.0000 0.0000 21.0527
#
#
#
# Elastic Compliance Matrix: (Units=1/GPa)
#
#
# Indices 1 2 3 4 5 6 
#
# 1 0.010599 -0.001969 -0.002930 0.000000 0.000000 0.000000
# 2 -0.001969 0.010051 -0.003135 0.000000 0.000000 0.000000
# 3 -0.002930 -0.003135 0.013275 0.000000 0.000000 0.000000
# 4 0.000000 0.000000 0.000000 0.020113 0.000000 0.000000
# 5 0.000000 0.000000 0.000000 0.000000 0.064388 0.000000
# 6 0.000000 0.000000 0.000000 0.000000 0.000000 0.047500
#
#
# Mechanical properties :
#
#
# Convention : Reuss Voigt Hill
#
# Bulk Modulus (GPa) = 55.99776 56.55171 56.27474
# Shear Modulus (GPa) = 26.60331 31.83824 29.22078
#
# Velocity S-wave (km/s) = 3.55781 3.89215 3.72873
# Velocity P-wave (km/s) = 6.59708 6.86339 6.73155
#
# Compressibility (1/GPa) = 0.01785786
#
# Stress axis : x y z
#
# Youngs Moduli (GPa) = 94.34806 99.49730 75.32681
#
# Poissons Ratio (x) = 0.19591 0.22068
# Poissons Ratio (y) = 0.18577 0.23615
# Poissons Ratio (z) = 0.27640 0.31192
#
# Static dielectric constant tensor:
#      x y z
#    x 3.926250 0.000000 0.000000 
#    y 0.000000 4.027370 0.000000 
#    z 0.000000 0.000000 3.563180 
# 
# 
# High freq. dielectric constant tensor:
#      x y z
#    x 1.826420 0.000000 0.000000 
#    y 0.000000 1.841040 0.000000 
#    z 0.000000 0.000000 1.818300 
# 
# From -- ./inp_files/3637.got.cif
#   From: 2010.03.12/outbox.cif.g09.slc.cpg/sg33_2_cif.got.tgz:3637.got - 2010.04.14 01:49:19.
