data_PCOD8171694
_publ_section_title
;
Structure prediction by ZEFSAII (Michael W. Deem and Ramdas Pophale) SiO2 
 PCOD8171694
Probable space group: P N A 21
;
_chemical_formula_sum "Si O2"
_cell_formula_units_Z 20
_cell_length_a 8.948701
_cell_length_b 9.914263
_cell_length_c 9.545598
_cell_angle_alpha 90.000000
_cell_angle_beta 90.000000
_cell_angle_gamma 90.000000
_cell_volume 846.883309
_symmetry_space_group_name_H-M "P N A 21"
_symmetry_group_IT_number 33
_symmetry_cell_setting 'orthorhombic'
loop_
_space_group_symop_operation_xyz
x,y,z
-x,-y,1/2+z
1/2-x,1/2+y,1/2+z
1/2+x,1/2-y,z
loop_
_atom_site_type_symbol
_atom_site_label
_atom_site_fract_x
_atom_site_fract_y
_atom_site_fract_z
Si Si1 0.825139 0.077203 0.897870
Si Si2 0.246641 0.896534 0.905391
Si Si3 0.408209 0.139884 0.453075
Si Si4 0.248797 0.661778 0.228407
Si Si5 0.515296 0.533574 0.130104
O O1 0.781147 0.227881 0.848573
O O2 0.930879 0.994998 0.787481
O O3 0.668520 0.001894 0.915544
O O4 0.921191 0.080345 0.043117
O O5 0.419032 0.869214 0.926397
O O6 0.164291 0.758518 0.856703
O O7 0.232308 0.012218 0.791257
O O8 0.171058 0.935427 0.053086
O O9 0.384278 0.171835 0.617765
O O10 0.407564 0.668389 0.142965
#
# Coordination Sequence:
#
# PCOD8171694 Si02
#       5
#     4   4   4   4   4
#     4  11  25  48  79 104 148 196 246 305 380 441
#     4  12  26  46  72 106 146 192 250 304 365 447
#     4  11  27  46  72 107 144 199 242 305 376 441
#     4  11  26  49  75 105 150 195 249 305 380 440
#     4  11  24  47  76 108 144 196 243 311 365 441
#
# _framework density 23.616005999999999
#
# number of rings (size 3 to 8) (size 9 to 14) (size 15 to 20)
#    0.000    0.800    4.000    2.400    5.600    0.000 
#   10.800    0.000    0.000    0.000    0.000    0.000 
#    0.000    0.000    0.000    0.000    0.000    0.000 
#
# Total GULP energy -247780.078967 kJ/mol
# GULP energy per Si atom -12389.003948 kJ/mol
# Density = 2.356225 g / cm^3
# Si number density = 23.616006 Si / 1000 Ang^3
#
#
#
# Elastic Constant Matrix: (Units=GPa)
#
#
# Indices 1 2 3 4 5 6 
#
# 1 194.5595 55.6030 36.0120 0.0000 0.0000 0.0000
# 2 55.6030 125.9251 45.9995 0.0000 0.0000 0.0000
# 3 36.0120 45.9995 98.1486 0.0000 0.0000 0.0000
# 4 0.0000 0.0000 0.0000 24.9780 0.0000 0.0000
# 5 0.0000 0.0000 0.0000 0.0000 29.6133 0.0000
# 6 0.0000 0.0000 0.0000 0.0000 0.0000 26.7423
#
#
#
# Elastic Compliance Matrix: (Units=1/GPa)
#
#
# Indices 1 2 3 4 5 6 
#
# 1 0.005989 -0.002222 -0.001156 0.000000 0.000000 0.000000
# 2 -0.002222 0.010406 -0.004062 0.000000 0.000000 0.000000
# 3 -0.001156 -0.004062 0.012516 0.000000 0.000000 0.000000
# 4 0.000000 0.000000 0.000000 0.040035 0.000000 0.000000
# 5 0.000000 0.000000 0.000000 0.000000 0.033769 0.000000
# 6 0.000000 0.000000 0.000000 0.000000 0.000000 0.037394
#
#
# Mechanical properties :
#
#
# Convention : Reuss Voigt Hill
#
# Bulk Modulus (GPa) = 71.26699 77.09582 74.18140
# Shear Modulus (GPa) = 31.31537 35.00130 33.15834
#
# Velocity S-wave (km/s) = 3.64541 3.85398 3.75115
# Velocity P-wave (km/s) = 6.92543 7.24712 7.08810
#
# Compressibility (1/GPa) = 0.01403174
#
# Stress axis : x y z
#
# Youngs Moduli (GPa) = 166.97722 96.09695 79.89534
#
# Poissons Ratio (x) = 0.21354 0.09235
# Poissons Ratio (y) = 0.37105 0.32451
# Poissons Ratio (z) = 0.19301 0.39032
#
# Static dielectric constant tensor:
#      x y z
#    x 4.574690 0.000000 0.000000 
#    y 0.000000 4.293230 0.000000 
#    z 0.000000 0.000000 4.467400 
# 
# 
# High freq. dielectric constant tensor:
#      x y z
#    x 1.967800 0.000000 0.000000 
#    y 0.000000 1.918630 0.000000 
#    z 0.000000 0.000000 1.930220 
# 
# From -- ./inp_files/3020.got.cif
#   From: 2010.03.12/outbox.cif.g09.slc.cpg/sg33_2_cif.got.tgz:3020.got - 2010.04.14 01:49:19.
