data_PCOD8171876
_publ_section_title
;
Structure prediction by ZEFSAII (Michael W. Deem and Ramdas Pophale) SiO2 
 PCOD8171876
Probable space group: P N N 2
;
_chemical_formula_sum "Si O2"
_cell_formula_units_Z 28
_cell_length_a 17.113529
_cell_length_b 8.067267
_cell_length_c 9.687477
_cell_angle_alpha 90.000000
_cell_angle_beta 90.000000
_cell_angle_gamma 90.000000
_cell_volume 1337.447337
_symmetry_space_group_name_H-M "P N N 2"
_symmetry_group_IT_number 34
_symmetry_cell_setting 'orthorhombic'
loop_
_space_group_symop_operation_xyz
x,y,z
-x,-y,z
1/2-x,1/2+y,1/2+z
1/2+x,1/2-y,1/2+z
loop_
_atom_site_type_symbol
_atom_site_label
_atom_site_fract_x
_atom_site_fract_y
_atom_site_fract_z
Si Si1 0.158388 0.518405 0.542270
Si Si2 0.881359 0.052290 0.299632
Si Si3 0.753512 0.790420 0.813662
Si Si4 0.000000 0.500000 0.986831
Si Si5 0.500000 0.000000 0.932520
Si Si6 0.801023 0.860830 0.527686
Si Si7 0.337912 0.022290 0.353983
Si Si8 0.033560 0.247847 0.220781
O O1 0.216669 0.602601 0.434683
O O2 0.068599 0.582732 0.523107
O O3 0.162470 0.321231 0.524524
O O4 0.180131 0.573813 0.696481
O O5 0.861248 0.992201 0.457427
O O6 0.896039 0.885857 0.207488
O O7 0.809304 0.161500 0.244502
O O8 0.957733 0.163111 0.288684
O O9 0.785286 0.906992 0.689265
O O10 0.821498 0.674585 0.876849
O O11 0.927661 0.447160 0.892256
O O12 0.019673 0.336157 0.075349
O O13 0.553857 0.115909 0.834960
O O14 0.718216 0.865797 0.448325
#
# Coordination Sequence:
#
# PCOD8171876 Si02
#       8
#     4   4   4   2   2   4   4   4
#     4  11  22  40  61  91 125 162 207 251 312 364
#     4  10  19  37  57  95 122 157 204 253 302 363
#     4  10  22  39  62  88 124 165 203 252 307 371
#     4  11  23  42  62  90 124 164 212 250 320 370
#     4  11  19  36  62  90 114 164 200 246 296 368
#     4  10  22  37  60  89 125 155 208 250 305 364
#     4  10  24  40  61  89 122 164 202 263 305 368
#     4  10  21  34  63  91 121 159 200 254 301 369
#
# _framework density 20.935406
#
# number of rings (size 3 to 8) (size 9 to 14) (size 15 to 20)
#    0.000    1.714    2.857    1.286    2.000    5.714 
#    0.000    0.000    0.000    0.000    3.714    0.000 
#    0.000    0.000    0.000    0.000    0.000    0.000 
#
# Total GULP energy -346951.811702 kJ/mol
# GULP energy per Si atom -12391.136132 kJ/mol
# Density = 2.088776 g / cm^3
# Si number density = 20.935406 Si / 1000 Ang^3
#
#
#
# Elastic Constant Matrix: (Units=GPa)
#
#
# Indices 1 2 3 4 5 6 
#
# 1 68.0610 0.7924 33.9444 0.0000 0.0000 0.0000
# 2 0.7924 50.7507 33.2938 0.0000 0.0000 0.0000
# 3 33.9444 33.2938 126.3125 0.0000 0.0000 0.0000
# 4 0.0000 0.0000 0.0000 31.0710 0.0000 0.0000
# 5 0.0000 0.0000 0.0000 0.0000 29.7391 0.0000
# 6 0.0000 0.0000 0.0000 0.0000 0.0000 39.5097
#
#
#
# Elastic Compliance Matrix: (Units=1/GPa)
#
#
# Indices 1 2 3 4 5 6 
#
# 1 0.017435 0.003387 -0.005578 0.000000 0.000000 0.000000
# 2 0.003387 0.024482 -0.007363 0.000000 0.000000 0.000000
# 3 -0.005578 -0.007363 0.011357 0.000000 0.000000 0.000000
# 4 0.000000 0.000000 0.000000 0.032184 0.000000 0.000000
# 5 0.000000 0.000000 0.000000 0.000000 0.033626 0.000000
# 6 0.000000 0.000000 0.000000 0.000000 0.000000 0.025310
#
#
# Mechanical properties :
#
#
# Convention : Reuss Voigt Hill
#
# Bulk Modulus (GPa) = 29.26939 42.35393 35.81166
# Shear Modulus (GPa) = 28.58918 31.87018 30.22968
#
# Velocity S-wave (km/s) = 3.69940 3.90591 3.80406
# Velocity P-wave (km/s) = 5.67966 6.37309 6.03634
#
# Compressibility (1/GPa) = 0.03416538
#
# Stress axis : x y z
#
# Youngs Moduli (GPa) = 57.35466 40.84671 88.05316
#
# Poissons Ratio (x) = -0.13836 0.49119
# Poissons Ratio (y) = -0.19428 0.64836
# Poissons Ratio (z) = 0.31994 0.30076
#
# Static dielectric constant tensor:
#      x y z
#    x 3.879100 0.000000 0.000000 
#    y 0.000000 3.867910 0.000000 
#    z 0.000000 0.000000 3.692050 
# 
# 
# High freq. dielectric constant tensor:
#      x y z
#    x 1.823750 0.000000 0.000000 
#    y 0.000000 1.811160 0.000000 
#    z 0.000000 0.000000 1.810140 
# 
# From -- ./inp_files/2796.got.cif
#   From: 2010.03.12/outbox.cif.g09.slc.cpg/sg34_2_cif.got.tgz:2796.got - 2010.04.14 01:56:33.
