data_PCOD8171421
_publ_section_title
;
Structure prediction by ZEFSAII (Michael W. Deem and Ramdas Pophale) SiO2 
 PCOD8171421
Probable space group: P N A 21
;
_chemical_formula_sum "Si O2"
_cell_formula_units_Z 28
_cell_length_a 8.821749
_cell_length_b 17.024973
_cell_length_c 10.173656
_cell_angle_alpha 90.000000
_cell_angle_beta 90.000000
_cell_angle_gamma 90.000000
_cell_volume 1527.981787
_symmetry_space_group_name_H-M "P N A 21"
_symmetry_group_IT_number 33
_symmetry_cell_setting 'orthorhombic'
loop_
_space_group_symop_operation_xyz
x,y,z
-x,-y,1/2+z
1/2-x,1/2+y,1/2+z
1/2+x,1/2-y,z
loop_
_atom_site_type_symbol
_atom_site_label
_atom_site_fract_x
_atom_site_fract_y
_atom_site_fract_z
Si Si1 0.099871 0.766175 0.622450
Si Si2 0.584606 0.441264 0.291471
Si Si3 0.344351 0.559200 0.264662
Si Si4 0.737167 0.608190 0.770862
Si Si5 0.525597 0.208494 0.400575
Si Si6 0.820353 0.858006 0.535615
Si Si7 0.278495 0.649820 0.008784
O O1 0.234679 0.830839 0.647589
O O2 0.042396 0.733357 0.761460
O O3 0.170321 0.694432 0.542668
O O4 0.969195 0.803471 0.532715
O O5 0.521906 0.530533 0.272428
O O6 0.437903 0.385849 0.322347
O O7 0.671553 0.416365 0.159588
O O8 0.695414 0.426766 0.415032
O O9 0.235982 0.483451 0.231984
O O10 0.300951 0.591721 0.405797
O O11 0.317960 0.625887 0.157148
O O12 0.856539 0.636506 0.879481
O O13 0.613615 0.279015 0.469120
O O14 0.395174 0.177245 0.497693
#
# Coordination Sequence:
#
# PCOD8171421 Si02
#       7
#     4   4   4   4   4   4   4
#     4  11  18  34  62  85 105 149 209 229 276 350
#     4   9  18  37  60  81 109 157 195 228 283 357
#     4  10  24  37  57  88 130 141 193 251 309 337
#     4   9  19  37  57  85 113 149 197 242 275 357
#     4  12  18  37  63  86 108 157 205 240 273 363
#     4  11  20  37  60  85 113 157 189 244 285 347
#     4  12  21  37  63  90 114 156 198 246 295 347
#
# _framework density 18.324825000000001
#
# number of rings (size 3 to 8) (size 9 to 14) (size 15 to 20)
#    0.857    0.571    7.143    0.857    0.000    1.143 
#    2.571    0.000    0.000    0.000    0.000    0.000 
#    0.000    0.000    0.000    0.000    0.000    0.000 
#
# Total GULP energy -346919.961185 kJ/mol
# GULP energy per Si atom -12389.998614 kJ/mol
# Density = 1.828312 g / cm^3
# Si number density = 18.324825 Si / 1000 Ang^3
#
#
#
# Elastic Constant Matrix: (Units=GPa)
#
#
# Indices 1 2 3 4 5 6 
#
# 1 52.2509 23.9752 22.1077 0.0000 0.0000 0.0000
# 2 23.9752 81.0279 32.5195 0.0000 0.0000 0.0000
# 3 22.1077 32.5195 85.5232 0.0000 0.0000 0.0000
# 4 0.0000 0.0000 0.0000 27.6388 0.0000 0.0000
# 5 0.0000 0.0000 0.0000 0.0000 13.2827 0.0000
# 6 0.0000 0.0000 0.0000 0.0000 0.0000 24.2378
#
#
#
# Elastic Compliance Matrix: (Units=1/GPa)
#
#
# Indices 1 2 3 4 5 6 
#
# 1 0.023253 -0.005272 -0.004006 0.000000 0.000000 0.000000
# 2 -0.005272 0.015759 -0.004629 0.000000 0.000000 0.000000
# 3 -0.004006 -0.004629 0.014489 0.000000 0.000000 0.000000
# 4 0.000000 0.000000 0.000000 0.036181 0.000000 0.000000
# 5 0.000000 0.000000 0.000000 0.000000 0.075286 0.000000
# 6 0.000000 0.000000 0.000000 0.000000 0.000000 0.041258
#
#
# Mechanical properties :
#
#
# Convention : Reuss Voigt Hill
#
# Bulk Modulus (GPa) = 38.93338 41.77851 40.35595
# Shear Modulus (GPa) = 20.60982 22.37851 21.49416
#
# Velocity S-wave (km/s) = 3.35728 3.49838 3.42856
# Velocity P-wave (km/s) = 6.02668 6.25832 6.14359
#
# Compressibility (1/GPa) = 0.02568490
#
# Stress axis : x y z
#
# Youngs Moduli (GPa) = 43.00591 63.45395 69.01974
#
# Poissons Ratio (x) = 0.33456 0.27649
# Poissons Ratio (y) = 0.22674 0.31953
# Poissons Ratio (z) = 0.17228 0.29376
#
# Static dielectric constant tensor:
#      x y z
#    x 3.396260 0.000000 0.000000 
#    y 0.000000 3.488400 0.000000 
#    z 0.000000 0.000000 3.025820 
# 
# 
# High freq. dielectric constant tensor:
#      x y z
#    x 1.698480 0.000000 0.000000 
#    y 0.000000 1.711950 0.000000 
#    z 0.000000 0.000000 1.678260 
# 
# From -- ./inp_files/3401.got.cif
#   From: 2010.03.12/outbox.cif.g09.slc.cpg/sg33_2_cif.got.tgz:3401.got - 2010.04.14 01:49:19.
