data_PCOD8171682
_publ_section_title
;
Structure prediction by ZEFSAII (Michael W. Deem and Ramdas Pophale) SiO2 
 PCOD8171682
Probable space group: P N A 21
;
_chemical_formula_sum "Si O2"
_cell_formula_units_Z 28
_cell_length_a 9.485415
_cell_length_b 13.606911
_cell_length_c 9.601234
_cell_angle_alpha 90.000000
_cell_angle_beta 90.000000
_cell_angle_gamma 90.000000
_cell_volume 1239.204367
_symmetry_space_group_name_H-M "P N A 21"
_symmetry_group_IT_number 33
_symmetry_cell_setting 'orthorhombic'
loop_
_space_group_symop_operation_xyz
x,y,z
-x,-y,1/2+z
1/2-x,1/2+y,1/2+z
1/2+x,1/2-y,z
loop_
_atom_site_type_symbol
_atom_site_label
_atom_site_fract_x
_atom_site_fract_y
_atom_site_fract_z
Si Si1 0.171096 0.529624 0.945140
Si Si2 0.352059 0.546544 0.685287
Si Si3 0.825886 0.073989 0.185452
Si Si4 0.291153 0.372972 0.490986
Si Si5 0.268061 0.229868 0.028959
Si Si6 0.533859 0.164630 0.863495
Si Si7 0.499654 0.790745 0.048325
O O1 0.305160 0.548554 0.846038
O O2 0.071239 0.449885 0.871188
O O3 0.222922 0.495183 0.096734
O O4 0.080025 0.626988 0.960042
O O5 0.518253 0.530204 0.674803
O O6 0.276265 0.455047 0.610173
O O7 0.315926 0.649336 0.615089
O O8 0.777707 0.070582 0.345144
O O9 0.816521 0.185055 0.132995
O O10 0.439027 0.314839 0.502891
O O11 0.165397 0.294247 0.510033
O O12 0.408526 0.182344 0.970167
O O13 0.170350 0.270920 0.905046
O O14 0.479801 0.195161 0.712357
#
# Coordination Sequence:
#
# PCOD8171682 Si02
#       7
#     4   4   4   4   4   4   4
#     4  11  27  46  73 105 147 190 246 297 368 441
#     4  12  25  49  72 111 146 191 248 300 366 444
#     4  11  27  46  75 108 143 191 239 303 370 433
#     4  12  29  46  77 106 150 195 244 305 365 434
#     4  11  24  45  77 103 145 187 238 298 366 436
#     4  11  24  46  73 109 138 191 237 301 363 438
#     4  12  28  48  73 108 151 193 248 304 368 436
#
# _framework density 22.595141999999999
#
# number of rings (size 3 to 8) (size 9 to 14) (size 15 to 20)
#    0.000    0.571    2.857    3.429   12.000    2.286 
#    0.000    0.000    0.000    0.000    0.000    0.000 
#    0.000    0.000    0.000    0.000    0.000    0.000 
#
# Total GULP energy -347456.912965 kJ/mol
# GULP energy per Si atom -12409.175463 kJ/mol
# Density = 2.254371 g / cm^3
# Si number density = 22.595142 Si / 1000 Ang^3
#
#
#
# Elastic Constant Matrix: (Units=GPa)
#
#
# Indices 1 2 3 4 5 6 
#
# 1 62.0238 -3.8013 27.3437 0.0000 0.0000 0.0000
# 2 -3.8013 77.4919 29.8733 0.0000 0.0000 0.0000
# 3 27.3437 29.8733 96.6381 0.0000 0.0000 0.0000
# 4 0.0000 0.0000 0.0000 24.2683 0.0000 0.0000
# 5 0.0000 0.0000 0.0000 0.0000 36.6167 0.0000
# 6 0.0000 0.0000 0.0000 0.0000 0.0000 29.5690
#
#
#
# Elastic Compliance Matrix: (Units=1/GPa)
#
#
# Indices 1 2 3 4 5 6 
#
# 1 0.019199 0.003447 -0.006498 0.000000 0.000000 0.000000
# 2 0.003447 0.015269 -0.005695 0.000000 0.000000 0.000000
# 3 -0.006498 -0.005695 0.013947 0.000000 0.000000 0.000000
# 4 0.000000 0.000000 0.000000 0.041206 0.000000 0.000000
# 5 0.000000 0.000000 0.000000 0.000000 0.027310 0.000000
# 6 0.000000 0.000000 0.000000 0.000000 0.000000 0.033819
#
#
# Mechanical properties :
#
#
# Convention : Reuss Voigt Hill
#
# Bulk Modulus (GPa) = 32.33938 38.10949 35.22444
# Shear Modulus (GPa) = 28.00334 30.27333 29.13834
#
# Velocity S-wave (km/s) = 3.52426 3.66432 3.59497
# Velocity P-wave (km/s) = 5.55915 5.89965 5.73193
#
# Compressibility (1/GPa) = 0.03092205
#
# Stress axis : x y z
#
# Youngs Moduli (GPa) = 52.08703 65.49129 71.70008
#
# Poissons Ratio (x) = -0.22572 0.46589
# Poissons Ratio (y) = -0.17953 0.40836
# Poissons Ratio (z) = 0.33845 0.37299
#
# Static dielectric constant tensor:
#      x y z
#    x 4.076570 0.000000 0.000000 
#    y 0.000000 4.024290 0.000000 
#    z 0.000000 0.000000 4.062370 
# 
# 
# High freq. dielectric constant tensor:
#      x y z
#    x 1.901920 0.000000 0.000000 
#    y 0.000000 1.895610 0.000000 
#    z 0.000000 0.000000 1.899410 
# 
# From -- ./inp_files/3201.got.cif
#   From: 2010.03.12/outbox.cif.g09.slc.cpg/sg33_2_cif.got.tgz:3201.got - 2010.04.14 01:49:19.
