data_PCOD8171480
_publ_section_title
;
Structure prediction by ZEFSAII (Michael W. Deem and Ramdas Pophale) SiO2 
 PCOD8171480
Probable space group: P N A 21
;
_chemical_formula_sum "Si O2"
_cell_formula_units_Z 28
_cell_length_a 16.114110
_cell_length_b 9.047258
_cell_length_c 8.088215
_cell_angle_alpha 90.000000
_cell_angle_beta 90.000000
_cell_angle_gamma 90.000000
_cell_volume 1179.168818
_symmetry_space_group_name_H-M "P N A 21"
_symmetry_group_IT_number 33
_symmetry_cell_setting 'orthorhombic'
loop_
_space_group_symop_operation_xyz
x,y,z
-x,-y,1/2+z
1/2-x,1/2+y,1/2+z
1/2+x,1/2-y,z
loop_
_atom_site_type_symbol
_atom_site_label
_atom_site_fract_x
_atom_site_fract_y
_atom_site_fract_z
Si Si1 0.195529 0.883501 0.015240
Si Si2 0.919336 0.952308 0.276046
Si Si3 0.364838 0.745536 0.989916
Si Si4 0.209674 0.972571 0.371041
Si Si5 0.935629 0.179606 0.991754
Si Si6 0.121871 0.574908 0.022567
Si Si7 0.966731 0.492352 0.867479
O O1 0.129025 0.751750 0.039656
O O2 0.233173 0.953539 0.181894
O O3 0.278602 0.821377 0.935163
O O4 0.152401 0.008647 0.906739
O O5 0.002242 0.897165 0.362809
O O6 0.878633 0.815366 0.176165
O O7 0.943865 0.098051 0.169040
O O8 0.362485 0.598365 0.878364
O O9 0.438136 0.856649 0.953824
O O10 0.287249 0.004386 0.492539
O O11 0.160851 0.828384 0.435389
O O12 0.952528 0.354851 0.992915
O O13 0.077051 0.521300 0.190709
O O14 0.066318 0.521957 0.865445
#
# Coordination Sequence:
#
# PCOD8171480 Si02
#       7
#     4   4   4   4   4   4   4
#     4  11  25  48  77 105 154 194 256 311 375 469
#     4  11  26  47  78 114 148 204 261 307 383 462
#     4  10  27  46  74 109 151 196 251 315 375 454
#     4  10  24  49  73 106 148 205 254 307 387 453
#     4  11  25  45  80 107 155 201 253 317 376 456
#     4  11  28  47  74 115 154 197 253 324 387 457
#     4  12  27  48  74 112 158 195 252 323 383 453
#
# _framework density 23.745539000000001
#
# number of rings (size 3 to 8) (size 9 to 14) (size 15 to 20)
#    0.000    1.143    1.429    1.714   16.000    2.286 
#    0.000    0.000    0.000    0.000    0.000    0.000 
#    0.000    0.000    0.000    0.000    0.000    0.000 
#
# Total GULP energy -346968.623324 kJ/mol
# GULP energy per Si atom -12391.736547 kJ/mol
# Density = 2.369149 g / cm^3
# Si number density = 23.745539 Si / 1000 Ang^3
#
#
#
# Elastic Constant Matrix: (Units=GPa)
#
#
# Indices 1 2 3 4 5 6 
#
# 1 124.0757 40.5999 27.5050 0.0000 0.0000 0.0000
# 2 40.5999 74.7640 17.6470 0.0000 0.0000 0.0000
# 3 27.5050 17.6470 86.4545 0.0000 0.0000 0.0000
# 4 0.0000 0.0000 0.0000 31.8280 0.0000 0.0000
# 5 0.0000 0.0000 0.0000 0.0000 46.3636 0.0000
# 6 0.0000 0.0000 0.0000 0.0000 0.0000 25.5300
#
#
#
# Elastic Compliance Matrix: (Units=1/GPa)
#
#
# Indices 1 2 3 4 5 6 
#
# 1 0.010191 -0.005010 -0.002220 0.000000 0.000000 0.000000
# 2 -0.005010 0.016516 -0.001777 0.000000 0.000000 0.000000
# 3 -0.002220 -0.001777 0.012636 0.000000 0.000000 0.000000
# 4 0.000000 0.000000 0.000000 0.031419 0.000000 0.000000
# 5 0.000000 0.000000 0.000000 0.000000 0.021569 0.000000
# 6 0.000000 0.000000 0.000000 0.000000 0.000000 0.039170
#
#
# Mechanical properties :
#
#
# Convention : Reuss Voigt Hill
#
# Bulk Modulus (GPa) = 46.88576 50.75535 48.82055
# Shear Modulus (GPa) = 31.92379 34.04714 32.98547
#
# Velocity S-wave (km/s) = 3.67060 3.79071 3.73114
# Velocity P-wave (km/s) = 6.14429 6.37027 6.25830
#
# Compressibility (1/GPa) = 0.02132844
#
# Stress axis : x y z
#
# Youngs Moduli (GPa) = 98.12503 60.54849 79.14108
#
# Poissons Ratio (x) = 0.30337 0.17566
# Poissons Ratio (y) = 0.49163 0.14065
# Poissons Ratio (z) = 0.21779 0.10761
#
# Static dielectric constant tensor:
#      x y z
#    x 4.408160 0.000000 0.000000 
#    y 0.000000 4.503850 0.000000 
#    z 0.000000 0.000000 4.083880 
# 
# 
# High freq. dielectric constant tensor:
#      x y z
#    x 1.954520 0.000000 0.000000 
#    y 0.000000 1.949530 0.000000 
#    z 0.000000 0.000000 1.928140 
# 
# From -- ./inp_files/4784.got.cif
#   From: 2010.03.12/outbox.cif.g09.slc.cpg/sg33_3_cif.got.tgz:4784.got - 2010.04.14 01:49:19.
