data_PCOD8171047
_publ_section_title
;
Structure prediction by ZEFSAII (Michael W. Deem and Ramdas Pophale) SiO2 
 PCOD8171047
Probable space group: P N A 21
;
_chemical_formula_sum "Si O2"
_cell_formula_units_Z 32
_cell_length_a 8.378182
_cell_length_b 11.976770
_cell_length_c 13.700496
_cell_angle_alpha 90.000000
_cell_angle_beta 90.000000
_cell_angle_gamma 90.000000
_cell_volume 1374.756526
_symmetry_space_group_name_H-M "P N A 21"
_symmetry_group_IT_number 33
_symmetry_cell_setting 'orthorhombic'
loop_
_space_group_symop_operation_xyz
x,y,z
-x,-y,1/2+z
1/2-x,1/2+y,1/2+z
1/2+x,1/2-y,z
loop_
_atom_site_type_symbol
_atom_site_label
_atom_site_fract_x
_atom_site_fract_y
_atom_site_fract_z
Si Si1 0.413278 0.082954 0.405940
Si Si2 0.952952 0.955391 0.503844
Si Si3 0.148129 0.339923 0.671094
Si Si4 0.434319 0.294163 0.547718
Si Si5 0.860133 0.054177 0.822950
Si Si6 0.450713 0.389343 0.201012
Si Si7 0.087669 0.336945 0.222442
Si Si8 0.588722 0.949515 0.561381
O O1 0.428253 0.198147 0.465845
O O2 0.235253 0.042407 0.381212
O O3 0.500942 0.091183 0.303713
O O4 0.494327 0.982784 0.465076
O O5 0.061180 0.896575 0.584776
O O6 0.770067 0.923354 0.529739
O O7 0.011432 0.899377 0.401949
O O8 0.993166 0.088752 0.502000
O O9 0.253819 0.315500 0.576106
O O10 0.242427 0.349857 0.775291
O O11 0.072014 0.459633 0.648382
O O12 0.017676 0.241755 0.652929
O O13 0.967547 0.004517 0.735768
O O14 0.271143 0.370657 0.235930
O O15 0.567769 0.294256 0.243231
O O16 0.004430 0.348758 0.115167
#
# Coordination Sequence:
#
# PCOD8171047 Si02
#       8
#     4   4   4   4   4   4   4   4
#     4  11  22  39  70 103 128 181 227 281 336 410
#     4  11  22  41  67  96 136 179 225 281 347 405
#     4  10  21  41  63  95 138 169 218 280 331 399
#     4  10  21  40  66  96 130 176 223 277 336 392
#     4  12  22  42  64 100 138 176 226 277 344 412
#     4  12  25  42  67  96 138 178 221 289 341 404
#     4  12  24  42  67 100 132 179 232 275 349 409
#     4  10  21  43  64  98 140 168 222 290 338 401
#
# _framework density 23.276848999999999
#
# number of rings (size 3 to 8) (size 9 to 14) (size 15 to 20)
#    0.000    1.000    3.750    4.500    0.000    5.000 
#    0.000    3.750    0.000    0.000    0.000    0.000 
#    0.000    0.000    0.000    0.000    0.000    0.000 
#
# Total GULP energy -396460.599390 kJ/mol
# GULP energy per Si atom -12389.393731 kJ/mol
# Density = 2.322387 g / cm^3
# Si number density = 23.276849 Si / 1000 Ang^3
#
#
#
# Elastic Constant Matrix: (Units=GPa)
#
#
# Indices 1 2 3 4 5 6 
#
# 1 81.5653 18.9023 18.6064 0.0000 0.0000 0.0000
# 2 18.9023 33.0831 10.0225 0.0000 0.0000 0.0000
# 3 18.6064 10.0225 110.2530 0.0000 0.0000 0.0000
# 4 0.0000 0.0000 0.0000 30.9633 0.0000 0.0000
# 5 0.0000 0.0000 0.0000 0.0000 44.2202 0.0000
# 6 0.0000 0.0000 0.0000 0.0000 0.0000 26.0801
#
#
#
# Elastic Compliance Matrix: (Units=1/GPa)
#
#
# Indices 1 2 3 4 5 6 
#
# 1 0.014447 -0.007729 -0.001736 0.000000 0.000000 0.000000
# 2 -0.007729 0.035218 -0.001897 0.000000 0.000000 0.000000
# 3 -0.001736 -0.001897 0.009535 0.000000 0.000000 0.000000
# 4 0.000000 0.000000 0.000000 0.032296 0.000000 0.000000
# 5 0.000000 0.000000 0.000000 0.000000 0.022614 0.000000
# 6 0.000000 0.000000 0.000000 0.000000 0.000000 0.038343
#
#
# Mechanical properties :
#
#
# Convention : Reuss Voigt Hill
#
# Bulk Modulus (GPa) = 27.41432 35.55155 31.48293
# Shear Modulus (GPa) = 26.69005 32.07739 29.38372
#
# Velocity S-wave (km/s) = 3.38987 3.71628 3.55682
# Velocity P-wave (km/s) = 5.20814 5.80696 5.51568
#
# Compressibility (1/GPa) = 0.03647728
#
# Stress axis : x y z
#
# Youngs Moduli (GPa) = 69.21799 28.39495 104.87246
#
# Poissons Ratio (x) = 0.21946 0.18201
# Poissons Ratio (y) = 0.53497 0.19896
# Poissons Ratio (z) = 0.12013 0.05387
#
# Static dielectric constant tensor:
#      x y z
#    x 4.156260 0.000000 0.000000 
#    y 0.000000 4.232040 0.000000 
#    z 0.000000 0.000000 4.150740 
# 
# 
# High freq. dielectric constant tensor:
#      x y z
#    x 1.928090 0.000000 0.000000 
#    y 0.000000 1.897060 0.000000 
#    z 0.000000 0.000000 1.923740 
# 
# From -- ./inp_files/7676.got.cif
#   From: 2010.03.12/outbox.cif.g09.slc.cpg/sg33_4_cif.got.tgz:7676.got - 2010.04.14 01:49:19.
