data_PCOD8171143
_publ_section_title
;
Structure prediction by ZEFSAII (Michael W. Deem and Ramdas Pophale) SiO2 
 PCOD8171143
Probable space group: P N A 21
;
_chemical_formula_sum "Si O2"
_cell_formula_units_Z 32
_cell_length_a 22.035083
_cell_length_b 4.876387
_cell_length_c 10.908222
_cell_angle_alpha 90.000000
_cell_angle_beta 90.000000
_cell_angle_gamma 90.000000
_cell_volume 1172.105823
_symmetry_space_group_name_H-M "P N A 21"
_symmetry_group_IT_number 33
_symmetry_cell_setting 'orthorhombic'
loop_
_space_group_symop_operation_xyz
x,y,z
-x,-y,1/2+z
1/2-x,1/2+y,1/2+z
1/2+x,1/2-y,z
loop_
_atom_site_type_symbol
_atom_site_label
_atom_site_fract_x
_atom_site_fract_y
_atom_site_fract_z
Si Si1 0.327646 0.289714 0.096660
Si Si2 0.299518 0.792863 0.685945
Si Si3 0.200481 0.292863 0.450302
Si Si4 0.568430 0.089826 0.047084
Si Si5 0.672355 0.710286 0.039587
Si Si6 0.471014 0.624053 0.318123
Si Si7 0.944906 0.628899 0.818123
Si Si8 0.068430 0.410171 0.589161
O O1 0.273301 0.239562 0.192793
O O2 0.308931 0.114141 0.976591
O O3 0.391954 0.165490 0.141811
O O4 0.332021 0.610228 0.057767
O O5 0.308931 0.114140 0.659657
O O6 0.332020 0.610228 0.578480
O O7 0.327257 0.719118 0.818123
O O8 0.273300 0.239560 0.443455
O O9 0.608047 0.834510 0.994436
O O10 0.591473 0.180189 0.187182
O O11 0.500000 0.999996 0.068122
O O12 0.569087 0.325996 0.942074
O O13 0.494586 0.314532 0.318124
O O14 0.430913 0.674001 0.194172
O O15 0.530729 0.817455 0.318123
O O16 0.908526 0.680188 0.949063
#
# Coordination Sequence:
#
# PCOD8171143 Si02
#       8
#     4   4   4   4   4   4   4   4
#     4  10  23  40  63  97 120 168 212 263 321 379
#     4  10  22  41  65  89 128 162 215 266 320 375
#     4  10  22  41  65  89 128 162 215 266 320 375
#     4  10  23  42  65  96 130 168 211 263 318 388
#     4  10  23  40  63  97 120 168 212 263 321 379
#     4  10  22  40  60  84 128 166 204 246 309 370
#     4  10  22  38  60  88 124 166 204 250 301 372
#     4  10  23  42  65  96 130 168 211 263 318 388
#
# _framework density 27.301286000000001
#
# number of rings (size 3 to 8) (size 9 to 14) (size 15 to 20)
#    0.000    2.000    0.000    1.500    5.250    8.000 
#    0.000    0.000    0.000    0.000    0.000    0.000 
#    0.000    0.000    0.000    0.000    0.000    0.000 
#
# Total GULP energy -396540.991032 kJ/mol
# GULP energy per Si atom -12391.905970 kJ/mol
# Density = 2.723915 g / cm^3
# Si number density = 27.301286 Si / 1000 Ang^3
#
#
#
# Elastic Constant Matrix: (Units=GPa)
#
#
# Indices 1 2 3 4 5 6 
#
# 1 71.2909 -23.7693 -3.6524 0.0000 0.0000 0.0000
# 2 -23.7693 64.0918 -1.8162 0.0000 0.0000 0.0000
# 3 -3.6524 -1.8162 155.3137 0.0000 0.0000 0.0000
# 4 0.0000 0.0000 0.0000 13.2197 0.0000 0.0000
# 5 0.0000 0.0000 0.0000 0.0000 51.4577 0.0000
# 6 0.0000 0.0000 0.0000 0.0000 0.0000 37.8534
#
#
#
# Elastic Compliance Matrix: (Units=1/GPa)
#
#
# Indices 1 2 3 4 5 6 
#
# 1 0.016037 0.005960 0.000447 0.000000 0.000000 0.000000
# 2 0.005960 0.017823 0.000349 0.000000 0.000000 0.000000
# 3 0.000447 0.000349 0.006453 0.000000 0.000000 0.000000
# 4 0.000000 0.000000 0.000000 0.075645 0.000000 0.000000
# 5 0.000000 0.000000 0.000000 0.000000 0.019433 0.000000
# 6 0.000000 0.000000 0.000000 0.000000 0.000000 0.026418
#
#
# Mechanical properties :
#
#
# Convention : Reuss Voigt Hill
#
# Bulk Modulus (GPa) = 18.57887 25.80228 22.19057
# Shear Modulus (GPa) = 30.07711 41.83511 35.95611
#
# Velocity S-wave (km/s) = 3.32275 3.91877 3.63300
# Velocity P-wave (km/s) = 4.64120 5.47240 5.07385
#
# Compressibility (1/GPa) = 0.05382458
#
# Stress axis : x y z
#
# Youngs Moduli (GPa) = 62.35520 56.10751 154.96264
#
# Poissons Ratio (x) = -0.33441 -0.06924
# Poissons Ratio (y) = -0.37165 -0.05402
# Poissons Ratio (z) = -0.02786 -0.01956
#
# Static dielectric constant tensor:
#      x y z
#    x 5.437160 0.000000 0.000000 
#    y 0.000000 4.491000 0.000000 
#    z 0.000000 0.000000 5.641370 
# 
# 
# High freq. dielectric constant tensor:
#      x y z
#    x 2.143310 0.000000 0.000000 
#    y 0.000000 2.084360 0.000000 
#    z 0.000000 0.000000 2.090480 
# 
# From -- ./inp_files/7247.got.cif
#   From: 2010.03.12/outbox.cif.g09.slc.cpg/sg33_4_cif.got.tgz:7247.got - 2010.04.14 01:49:19.
