data_PCOD8171534
_publ_section_title
;
Structure prediction by ZEFSAII (Michael W. Deem and Ramdas Pophale) SiO2 
 PCOD8171534
Probable space group: P N A 21
;
_chemical_formula_sum "Si O2"
_cell_formula_units_Z 32
_cell_length_a 9.552927
_cell_length_b 18.432901
_cell_length_c 7.981770
_cell_angle_alpha 90.000000
_cell_angle_beta 90.000000
_cell_angle_gamma 90.000000
_cell_volume 1405.495174
_symmetry_space_group_name_H-M "P N A 21"
_symmetry_group_IT_number 33
_symmetry_cell_setting 'orthorhombic'
loop_
_space_group_symop_operation_xyz
x,y,z
-x,-y,1/2+z
1/2-x,1/2+y,1/2+z
1/2+x,1/2-y,z
loop_
_atom_site_type_symbol
_atom_site_label
_atom_site_fract_x
_atom_site_fract_y
_atom_site_fract_z
Si Si1 0.897581 0.196153 0.247920
Si Si2 0.133195 0.816556 0.380019
Si Si3 0.854321 0.620596 0.933360
Si Si4 0.860669 0.856343 0.975771
Si Si5 0.710087 0.473363 0.029947
Si Si6 0.097810 0.270862 0.716697
Si Si7 0.120627 0.635360 0.736676
Si Si8 0.496356 0.549615 0.224547
O O1 0.776768 0.167572 0.369331
O O2 0.876871 0.279684 0.197977
O O3 0.045715 0.183269 0.334877
O O4 0.896964 0.156624 0.068787
O O5 0.295133 0.797428 0.358541
O O6 0.099909 0.885047 0.266068
O O7 0.043016 0.747623 0.317427
O O8 0.964141 0.607878 0.781468
O O9 0.804065 0.544503 0.007110
O O10 0.930474 0.666486 0.079739
O O11 0.712522 0.878994 0.901213
O O12 0.839401 0.800756 0.128989
O O13 0.928054 0.930620 0.044627
O O14 0.814375 0.407382 0.076579
O O15 0.596655 0.480773 0.183154
O O16 0.626686 0.461539 0.857420
#
# Coordination Sequence:
#
# PCOD8171534 Si02
#       8
#     4   4   4   4   4   4   4   4
#     4  12  24  46  73 108 137 188 245 304 357 433
#     4  11  26  39  72 107 139 174 242 307 356 425
#     4  12  25  49  73 101 152 191 237 299 379 434
#     4  11  22  44  77 101 136 189 242 295 367 430
#     4  12  27  47  68 107 147 195 249 290 375 444
#     4  11  21  44  68 107 137 180 235 298 367 417
#     4  12  26  44  72 106 142 187 240 304 360 434
#     4  11  25  47  73 101 140 194 240 299 347 453
#
# _framework density 22.767776000000001
#
# number of rings (size 3 to 8) (size 9 to 14) (size 15 to 20)
#    0.000    0.500    5.000    3.000    8.750    1.000 
#    4.500    0.000    0.000    0.000    0.000    0.000 
#    0.000    0.000    0.000    0.000    0.000    0.000 
#
# Total GULP energy -396893.015930 kJ/mol
# GULP energy per Si atom -12402.906748 kJ/mol
# Density = 2.271596 g / cm^3
# Si number density = 22.767776 Si / 1000 Ang^3
#
#
#
# Elastic Constant Matrix: (Units=GPa)
#
#
# Indices 1 2 3 4 5 6 
#
# 1 75.5260 19.8207 11.5406 0.0000 0.0000 0.0000
# 2 19.8207 82.2327 1.7620 0.0000 0.0000 0.0000
# 3 11.5406 1.7620 82.5857 0.0000 0.0000 0.0000
# 4 0.0000 0.0000 0.0000 21.3010 0.0000 0.0000
# 5 0.0000 0.0000 0.0000 0.0000 41.8864 0.0000
# 6 0.0000 0.0000 0.0000 0.0000 0.0000 28.4642
#
#
#
# Elastic Compliance Matrix: (Units=1/GPa)
#
#
# Indices 1 2 3 4 5 6 
#
# 1 0.014440 -0.003439 -0.001945 0.000000 0.000000 0.000000
# 2 -0.003439 0.012985 0.000204 0.000000 0.000000 0.000000
# 3 -0.001945 0.000204 0.012376 0.000000 0.000000 0.000000
# 4 0.000000 0.000000 0.000000 0.046946 0.000000 0.000000
# 5 0.000000 0.000000 0.000000 0.000000 0.023874 0.000000
# 6 0.000000 0.000000 0.000000 0.000000 0.000000 0.035132
#
#
# Mechanical properties :
#
#
# Convention : Reuss Voigt Hill
#
# Bulk Modulus (GPa) = 33.96563 34.06566 34.01564
# Shear Modulus (GPa) = 30.13375 32.14506 31.13940
#
# Velocity S-wave (km/s) = 3.64198 3.76156 3.70225
# Velocity P-wave (km/s) = 5.71279 5.81897 5.76613
#
# Compressibility (1/GPa) = 0.02944153
#
# Stress axis : x y z
#
# Youngs Moduli (GPa) = 69.25166 77.01116 80.80141
#
# Poissons Ratio (x) = 0.26483 0.15712
# Poissons Ratio (y) = 0.23815 -0.01644
# Poissons Ratio (z) = 0.13466 -0.01567
#
# Static dielectric constant tensor:
#      x y z
#    x 4.099620 0.000000 0.000000 
#    y 0.000000 4.091450 0.000000 
#    z 0.000000 0.000000 4.044320 
# 
# 
# High freq. dielectric constant tensor:
#      x y z
#    x 1.899530 0.000000 0.000000 
#    y 0.000000 1.894090 0.000000 
#    z 0.000000 0.000000 1.902630 
# 
# From -- ./inp_files/3520.got.cif
#   From: 2010.03.12/outbox.cif.g09.slc.cpg/sg33_2_cif.got.tgz:3520.got - 2010.04.14 01:49:19.
