data_PCOD8171385
_publ_section_title
;
Structure prediction by ZEFSAII (Michael W. Deem and Ramdas Pophale) SiO2 
 PCOD8171385
Probable space group: P N A 21
;
_chemical_formula_sum "Si O2"
_cell_formula_units_Z 32
_cell_length_a 14.363258
_cell_length_b 11.497181
_cell_length_c 8.648990
_cell_angle_alpha 90.000000
_cell_angle_beta 90.000000
_cell_angle_gamma 90.000000
_cell_volume 1428.268062
_symmetry_space_group_name_H-M "P N A 21"
_symmetry_group_IT_number 33
_symmetry_cell_setting 'orthorhombic'
loop_
_space_group_symop_operation_xyz
x,y,z
-x,-y,1/2+z
1/2-x,1/2+y,1/2+z
1/2+x,1/2-y,z
loop_
_atom_site_type_symbol
_atom_site_label
_atom_site_fract_x
_atom_site_fract_y
_atom_site_fract_z
Si Si1 0.573805 0.335892 0.548450
Si Si2 0.392680 0.068649 0.506034
Si Si3 0.380975 0.317193 0.392871
Si Si4 0.607970 0.598792 0.552193
Si Si5 0.459710 0.725607 0.391896
Si Si6 0.197285 0.386101 0.530899
Si Si7 0.440921 0.044400 0.861179
Si Si8 0.785936 0.636019 0.388723
O O1 0.487070 0.347858 0.432897
O O2 0.625178 0.460228 0.560683
O O3 0.529590 0.304220 0.712690
O O4 0.645530 0.236366 0.489262
O O5 0.350479 0.190065 0.451368
O O6 0.477775 0.049378 0.387467
O O7 0.427938 0.069610 0.681152
O O8 0.314285 0.970620 0.498110
O O9 0.303898 0.396143 0.476687
O O10 0.369845 0.336900 0.211179
O O11 0.501413 0.621281 0.495830
O O12 0.677737 0.658583 0.425878
O O13 0.350651 0.751688 0.429406
O O14 0.522981 0.836489 0.438148
O O15 0.150003 0.496352 0.447234
O O16 0.194656 0.402544 0.714154
#
# Coordination Sequence:
#
# PCOD8171385 Si02
#       8
#     4   4   4   4   4   4   4   4
#     4  11  23  49  66  99 137 190 224 292 349 424
#     4  11  22  40  69  98 130 172 225 295 337 419
#     4  12  25  41  68 101 138 182 230 279 359 415
#     4  12  26  43  67 101 143 183 235 284 349 428
#     4  10  23  44  70  96 138 182 230 288 351 413
#     4  11  24  43  71  99 139 182 228 289 359 416
#     4  11  21  41  70  98 133 172 233 292 352 403
#     4  10  24  43  67 102 136 177 237 287 350 418
#
# _framework density 22.404757
#
# number of rings (size 3 to 8) (size 9 to 14) (size 15 to 20)
#    0.000    1.000    2.500    4.500    5.250    1.000 
#    4.500    1.250    0.000    0.000    0.000    0.000 
#    0.000    0.000    0.000    0.000    0.000    0.000 
#
# Total GULP energy -396755.027811 kJ/mol
# GULP energy per Si atom -12398.594619 kJ/mol
# Density = 2.235376 g / cm^3
# Si number density = 22.404757 Si / 1000 Ang^3
#
#
#
# Elastic Constant Matrix: (Units=GPa)
#
#
# Indices 1 2 3 4 5 6 
#
# 1 100.6936 17.6232 22.6329 0.0000 0.0000 0.0000
# 2 17.6232 68.3170 31.5367 0.0000 0.0000 0.0000
# 3 22.6329 31.5367 74.3425 0.0000 0.0000 0.0000
# 4 0.0000 0.0000 0.0000 25.9614 0.0000 0.0000
# 5 0.0000 0.0000 0.0000 0.0000 25.1977 0.0000
# 6 0.0000 0.0000 0.0000 0.0000 0.0000 29.8544
#
#
#
# Elastic Compliance Matrix: (Units=1/GPa)
#
#
# Indices 1 2 3 4 5 6 
#
# 1 0.010795 -0.001576 -0.002618 0.000000 0.000000 0.000000
# 2 -0.001576 0.018432 -0.007339 0.000000 0.000000 0.000000
# 3 -0.002618 -0.007339 0.017362 0.000000 0.000000 0.000000
# 4 0.000000 0.000000 0.000000 0.038519 0.000000 0.000000
# 5 0.000000 0.000000 0.000000 0.000000 0.039686 0.000000
# 6 0.000000 0.000000 0.000000 0.000000 0.000000 0.033496
#
#
# Mechanical properties :
#
#
# Convention : Reuss Voigt Hill
#
# Bulk Modulus (GPa) = 42.51265 42.99320 42.75293
# Shear Modulus (GPa) = 26.42738 27.64004 27.03371
#
# Velocity S-wave (km/s) = 3.43817 3.51617 3.47739
# Velocity P-wave (km/s) = 5.89724 5.97625 5.93688
#
# Compressibility (1/GPa) = 0.02352241
#
# Stress axis : x y z
#
# Youngs Moduli (GPa) = 92.63177 54.25282 57.59839
#
# Poissons Ratio (x) = 0.08552 0.15079
# Poissons Ratio (y) = 0.14602 0.42273
# Poissons Ratio (z) = 0.24250 0.39817
#
# Static dielectric constant tensor:
#      x y z
#    x 4.058170 0.000000 0.000000 
#    y 0.000000 4.112040 0.000000 
#    z 0.000000 0.000000 3.830920 
# 
# 
# High freq. dielectric constant tensor:
#      x y z
#    x 1.890570 0.000000 0.000000 
#    y 0.000000 1.880090 0.000000 
#    z 0.000000 0.000000 1.876460 
# 
# From -- ./inp_files/4454.got.cif
#   From: 2010.03.12/outbox.cif.g09.slc.cpg/sg33_3_cif.got.tgz:4454.got - 2010.04.14 01:49:19.
