data_PCOD8171131
_publ_section_title
;
Structure prediction by ZEFSAII (Michael W. Deem and Ramdas Pophale) SiO2 
 PCOD8171131
Probable space group: P N A 21
;
_chemical_formula_sum "Si O2"
_cell_formula_units_Z 32
_cell_length_a 11.375872
_cell_length_b 11.418701
_cell_length_c 12.486296
_cell_angle_alpha 90.000000
_cell_angle_beta 90.000000
_cell_angle_gamma 90.000000
_cell_volume 1621.940894
_symmetry_space_group_name_H-M "P N A 21"
_symmetry_group_IT_number 33
_symmetry_cell_setting 'orthorhombic'
loop_
_space_group_symop_operation_xyz
x,y,z
-x,-y,1/2+z
1/2-x,1/2+y,1/2+z
1/2+x,1/2-y,z
loop_
_atom_site_type_symbol
_atom_site_label
_atom_site_fract_x
_atom_site_fract_y
_atom_site_fract_z
Si Si1 0.303531 0.553102 0.164100
Si Si2 0.560429 0.276669 0.406691
Si Si3 0.316629 0.491233 0.924951
Si Si4 0.812670 0.689343 0.113027
Si Si5 0.460996 0.621217 0.358179
Si Si6 0.344086 0.426171 0.462592
Si Si7 0.625671 0.053785 0.310348
Si Si8 0.588193 0.112619 0.829421
O O1 0.261132 0.686966 0.152853
O O2 0.410202 0.557079 0.250967
O O3 0.190309 0.477354 0.199588
O O4 0.345225 0.496459 0.052399
O O5 0.654200 0.379243 0.379551
O O6 0.593119 0.213572 0.518889
O O7 0.428941 0.327050 0.412718
O O8 0.563041 0.181505 0.309890
O O9 0.398178 0.394812 0.865050
O O10 0.183011 0.456255 0.901355
O O11 0.876188 0.615187 0.205181
O O12 0.697402 0.614213 0.080035
O O13 0.409588 0.551190 0.461576
O O14 0.426316 0.755383 0.371428
O O15 0.224517 0.439433 0.399185
O O16 0.534141 0.953508 0.342280
#
# Coordination Sequence:
#
# PCOD8171131 Si02
#       8
#     4   4   4   4   4   4   4   4
#     4   9  20  39  60  91 119 163 199 252 294 355
#     4   9  20  39  64  87 112 157 205 251 290 358
#     4  10  22  40  63  88 121 161 204 245 302 362
#     4   9  20  34  62  91 114 155 208 249 282 358
#     4   9  21  40  62  87 122 156 202 250 303 353
#     4   9  19  38  63  86 115 159 206 246 295 354
#     4  10  22  35  60  88 124 151 197 251 306 349
#     4  11  24  35  60  94 123 156 193 254 306 357
#
# _framework density 19.729448999999999
#
# number of rings (size 3 to 8) (size 9 to 14) (size 15 to 20)
#    0.000    2.500    0.000    0.000   12.250    4.000 
#    0.000    5.000    0.000    0.000    0.000    0.000 
#    0.000    0.000    0.000    0.000    0.000    0.000 
#
# Total GULP energy -396565.605604 kJ/mol
# GULP energy per Si atom -12392.675175 kJ/mol
# Density = 1.968454 g / cm^3
# Si number density = 19.729449 Si / 1000 Ang^3
#
#
#
# Elastic Constant Matrix: (Units=GPa)
#
#
# Indices 1 2 3 4 5 6 
#
# 1 113.5342 56.5198 36.6082 0.0000 0.0000 0.0000
# 2 56.5198 117.2184 47.7897 0.0000 0.0000 0.0000
# 3 36.6082 47.7897 70.7903 0.0000 0.0000 0.0000
# 4 0.0000 0.0000 0.0000 30.2793 0.0000 0.0000
# 5 0.0000 0.0000 0.0000 0.0000 25.1206 0.0000
# 6 0.0000 0.0000 0.0000 0.0000 0.0000 33.3851
#
#
#
# Elastic Compliance Matrix: (Units=1/GPa)
#
#
# Indices 1 2 3 4 5 6 
#
# 1 0.012093 -0.004527 -0.003197 0.000000 0.000000 0.000000
# 2 -0.004527 0.013466 -0.006749 0.000000 0.000000 0.000000
# 3 -0.003197 -0.006749 0.020336 0.000000 0.000000 0.000000
# 4 0.000000 0.000000 0.000000 0.033026 0.000000 0.000000
# 5 0.000000 0.000000 0.000000 0.000000 0.039808 0.000000
# 6 0.000000 0.000000 0.000000 0.000000 0.000000 0.029953
#
#
# Mechanical properties :
#
#
# Convention : Reuss Voigt Hill
#
# Bulk Modulus (GPa) = 59.00849 64.81979 61.91414
# Shear Modulus (GPa) = 27.28094 28.46535 27.87314
#
# Velocity S-wave (km/s) = 3.72257 3.80252 3.76276
# Velocity P-wave (km/s) = 6.96064 7.22527 7.09419
#
# Compressibility (1/GPa) = 0.01694671
#
# Stress axis : x y z
#
# Youngs Moduli (GPa) = 82.69528 74.26275 49.17384
#
# Poissons Ratio (x) = 0.33621 0.15722
# Poissons Ratio (y) = 0.37438 0.33189
# Poissons Ratio (z) = 0.26439 0.50122
#
# Static dielectric constant tensor:
#      x y z
#    x 3.746360 0.000000 0.000000 
#    y 0.000000 3.914890 0.000000 
#    z 0.000000 0.000000 3.654990 
# 
# 
# High freq. dielectric constant tensor:
#      x y z
#    x 1.775490 0.000000 0.000000 
#    y 0.000000 1.770220 0.000000 
#    z 0.000000 0.000000 1.745670 
# 
# From -- ./inp_files/6496.got.cif
#   From: 2010.03.12/outbox.cif.g09.slc.cpg/sg33_4_cif.got.tgz:6496.got - 2010.04.14 01:49:19.
