data_PCOD8171820
_publ_section_title
;
Structure prediction by ZEFSAII (Michael W. Deem and Ramdas Pophale) SiO2 
 PCOD8171820
Probable space group: P N N 2
;
_chemical_formula_sum "Si O2"
_cell_formula_units_Z 32
_cell_length_a 33.260440
_cell_length_b 7.408065
_cell_length_c 5.351261
_cell_angle_alpha 90.000000
_cell_angle_beta 90.000000
_cell_angle_gamma 90.000000
_cell_volume 1318.526637
_symmetry_space_group_name_H-M "P N N 2"
_symmetry_group_IT_number 34
_symmetry_cell_setting 'orthorhombic'
loop_
_space_group_symop_operation_xyz
x,y,z
-x,-y,z
1/2-x,1/2+y,1/2+z
1/2+x,1/2-y,1/2+z
loop_
_atom_site_type_symbol
_atom_site_label
_atom_site_fract_x
_atom_site_fract_y
_atom_site_fract_z
Si Si1 0.849611 0.544175 0.689500
Si Si2 0.003349 0.714574 0.692083
Si Si3 0.726614 0.294703 0.189587
Si Si4 0.533970 0.846908 0.692103
Si Si5 0.376762 0.007557 0.689512
Si Si6 0.120442 0.080017 0.189272
Si Si7 0.585602 0.361382 0.189277
Si Si8 0.290861 0.488818 0.689570
O O1 0.806822 0.639236 0.689567
O O2 0.854640 0.420185 0.440562
O O3 0.887115 0.682577 0.689199
O O4 0.854675 0.420141 0.938356
O O5 0.028277 0.773122 0.443873
O O6 0.000000 0.500000 0.695259
O O7 0.960749 0.810630 0.689243
O O8 0.027687 0.774296 0.942036
O O9 0.722854 0.410364 0.439203
O O10 0.770719 0.207277 0.189406
O O11 0.722820 0.410628 0.940223
O O12 0.500000 0.000000 0.695252
O O13 0.576767 0.942842 0.689383
O O14 0.369855 0.791781 0.689221
O O15 0.095407 0.025020 0.437500
O O16 0.161198 0.964764 0.189442
O O17 0.095456 0.024938 0.940883
#
# Coordination Sequence:
#
# PCOD8171820 Si02
#       8
#     4   4   4   4   4   4   4   4
#     4  10  16  29  44  65  88 124 175 213 245 312
#     4  10  16  22  31  54  84 122 168 206 242 294
#     4  12  23  40  59  84 111 142 184 240 283 334
#     4  10  16  22  31  54  84 122 168 206 242 294
#     4  10  16  25  43  57  92 126 176 210 246 307
#     4  10  16  29  44  65  88 124 175 213 245 312
#     4  10  16  25  43  57  92 126 176 210 246 307
#     4  12  23  40  59  84 111 142 184 240 283 334
#
# _framework density 24.269511000000001
#
# number of rings (size 3 to 8) (size 9 to 14) (size 15 to 20)
#    0.000    1.500    5.000    8.250    0.000    0.000 
#    0.000    0.000    0.000    0.000    0.000    0.000 
#    0.000    0.000    0.000    0.000    0.000  305.000 
#
# Total GULP energy -396617.723288 kJ/mol
# GULP energy per Si atom -12394.303853 kJ/mol
# Density = 2.421427 g / cm^3
# Si number density = 24.269511 Si / 1000 Ang^3
#
#
#
# Elastic Constant Matrix: (Units=GPa)
#
#
# Indices 1 2 3 4 5 6 
#
# 1 28.4190 4.4273 14.4763 0.0000 0.0000 0.0000
# 2 4.4273 10.3520 6.8598 0.0000 0.0000 0.0000
# 3 14.4763 6.8598 282.0479 0.0000 0.0000 0.0000
# 4 0.0000 0.0000 0.0000 -23.4162 0.0000 0.0000
# 5 0.0000 0.0000 0.0000 0.0000 48.3639 0.0000
# 6 0.0000 0.0000 0.0000 0.0000 0.0000 14.6829
#
#
#
# Elastic Compliance Matrix: (Units=1/GPa)
#
#
# Indices 1 2 3 4 5 6 
#
# 1 0.038394 -0.015362 -0.001597 0.000000 0.000000 0.000000
# 2 -0.015362 0.104329 -0.001749 0.000000 0.000000 0.000000
# 3 -0.001597 -0.001749 0.003670 0.000000 0.000000 0.000000
# 4 0.000000 0.000000 0.000000 -0.042705 0.000000 0.000000
# 5 0.000000 0.000000 0.000000 0.000000 0.020677 0.000000
# 6 0.000000 0.000000 0.000000 0.000000 0.000000 0.068106
#
#
# Mechanical properties :
#
#
# Convention : Reuss Voigt Hill
#
# Bulk Modulus (GPa) = 9.17624 41.37175 25.27399
# Shear Modulus (GPa) = 18.78195 27.59649 23.18922
#
# Velocity S-wave (km/s) = 2.78491 3.37573 3.09445
# Velocity P-wave (km/s) = 3.75901 5.68136 4.81705
#
# Compressibility (1/GPa) = 0.10897712
#
# Stress axis : x y z
#
# Youngs Moduli (GPa) = 26.04545 9.58505 272.47952
#
# Poissons Ratio (x) = 0.14725 0.43515
# Poissons Ratio (y) = 0.40012 0.47655
# Poissons Ratio (z) = 0.04159 0.01676
#
# Static dielectric constant tensor:
#      x y z
#    x 4.281880 0.000000 0.000000 
#    y 0.000000 3.673140 0.000000 
#    z 0.000000 0.000000 -5.080680 
# 
# 
# High freq. dielectric constant tensor:
#      x y z
#    x 1.966420 0.000000 0.000000 
#    y 0.000000 1.900370 0.000000 
#    z 0.000000 0.000000 2.013500 
# 
# From -- ./inp_files/1832.got.cif
#   From: 2010.03.12/outbox.cif.g09.slc.cpg/sg34_1_cif.got.tgz:1832.got - 2010.04.14 01:56:33.
