data_PCOD8171249
_publ_section_title
;
Structure prediction by ZEFSAII (Michael W. Deem and Ramdas Pophale) SiO2 
 PCOD8171249
Probable space group: P N A 21
;
_chemical_formula_sum "Si O2"
_cell_formula_units_Z 20
_cell_length_a 9.931103
_cell_length_b 10.277090
_cell_length_c 7.644771
_cell_angle_alpha 90.000000
_cell_angle_beta 90.000000
_cell_angle_gamma 90.000000
_cell_volume 780.247034
_symmetry_space_group_name_H-M "P N A 21"
_symmetry_group_IT_number 33
_symmetry_cell_setting 'orthorhombic'
loop_
_space_group_symop_operation_xyz
x,y,z
-x,-y,1/2+z
1/2-x,1/2+y,1/2+z
1/2+x,1/2-y,z
loop_
_atom_site_type_symbol
_atom_site_label
_atom_site_fract_x
_atom_site_fract_y
_atom_site_fract_z
Si Si1 0.641583 0.272163 0.057080
Si Si2 0.855628 0.871940 0.905924
Si Si3 0.610137 0.748900 0.332157
Si Si4 0.657287 0.642430 0.991641
Si Si5 0.295663 0.991698 0.694745
O O1 0.628735 0.393270 0.194104
O O2 0.611823 0.134227 0.156710
O O3 0.538847 0.290334 0.896200
O O4 0.795411 0.265624 0.998037
O O5 0.746340 0.759063 0.919134
O O6 0.000497 0.824978 0.969700
O O7 0.804377 0.992064 0.025389
O O8 0.606982 0.884373 0.221341
O O9 0.671375 0.636045 0.204254
O O10 0.705257 0.518302 0.875528
#
# Coordination Sequence:
#
# PCOD8171249 Si02
#       5
#     4   4   4   4   4
#     4  11  24  42  65  96 132 172 219 274 331 389
#     4  10  22  43  66  93 130 171 219 270 323 389
#     4  11  24  42  65  96 132 172 219 274 331 389
#     4  10  22  43  66  93 130 171 219 270 323 389
#     4  10  24  40  66  96 128 176 220 268 328 392
#
# _framework density 25.632909000000001
#
# number of rings (size 3 to 8) (size 9 to 14) (size 15 to 20)
#    0.000    1.600    0.000    4.800    0.000   16.000 
#    0.000    0.000    0.000    0.000    0.000    0.000 
#    0.000    0.000    0.000    0.000    0.000    0.000 
#
# Total GULP energy -247853.262485 kJ/mol
# GULP energy per Si atom -12392.663124 kJ/mol
# Density = 2.557457 g / cm^3
# Si number density = 25.632909 Si / 1000 Ang^3
#
#
#
# Elastic Constant Matrix: (Units=GPa)
#
#
# Indices 1 2 3 4 5 6 
#
# 1 59.4352 7.5811 22.6132 0.0000 0.0000 0.0000
# 2 7.5811 84.7084 19.8344 0.0000 0.0000 0.0000
# 3 22.6132 19.8344 171.1575 0.0000 0.0000 0.0000
# 4 0.0000 0.0000 0.0000 38.2406 0.0000 0.0000
# 5 0.0000 0.0000 0.0000 0.0000 52.0954 0.0000
# 6 0.0000 0.0000 0.0000 0.0000 0.0000 26.5340
#
#
#
# Elastic Compliance Matrix: (Units=1/GPa)
#
#
# Indices 1 2 3 4 5 6 
#
# 1 0.017810 -0.001072 -0.002229 0.000000 0.000000 0.000000
# 2 -0.001072 0.012199 -0.001272 0.000000 0.000000 0.000000
# 3 -0.002229 -0.001272 0.006284 0.000000 0.000000 0.000000
# 4 0.000000 0.000000 0.000000 0.026150 0.000000 0.000000
# 5 0.000000 0.000000 0.000000 0.000000 0.019196 0.000000
# 6 0.000000 0.000000 0.000000 0.000000 0.000000 0.037688
#
#
# Mechanical properties :
#
#
# Convention : Reuss Voigt Hill
#
# Bulk Modulus (GPa) = 36.83583 46.15095 41.49339
# Shear Modulus (GPa) = 36.35800 41.05884 38.70842
#
# Velocity S-wave (km/s) = 3.77027 4.00659 3.89022
# Velocity P-wave (km/s) = 5.77537 6.28071 6.03334
#
# Compressibility (1/GPa) = 0.02714748
#
# Stress axis : x y z
#
# Youngs Moduli (GPa) = 56.14900 81.97396 159.12312
#
# Poissons Ratio (x) = 0.08788 0.35465
# Poissons Ratio (y) = 0.06019 0.20241
# Poissons Ratio (z) = 0.12514 0.10427
#
# Static dielectric constant tensor:
#      x y z
#    x 4.206700 0.000000 0.000000 
#    y 0.000000 4.602000 0.000000 
#    z 0.000000 0.000000 5.240100 
# 
# 
# High freq. dielectric constant tensor:
#      x y z
#    x 2.003310 0.000000 0.000000 
#    y 0.000000 2.025300 0.000000 
#    z 0.000000 0.000000 2.053730 
# 
# From -- ./inp_files/3013.got.cif
#   From: 2010.03.12/outbox.cif.g09.slc.cpg/sg33_2_cif.got.tgz:3013.got - 2010.04.14 01:49:19.
