data_PCOD8171358
_publ_section_title
;
Structure prediction by ZEFSAII (Michael W. Deem and Ramdas Pophale) SiO2 
 PCOD8171358
Probable space group: P N A 21
;
_chemical_formula_sum "Si O2"
_cell_formula_units_Z 32
_cell_length_a 20.622853
_cell_length_b 8.886349
_cell_length_c 8.156312
_cell_angle_alpha 90.000000
_cell_angle_beta 90.000000
_cell_angle_gamma 90.000000
_cell_volume 1494.740982
_symmetry_space_group_name_H-M "P N A 21"
_symmetry_group_IT_number 33
_symmetry_cell_setting 'orthorhombic'
loop_
_space_group_symop_operation_xyz
x,y,z
-x,-y,1/2+z
1/2-x,1/2+y,1/2+z
1/2+x,1/2-y,z
loop_
_atom_site_type_symbol
_atom_site_label
_atom_site_fract_x
_atom_site_fract_y
_atom_site_fract_z
Si Si1 0.356895 0.958632 0.918300
Si Si2 0.837445 0.756070 0.619021
Si Si3 0.264706 0.000020 0.185360
Si Si4 0.162561 0.756114 0.251686
Si Si5 0.020622 0.842081 0.248703
Si Si6 0.999997 0.638543 0.935378
Si Si7 0.356885 0.041415 0.452440
Si Si8 0.520620 0.342036 0.122008
O O1 0.334244 0.841871 0.782873
O O2 0.434882 0.961065 0.938839
O O3 0.336873 0.132998 0.895283
O O4 0.313392 0.906292 0.069678
O O5 0.836853 0.632948 0.475432
O O6 0.902205 0.854332 0.618036
O O7 0.779139 0.873634 0.597230
O O8 0.220858 0.873698 0.273522
O O9 0.313418 0.093735 0.300987
O O10 0.097798 0.854360 0.252573
O O11 0.165803 0.658175 0.087835
O O12 0.000016 0.801057 0.435359
O O13 0.991415 0.000035 0.185396
O O14 0.997138 0.726667 0.108283
O O15 0.065125 0.538972 0.932000
O O16 0.002840 0.726576 0.762411
#
# Coordination Sequence:
#
# PCOD8171358 Si02
#       8
#     4   4   4   4   4   4   4   4
#     4  10  24  41  66  93 133 175 218 278 335 398
#     4  10  23  43  60  94 137 168 220 281 328 398
#     4  12  22  40  70  94 128 178 224 268 344 404
#     4  10  23  43  60  94 137 168 220 281 328 398
#     4  11  22  40  68  95 134 176 218 277 340 390
#     4  10  24  44  64 102 134 172 230 280 330 410
#     4  10  24  41  66  93 133 175 218 278 335 398
#     4  11  22  40  68  95 134 176 218 277 340 390
#
# _framework density 21.408391999999999
#
# number of rings (size 3 to 8) (size 9 to 14) (size 15 to 20)
#    0.000    1.500    2.500    1.500    5.250    2.000 
#    0.000    0.000    0.000    0.000    0.000    0.000 
#    0.000    0.000    0.000    0.000    0.000    0.000 
#
# Total GULP energy -396447.073005 kJ/mol
# GULP energy per Si atom -12388.971031 kJ/mol
# Density = 2.135967 g / cm^3
# Si number density = 21.408392 Si / 1000 Ang^3
#
#
#
# Elastic Constant Matrix: (Units=GPa)
#
#
# Indices 1 2 3 4 5 6 
#
# 1 129.8048 53.7634 39.3933 0.0000 0.0000 0.0000
# 2 53.7634 91.9159 32.3712 0.0000 0.0000 0.0000
# 3 39.3933 32.3712 124.9947 0.0000 0.0000 0.0000
# 4 0.0000 0.0000 0.0000 6.0568 0.0000 0.0000
# 5 0.0000 0.0000 0.0000 0.0000 31.2126 0.0000
# 6 0.0000 0.0000 0.0000 0.0000 0.0000 20.4447
#
#
#
# Elastic Compliance Matrix: (Units=1/GPa)
#
#
# Indices 1 2 3 4 5 6 
#
# 1 0.010563 -0.005508 -0.001902 0.000000 0.000000 0.000000
# 2 -0.005508 0.014844 -0.002108 0.000000 0.000000 0.000000
# 3 -0.001902 -0.002108 0.009146 0.000000 0.000000 0.000000
# 4 0.000000 0.000000 0.000000 0.165104 0.000000 0.000000
# 5 0.000000 0.000000 0.000000 0.000000 0.032038 0.000000
# 6 0.000000 0.000000 0.000000 0.000000 0.000000 0.048912
#
#
# Mechanical properties :
#
#
# Convention : Reuss Voigt Hill
#
# Bulk Modulus (GPa) = 64.45572 66.41901 65.43737
# Shear Modulus (GPa) = 16.40329 26.28865 21.34597
#
# Velocity S-wave (km/s) = 2.77105 3.50803 3.16109
# Velocity P-wave (km/s) = 6.35699 6.89206 6.62992
#
# Compressibility (1/GPa) = 0.01551453
#
# Stress axis : x y z
#
# Youngs Moduli (GPa) = 94.67290 67.36752 109.33856
#
# Poissons Ratio (x) = 0.37108 0.20800
# Poissons Ratio (y) = 0.52149 0.23052
# Poissons Ratio (z) = 0.18010 0.14203
#
# Static dielectric constant tensor:
#      x y z
#    x 3.868980 0.000000 0.000000 
#    y 0.000000 3.751910 0.000000 
#    z 0.000000 0.000000 3.991760 
# 
# 
# High freq. dielectric constant tensor:
#      x y z
#    x 1.843600 0.000000 0.000000 
#    y 0.000000 1.839330 0.000000 
#    z 0.000000 0.000000 1.844050 
# 
# From -- ./inp_files/4975.got.cif
#   From: 2010.03.12/outbox.cif.g09.slc.cpg/sg33_3_cif.got.tgz:4975.got - 2010.04.14 01:49:19.
