data_PCOD8171524
_publ_section_title
;
Structure prediction by ZEFSAII (Michael W. Deem and Ramdas Pophale) SiO2 
 PCOD8171524
Probable space group: P N A 21
;
_chemical_formula_sum "Si O2"
_cell_formula_units_Z 20
_cell_length_a 4.817454
_cell_length_b 22.970444
_cell_length_c 8.187341
_cell_angle_alpha 90.000000
_cell_angle_beta 90.000000
_cell_angle_gamma 90.000000
_cell_volume 906.003437
_symmetry_space_group_name_H-M "P N A 21"
_symmetry_group_IT_number 33
_symmetry_cell_setting 'orthorhombic'
loop_
_space_group_symop_operation_xyz
x,y,z
-x,-y,1/2+z
1/2-x,1/2+y,1/2+z
1/2+x,1/2-y,z
loop_
_atom_site_type_symbol
_atom_site_label
_atom_site_fract_x
_atom_site_fract_y
_atom_site_fract_z
Si Si1 0.833432 0.884375 0.694000
Si Si2 0.911312 0.450779 0.890385
Si Si3 0.012932 0.789563 0.456191
Si Si4 0.840459 0.584237 0.894372
Si Si5 0.572271 0.605265 0.235125
O O1 0.707520 0.925780 0.557204
O O2 0.600759 0.876026 0.835950
O O3 0.929993 0.822240 0.623528
O O4 0.102834 0.917181 0.759168
O O5 0.952138 0.519098 0.917170
O O6 0.702651 0.435691 0.739191
O O7 0.209416 0.422053 0.861779
O O8 0.330853 0.768949 0.449449
O O9 0.974287 0.831511 0.299757
O O10 0.707743 0.610979 0.057946
#
# Coordination Sequence:
#
# PCOD8171524 Si02
#       5
#     4   4   4   4   4
#     4  11  24  39  62  93 121 160 209 245 299 369
#     4  11  21  39  61  90 130 171 193 227 300 385
#     4  11  23  45  66  82 114 166 213 257 304 361
#     4  12  22  38  61  96 131 154 191 257 304 355
#     4  11  24  39  62  93 122 161 208 244 299 370
#
# _framework density 22.07497
#
# number of rings (size 3 to 8) (size 9 to 14) (size 15 to 20)
#    0.000    0.800    0.000   10.800    0.000    0.000 
#    0.000    6.000    0.000    0.000    0.000    0.000 
#    0.000    0.000    0.000    0.000    0.000    0.000 
#
# Total GULP energy -248078.930704 kJ/mol
# GULP energy per Si atom -12403.946535 kJ/mol
# Density = 2.202473 g / cm^3
# Si number density = 22.074970 Si / 1000 Ang^3
#
#
#
# Elastic Constant Matrix: (Units=GPa)
#
#
# Indices 1 2 3 4 5 6 
#
# 1 93.1160 26.3123 5.0977 0.0000 0.0000 0.0000
# 2 26.3123 95.2693 45.8367 0.0000 0.0000 0.0000
# 3 5.0977 45.8367 75.9516 0.0000 0.0000 0.0000
# 4 0.0000 0.0000 0.0000 16.7496 0.0000 0.0000
# 5 0.0000 0.0000 0.0000 0.0000 43.5501 0.0000
# 6 0.0000 0.0000 0.0000 0.0000 0.0000 44.3543
#
#
#
# Elastic Compliance Matrix: (Units=1/GPa)
#
#
# Indices 1 2 3 4 5 6 
#
# 1 0.011794 -0.004054 0.001655 0.000000 0.000000 0.000000
# 2 -0.004054 0.016185 -0.009495 0.000000 0.000000 0.000000
# 3 0.001655 -0.009495 0.018786 0.000000 0.000000 0.000000
# 4 0.000000 0.000000 0.000000 0.059703 0.000000 0.000000
# 5 0.000000 0.000000 0.000000 0.000000 0.022962 0.000000
# 6 0.000000 0.000000 0.000000 0.000000 0.000000 0.022546
#
#
# Mechanical properties :
#
#
# Convention : Reuss Voigt Hill
#
# Bulk Modulus (GPa) = 43.52358 46.53671 45.03015
# Shear Modulus (GPa) = 27.25955 33.40347 30.33151
#
# Velocity S-wave (km/s) = 3.51787 3.89419 3.71080
# Velocity P-wave (km/s) = 6.02160 6.43013 6.22921
#
# Compressibility (1/GPa) = 0.02297605
#
# Stress axis : x y z
#
# Youngs Moduli (GPa) = 84.78792 61.78730 53.23225
#
# Poissons Ratio (x) = 0.25046 -0.08808
# Poissons Ratio (y) = 0.34369 0.50546
# Poissons Ratio (z) = -0.14030 0.58669
#
# Static dielectric constant tensor:
#      x y z
#    x 4.367940 0.000000 0.000000 
#    y 0.000000 3.754990 0.000000 
#    z 0.000000 0.000000 4.030190 
# 
# 
# High freq. dielectric constant tensor:
#      x y z
#    x 1.896800 0.000000 0.000000 
#    y 0.000000 1.848610 0.000000 
#    z 0.000000 0.000000 1.865140 
# 
# From -- ./inp_files/2674.got.cif
#   From: 2010.03.12/outbox.cif.g09.slc.cpg/sg33_2_cif.got.tgz:2674.got - 2010.04.14 01:49:19.
