data_PCOD8171917
_publ_section_title
;
Structure prediction by ZEFSAII (Michael W. Deem and Ramdas Pophale) SiO2 
 PCOD8171917
Probable space group: P N N 2
;
_chemical_formula_sum "Si O2"
_cell_formula_units_Z 32
_cell_length_a 8.662124
_cell_length_b 12.226858
_cell_length_c 14.835037
_cell_angle_alpha 90.000000
_cell_angle_beta 90.000000
_cell_angle_gamma 90.000000
_cell_volume 1571.187078
_symmetry_space_group_name_H-M "P N N 2"
_symmetry_group_IT_number 34
_symmetry_cell_setting 'orthorhombic'
loop_
_space_group_symop_operation_xyz
x,y,z
-x,-y,z
1/2-x,1/2+y,1/2+z
1/2+x,1/2-y,1/2+z
loop_
_atom_site_type_symbol
_atom_site_label
_atom_site_fract_x
_atom_site_fract_y
_atom_site_fract_z
Si Si1 0.672608 0.208742 0.951880
Si Si2 0.578934 0.773629 0.573496
Si Si3 0.121661 0.095907 0.156202
Si Si4 0.305684 0.884825 0.484583
Si Si5 0.182038 0.522261 0.148985
Si Si6 0.334804 0.152307 0.994487
Si Si7 0.336818 0.556291 0.862521
Si Si8 0.179934 0.488296 0.341043
O O1 0.520725 0.154529 0.997845
O O2 0.660610 0.334305 0.922037
O O3 0.718479 0.136029 0.866408
O O4 0.813873 0.189115 0.020249
O O5 0.469188 0.710851 0.644295
O O6 0.483150 0.848856 0.501802
O O7 0.700398 0.849931 0.625977
O O8 0.190583 0.083256 0.256861
O O9 0.265753 0.103263 0.087230
O O10 0.000000 0.000000 0.133319
O O11 0.210230 0.775176 0.468529
O O12 0.238549 0.945050 0.574095
O O13 0.290426 0.969002 0.399895
O O14 0.264926 0.505793 0.245293
O O15 0.000000 0.500000 0.151737
O O16 0.266261 0.075525 0.915659
O O17 0.500000 0.500000 0.876186
O O18 0.000000 0.500000 0.323956
#
# Coordination Sequence:
#
# PCOD8171917 Si02
#       8
#     4   4   4   4   4   4   4   4
#     4  11  21  36  62  88 124 157 203 259 327 369
#     4  10  21  36  64  87 123 159 207 259 316 381
#     4  10  23  39  64  87 124 168 215 255 318 389
#     4  10  20  37  61  90 118 158 208 256 311 374
#     4   9  18  33  57  87 111 147 200 253 298 365
#     4  10  21  38  63  87 123 162 206 259 314 375
#     4  11  22  37  63  93 121 164 214 261 313 392
#     4   9  20  33  58  85 115 153 202 247 299 368
#
# _framework density 20.366766999999999
#
# number of rings (size 3 to 8) (size 9 to 14) (size 15 to 20)
#    0.000    2.000    2.500    0.750    8.750    0.000 
#    0.000    0.000   24.750    6.750    0.000    0.000 
#    0.000    0.000    0.000    0.000    0.000    0.000 
#
# Total GULP energy -396538.362895 kJ/mol
# GULP energy per Si atom -12391.823840 kJ/mol
# Density = 2.032041 g / cm^3
# Si number density = 20.366767 Si / 1000 Ang^3
#
#
#
# Elastic Constant Matrix: (Units=GPa)
#
#
# Indices 1 2 3 4 5 6 
#
# 1 51.9892 23.9534 43.4594 0.0000 0.0000 0.0000
# 2 23.9534 109.3018 50.8994 0.0000 0.0000 0.0000
# 3 43.4594 50.8994 140.5917 0.0000 0.0000 0.0000
# 4 0.0000 0.0000 0.0000 26.7085 0.0000 0.0000
# 5 0.0000 0.0000 0.0000 0.0000 14.4662 0.0000
# 6 0.0000 0.0000 0.0000 0.0000 0.0000 30.5760
#
#
#
# Elastic Compliance Matrix: (Units=1/GPa)
#
#
# Indices 1 2 3 4 5 6 
#
# 1 0.026447 -0.002392 -0.007309 0.000000 0.000000 0.000000
# 2 -0.002392 0.011221 -0.003323 0.000000 0.000000 0.000000
# 3 -0.007309 -0.003323 0.010575 0.000000 0.000000 0.000000
# 4 0.000000 0.000000 0.000000 0.037441 0.000000 0.000000
# 5 0.000000 0.000000 0.000000 0.000000 0.069126 0.000000
# 6 0.000000 0.000000 0.000000 0.000000 0.000000 0.032705
#
#
# Mechanical properties :
#
#
# Convention : Reuss Voigt Hill
#
# Bulk Modulus (GPa) = 45.05634 59.83412 52.44523
# Shear Modulus (GPa) = 22.62832 26.58818 24.60825
#
# Velocity S-wave (km/s) = 3.33684 3.61705 3.47977
# Velocity P-wave (km/s) = 6.08412 6.84734 6.47699
#
# Compressibility (1/GPa) = 0.02219444
#
# Stress axis : x y z
#
# Youngs Moduli (GPa) = 37.81165 89.12199 94.56107
#
# Poissons Ratio (x) = 0.21319 0.69116
# Poissons Ratio (y) = 0.09045 0.31421
# Poissons Ratio (z) = 0.27637 0.29614
#
# Static dielectric constant tensor:
#      x y z
#    x 3.384150 0.000000 0.000000 
#    y 0.000000 3.965310 0.000000 
#    z 0.000000 0.000000 3.913320 
# 
# 
# High freq. dielectric constant tensor:
#      x y z
#    x 1.758560 0.000000 0.000000 
#    y 0.000000 1.817820 0.000000 
#    z 0.000000 0.000000 1.791630 
# 
# From -- ./inp_files/6560.got.cif
#   From: 2010.03.12/outbox.cif.g09.slc.cpg/sg34_4_cif.got.tgz:6560.got - 2010.04.14 01:56:33.
