data_PCOD8171025
_publ_section_title
;
Structure prediction by ZEFSAII (Michael W. Deem and Ramdas Pophale) SiO2 
 PCOD8171025
Probable space group: P N A 21
;
_chemical_formula_sum "Si O2"
_cell_formula_units_Z 28
_cell_length_a 11.142628
_cell_length_b 12.825342
_cell_length_c 9.324461
_cell_angle_alpha 90.000000
_cell_angle_beta 90.000000
_cell_angle_gamma 90.000000
_cell_volume 1332.540211
_symmetry_space_group_name_H-M "P N A 21"
_symmetry_group_IT_number 33
_symmetry_cell_setting 'orthorhombic'
loop_
_space_group_symop_operation_xyz
x,y,z
-x,-y,1/2+z
1/2-x,1/2+y,1/2+z
1/2+x,1/2-y,z
loop_
_atom_site_type_symbol
_atom_site_label
_atom_site_fract_x
_atom_site_fract_y
_atom_site_fract_z
Si Si1 0.481695 0.923521 0.631780
Si Si2 0.861748 0.959248 0.526444
Si Si3 0.761060 0.590054 0.427263
Si Si4 0.554166 0.452639 0.330140
Si Si5 0.842749 0.603198 0.120367
Si Si6 0.370654 0.771917 0.851033
Si Si7 0.294380 0.221151 0.104260
O O1 0.384589 0.937523 0.506439
O O2 0.423816 0.875644 0.775610
O O3 0.584495 0.842458 0.587567
O O4 0.536316 0.038092 0.658280
O O5 0.943516 0.984235 0.664125
O O6 0.818175 0.838933 0.529435
O O7 0.743914 0.029625 0.528412
O O8 0.938533 0.986112 0.387079
O O9 0.678714 0.487460 0.407514
O O10 0.787715 0.639749 0.271280
O O11 0.684649 0.671883 0.519904
O O12 0.540399 0.327754 0.345139
O O13 0.860164 0.704056 0.020240
O O14 0.245154 0.741671 0.770537
#
# Coordination Sequence:
#
# PCOD8171025 Si02
#       7
#     4   4   4   4   4   4   4
#     4  10  21  41  64  85 117 169 203 247 307 385
#     4   9  21  39  59  84 121 155 200 249 302 365
#     4  10  22  38  60  86 122 155 200 256 304 363
#     4  10  22  38  59  90 121 160 199 256 305 370
#     4  10  21  40  57  91 121 149 202 259 304 358
#     4  10  22  37  63  92 120 164 200 258 311 366
#     4   9  21  39  62  84 118 164 208 241 309 383
#
# _framework density 21.012499999999999
#
# number of rings (size 3 to 8) (size 9 to 14) (size 15 to 20)
#    0.000    2.286    0.000    1.714    8.000    2.286 
#    2.571    2.857    0.000    0.000    0.000    0.000 
#    0.000    0.000    0.000    0.000    0.000    0.000 
#
# Total GULP energy -347108.124025 kJ/mol
# GULP energy per Si atom -12396.718715 kJ/mol
# Density = 2.096467 g / cm^3
# Si number density = 21.012500 Si / 1000 Ang^3
#
#
#
# Elastic Constant Matrix: (Units=GPa)
#
#
# Indices 1 2 3 4 5 6 
#
# 1 54.4133 -11.5271 -2.1017 0.0000 0.0000 0.0000
# 2 -11.5271 45.8165 4.5062 0.0000 0.0000 0.0000
# 3 -2.1017 4.5062 50.5068 0.0000 0.0000 0.0000
# 4 0.0000 0.0000 0.0000 35.5788 0.0000 0.0000
# 5 0.0000 0.0000 0.0000 0.0000 26.7878 0.0000
# 6 0.0000 0.0000 0.0000 0.0000 0.0000 21.2155
#
#
#
# Elastic Compliance Matrix: (Units=1/GPa)
#
#
# Indices 1 2 3 4 5 6 
#
# 1 0.019420 0.004849 0.000375 0.000000 0.000000 0.000000
# 2 0.004849 0.023230 -0.001871 0.000000 0.000000 0.000000
# 3 0.000375 -0.001871 0.019982 0.000000 0.000000 0.000000
# 4 0.000000 0.000000 0.000000 0.028107 0.000000 0.000000
# 5 0.000000 0.000000 0.000000 0.000000 0.037330 0.000000
# 6 0.000000 0.000000 0.000000 0.000000 0.000000 0.047135
#
#
# Mechanical properties :
#
#
# Convention : Reuss Voigt Hill
#
# Bulk Modulus (GPa) = 14.42198 14.72128 14.57163
# Shear Modulus (GPa) = 26.09470 27.37370 26.73420
#
# Velocity S-wave (km/s) = 3.52783 3.61326 3.57080
# Velocity P-wave (km/s) = 4.84485 4.94254 4.89394
#
# Compressibility (1/GPa) = 0.06933863
#
# Stress axis : x y z
#
# Youngs Moduli (GPa) = 51.49448 43.04751 50.04540
#
# Poissons Ratio (x) = -0.20873 -0.01879
# Poissons Ratio (y) = -0.24969 0.09363
# Poissons Ratio (z) = -0.01933 0.08053
#
# Static dielectric constant tensor:
#      x y z
#    x 3.724440 0.000000 0.000000 
#    y 0.000000 3.750890 0.000000 
#    z 0.000000 0.000000 3.684260 
# 
# 
# High freq. dielectric constant tensor:
#      x y z
#    x 1.819960 0.000000 0.000000 
#    y 0.000000 1.815280 0.000000 
#    z 0.000000 0.000000 1.816200 
# 
# From -- ./inp_files/3843.got.cif
#   From: 2010.03.12/outbox.cif.g09.slc.cpg/sg33_2_cif.got.tgz:3843.got - 2010.04.14 01:49:19.
