data_PCOD8171670
_publ_section_title
;
Structure prediction by ZEFSAII (Michael W. Deem and Ramdas Pophale) SiO2 
 PCOD8171670
Probable space group: P N A 21
;
_chemical_formula_sum "Si O2"
_cell_formula_units_Z 32
_cell_length_a 15.559027
_cell_length_b 16.937875
_cell_length_c 5.341052
_cell_angle_alpha 90.000000
_cell_angle_beta 90.000000
_cell_angle_gamma 90.000000
_cell_volume 1407.564044
_symmetry_space_group_name_H-M "P N A 21"
_symmetry_group_IT_number 33
_symmetry_cell_setting 'orthorhombic'
loop_
_space_group_symop_operation_xyz
x,y,z
-x,-y,1/2+z
1/2-x,1/2+y,1/2+z
1/2+x,1/2-y,z
loop_
_atom_site_type_symbol
_atom_site_label
_atom_site_fract_x
_atom_site_fract_y
_atom_site_fract_z
Si Si1 0.370040 0.380450 0.438470
Si Si2 0.588837 0.901837 0.880993
Si Si3 0.431327 0.935855 0.201939
Si Si4 0.278863 0.634125 0.005507
Si Si5 0.971775 0.155111 0.931175
Si Si6 0.143061 0.064749 0.987689
Si Si7 0.186921 0.307893 0.436260
Si Si8 0.460086 0.813128 0.584711
O O1 0.408553 0.346916 0.695888
O O2 0.357295 0.471333 0.503133
O O3 0.280195 0.340110 0.370232
O O4 0.428658 0.362812 0.198672
O O5 0.539276 0.825451 0.775115
O O6 0.610753 0.976745 0.699941
O O7 0.525538 0.941236 0.082262
O O8 0.676512 0.867084 0.983170
O O9 0.448068 0.900378 0.474545
O O10 0.365100 0.874391 0.082400
O O11 0.296758 0.584066 0.252612
O O12 0.324879 0.601146 0.753129
O O13 0.306364 0.723557 0.073980
O O14 0.047834 0.092093 0.911529
O O15 0.010901 0.242917 0.904068
O O16 0.132165 0.287381 0.190392
#
# Coordination Sequence:
#
# PCOD8171670 Si02
#       8
#     4   4   4   4   4   4   4   4
#     4  12  28  46  77 106 142 186 248 298 354 439
#     4  11  25  43  72 112 140 201 242 300 362 449
#     4  11  24  44  72 102 154 185 243 297 370 429
#     4  12  27  45  76 104 149 187 250 293 366 439
#     4  12  26  48  73 104 145 189 245 296 367 427
#     4  12  26  49  74 106 144 193 236 306 366 420
#     4  11  27  45  68 109 142 195 236 308 364 431
#     4  11  25  44  72  99 150 188 238 296 371 426
#
# _framework density 22.734311000000002
#
# number of rings (size 3 to 8) (size 9 to 14) (size 15 to 20)
#    0.000    0.500    2.500    4.500   10.500    0.000 
#    0.000    0.000    0.000    0.000    0.000    0.000 
#    0.000    0.000    0.000    0.000    0.000    0.000 
#
# Total GULP energy -396614.592631 kJ/mol
# GULP energy per Si atom -12394.206020 kJ/mol
# Density = 2.268257 g / cm^3
# Si number density = 22.734311 Si / 1000 Ang^3
#
#
#
# Elastic Constant Matrix: (Units=GPa)
#
#
# Indices 1 2 3 4 5 6 
#
# 1 128.7520 40.1382 34.0070 0.0000 0.0000 0.0000
# 2 40.1382 118.2817 21.0308 0.0000 0.0000 0.0000
# 3 34.0070 21.0308 98.8242 0.0000 0.0000 0.0000
# 4 0.0000 0.0000 0.0000 27.2356 0.0000 0.0000
# 5 0.0000 0.0000 0.0000 0.0000 21.2909 0.0000
# 6 0.0000 0.0000 0.0000 0.0000 0.0000 34.2173
#
#
#
# Elastic Compliance Matrix: (Units=1/GPa)
#
#
# Indices 1 2 3 4 5 6 
#
# 1 0.009299 -0.002688 -0.002628 0.000000 0.000000 0.000000
# 2 -0.002688 0.009564 -0.001110 0.000000 0.000000 0.000000
# 3 -0.002628 -0.001110 0.011260 0.000000 0.000000 0.000000
# 4 0.000000 0.000000 0.000000 0.036717 0.000000 0.000000
# 5 0.000000 0.000000 0.000000 0.000000 0.046968 0.000000
# 6 0.000000 0.000000 0.000000 0.000000 0.000000 0.029225
#
#
# Mechanical properties :
#
#
# Convention : Reuss Voigt Hill
#
# Bulk Modulus (GPa) = 57.90451 59.57888 58.74169
# Shear Modulus (GPa) = 30.93251 33.26087 32.09669
#
# Velocity S-wave (km/s) = 3.69265 3.82910 3.76149
# Velocity P-wave (km/s) = 6.61107 6.76852 6.69026
#
# Compressibility (1/GPa) = 0.01726981
#
# Stress axis : x y z
#
# Youngs Moduli (GPa) = 107.53802 104.55803 88.81364
#
# Poissons Ratio (x) = 0.28109 0.23339
# Poissons Ratio (y) = 0.28910 0.09860
# Poissons Ratio (z) = 0.28259 0.11608
#
# Static dielectric constant tensor:
#      x y z
#    x 4.291480 0.000000 0.000000 
#    y 0.000000 4.569670 0.000000 
#    z 0.000000 0.000000 4.132750 
# 
# 
# High freq. dielectric constant tensor:
#      x y z
#    x 1.910350 0.000000 0.000000 
#    y 0.000000 1.921940 0.000000 
#    z 0.000000 0.000000 1.892210 
# 
# From -- ./inp_files/1468.got.cif
#   From: 2010.03.12/outbox.cif.g09.slc.cpg/sg33_1_cif.got.tgz:1468.got - 2010.04.14 01:49:19.
