data_PCOD8171454
_publ_section_title
;
Structure prediction by ZEFSAII (Michael W. Deem and Ramdas Pophale) SiO2 
 PCOD8171454
Probable space group: P N A 21
;
_chemical_formula_sum "Si O2"
_cell_formula_units_Z 28
_cell_length_a 8.632283
_cell_length_b 12.681198
_cell_length_c 12.035260
_cell_angle_alpha 90.000000
_cell_angle_beta 90.000000
_cell_angle_gamma 90.000000
_cell_volume 1317.472110
_symmetry_space_group_name_H-M "P N A 21"
_symmetry_group_IT_number 33
_symmetry_cell_setting 'orthorhombic'
loop_
_space_group_symop_operation_xyz
x,y,z
-x,-y,1/2+z
1/2-x,1/2+y,1/2+z
1/2+x,1/2-y,z
loop_
_atom_site_type_symbol
_atom_site_label
_atom_site_fract_x
_atom_site_fract_y
_atom_site_fract_z
Si Si1 0.990922 0.357772 0.296530
Si Si2 0.552062 0.522130 0.304532
Si Si3 0.579740 0.203799 0.618257
Si Si4 0.673311 0.317433 0.395236
Si Si5 0.787615 0.456447 0.869777
Si Si6 0.200163 0.523704 0.620560
Si Si7 0.336483 0.258117 0.771866
O O1 0.102568 0.254615 0.293721
O O2 0.086132 0.455093 0.345388
O O3 0.857737 0.327471 0.384706
O O4 0.909235 0.387430 0.179269
O O5 0.599612 0.434225 0.394691
O O6 0.365253 0.520345 0.295067
O O7 0.641733 0.495622 0.189498
O O8 0.606130 0.639264 0.340747
O O9 0.641943 0.263277 0.511517
O O10 0.408907 0.245358 0.646926
O O11 0.658063 0.232025 0.737643
O O12 0.593198 0.078730 0.604023
O O13 0.867589 0.345598 0.842865
O O14 0.742814 0.444008 0.998855
#
# Coordination Sequence:
#
# PCOD8171454 Si02
#       7
#     4   4   4   4   4   4   4
#     4  11  23  43  67 103 137 173 227 279 335 409
#     4  10  25  43  66  99 138 177 234 282 333 413
#     4  11  21  39  69  98 127 173 231 274 329 394
#     4  11  23  40  68 100 135 178 222 283 336 398
#     4  12  23  44  72  98 140 179 223 286 350 393
#     4  10  24  44  67 100 136 178 229 279 342 407
#     4  11  23  41  65  98 135 174 222 285 329 408
#
# _framework density 21.252821000000001
#
# number of rings (size 3 to 8) (size 9 to 14) (size 15 to 20)
#    0.000    1.143    4.286    1.714    4.000    0.000 
#    5.143    0.000    3.143    0.000    0.000    0.000 
#    0.000    0.000    0.000    0.000    0.000    0.000 
#
# Total GULP energy -347016.812367 kJ/mol
# GULP energy per Si atom -12393.457585 kJ/mol
# Density = 2.120445 g / cm^3
# Si number density = 21.252821 Si / 1000 Ang^3
#
#
#
# Elastic Constant Matrix: (Units=GPa)
#
#
# Indices 1 2 3 4 5 6 
#
# 1 109.8986 51.8224 31.3337 0.0000 0.0000 0.0000
# 2 51.8224 152.3440 34.9642 0.0000 0.0000 0.0000
# 3 31.3337 34.9642 79.6596 0.0000 0.0000 0.0000
# 4 0.0000 0.0000 0.0000 36.4787 0.0000 0.0000
# 5 0.0000 0.0000 0.0000 0.0000 21.8528 0.0000
# 6 0.0000 0.0000 0.0000 0.0000 0.0000 36.2941
#
#
#
# Elastic Compliance Matrix: (Units=1/GPa)
#
#
# Indices 1 2 3 4 5 6 
#
# 1 0.011495 -0.003194 -0.003119 0.000000 0.000000 0.000000
# 2 -0.003194 0.008187 -0.002337 0.000000 0.000000 0.000000
# 3 -0.003119 -0.002337 0.014806 0.000000 0.000000 0.000000
# 4 0.000000 0.000000 0.000000 0.027413 0.000000 0.000000
# 5 0.000000 0.000000 0.000000 0.000000 0.045761 0.000000
# 6 0.000000 0.000000 0.000000 0.000000 0.000000 0.027553
#
#
# Mechanical properties :
#
#
# Convention : Reuss Voigt Hill
#
# Bulk Modulus (GPa) = 58.18443 64.23810 61.21126
# Shear Modulus (GPa) = 31.59654 33.84391 32.72022
#
# Velocity S-wave (km/s) = 3.85996 3.99487 3.92799
# Velocity P-wave (km/s) = 6.87767 7.18122 7.03109
#
# Compressibility (1/GPa) = 0.01718673
#
# Stress axis : x y z
#
# Youngs Moduli (GPa) = 86.99476 122.14437 67.53933
#
# Poissons Ratio (x) = 0.39016 0.21069
# Poissons Ratio (y) = 0.27788 0.15784
# Poissons Ratio (z) = 0.27138 0.28545
#
# Static dielectric constant tensor:
#      x y z
#    x 4.030300 0.000000 0.000000 
#    y 0.000000 4.116710 0.000000 
#    z 0.000000 0.000000 3.562120 
# 
# 
# High freq. dielectric constant tensor:
#      x y z
#    x 1.849920 0.000000 0.000000 
#    y 0.000000 1.847490 0.000000 
#    z 0.000000 0.000000 1.804610 
# 
# From -- ./inp_files/5834.got.cif
#   From: 2010.03.12/outbox.cif.g09.slc.cpg/sg33_3_cif.got.tgz:5834.got - 2010.04.14 01:49:19.
