data_PCOD8171766
_publ_section_title
;
Structure prediction by ZEFSAII (Michael W. Deem and Ramdas Pophale) SiO2 
 PCOD8171766
Probable space group: P N A 21
;
_chemical_formula_sum "Si O2"
_cell_formula_units_Z 20
_cell_length_a 12.738060
_cell_length_b 12.902552
_cell_length_c 4.654416
_cell_angle_alpha 90.000000
_cell_angle_beta 90.000000
_cell_angle_gamma 90.000000
_cell_volume 764.969474
_symmetry_space_group_name_H-M "P N A 21"
_symmetry_group_IT_number 33
_symmetry_cell_setting 'orthorhombic'
loop_
_space_group_symop_operation_xyz
x,y,z
-x,-y,1/2+z
1/2-x,1/2+y,1/2+z
1/2+x,1/2-y,z
loop_
_atom_site_type_symbol
_atom_site_label
_atom_site_fract_x
_atom_site_fract_y
_atom_site_fract_z
Si Si1 0.558803 0.248743 0.089240
Si Si2 0.354841 0.342824 0.831766
Si Si3 0.788101 0.031461 0.340785
Si Si4 0.809126 0.804606 0.109344
Si Si5 0.949058 0.548245 0.936199
O O1 0.649452 0.306648 0.281966
O O2 0.516796 0.150131 0.260084
O O3 0.461369 0.321478 0.004365
O O4 0.614618 0.225166 0.784148
O O5 0.371499 0.429171 0.581150
O O6 0.307361 0.241835 0.663821
O O7 0.277500 0.389525 0.073577
O O8 0.674337 0.034489 0.489614
O O9 0.821043 0.918858 0.235672
O O10 0.991514 0.452305 0.740905
#
# Coordination Sequence:
#
# PCOD8171766 Si02
#       5
#     4   4   4   4   4
#     4  12  26  46  75 108 156 204 253 329 386 470
#     4  12  25  48  73 108 153 200 257 320 390 460
#     4  12  26  46  75 107 153 202 249 325 388 461
#     4  12  25  48  73 109 154 202 264 317 394 467
#     4  12  24  44  74 110 146 196 269 317 382 452
#
# _framework density 26.144831
#
# number of rings (size 3 to 8) (size 9 to 14) (size 15 to 20)
#    0.000    0.000    4.000    6.000    0.000    6.400 
#    0.000    0.000    0.000    0.000    0.000    0.000 
#    0.000    0.000    0.000    0.000    0.000    0.000 
#
# Total GULP energy -247967.654428 kJ/mol
# GULP energy per Si atom -12398.382721 kJ/mol
# Density = 2.608532 g / cm^3
# Si number density = 26.144831 Si / 1000 Ang^3
#
#
#
# Elastic Constant Matrix: (Units=GPa)
#
#
# Indices 1 2 3 4 5 6 
#
# 1 79.4538 16.4226 28.7468 0.0000 0.0000 0.0000
# 2 16.4226 67.4422 -8.0365 0.0000 0.0000 0.0000
# 3 28.7468 -8.0365 104.0349 0.0000 0.0000 0.0000
# 4 0.0000 0.0000 0.0000 39.0608 0.0000 0.0000
# 5 0.0000 0.0000 0.0000 0.0000 53.6888 0.0000
# 6 0.0000 0.0000 0.0000 0.0000 0.0000 25.8546
#
#
#
# Elastic Compliance Matrix: (Units=1/GPa)
#
#
# Indices 1 2 3 4 5 6 
#
# 1 0.015081 -0.004208 -0.004492 0.000000 0.000000 0.000000
# 2 -0.004208 0.016139 0.002409 0.000000 0.000000 0.000000
# 3 -0.004492 0.002409 0.011040 0.000000 0.000000 0.000000
# 4 0.000000 0.000000 0.000000 0.025601 0.000000 0.000000
# 5 0.000000 0.000000 0.000000 0.000000 0.018626 0.000000
# 6 0.000000 0.000000 0.000000 0.000000 0.000000 0.038678
#
#
# Mechanical properties :
#
#
# Convention : Reuss Voigt Hill
#
# Bulk Modulus (GPa) = 33.69404 36.13298 34.91351
# Shear Modulus (GPa) = 33.86660 37.97406 35.92033
#
# Velocity S-wave (km/s) = 3.60300 3.81524 3.71063
# Velocity P-wave (km/s) = 5.49765 5.76701 5.63394
#
# Compressibility (1/GPa) = 0.02967884
#
# Stress axis : x y z
#
# Youngs Moduli (GPa) = 66.30906 61.96097 90.58342
#
# Poissons Ratio (x) = 0.26071 0.40692
# Poissons Ratio (y) = 0.27900 -0.21825
# Poissons Ratio (z) = 0.29787 -0.14929
#
# Static dielectric constant tensor:
#      x y z
#    x 4.386000 0.000000 0.000000 
#    y 0.000000 4.690570 0.000000 
#    z 0.000000 0.000000 5.034900 
# 
# 
# High freq. dielectric constant tensor:
#      x y z
#    x 2.030240 0.000000 0.000000 
#    y 0.000000 2.046600 0.000000 
#    z 0.000000 0.000000 2.077100 
# 
# From -- ./inp_files/819.got.cif
#   From: 2010.03.12/outbox.cif.g09.slc.cpg/sg33_1_cif.got.tgz:819.got - 2010.04.14 01:49:19.
