data_PCOD8171286
_publ_section_title
;
Structure prediction by ZEFSAII (Michael W. Deem and Ramdas Pophale) SiO2 
 PCOD8171286
Probable space group: P N A 21
;
_chemical_formula_sum "Si O2"
_cell_formula_units_Z 20
_cell_length_a 12.196041
_cell_length_b 6.657119
_cell_length_c 11.450215
_cell_angle_alpha 90.000000
_cell_angle_beta 90.000000
_cell_angle_gamma 90.000000
_cell_volume 929.648638
_symmetry_space_group_name_H-M "P N A 21"
_symmetry_group_IT_number 33
_symmetry_cell_setting 'orthorhombic'
loop_
_space_group_symop_operation_xyz
x,y,z
-x,-y,1/2+z
1/2-x,1/2+y,1/2+z
1/2+x,1/2-y,z
loop_
_atom_site_type_symbol
_atom_site_label
_atom_site_fract_x
_atom_site_fract_y
_atom_site_fract_z
Si Si1 0.646020 0.118591 0.275870
Si Si2 0.136150 0.056006 0.821420
Si Si3 0.554473 0.110237 0.668377
Si Si4 0.333662 0.288050 0.120856
Si Si5 0.054150 0.086016 0.464766
O O1 0.705102 0.204660 0.157873
O O2 0.604784 0.302216 0.353638
O O3 0.735618 0.987975 0.351059
O O4 0.551157 0.971400 0.234903
O O5 0.127114 0.278337 0.766529
O O6 0.095700 0.891019 0.725523
O O7 0.058112 0.031005 0.933041
O O8 0.519595 0.259461 0.565461
O O9 0.626342 0.938793 0.606439
O O10 0.356129 0.420337 0.004995
#
# Coordination Sequence:
#
# PCOD8171286 Si02
#       5
#     4   4   4   4   4
#     4  10  22  45  66  97 137 183 222 279 339 398
#     4   9  23  42  64  96 136 173 226 275 331 401
#     4  11  23  45  66  99 141 171 229 285 327 404
#     4   9  23  43  61 101 128 180 225 271 332 402
#     4  11  23  43  67  99 138 177 224 280 337 397
#
# _framework density 21.513504999999999
#
# number of rings (size 3 to 8) (size 9 to 14) (size 15 to 20)
#    1.200    0.800    2.000    0.000    5.600    1.600 
#    3.600    0.000    0.000    0.000    0.000    0.000 
#    0.000    0.000    0.000    0.000    0.000    0.000 
#
# Total GULP energy -247859.588755 kJ/mol
# GULP energy per Si atom -12392.979438 kJ/mol
# Density = 2.146454 g / cm^3
# Si number density = 21.513505 Si / 1000 Ang^3
#
#
#
# Elastic Constant Matrix: (Units=GPa)
#
#
# Indices 1 2 3 4 5 6 
#
# 1 88.5965 34.1447 22.1615 0.0000 0.0000 0.0000
# 2 34.1447 126.6836 39.2034 0.0000 0.0000 0.0000
# 3 22.1615 39.2034 61.9579 0.0000 0.0000 0.0000
# 4 0.0000 0.0000 0.0000 38.8633 0.0000 0.0000
# 5 0.0000 0.0000 0.0000 0.0000 42.6315 0.0000
# 6 0.0000 0.0000 0.0000 0.0000 0.0000 11.6244
#
#
#
# Elastic Compliance Matrix: (Units=1/GPa)
#
#
# Indices 1 2 3 4 5 6 
#
# 1 0.013039 -0.002575 -0.003034 0.000000 0.000000 0.000000
# 2 -0.002575 0.010324 -0.005611 0.000000 0.000000 0.000000
# 3 -0.003034 -0.005611 0.020776 0.000000 0.000000 0.000000
# 4 0.000000 0.000000 0.000000 0.025731 0.000000 0.000000
# 5 0.000000 0.000000 0.000000 0.000000 0.023457 0.000000
# 6 0.000000 0.000000 0.000000 0.000000 0.000000 0.086026
#
#
# Mechanical properties :
#
#
# Convention : Reuss Voigt Hill
#
# Bulk Modulus (GPa) = 46.08970 52.02857 49.05913
# Shear Modulus (GPa) = 23.92038 30.73910 27.32974
#
# Velocity S-wave (km/s) = 3.33810 3.78408 3.56807
# Velocity P-wave (km/s) = 6.02722 6.58248 6.31096
#
# Compressibility (1/GPa) = 0.02169682
#
# Stress axis : x y z
#
# Youngs Moduli (GPa) = 76.69530 96.85873 48.13264
#
# Poissons Ratio (x) = 0.24944 0.14605
# Poissons Ratio (y) = 0.19751 0.27010
# Poissons Ratio (z) = 0.23271 0.54352
#
# Static dielectric constant tensor:
#      x y z
#    x 3.625230 0.000000 0.000000 
#    y 0.000000 3.818300 0.000000 
#    z 0.000000 0.000000 3.692380 
# 
# 
# High freq. dielectric constant tensor:
#      x y z
#    x 1.833440 0.000000 0.000000 
#    y 0.000000 1.849420 0.000000 
#    z 0.000000 0.000000 1.834380 
# 
# From -- ./inp_files/6564.got.cif
#   From: 2010.03.12/outbox.cif.g09.slc.cpg/sg33_4_cif.got.tgz:6564.got - 2010.04.14 01:49:19.
