data_PCOD8171530
_publ_section_title
;
Structure prediction by ZEFSAII (Michael W. Deem and Ramdas Pophale) SiO2 
 PCOD8171530
Probable space group: P N A 21
;
_chemical_formula_sum "Si O2"
_cell_formula_units_Z 32
_cell_length_a 9.787709
_cell_length_b 15.268498
_cell_length_c 10.357394
_cell_angle_alpha 90.000000
_cell_angle_beta 90.000000
_cell_angle_gamma 90.000000
_cell_volume 1547.846404
_symmetry_space_group_name_H-M "P N A 21"
_symmetry_group_IT_number 33
_symmetry_cell_setting 'orthorhombic'
loop_
_space_group_symop_operation_xyz
x,y,z
-x,-y,1/2+z
1/2-x,1/2+y,1/2+z
1/2+x,1/2-y,z
loop_
_atom_site_type_symbol
_atom_site_label
_atom_site_fract_x
_atom_site_fract_y
_atom_site_fract_z
Si Si1 0.789825 0.508314 0.261950
Si Si2 0.833953 0.340307 0.086599
Si Si3 0.628920 0.635319 0.077411
Si Si4 0.374820 0.613321 0.929262
Si Si5 0.884440 0.329755 0.571477
Si Si6 0.425240 0.738049 0.698657
Si Si7 0.077963 0.571902 0.330340
Si Si8 0.135761 0.379579 0.388387
O O1 0.846863 0.428272 0.174257
O O2 0.701721 0.578325 0.184922
O O3 0.691691 0.474776 0.374797
O O4 0.914710 0.558734 0.328892
O O5 0.678928 0.304073 0.094341
O O6 0.929878 0.260975 0.134909
O O7 0.876842 0.360017 0.940429
O O8 0.585265 0.732250 0.125666
O O9 0.492195 0.585619 0.030183
O O10 0.729856 0.651780 0.959662
O O11 0.445337 0.671016 0.817158
O O12 0.259186 0.671330 0.997293
O O13 0.873546 0.394559 0.691866
O O14 0.001142 0.361752 0.473799
O O15 0.367586 0.829419 0.752942
O O16 0.153427 0.481610 0.359333
#
# Coordination Sequence:
#
# PCOD8171530 Si02
#       8
#     4   4   4   4   4   4   4   4
#     4  11  24  43  69 100 138 178 235 281 335 421
#     4  11  24  43  68 101 137 177 226 280 346 409
#     4  12  23  42  66 104 133 172 227 286 343 397
#     4  11  24  41  68 102 134 171 229 287 341 396
#     4  12  23  42  69 103 133 180 229 280 339 413
#     4  11  21  42  69 100 130 173 229 282 332 411
#     4  12  24  42  68 100 138 178 228 279 338 419
#     4  12  21  41  73  96 129 185 229 271 334 414
#
# _framework density 20.673887000000001
#
# number of rings (size 3 to 8) (size 9 to 14) (size 15 to 20)
#    0.000    0.500    7.500    1.500    0.000    2.000 
#    0.000    3.750    0.000    0.000    0.000    0.000 
#    0.000    0.000    0.000    0.000    0.000    0.000 
#
# Total GULP energy -396870.221304 kJ/mol
# GULP energy per Si atom -12402.194416 kJ/mol
# Density = 2.062683 g / cm^3
# Si number density = 20.673887 Si / 1000 Ang^3
#
#
#
# Elastic Constant Matrix: (Units=GPa)
#
#
# Indices 1 2 3 4 5 6 
#
# 1 85.0833 24.3547 14.6619 0.0000 0.0000 0.0000
# 2 24.3547 97.6984 37.7797 0.0000 0.0000 0.0000
# 3 14.6619 37.7797 62.7431 0.0000 0.0000 0.0000
# 4 0.0000 0.0000 0.0000 0.1380 0.0000 0.0000
# 5 0.0000 0.0000 0.0000 0.0000 37.9033 0.0000
# 6 0.0000 0.0000 0.0000 0.0000 0.0000 38.2167
#
#
#
# Elastic Compliance Matrix: (Units=1/GPa)
#
#
# Indices 1 2 3 4 5 6 
#
# 1 0.012748 -0.002641 -0.001389 0.000000 0.000000 0.000000
# 2 -0.002641 0.013889 -0.007746 0.000000 0.000000 0.000000
# 3 -0.001389 -0.007746 0.020927 0.000000 0.000000 0.000000
# 4 0.000000 0.000000 0.000000 7.247722 0.000000 0.000000
# 5 0.000000 0.000000 0.000000 0.000000 0.026383 0.000000
# 6 0.000000 0.000000 0.000000 0.000000 0.000000 0.026167
#
#
# Mechanical properties :
#
#
# Convention : Reuss Voigt Hill
#
# Bulk Modulus (GPa) = 41.64455 44.34635 42.99545
# Shear Modulus (GPa) = 0.67756 26.50018 13.58887
#
# Velocity S-wave (km/s) = 0.57311 3.58413 2.56656
# Velocity P-wave (km/s) = 4.54150 6.21490 5.44290
#
# Compressibility (1/GPa) = 0.02401274
#
# Stress axis : x y z
#
# Youngs Moduli (GPa) = 78.44072 71.99782 47.78582
#
# Poissons Ratio (x) = 0.19014 0.06637
# Poissons Ratio (y) = 0.20716 0.37015
# Poissons Ratio (z) = 0.10895 0.55770
#
# Static dielectric constant tensor:
#      x y z
#    x 3.872090 0.000000 0.000000 
#    y 0.000000 3.780960 0.000000 
#    z 0.000000 0.000000 3.626290 
# 
# 
# High freq. dielectric constant tensor:
#      x y z
#    x 1.814840 0.000000 0.000000 
#    y 0.000000 1.811480 0.000000 
#    z 0.000000 0.000000 1.794170 
# 
# From -- ./inp_files/6035.got.cif
#   From: 2010.03.12/outbox.cif.g09.slc.cpg/sg33_4_cif.got.tgz:6035.got - 2010.04.14 01:49:19.
