data_PCOD8171885
_publ_section_title
;
Structure prediction by ZEFSAII (Michael W. Deem and Ramdas Pophale) SiO2 
 PCOD8171885
Probable space group: P N N 2
;
_chemical_formula_sum "Si O2"
_cell_formula_units_Z 32
_cell_length_a 26.184788
_cell_length_b 6.302094
_cell_length_c 8.905712
_cell_angle_alpha 90.000000
_cell_angle_beta 90.000000
_cell_angle_gamma 90.000000
_cell_volume 1469.611647
_symmetry_space_group_name_H-M "P N N 2"
_symmetry_group_IT_number 34
_symmetry_cell_setting 'orthorhombic'
loop_
_space_group_symop_operation_xyz
x,y,z
-x,-y,z
1/2-x,1/2+y,1/2+z
1/2+x,1/2-y,1/2+z
loop_
_atom_site_type_symbol
_atom_site_label
_atom_site_fract_x
_atom_site_fract_y
_atom_site_fract_z
Si Si1 0.629809 0.980009 0.968520
Si Si2 0.377897 0.211232 0.522014
Si Si3 0.624823 0.127339 0.286734
Si Si4 0.817277 0.150827 0.296184
Si Si5 0.224609 0.247673 0.415350
Si Si6 0.054839 0.417181 0.218513
Si Si7 0.054177 0.094191 0.962889
Si Si8 0.223231 0.098503 0.741321
O O1 0.686899 0.068894 0.966991
O O2 0.591024 0.110425 0.862955
O O3 0.638579 0.736760 0.911241
O O4 0.609559 0.998305 0.137075
O O5 0.331907 0.287131 0.627009
O O6 0.402928 0.415520 0.447118
O O7 0.353569 0.048354 0.402191
O O8 0.423024 0.097409 0.611563
O O9 0.571549 0.224194 0.346381
O O10 0.665951 0.315108 0.263645
O O11 0.761805 0.249498 0.330430
O O12 0.809528 0.899346 0.305430
O O13 0.239016 0.107030 0.563276
O O14 0.270479 0.361111 0.317536
O O15 0.051436 0.192164 0.131417
O O16 0.000000 0.500000 0.273312
O O17 0.000000 0.000000 0.913284
#
# Coordination Sequence:
#
# PCOD8171885 Si02
#       8
#     4   4   4   4   4   4   4   4
#     4   9  21  43  59  93 125 170 209 270 329 386
#     4  10  22  40  66  93 122 169 219 269 331 392
#     4  10  24  41  65  94 136 169 217 277 336 403
#     4  10  22  39  66  91 124 167 216 269 321 392
#     4  10  22  42  64  89 135 166 223 265 322 401
#     4  10  19  39  65  90 121 162 219 273 327 396
#     4  11  22  39  64  94 129 169 223 276 337 398
#     4  10  24  40  63  96 127 175 217 272 330 393
#
# _framework density 21.774460000000001
#
# number of rings (size 3 to 8) (size 9 to 14) (size 15 to 20)
#    0.000    2.000    1.250    0.750    3.500    6.000 
#    2.250    0.625    0.000    0.000    0.000    0.000 
#    0.000    0.000    0.000    0.000    0.000    0.000 
#
# Total GULP energy -396589.355222 kJ/mol
# GULP energy per Si atom -12393.417351 kJ/mol
# Density = 2.172490 g / cm^3
# Si number density = 21.774460 Si / 1000 Ang^3
#
#
#
# Elastic Constant Matrix: (Units=GPa)
#
#
# Indices 1 2 3 4 5 6 
#
# 1 76.1301 19.2395 34.4829 0.0000 0.0000 0.0000
# 2 19.2395 99.1911 50.1778 0.0000 0.0000 0.0000
# 3 34.4829 50.1778 141.6603 0.0000 0.0000 0.0000
# 4 0.0000 0.0000 0.0000 26.3132 0.0000 0.0000
# 5 0.0000 0.0000 0.0000 0.0000 22.5374 0.0000
# 6 0.0000 0.0000 0.0000 0.0000 0.0000 35.9648
#
#
#
# Elastic Compliance Matrix: (Units=1/GPa)
#
#
# Indices 1 2 3 4 5 6 
#
# 1 0.014896 -0.001285 -0.003171 0.000000 0.000000 0.000000
# 2 -0.001285 0.012393 -0.004077 0.000000 0.000000 0.000000
# 3 -0.003171 -0.004077 0.009275 0.000000 0.000000 0.000000
# 4 0.000000 0.000000 0.000000 0.038004 0.000000 0.000000
# 5 0.000000 0.000000 0.000000 0.000000 0.044371 0.000000
# 6 0.000000 0.000000 0.000000 0.000000 0.000000 0.027805
#
#
# Mechanical properties :
#
#
# Convention : Reuss Voigt Hill
#
# Bulk Modulus (GPa) = 51.28586 58.30911 54.79748
# Shear Modulus (GPa) = 29.35822 31.16850 30.26336
#
# Velocity S-wave (km/s) = 3.67589 3.78752 3.73212
# Velocity P-wave (km/s) = 6.45140 6.77967 6.61757
#
# Compressibility (1/GPa) = 0.01949855
#
# Stress axis : x y z
#
# Youngs Moduli (GPa) = 67.13011 80.68887 107.81576
#
# Poissons Ratio (x) = 0.10372 0.34186
# Poissons Ratio (y) = 0.08629 0.43956
# Poissons Ratio (z) = 0.21286 0.32897
#
# Static dielectric constant tensor:
#      x y z
#    x 3.760520 0.000000 0.000000 
#    y 0.000000 3.938630 0.000000 
#    z 0.000000 0.000000 3.965260 
# 
# 
# High freq. dielectric constant tensor:
#      x y z
#    x 1.845400 0.000000 0.000000 
#    y 0.000000 1.854710 0.000000 
#    z 0.000000 0.000000 1.846140 
# 
# From -- ./inp_files/2207.got.cif
#   From: 2010.03.12/outbox.cif.g09.slc.cpg/sg34_2_cif.got.tgz:2207.got - 2010.04.14 01:56:33.
