data_PCOD8171404
_publ_section_title
;
Structure prediction by ZEFSAII (Michael W. Deem and Ramdas Pophale) SiO2 
 PCOD8171404
Probable space group: P N A 21
;
_chemical_formula_sum "Si O2"
_cell_formula_units_Z 32
_cell_length_a 14.268239
_cell_length_b 5.326698
_cell_length_c 17.590696
_cell_angle_alpha 90.000000
_cell_angle_beta 90.000000
_cell_angle_gamma 90.000000
_cell_volume 1336.938634
_symmetry_space_group_name_H-M "P N A 21"
_symmetry_group_IT_number 33
_symmetry_cell_setting 'orthorhombic'
loop_
_space_group_symop_operation_xyz
x,y,z
-x,-y,1/2+z
1/2-x,1/2+y,1/2+z
1/2+x,1/2-y,z
loop_
_atom_site_type_symbol
_atom_site_label
_atom_site_fract_x
_atom_site_fract_y
_atom_site_fract_z
Si Si1 0.683436 0.280886 0.325870
Si Si2 0.787238 0.763379 0.498274
Si Si3 0.036009 0.513794 0.977372
Si Si4 0.705053 0.149824 0.161875
Si Si5 0.883834 0.257858 0.897822
Si Si6 0.406038 0.475477 0.208116
Si Si7 0.873716 0.134262 0.378597
Si Si8 0.002223 0.534384 0.145349
O O1 0.690012 0.318583 0.235773
O O2 0.615036 0.507099 0.348367
O O3 0.787545 0.325665 0.359678
O O4 0.645670 0.005186 0.349936
O O5 0.854081 0.519907 0.495001
O O6 0.784486 0.832967 0.588191
O O7 0.683679 0.708727 0.469553
O O8 0.837195 0.961303 0.445607
O O9 0.034065 0.735489 0.914731
O O10 0.987142 0.281526 0.933565
O O11 0.979068 0.562941 0.055168
O O12 0.801952 0.994242 0.172563
O O13 0.614423 0.970121 0.155473
O O14 0.401816 0.497143 0.299723
O O15 0.465839 0.715693 0.184801
O O16 0.454426 0.215659 0.180596
#
# Coordination Sequence:
#
# PCOD8171404 Si02
#       8
#     4   4   4   4   4   4   4   4
#     4  10  24  46  68 104 137 183 244 284 366 432
#     4  10  23  46  68 102 143 186 240 299 366 426
#     4  11  25  43  70 104 144 189 240 300 365 433
#     4  10  25  48  76 105 149 198 238 316 367 438
#     4  11  24  43  69 101 138 184 236 294 354 435
#     4  11  27  50  77 109 153 195 251 306 374 448
#     4  10  24  45  74 103 147 194 238 310 367 437
#     4  11  28  47  74 112 147 195 255 297 375 453
#
# _framework density 23.935282000000001
#
# number of rings (size 3 to 8) (size 9 to 14) (size 15 to 20)
#    0.000    1.500    1.250    0.750    8.750    6.000 
#    6.750    0.000    0.000    0.000    0.000    0.000 
#    0.000    0.000    0.000    0.000    0.000    0.000 
#
# Total GULP energy -396508.331410 kJ/mol
# GULP energy per Si atom -12390.885357 kJ/mol
# Density = 2.388080 g / cm^3
# Si number density = 23.935282 Si / 1000 Ang^3
#
#
#
# Elastic Constant Matrix: (Units=GPa)
#
#
# Indices 1 2 3 4 5 6 
#
# 1 100.3211 33.4146 42.1669 0.0000 0.0000 0.0000
# 2 33.4146 127.8647 63.0358 0.0000 0.0000 0.0000
# 3 42.1669 63.0358 214.2545 0.0000 0.0000 0.0000
# 4 0.0000 0.0000 0.0000 28.1302 0.0000 0.0000
# 5 0.0000 0.0000 0.0000 0.0000 34.3911 0.0000
# 6 0.0000 0.0000 0.0000 0.0000 0.0000 32.1172
#
#
#
# Elastic Compliance Matrix: (Units=1/GPa)
#
#
# Indices 1 2 3 4 5 6 
#
# 1 0.011366 -0.002184 -0.001594 0.000000 0.000000 0.000000
# 2 -0.002184 0.009567 -0.002385 0.000000 0.000000 0.000000
# 3 -0.001594 -0.002385 0.005683 0.000000 0.000000 0.000000
# 4 0.000000 0.000000 0.000000 0.035549 0.000000 0.000000
# 5 0.000000 0.000000 0.000000 0.000000 0.029077 0.000000
# 6 0.000000 0.000000 0.000000 0.000000 0.000000 0.031136
#
#
# Mechanical properties :
#
#
# Convention : Reuss Voigt Hill
#
# Bulk Modulus (GPa) = 69.98418 79.96389 74.97404
# Shear Modulus (GPa) = 35.85061 39.18256 37.51659
#
# Velocity S-wave (km/s) = 3.87436 4.05040 3.96336
# Velocity P-wave (km/s) = 7.02258 7.44011 7.23436
#
# Compressibility (1/GPa) = 0.01428894
#
# Stress axis : x y z
#
# Youngs Moduli (GPa) = 87.98489 104.52270 175.97062
#
# Poissons Ratio (x) = 0.22830 0.28054
# Poissons Ratio (y) = 0.19218 0.41968
# Poissons Ratio (z) = 0.14027 0.24928
#
# Static dielectric constant tensor:
#      x y z
#    x 4.762740 0.000000 0.000000 
#    y 0.000000 3.873190 0.000000 
#    z 0.000000 0.000000 4.803880 
# 
# 
# High freq. dielectric constant tensor:
#      x y z
#    x 1.966390 0.000000 0.000000 
#    y 0.000000 1.918370 0.000000 
#    z 0.000000 0.000000 1.974660 
# 
# From -- ./inp_files/8808.got.cif
#   From: 2010.03.12/outbox.cif.g09.slc.cpg/sg33_5_cif.got.tgz:8808.got - 2010.04.14 01:49:19.
