data_PCOD8171189
_publ_section_title
;
Structure prediction by ZEFSAII (Michael W. Deem and Ramdas Pophale) SiO2 
 PCOD8171189
Probable space group: P N A 21
;
_chemical_formula_sum "Si O2"
_cell_formula_units_Z 32
_cell_length_a 8.751592
_cell_length_b 15.655329
_cell_length_c 11.221108
_cell_angle_alpha 90.000000
_cell_angle_beta 90.000000
_cell_angle_gamma 90.000000
_cell_volume 1537.393370
_symmetry_space_group_name_H-M "P N A 21"
_symmetry_group_IT_number 33
_symmetry_cell_setting 'orthorhombic'
loop_
_space_group_symop_operation_xyz
x,y,z
-x,-y,1/2+z
1/2-x,1/2+y,1/2+z
1/2+x,1/2-y,z
loop_
_atom_site_type_symbol
_atom_site_label
_atom_site_fract_x
_atom_site_fract_y
_atom_site_fract_z
Si Si1 0.109635 0.919142 0.911880
Si Si2 0.168230 0.856656 0.477766
Si Si3 0.915528 0.162960 0.653776
Si Si4 0.172399 0.998279 0.309322
Si Si5 0.207861 0.227773 0.781360
Si Si6 0.816433 0.893297 0.466488
Si Si7 0.695945 0.181268 0.232499
Si Si8 0.158479 0.647263 0.706458
O O1 0.249142 0.877533 0.841002
O O2 0.973915 0.939406 0.820144
O O3 0.047606 0.855489 0.015802
O O4 0.171933 0.005237 0.973120
O O5 0.264650 0.795451 0.389326
O O6 0.219803 0.846066 0.612138
O O7 0.983155 0.846307 0.473817
O O8 0.207071 0.953848 0.436276
O O9 0.786085 0.236336 0.661842
O O10 0.039033 0.209763 0.735290
O O11 0.864171 0.073687 0.711953
O O12 0.314509 0.056829 0.271514
O O13 0.260188 0.137198 0.840533
O O14 0.705188 0.859990 0.568878
O O15 0.738550 0.278587 0.265289
O O16 0.516348 0.172677 0.217510
#
# Coordination Sequence:
#
# PCOD8171189 Si02
#       8
#     4   4   4   4   4   4   4   4
#     4  11  24  45  69  95 142 183 232 280 360 411
#     4  10  22  40  69 104 129 172 230 281 345 408
#     4  11  24  42  67 104 136 181 225 293 348 417
#     4  10  22  44  69  93 136 176 228 280 344 412
#     4  11  21  40  66 102 131 173 227 281 345 406
#     4  11  21  41  72  96 135 183 228 288 335 416
#     4  12  27  41  68 101 135 181 229 284 344 406
#     4  12  25  43  66  99 136 175 231 283 339 412
#
# _framework density 20.814451999999999
#
# number of rings (size 3 to 8) (size 9 to 14) (size 15 to 20)
#    0.000    1.000    6.250    2.250    3.500    3.000 
#    2.250    0.000    0.000    0.000    0.000    0.000 
#    0.000    0.000    0.000    0.000    0.000    0.000 
#
# Total GULP energy -396467.920840 kJ/mol
# GULP energy per Si atom -12389.622526 kJ/mol
# Density = 2.076708 g / cm^3
# Si number density = 20.814452 Si / 1000 Ang^3
#
#
#
# Elastic Constant Matrix: (Units=GPa)
#
#
# Indices 1 2 3 4 5 6 
#
# 1 78.9656 49.6242 32.0805 0.0000 0.0000 0.0000
# 2 49.6242 93.0386 31.5905 0.0000 0.0000 0.0000
# 3 32.0805 31.5905 73.9028 0.0000 0.0000 0.0000
# 4 0.0000 0.0000 0.0000 30.7958 0.0000 0.0000
# 5 0.0000 0.0000 0.0000 0.0000 30.6214 0.0000
# 6 0.0000 0.0000 0.0000 0.0000 0.0000 36.6012
#
#
#
# Elastic Compliance Matrix: (Units=1/GPa)
#
#
# Indices 1 2 3 4 5 6 
#
# 1 0.020481 -0.009248 -0.004938 0.000000 0.000000 0.000000
# 2 -0.009248 0.016748 -0.003145 0.000000 0.000000 0.000000
# 3 -0.004938 -0.003145 0.017019 0.000000 0.000000 0.000000
# 4 0.000000 0.000000 0.000000 0.032472 0.000000 0.000000
# 5 0.000000 0.000000 0.000000 0.000000 0.032657 0.000000
# 6 0.000000 0.000000 0.000000 0.000000 0.000000 0.027322
#
#
# Mechanical properties :
#
#
# Convention : Reuss Voigt Hill
#
# Bulk Modulus (GPa) = 51.05131 52.49971 51.77551
# Shear Modulus (GPa) = 26.61144 28.44446 27.52795
#
# Velocity S-wave (km/s) = 3.57950 3.70073 3.64062
# Velocity P-wave (km/s) = 6.45476 6.59833 6.52694
#
# Compressibility (1/GPa) = 0.01958813
#
# Stress axis : x y z
#
# Youngs Moduli (GPa) = 48.82538 59.70690 58.75752
#
# Poissons Ratio (x) = 0.55214 0.29013
# Poissons Ratio (y) = 0.45151 0.18480
# Poissons Ratio (z) = 0.24109 0.18778
#
# Static dielectric constant tensor:
#      x y z
#    x 3.656780 0.000000 0.000000 
#    y 0.000000 4.138680 0.000000 
#    z 0.000000 0.000000 3.810780 
# 
# 
# High freq. dielectric constant tensor:
#      x y z
#    x 1.798480 0.000000 0.000000 
#    y 0.000000 1.825440 0.000000 
#    z 0.000000 0.000000 1.815290 
# 
# From -- ./inp_files/6004.got.cif
#   From: 2010.03.12/outbox.cif.g09.slc.cpg/sg33_4_cif.got.tgz:6004.got - 2010.04.14 01:49:19.
