data_PCOD8171690
_publ_section_title
;
Structure prediction by ZEFSAII (Michael W. Deem and Ramdas Pophale) SiO2 
 PCOD8171690
Probable space group: P N A 21
;
_chemical_formula_sum "Si O2"
_cell_formula_units_Z 32
_cell_length_a 8.347999
_cell_length_b 11.579724
_cell_length_c 14.672705
_cell_angle_alpha 90.000000
_cell_angle_beta 90.000000
_cell_angle_gamma 90.000000
_cell_volume 1418.374068
_symmetry_space_group_name_H-M "P N A 21"
_symmetry_group_IT_number 33
_symmetry_cell_setting 'orthorhombic'
loop_
_space_group_symop_operation_xyz
x,y,z
-x,-y,1/2+z
1/2-x,1/2+y,1/2+z
1/2+x,1/2-y,z
loop_
_atom_site_type_symbol
_atom_site_label
_atom_site_fract_x
_atom_site_fract_y
_atom_site_fract_z
Si Si1 0.619988 0.937264 0.425500
Si Si2 0.204448 0.913118 0.778607
Si Si3 0.914956 0.214910 0.825921
Si Si4 0.254042 0.999574 0.412259
Si Si5 0.651597 0.326300 0.277656
Si Si6 0.166536 0.273664 0.693198
Si Si7 0.252411 0.010264 0.120296
Si Si8 0.112602 0.049534 0.602647
O O1 0.643738 0.802379 0.403366
O O2 0.437990 0.966637 0.400921
O O3 0.744364 0.013515 0.367094
O O4 0.653659 0.947612 0.531851
O O5 0.333201 0.810934 0.766082
O O6 0.034238 0.853136 0.790203
O O7 0.197647 0.995125 0.690968
O O8 0.867506 0.085507 0.856683
O O9 0.852311 0.235999 0.721855
O O10 0.098025 0.237393 0.794967
O O11 0.235371 0.126931 0.369646
O O12 0.205760 0.998704 0.517119
O O13 0.738164 0.386038 0.191696
O O14 0.139684 0.406155 0.661896
O O15 0.131473 0.187909 0.609787
O O16 0.074348 0.974223 0.091751
#
# Coordination Sequence:
#
# PCOD8171690 Si02
#       8
#     4   4   4   4   4   4   4   4
#     4  12  27  43  71 104 137 184 231 288 348 418
#     4  11  25  46  70  96 140 182 227 283 350 406
#     4  12  24  46  74 101 135 181 238 291 349 416
#     4  12  27  44  70 105 139 180 235 285 350 415
#     4  11  24  47  68  97 139 183 224 287 344 412
#     4  12  23  47  75  99 135 184 234 294 347 412
#     4  11  26  45  70 103 139 180 233 286 350 415
#     4  11  26  44  70 103 138 182 230 290 348 414
#
# _framework density 22.561046000000001
#
# number of rings (size 3 to 8) (size 9 to 14) (size 15 to 20)
#    0.000    0.500    5.000    2.250    7.000    2.000 
#    0.000    0.000    0.000    0.000    0.000    0.000 
#    0.000    0.000    0.000    0.000    0.000    0.000 
#
# Total GULP energy -396708.341709 kJ/mol
# GULP energy per Si atom -12397.135678 kJ/mol
# Density = 2.250970 g / cm^3
# Si number density = 22.561046 Si / 1000 Ang^3
#
#
#
# Elastic Constant Matrix: (Units=GPa)
#
#
# Indices 1 2 3 4 5 6 
#
# 1 56.8432 16.9630 29.6451 0.0000 0.0000 0.0000
# 2 16.9630 88.3537 11.5787 0.0000 0.0000 0.0000
# 3 29.6451 11.5787 99.0275 0.0000 0.0000 0.0000
# 4 0.0000 0.0000 0.0000 39.3661 0.0000 0.0000
# 5 0.0000 0.0000 0.0000 0.0000 40.6252 0.0000
# 6 0.0000 0.0000 0.0000 0.0000 0.0000 33.3966
#
#
#
# Elastic Compliance Matrix: (Units=1/GPa)
#
#
# Indices 1 2 3 4 5 6 
#
# 1 0.021798 -0.003382 -0.006130 0.000000 0.000000 0.000000
# 2 -0.003382 0.012019 -0.000393 0.000000 0.000000 0.000000
# 3 -0.006130 -0.000393 0.011979 0.000000 0.000000 0.000000
# 4 0.000000 0.000000 0.000000 0.025403 0.000000 0.000000
# 5 0.000000 0.000000 0.000000 0.000000 0.024615 0.000000
# 6 0.000000 0.000000 0.000000 0.000000 0.000000 0.029943
#
#
# Mechanical properties :
#
#
# Convention : Reuss Voigt Hill
#
# Bulk Modulus (GPa) = 38.48095 40.06645 39.27370
# Shear Modulus (GPa) = 32.41915 35.08008 33.74962
#
# Velocity S-wave (km/s) = 3.79483 3.94749 3.87191
# Velocity P-wave (km/s) = 6.02448 6.21085 6.11837
#
# Compressibility (1/GPa) = 0.02598689
#
# Stress axis : x y z
#
# Youngs Moduli (GPa) = 45.87474 83.20232 83.47717
#
# Poissons Ratio (x) = 0.28137 0.51174
# Poissons Ratio (y) = 0.15514 0.03280
# Poissons Ratio (z) = 0.28122 0.03269
#
# Static dielectric constant tensor:
#      x y z
#    x 4.108470 0.000000 0.000000 
#    y 0.000000 4.167020 0.000000 
#    z 0.000000 0.000000 3.941100 
# 
# 
# High freq. dielectric constant tensor:
#      x y z
#    x 1.906720 0.000000 0.000000 
#    y 0.000000 1.893230 0.000000 
#    z 0.000000 0.000000 1.885170 
# 
# From -- ./inp_files/7657.got.cif
#   From: 2010.03.12/outbox.cif.g09.slc.cpg/sg33_4_cif.got.tgz:7657.got - 2010.04.14 01:49:19.
