data_PCOD8171698
_publ_section_title
;
Structure prediction by ZEFSAII (Michael W. Deem and Ramdas Pophale) SiO2 
 PCOD8171698
Probable space group: P N A 21
;
_chemical_formula_sum "Si O2"
_cell_formula_units_Z 24
_cell_length_a 11.749759
_cell_length_b 11.146690
_cell_length_c 8.153726
_cell_angle_alpha 90.000000
_cell_angle_beta 90.000000
_cell_angle_gamma 90.000000
_cell_volume 1067.901005
_symmetry_space_group_name_H-M "P N A 21"
_symmetry_group_IT_number 33
_symmetry_cell_setting 'orthorhombic'
loop_
_space_group_symop_operation_xyz
x,y,z
-x,-y,1/2+z
1/2-x,1/2+y,1/2+z
1/2+x,1/2-y,z
loop_
_atom_site_type_symbol
_atom_site_label
_atom_site_fract_x
_atom_site_fract_y
_atom_site_fract_z
Si Si1 0.916357 0.022959 0.009100
Si Si2 0.297231 0.685023 0.166228
Si Si3 0.905063 0.479874 0.672098
Si Si4 0.357363 0.923186 0.032798
Si Si5 0.214072 0.307969 0.012205
Si Si6 0.351236 0.573127 0.660089
O O1 0.877651 0.932094 0.153580
O O2 0.844216 0.146141 0.017764
O O3 0.896834 0.953749 0.839887
O O4 0.047395 0.056801 0.029418
O O5 0.166835 0.641849 0.142561
O O6 0.330906 0.781182 0.026466
O O7 0.315951 0.746832 0.340668
O O8 0.869724 0.579814 0.539055
O O9 0.036408 0.449481 0.650980
O O10 0.880056 0.528904 0.852561
O O11 0.248898 0.983459 0.115225
O O12 0.196103 0.208807 0.153556
#
# Coordination Sequence:
#
# PCOD8171698 Si02
#       6
#     4   4   4   4   4   4
#     4  11  27  47  75 110 146 194 252 300 371 441
#     4  11  24  48  74 104 149 191 244 304 368 433
#     4  11  27  47  75 110 146 194 252 300 371 441
#     4  12  26  47  77 106 147 194 246 304 371 437
#     4  11  24  48  74 104 149 191 244 304 368 433
#     4  12  26  47  77 106 147 194 246 304 371 437
#
# _framework density 22.473994000000001
#
# number of rings (size 3 to 8) (size 9 to 14) (size 15 to 20)
#    0.000    0.667    3.333    3.000    9.333    1.333 
#    0.000    0.000    0.000    0.000    0.000    0.000 
#    0.000    0.000    0.000    0.000    0.000    0.000 
#
# Total GULP energy -297719.817384 kJ/mol
# GULP energy per Si atom -12404.992391 kJ/mol
# Density = 2.242284 g / cm^3
# Si number density = 22.473994 Si / 1000 Ang^3
#
#
#
# Elastic Constant Matrix: (Units=GPa)
#
#
# Indices 1 2 3 4 5 6 
#
# 1 116.1793 37.6598 26.0321 0.0000 0.0000 0.0000
# 2 37.6598 126.0038 38.5575 0.0000 0.0000 0.0000
# 3 26.0321 38.5575 90.9475 0.0000 0.0000 0.0000
# 4 0.0000 0.0000 0.0000 48.1761 0.0000 0.0000
# 5 0.0000 0.0000 0.0000 0.0000 30.8847 0.0000
# 6 0.0000 0.0000 0.0000 0.0000 0.0000 29.1098
#
#
#
# Elastic Compliance Matrix: (Units=1/GPa)
#
#
# Indices 1 2 3 4 5 6 
#
# 1 0.009779 -0.002374 -0.001792 0.000000 0.000000 0.000000
# 2 -0.002374 0.009696 -0.003431 0.000000 0.000000 0.000000
# 3 -0.001792 -0.003431 0.012963 0.000000 0.000000 0.000000
# 4 0.000000 0.000000 0.000000 0.020757 0.000000 0.000000
# 5 0.000000 0.000000 0.000000 0.000000 0.032378 0.000000
# 6 0.000000 0.000000 0.000000 0.000000 0.000000 0.034353
#
#
# Mechanical properties :
#
#
# Convention : Reuss Voigt Hill
#
# Bulk Modulus (GPa) = 57.99715 59.73661 58.86688
# Shear Modulus (GPa) = 35.49420 37.02622 36.26021
#
# Velocity S-wave (km/s) = 3.97841 4.06336 4.02111
# Velocity P-wave (km/s) = 6.85318 6.97514 6.91443
#
# Compressibility (1/GPa) = 0.01724223
#
# Stress axis : x y z
#
# Youngs Moduli (GPa) = 102.26427 103.13816 77.14271
#
# Poissons Ratio (x) = 0.24486 0.13827
# Poissons Ratio (y) = 0.24279 0.26468
# Poissons Ratio (z) = 0.18330 0.35387
#
# Static dielectric constant tensor:
#      x y z
#    x 4.129080 0.000000 0.000000 
#    y 0.000000 4.405740 0.000000 
#    z 0.000000 0.000000 4.057260 
# 
# 
# High freq. dielectric constant tensor:
#      x y z
#    x 1.887710 0.000000 0.000000 
#    y 0.000000 1.900310 0.000000 
#    z 0.000000 0.000000 1.892580 
# 
# From -- ./inp_files/3801.got.cif
#   From: 2010.03.12/outbox.cif.g09.slc.cpg/sg33_2_cif.got.tgz:3801.got - 2010.04.14 01:49:19.
