data_PCOD8171658
_publ_section_title
;
Structure prediction by ZEFSAII (Michael W. Deem and Ramdas Pophale) SiO2 
 PCOD8171658
Probable space group: P N A 21
;
_chemical_formula_sum "Si O2"
_cell_formula_units_Z 28
_cell_length_a 25.259087
_cell_length_b 7.708957
_cell_length_c 6.614480
_cell_angle_alpha 90.000000
_cell_angle_beta 90.000000
_cell_angle_gamma 90.000000
_cell_volume 1287.979586
_symmetry_space_group_name_H-M "P N A 21"
_symmetry_group_IT_number 33
_symmetry_cell_setting 'orthorhombic'
loop_
_space_group_symop_operation_xyz
x,y,z
-x,-y,1/2+z
1/2-x,1/2+y,1/2+z
1/2+x,1/2-y,z
loop_
_atom_site_type_symbol
_atom_site_label
_atom_site_fract_x
_atom_site_fract_y
_atom_site_fract_z
Si Si1 0.631567 0.995158 0.031730
Si Si2 0.441995 0.151644 0.210604
Si Si3 0.697930 0.472105 0.299389
Si Si4 0.898412 0.999084 0.068439
Si Si5 0.166357 0.162800 0.896054
Si Si6 0.236496 0.682481 0.137046
Si Si7 0.941073 0.646327 0.881438
O O1 0.679044 0.903999 0.153683
O O2 0.594594 0.090056 0.193460
O O3 0.599717 0.856070 0.896196
O O4 0.655356 0.132582 0.870665
O O5 0.435261 0.331441 0.086106
O O6 0.499256 0.147263 0.307513
O O7 0.433802 0.989381 0.062777
O O8 0.654889 0.554246 0.450339
O O9 0.738398 0.344626 0.415206
O O10 0.731347 0.615300 0.181628
O O11 0.665881 0.362822 0.135678
O O12 0.881484 0.942114 0.293847
O O13 0.927525 0.840323 0.956973
O O14 0.222802 0.105545 0.802017
#
# Coordination Sequence:
#
# PCOD8171658 Si02
#       7
#     4   4   4   4   4   4   4
#     4  12  24  47  74  98 149 192 229 305 358 419
#     4  12  27  48  75 106 140 190 247 294 367 430
#     4  11  24  43  66 104 142 190 239 288 354 430
#     4  11  26  46  72 106 144 184 239 298 361 425
#     4  11  24  43  69 104 144 188 238 292 353 429
#     4  11  25  41  67 105 142 193 239 287 356 431
#     4  12  26  48  75 105 143 187 245 302 359 428
#
# _framework density 21.739477000000001
#
# number of rings (size 3 to 8) (size 9 to 14) (size 15 to 20)
#    0.000    0.571    5.714    1.714    2.000    4.571 
#    2.571    0.000    0.000    0.000    0.000    0.000 
#    0.000    0.000    0.000    0.000    0.000    0.000 
#
# Total GULP energy -347204.088637 kJ/mol
# GULP energy per Si atom -12400.146023 kJ/mol
# Density = 2.169000 g / cm^3
# Si number density = 21.739477 Si / 1000 Ang^3
#
#
#
# Elastic Constant Matrix: (Units=GPa)
#
#
# Indices 1 2 3 4 5 6 
#
# 1 97.8043 24.6675 39.1964 0.0000 0.0000 0.0000
# 2 24.6675 114.9891 49.0364 0.0000 0.0000 0.0000
# 3 39.1964 49.0364 106.0184 0.0000 0.0000 0.0000
# 4 0.0000 0.0000 0.0000 42.8413 0.0000 0.0000
# 5 0.0000 0.0000 0.0000 0.0000 34.2767 0.0000
# 6 0.0000 0.0000 0.0000 0.0000 0.0000 31.4845
#
#
#
# Elastic Compliance Matrix: (Units=1/GPa)
#
#
# Indices 1 2 3 4 5 6 
#
# 1 0.012070 -0.000855 -0.004067 0.000000 0.000000 0.000000
# 2 -0.000855 0.010894 -0.004723 0.000000 0.000000 0.000000
# 3 -0.004067 -0.004723 0.013120 0.000000 0.000000 0.000000
# 4 0.000000 0.000000 0.000000 0.023342 0.000000 0.000000
# 5 0.000000 0.000000 0.000000 0.000000 0.029174 0.000000
# 6 0.000000 0.000000 0.000000 0.000000 0.000000 0.031762
#
#
# Mechanical properties :
#
#
# Convention : Reuss Voigt Hill
#
# Bulk Modulus (GPa) = 59.54141 60.51248 60.02695
# Shear Modulus (GPa) = 34.42354 35.44796 34.93575
#
# Velocity S-wave (km/s) = 3.98359 4.04242 4.01311
# Velocity P-wave (km/s) = 6.97185 7.04869 7.01037
#
# Compressibility (1/GPa) = 0.01679503
#
# Stress axis : x y z
#
# Youngs Moduli (GPa) = 82.84981 91.79540 76.21776
#
# Poissons Ratio (x) = 0.07848 0.30998
# Poissons Ratio (y) = 0.07083 0.35995
# Poissons Ratio (z) = 0.33695 0.43351
#
# Static dielectric constant tensor:
#      x y z
#    x 3.948980 0.000000 0.000000 
#    y 0.000000 3.848780 0.000000 
#    z 0.000000 0.000000 4.011270 
# 
# 
# High freq. dielectric constant tensor:
#      x y z
#    x 1.861260 0.000000 0.000000 
#    y 0.000000 1.854670 0.000000 
#    z 0.000000 0.000000 1.862640 
# 
# From -- ./inp_files/2249.got.cif
#   From: 2010.03.12/outbox.cif.g09.slc.cpg/sg33_2_cif.got.tgz:2249.got - 2010.04.14 01:49:19.
