data_PCOD8171453
_publ_section_title
;
Structure prediction by ZEFSAII (Michael W. Deem and Ramdas Pophale) SiO2 
 PCOD8171453
Probable space group: P N A 21
;
_chemical_formula_sum "Si O2"
_cell_formula_units_Z 20
_cell_length_a 5.106638
_cell_length_b 13.476254
_cell_length_c 9.845264
_cell_angle_alpha 90.000000
_cell_angle_beta 90.000000
_cell_angle_gamma 90.000000
_cell_volume 677.534831
_symmetry_space_group_name_H-M "P N A 21"
_symmetry_group_IT_number 33
_symmetry_cell_setting 'orthorhombic'
loop_
_space_group_symop_operation_xyz
x,y,z
-x,-y,1/2+z
1/2-x,1/2+y,1/2+z
1/2+x,1/2-y,z
loop_
_atom_site_type_symbol
_atom_site_label
_atom_site_fract_x
_atom_site_fract_y
_atom_site_fract_z
Si Si1 0.023309 0.692283 0.912730
Si Si2 0.976691 0.307717 0.092461
Si Si3 0.753846 0.994411 0.101001
Si Si4 0.253846 0.505589 0.404190
Si Si5 0.214720 0.689905 0.252596
O O1 0.783683 0.756192 0.975162
O O2 0.039890 0.706340 0.752595
O O3 0.983728 0.571886 0.943336
O O4 0.216317 0.243808 0.030029
O O5 0.016272 0.428114 0.061855
O O6 0.853309 0.028226 0.252595
O O7 0.655901 0.879076 0.119350
O O8 1.000000 1.000000 0.002595
O O9 0.155901 0.620924 0.385841
O O10 0.018774 0.781065 0.252596
#
# Coordination Sequence:
#
# PCOD8171453 Si02
#       5
#     4   4   4   4   4
#     4   9  18  34  58  89 121 156 208 270 322 375
#     4   9  18  34  58  89 121 156 208 270 322 375
#     4   9  21  41  66  97 134 176 227 278 337 407
#     4   9  21  41  66  97 134 176 227 278 337 407
#     4  10  24  44  66  96 140 184 222 276 348 410
#
# _framework density 29.518775999999999
#
# number of rings (size 3 to 8) (size 9 to 14) (size 15 to 20)
#    1.200    1.600    0.000    0.000    0.000    6.400 
#    0.000    4.000    0.000    0.000    0.000    0.000 
#    0.000    0.000    0.000    0.000    0.000    0.000 
#
# Total GULP energy -248021.939295 kJ/mol
# GULP energy per Si atom -12401.096965 kJ/mol
# Density = 2.945159 g / cm^3
# Si number density = 29.518776 Si / 1000 Ang^3
#
#
#
# Elastic Constant Matrix: (Units=GPa)
#
#
# Indices 1 2 3 4 5 6 
#
# 1 164.5779 73.0972 28.4543 0.0000 0.0000 0.0000
# 2 73.0972 243.6399 42.2978 0.0000 0.0000 0.0000
# 3 28.4543 42.2978 111.0018 0.0000 0.0000 0.0000
# 4 0.0000 0.0000 0.0000 52.9891 0.0000 0.0000
# 5 0.0000 0.0000 0.0000 0.0000 46.7941 0.0000
# 6 0.0000 0.0000 0.0000 0.0000 0.0000 61.8114
#
#
#
# Elastic Compliance Matrix: (Units=1/GPa)
#
#
# Indices 1 2 3 4 5 6 
#
# 1 0.007130 -0.001951 -0.001084 0.000000 0.000000 0.000000
# 2 -0.001951 0.004929 -0.001378 0.000000 0.000000 0.000000
# 3 -0.001084 -0.001378 0.009812 0.000000 0.000000 0.000000
# 4 0.000000 0.000000 0.000000 0.018872 0.000000 0.000000
# 5 0.000000 0.000000 0.000000 0.000000 0.021370 0.000000
# 6 0.000000 0.000000 0.000000 0.000000 0.000000 0.016178
#
#
# Mechanical properties :
#
#
# Convention : Reuss Voigt Hill
#
# Bulk Modulus (GPa) = 76.66175 89.65758 83.15966
# Shear Modulus (GPa) = 54.66498 57.34360 56.00429
#
# Velocity S-wave (km/s) = 4.30801 4.41229 4.36046
# Velocity P-wave (km/s) = 7.12545 7.50978 7.32014
#
# Compressibility (1/GPa) = 0.01304431
#
# Stress axis : x y z
#
# Youngs Moduli (GPa) = 140.24983 202.88116 101.91651
#
# Poissons Ratio (x) = 0.39581 0.11051
# Poissons Ratio (y) = 0.27362 0.14045
# Poissons Ratio (z) = 0.15208 0.27959
#
# Static dielectric constant tensor:
#      x y z
#    x 5.010070 0.000000 0.000000 
#    y 0.000000 5.940580 0.000000 
#    z 0.000000 0.000000 6.332410 
# 
# 
# High freq. dielectric constant tensor:
#      x y z
#    x 2.186340 0.000000 0.000000 
#    y 0.000000 2.239220 0.000000 
#    z 0.000000 0.000000 2.297860 
# 
# From -- ./inp_files/5412.got.cif
#   From: 2010.03.12/outbox.cif.g09.slc.cpg/sg33_3_cif.got.tgz:5412.got - 2010.04.14 01:49:19.
