data_PCOD8171462
_publ_section_title
;
Structure prediction by ZEFSAII (Michael W. Deem and Ramdas Pophale) SiO2 
 PCOD8171462
Probable space group: P N A 21
;
_chemical_formula_sum "Si O2"
_cell_formula_units_Z 32
_cell_length_a 13.500806
_cell_length_b 8.248518
_cell_length_c 13.299108
_cell_angle_alpha 90.000000
_cell_angle_beta 90.000000
_cell_angle_gamma 90.000000
_cell_volume 1481.010495
_symmetry_space_group_name_H-M "P N A 21"
_symmetry_group_IT_number 33
_symmetry_cell_setting 'orthorhombic'
loop_
_space_group_symop_operation_xyz
x,y,z
-x,-y,1/2+z
1/2-x,1/2+y,1/2+z
1/2+x,1/2-y,z
loop_
_atom_site_type_symbol
_atom_site_label
_atom_site_fract_x
_atom_site_fract_y
_atom_site_fract_z
Si Si1 0.485597 0.918536 0.301320
Si Si2 0.053955 0.748880 0.113454
Si Si3 0.806528 0.147134 0.457004
Si Si4 0.693472 0.852865 0.756608
Si Si5 0.053955 0.751120 0.600159
Si Si6 0.584293 0.068367 0.483857
Si Si7 0.514404 0.418536 0.912292
Si Si8 0.415707 0.568367 0.729756
O O1 0.551407 0.884901 0.201803
O O2 0.461820 0.750000 0.356806
O O3 0.381254 0.997367 0.271157
O O4 0.548197 0.043406 0.369431
O O5 0.041809 0.924145 0.162032
O O6 0.155359 0.738108 0.048338
O O7 0.963933 0.729146 0.032757
O O8 0.794214 0.249999 0.356806
O O9 0.702055 0.072410 0.488538
O O10 0.881253 0.997365 0.442456
O O11 0.655359 0.738108 0.665274
O O12 0.797945 0.927590 0.725075
O O13 0.041809 0.575855 0.551581
O O14 0.051407 0.884900 0.511809
O O15 0.963933 0.770854 0.680856
O O16 0.451804 0.543407 0.844182
#
# Coordination Sequence:
#
# PCOD8171462 Si02
#       8
#     4   4   4   4   4   4   4   4
#     4  10  24  45  66  99 140 178 222 284 331 394
#     4  11  23  44  70  95 136 175 223 277 336 396
#     4  12  25  42  71 100 134 180 227 272 342 398
#     4  12  25  42  71 100 134 180 227 272 342 398
#     4  11  23  44  70  95 136 175 223 277 336 396
#     4  11  25  45  67  99 136 175 227 279 332 402
#     4  10  24  45  66  99 140 178 222 284 331 394
#     4  11  25  45  67  99 136 175 227 279 332 402
#
# _framework density 21.606867000000001
#
# number of rings (size 3 to 8) (size 9 to 14) (size 15 to 20)
#    0.000    1.000    5.000    0.750    3.500    3.000 
#    4.500    2.500    0.000    0.000    0.000    0.000 
#    0.000    0.000    0.000    0.000    0.000    0.000 
#
# Total GULP energy -396788.687177 kJ/mol
# GULP energy per Si atom -12399.646474 kJ/mol
# Density = 2.155769 g / cm^3
# Si number density = 21.606867 Si / 1000 Ang^3
#
#
#
# Elastic Constant Matrix: (Units=GPa)
#
#
# Indices 1 2 3 4 5 6 
#
# 1 178.3202 57.4650 76.4620 0.0000 0.0000 0.0000
# 2 57.4650 69.5142 57.8684 0.0000 0.0000 0.0000
# 3 76.4620 57.8684 166.0562 0.0000 0.0000 0.0000
# 4 0.0000 0.0000 0.0000 36.5563 0.0000 0.0000
# 5 0.0000 0.0000 0.0000 0.0000 26.9195 0.0000
# 6 0.0000 0.0000 0.0000 0.0000 0.0000 29.4242
#
#
#
# Elastic Compliance Matrix: (Units=1/GPa)
#
#
# Indices 1 2 3 4 5 6 
#
# 1 0.008073 -0.005042 -0.001960 0.000000 0.000000 0.000000
# 2 -0.005042 0.023413 -0.005838 0.000000 0.000000 0.000000
# 3 -0.001960 -0.005838 0.008959 0.000000 0.000000 0.000000
# 4 0.000000 0.000000 0.000000 0.027355 0.000000 0.000000
# 5 0.000000 0.000000 0.000000 0.000000 0.037148 0.000000
# 6 0.000000 0.000000 0.000000 0.000000 0.000000 0.033986
#
#
# Mechanical properties :
#
#
# Convention : Reuss Voigt Hill
#
# Bulk Modulus (GPa) = 67.72448 88.60903 78.16676
# Shear Modulus (GPa) = 29.49232 33.38634 31.43933
#
# Velocity S-wave (km/s) = 3.69853 3.93513 3.81867
# Velocity P-wave (km/s) = 7.04634 7.85784 7.46313
#
# Compressibility (1/GPa) = 0.01476571
#
# Stress axis : x y z
#
# Youngs Moduli (GPa) = 123.86535 42.71101 111.61926
#
# Poissons Ratio (x) = 0.21535 0.21881
# Poissons Ratio (y) = 0.62453 0.65158
# Poissons Ratio (z) = 0.24282 0.24933
#
# Static dielectric constant tensor:
#      x y z
#    x 3.720750 0.000000 0.000000 
#    y 0.000000 3.922480 0.000000 
#    z 0.000000 0.000000 4.541180 
# 
# 
# High freq. dielectric constant tensor:
#      x y z
#    x 1.827580 0.000000 0.000000 
#    y 0.000000 1.847610 0.000000 
#    z 0.000000 0.000000 1.884850 
# 
# From -- ./inp_files/8011.got.cif
#   From: 2010.03.12/outbox.cif.g09.slc.cpg/sg33_5_cif.got.tgz:8011.got - 2010.04.14 01:49:19.
