data_PCOD8171050
_publ_section_title
;
Structure prediction by ZEFSAII (Michael W. Deem and Ramdas Pophale) SiO2 
 PCOD8171050
Probable space group: P N A 21
;
_chemical_formula_sum "Si O2"
_cell_formula_units_Z 28
_cell_length_a 12.300939
_cell_length_b 20.177734
_cell_length_c 4.837884
_cell_angle_alpha 90.000000
_cell_angle_beta 90.000000
_cell_angle_gamma 90.000000
_cell_volume 1200.787362
_symmetry_space_group_name_H-M "P N A 21"
_symmetry_group_IT_number 33
_symmetry_cell_setting 'orthorhombic'
loop_
_space_group_symop_operation_xyz
x,y,z
-x,-y,1/2+z
1/2-x,1/2+y,1/2+z
1/2+x,1/2-y,z
loop_
_atom_site_type_symbol
_atom_site_label
_atom_site_fract_x
_atom_site_fract_y
_atom_site_fract_z
Si Si1 0.340610 0.946179 0.240430
Si Si2 0.636513 0.635067 0.235860
Si Si3 0.075118 0.375165 0.236646
Si Si4 0.276606 0.071040 0.911516
Si Si5 0.218805 0.794992 0.727939
Si Si6 0.334444 0.151468 0.375646
Si Si7 0.538276 0.462081 0.841256
O O1 0.216287 0.926527 0.312552
O O2 0.404379 0.939548 0.534887
O O3 0.349407 0.016451 0.080107
O O4 0.398276 0.891972 0.051378
O O5 0.656748 0.699174 0.433297
O O6 0.513320 0.609336 0.266893
O O7 0.660446 0.650480 0.918138
O O8 0.155045 0.313342 0.164254
O O9 0.951435 0.351080 0.224091
O O10 0.248317 0.122973 0.153008
O O11 0.337299 0.109009 0.659321
O O12 0.167285 0.039934 0.789764
O O13 0.204304 0.727064 0.899018
O O14 0.487912 0.520580 0.657111
#
# Coordination Sequence:
#
# PCOD8171050 Si02
#       7
#     4   4   4   4   4   4   4
#     4  10  21  42  65  95 126 173 227 264 338 411
#     4  10  21  40  68  96 127 180 226 270 333 407
#     4  10  23  42  70  90 129 179 223 274 330 412
#     4  12  26  41  66  99 142 173 221 292 336 406
#     4  10  23  43  67  95 132 180 231 275 323 419
#     4  12  26  44  64 102 138 175 227 289 340 386
#     4  12  24  40  68 103 138 174 217 282 352 409
#
# _framework density 23.318031000000001
#
# number of rings (size 3 to 8) (size 9 to 14) (size 15 to 20)
#    0.000    1.143    1.429    4.286    4.000    4.571 
#    0.000    0.000    0.000    0.000    0.000    0.000 
#    0.000    0.000    0.000    0.000    0.000    0.000 
#
# Total GULP energy -347022.290461 kJ/mol
# GULP energy per Si atom -12393.653231 kJ/mol
# Density = 2.326496 g / cm^3
# Si number density = 23.318031 Si / 1000 Ang^3
#
#
#
# Elastic Constant Matrix: (Units=GPa)
#
#
# Indices 1 2 3 4 5 6 
#
# 1 81.0013 40.0436 24.1591 0.0000 0.0000 0.0000
# 2 40.0436 102.8345 31.9580 0.0000 0.0000 0.0000
# 3 24.1591 31.9580 121.2334 0.0000 0.0000 0.0000
# 4 0.0000 0.0000 0.0000 43.9785 0.0000 0.0000
# 5 0.0000 0.0000 0.0000 0.0000 29.0438 0.0000
# 6 0.0000 0.0000 0.0000 0.0000 0.0000 24.6341
#
#
#
# Elastic Compliance Matrix: (Units=1/GPa)
#
#
# Indices 1 2 3 4 5 6 
#
# 1 0.015582 -0.005558 -0.001640 0.000000 0.000000 0.000000
# 2 -0.005558 0.012575 -0.002207 0.000000 0.000000 0.000000
# 3 -0.001640 -0.002207 0.009157 0.000000 0.000000 0.000000
# 4 0.000000 0.000000 0.000000 0.022738 0.000000 0.000000
# 5 0.000000 0.000000 0.000000 0.000000 0.034431 0.000000
# 6 0.000000 0.000000 0.000000 0.000000 0.000000 0.040594
#
#
# Mechanical properties :
#
#
# Convention : Reuss Voigt Hill
#
# Bulk Modulus (GPa) = 54.04367 55.26563 54.65465
# Shear Modulus (GPa) = 31.23910 33.45850 32.34880
#
# Velocity S-wave (km/s) = 3.66416 3.79209 3.72867
# Velocity P-wave (km/s) = 6.41315 6.55175 6.48282
#
# Compressibility (1/GPa) = 0.01850355
#
# Stress axis : x y z
#
# Youngs Moduli (GPa) = 64.17534 79.52552 109.20365
#
# Poissons Ratio (x) = 0.44201 0.17910
# Poissons Ratio (y) = 0.35669 0.24103
# Poissons Ratio (z) = 0.10525 0.17553
#
# Static dielectric constant tensor:
#      x y z
#    x 4.025920 0.000000 0.000000 
#    y 0.000000 3.927270 0.000000 
#    z 0.000000 0.000000 4.262860 
# 
# 
# High freq. dielectric constant tensor:
#      x y z
#    x 1.907810 0.000000 0.000000 
#    y 0.000000 1.898620 0.000000 
#    z 0.000000 0.000000 1.943800 
# 
# From -- ./inp_files/945.got.cif
#   From: 2010.03.12/outbox.cif.g09.slc.cpg/sg33_1_cif.got.tgz:945.got - 2010.04.14 01:49:19.
