data_PCOD8171311
_publ_section_title
;
Structure prediction by ZEFSAII (Michael W. Deem and Ramdas Pophale) SiO2 
 PCOD8171311
Probable space group: P N A 21
;
_chemical_formula_sum "Si O2"
_cell_formula_units_Z 28
_cell_length_a 7.833854
_cell_length_b 14.559292
_cell_length_c 12.447202
_cell_angle_alpha 90.000000
_cell_angle_beta 90.000000
_cell_angle_gamma 90.000000
_cell_volume 1419.670203
_symmetry_space_group_name_H-M "P N A 21"
_symmetry_group_IT_number 33
_symmetry_cell_setting 'orthorhombic'
loop_
_space_group_symop_operation_xyz
x,y,z
-x,-y,1/2+z
1/2-x,1/2+y,1/2+z
1/2+x,1/2-y,z
loop_
_atom_site_type_symbol
_atom_site_label
_atom_site_fract_x
_atom_site_fract_y
_atom_site_fract_z
Si Si1 0.176004 0.436529 0.752380
Si Si2 0.185194 0.162889 0.479516
Si Si3 0.511756 0.953839 0.053025
Si Si4 0.567911 0.712486 0.601940
Si Si5 0.617228 0.141073 0.984478
Si Si6 0.809494 0.149773 0.557686
Si Si7 0.772090 0.852807 0.740928
O O1 0.155862 0.379700 0.860838
O O2 0.321351 0.384360 0.681762
O O3 0.222277 0.542848 0.768434
O O4 0.000107 0.433577 0.681617
O O5 0.310629 0.077825 0.501791
O O6 0.253775 0.244116 0.554965
O O7 0.191831 0.194543 0.355808
O O8 0.992039 0.132911 0.504052
O O9 0.343317 0.907214 0.997454
O O10 0.496049 0.062097 0.032228
O O11 0.479313 0.761904 0.499122
O O12 0.711977 0.645535 0.556303
O O13 0.627478 0.792504 0.683386
O O14 0.438637 0.646997 0.665728
#
# Coordination Sequence:
#
# PCOD8171311 Si02
#       7
#     4   4   4   4   4   4   4
#     4  10  23  41  64  92 133 164 219 267 325 391
#     4  12  21  41  67  93 131 170 213 266 326 378
#     4  10  23  41  65  91 133 163 214 272 317 386
#     4  10  24  39  66  90 131 166 226 264 328 393
#     4  11  22  45  65  91 128 177 209 278 328 383
#     4  10  23  39  62  97 130 162 213 266 313 392
#     4  11  22  40  61  96 124 170 218 269 321 395
#
# _framework density 19.722888999999999
#
# number of rings (size 3 to 8) (size 9 to 14) (size 15 to 20)
#    0.857    0.571    4.286    0.857    2.000    2.286 
#    2.571    1.429    0.000    0.000    0.000    0.000 
#    0.000    0.000    0.000    0.000    0.000    0.000 
#
# Total GULP energy -346991.415589 kJ/mol
# GULP energy per Si atom -12392.550557 kJ/mol
# Density = 1.967800 g / cm^3
# Si number density = 19.722889 Si / 1000 Ang^3
#
#
#
# Elastic Constant Matrix: (Units=GPa)
#
#
# Indices 1 2 3 4 5 6 
#
# 1 117.1533 23.4475 28.8066 0.0000 0.0000 0.0000
# 2 23.4475 62.4753 34.5860 0.0000 0.0000 0.0000
# 3 28.8066 34.5860 118.9643 0.0000 0.0000 0.0000
# 4 0.0000 0.0000 0.0000 29.1290 0.0000 0.0000
# 5 0.0000 0.0000 0.0000 0.0000 26.3696 0.0000
# 6 0.0000 0.0000 0.0000 0.0000 0.0000 19.9804
#
#
#
# Elastic Compliance Matrix: (Units=1/GPa)
#
#
# Indices 1 2 3 4 5 6 
#
# 1 0.009448 -0.002717 -0.001498 0.000000 0.000000 0.000000
# 2 -0.002717 0.019858 -0.005115 0.000000 0.000000 0.000000
# 3 -0.001498 -0.005115 0.010256 0.000000 0.000000 0.000000
# 4 0.000000 0.000000 0.000000 0.034330 0.000000 0.000000
# 5 0.000000 0.000000 0.000000 0.000000 0.037922 0.000000
# 6 0.000000 0.000000 0.000000 0.000000 0.000000 0.050049
#
#
# Mechanical properties :
#
#
# Convention : Reuss Voigt Hill
#
# Bulk Modulus (GPa) = 47.84335 52.47478 50.15907
# Shear Modulus (GPa) = 26.66812 29.21267 27.94039
#
# Velocity S-wave (km/s) = 3.68114 3.85275 3.76792
# Velocity P-wave (km/s) = 6.50985 6.81582 6.66459
#
# Compressibility (1/GPa) = 0.02090155
#
# Stress axis : x y z
#
# Youngs Moduli (GPa) = 105.84400 50.35828 97.50615
#
# Poissons Ratio (x) = 0.13680 0.14606
# Poissons Ratio (y) = 0.28754 0.49878
# Poissons Ratio (z) = 0.15855 0.25760
#
# Static dielectric constant tensor:
#      x y z
#    x 3.517380 0.000000 0.000000 
#    y 0.000000 3.481090 0.000000 
#    z 0.000000 0.000000 3.509830 
# 
# 
# High freq. dielectric constant tensor:
#      x y z
#    x 1.763200 0.000000 0.000000 
#    y 0.000000 1.771940 0.000000 
#    z 0.000000 0.000000 1.763000 
# 
# From -- ./inp_files/5906.got.cif
#   From: 2010.03.12/outbox.cif.g09.slc.cpg/sg33_3_cif.got.tgz:5906.got - 2010.04.14 01:49:19.
