data_PCOD8171925
_publ_section_title
;
Structure prediction by ZEFSAII (Michael W. Deem and Ramdas Pophale) SiO2 
 PCOD8171925
Probable space group: P N N 2
;
_chemical_formula_sum "Si O2"
_cell_formula_units_Z 32
_cell_length_a 10.950021
_cell_length_b 14.791111
_cell_length_c 9.809935
_cell_angle_alpha 90.000000
_cell_angle_beta 90.000000
_cell_angle_gamma 90.000000
_cell_volume 1588.846268
_symmetry_space_group_name_H-M "P N N 2"
_symmetry_group_IT_number 34
_symmetry_cell_setting 'orthorhombic'
loop_
_space_group_symop_operation_xyz
x,y,z
-x,-y,z
1/2-x,1/2+y,1/2+z
1/2+x,1/2-y,1/2+z
loop_
_atom_site_type_symbol
_atom_site_label
_atom_site_fract_x
_atom_site_fract_y
_atom_site_fract_z
Si Si1 0.280300 0.331738 0.680970
Si Si2 0.150119 0.325446 0.417364
Si Si3 0.754321 0.959341 0.229348
Si Si4 0.937092 0.808868 0.187559
Si Si5 0.144019 0.511646 0.301165
Si Si6 0.857119 0.507144 0.002413
Si Si7 0.195955 0.288924 0.966007
Si Si8 0.116473 0.649086 0.518786
O O1 0.244361 0.290796 0.533471
O O2 0.262517 0.439447 0.673091
O O3 0.419613 0.307334 0.715816
O O4 0.195290 0.289280 0.800507
O O5 0.131580 0.252379 0.299574
O O6 0.203533 0.417143 0.349799
O O7 0.027141 0.345486 0.501184
O O8 0.883526 0.909796 0.202595
O O9 0.643986 0.905603 0.156923
O O10 0.723847 0.957869 0.389371
O O11 0.911664 0.771437 0.034297
O O12 0.184482 0.594708 0.395994
O O13 0.000000 0.500000 0.311596
O O14 0.177104 0.538851 0.146440
O O15 0.818068 0.610512 0.020147
O O16 0.000000 0.500000 0.966022
O O17 0.324370 0.248759 0.021689
#
# Coordination Sequence:
#
# PCOD8171925 Si02
#       8
#     4   4   4   4   4   4   4   4
#     4  11  23  41  63  89 123 167 211 254 318 385
#     4  11  21  38  64  93 121 165 211 259 320 373
#     4  10  23  37  62  90 122 164 206 254 315 375
#     4  11  23  43  60  91 129 166 205 262 322 378
#     4   9  18  34  58  84 118 154 196 252 305 362
#     4  10  21  35  60  92 126 156 207 255 308 367
#     4  10  22  39  60  90 126 157 200 269 308 361
#     4  10  20  38  61  87 122 157 207 258 309 368
#
# _framework density 20.140398999999999
#
# number of rings (size 3 to 8) (size 9 to 14) (size 15 to 20)
#    0.000    1.750    3.750    0.375    3.500    2.000 
#    2.250    0.000    0.000    0.000    3.250    0.000 
#    0.000    0.000    0.000    0.000    0.000    0.000 
#
# Total GULP energy -396731.700250 kJ/mol
# GULP energy per Si atom -12397.865633 kJ/mol
# Density = 2.009456 g / cm^3
# Si number density = 20.140399 Si / 1000 Ang^3
#
#
#
# Elastic Constant Matrix: (Units=GPa)
#
#
# Indices 1 2 3 4 5 6 
#
# 1 57.4608 23.3197 32.8717 0.0000 0.0000 0.0000
# 2 23.3197 87.6102 33.4287 0.0000 0.0000 0.0000
# 3 32.8717 33.4287 119.6853 0.0000 0.0000 0.0000
# 4 0.0000 0.0000 0.0000 28.5449 0.0000 0.0000
# 5 0.0000 0.0000 0.0000 0.0000 23.3751 0.0000
# 6 0.0000 0.0000 0.0000 0.0000 0.0000 20.9268
#
#
#
# Elastic Compliance Matrix: (Units=1/GPa)
#
#
# Indices 1 2 3 4 5 6 
#
# 1 0.021797 -0.003937 -0.004887 0.000000 0.000000 0.000000
# 2 -0.003937 0.013487 -0.002686 0.000000 0.000000 0.000000
# 3 -0.004887 -0.002686 0.010448 0.000000 0.000000 0.000000
# 4 0.000000 0.000000 0.000000 0.035033 0.000000 0.000000
# 5 0.000000 0.000000 0.000000 0.000000 0.042781 0.000000
# 6 0.000000 0.000000 0.000000 0.000000 0.000000 0.047786
#
#
# Mechanical properties :
#
#
# Convention : Reuss Voigt Hill
#
# Bulk Modulus (GPa) = 44.02970 49.33294 46.68132
# Shear Modulus (GPa) = 24.76232 26.24507 25.50370
#
# Velocity S-wave (km/s) = 3.51021 3.61377 3.56237
# Velocity P-wave (km/s) = 6.19173 6.47767 6.33631
#
# Compressibility (1/GPa) = 0.02271194
#
# Stress axis : x y z
#
# Youngs Moduli (GPa) = 45.87869 74.14604 95.71639
#
# Poissons Ratio (x) = 0.29192 0.46775
# Poissons Ratio (y) = 0.18063 0.25706
# Poissons Ratio (z) = 0.22420 0.19913
#
# Static dielectric constant tensor:
#      x y z
#    x 3.330950 0.000000 0.000000 
#    y 0.000000 3.724230 0.000000 
#    z 0.000000 0.000000 3.855790 
# 
# 
# High freq. dielectric constant tensor:
#      x y z
#    x 1.751320 0.000000 0.000000 
#    y 0.000000 1.788280 0.000000 
#    z 0.000000 0.000000 1.800940 
# 
# From -- ./inp_files/3331.got.cif
#   From: 2010.03.12/outbox.cif.g09.slc.cpg/sg34_2_cif.got.tgz:3331.got - 2010.04.14 01:56:33.
