data_PCOD8171394
_publ_section_title
;
Structure prediction by ZEFSAII (Michael W. Deem and Ramdas Pophale) SiO2 
 PCOD8171394
Probable space group: P N A 21
;
_chemical_formula_sum "Si O2"
_cell_formula_units_Z 32
_cell_length_a 8.980445
_cell_length_b 11.572821
_cell_length_c 13.853226
_cell_angle_alpha 90.000000
_cell_angle_beta 90.000000
_cell_angle_gamma 90.000000
_cell_volume 1439.753068
_symmetry_space_group_name_H-M "P N A 21"
_symmetry_group_IT_number 33
_symmetry_cell_setting 'orthorhombic'
loop_
_space_group_symop_operation_xyz
x,y,z
-x,-y,1/2+z
1/2-x,1/2+y,1/2+z
1/2+x,1/2-y,z
loop_
_atom_site_type_symbol
_atom_site_label
_atom_site_fract_x
_atom_site_fract_y
_atom_site_fract_z
Si Si1 0.520381 0.867605 0.276060
Si Si2 0.461223 0.963026 0.072512
Si Si3 0.129052 0.981045 0.014636
Si Si4 0.339203 0.333967 0.343439
Si Si5 0.845621 0.689164 0.571431
Si Si6 0.040992 0.890201 0.654714
Si Si7 0.999091 0.392032 0.363077
Si Si8 0.823269 0.809039 0.379175
O O1 0.516396 0.883815 0.160965
O O2 0.684472 0.852880 0.317981
O O3 0.433165 0.751234 0.303219
O O4 0.450500 0.983801 0.321644
O O5 0.531931 0.089598 0.073206
O O6 0.284809 0.985427 0.071576
O O7 0.509442 0.893365 0.978205
O O8 0.112692 0.863482 0.953529
O O9 0.109088 0.080240 0.933162
O O10 0.000074 0.991994 0.096431
O O11 0.444264 0.408877 0.269928
O O12 0.378102 0.199616 0.324744
O O13 0.164439 0.357933 0.326206
O O14 0.703980 0.653038 0.630631
O O15 0.788904 0.715312 0.462748
O O16 0.914000 0.800463 0.623698
#
# Coordination Sequence:
#
# PCOD8171394 Si02
#       8
#     4   4   4   4   4   4   4   4
#     4  12  24  43  72 104 137 186 238 294 356 424
#     4  11  23  44  67  97 142 181 231 289 355 415
#     4  10  23  45  67  96 141 183 228 296 347 426
#     4  11  23  44  67  94 141 178 224 289 349 424
#     4  11  21  39  68  99 133 181 227 292 338 421
#     4  11  22  37  68  99 127 177 235 278 341 420
#     4  11  25  46  66  97 139 184 226 294 356 418
#     4  11  21  44  69  98 144 180 231 294 356 420
#
# _framework density 22.226033999999999
#
# number of rings (size 3 to 8) (size 9 to 14) (size 15 to 20)
#    0.000    1.000    3.750    5.250    0.000    4.000 
#    9.000    0.000    0.000    0.000    0.000    0.000 
#    0.000    0.000    0.000    0.000    0.000    0.000 
#
# Total GULP energy -396716.395172 kJ/mol
# GULP energy per Si atom -12397.387349 kJ/mol
# Density = 2.217545 g / cm^3
# Si number density = 22.226034 Si / 1000 Ang^3
#
#
#
# Elastic Constant Matrix: (Units=GPa)
#
#
# Indices 1 2 3 4 5 6 
#
# 1 60.7535 13.7692 28.3627 0.0000 0.0000 0.0000
# 2 13.7692 46.4748 -1.1680 0.0000 0.0000 0.0000
# 3 28.3627 -1.1680 110.8546 0.0000 0.0000 0.0000
# 4 0.0000 0.0000 0.0000 34.1386 0.0000 0.0000
# 5 0.0000 0.0000 0.0000 0.0000 33.7469 0.0000
# 6 0.0000 0.0000 0.0000 0.0000 0.0000 31.0795
#
#
#
# Elastic Compliance Matrix: (Units=1/GPa)
#
#
# Indices 1 2 3 4 5 6 
#
# 1 0.020310 -0.006149 -0.005261 0.000000 0.000000 0.000000
# 2 -0.006149 0.023385 0.001820 0.000000 0.000000 0.000000
# 3 -0.005261 0.001820 0.010386 0.000000 0.000000 0.000000
# 4 0.000000 0.000000 0.000000 0.029292 0.000000 0.000000
# 5 0.000000 0.000000 0.000000 0.000000 0.029632 0.000000
# 6 0.000000 0.000000 0.000000 0.000000 0.000000 0.032176
#
#
# Mechanical properties :
#
#
# Convention : Reuss Voigt Hill
#
# Bulk Modulus (GPa) = 28.65420 33.33451 30.99435
# Shear Modulus (GPa) = 28.40979 31.60093 30.00536
#
# Velocity S-wave (km/s) = 3.57910 3.77476 3.67823
# Velocity P-wave (km/s) = 5.47724 5.83344 5.65814
#
# Compressibility (1/GPa) = 0.03489889
#
# Stress axis : x y z
#
# Youngs Moduli (GPa) = 49.23719 42.76297 96.28255
#
# Poissons Ratio (x) = 0.26297 0.50656
# Poissons Ratio (y) = 0.30278 -0.17521
# Poissons Ratio (z) = 0.25905 -0.07782
#
# Static dielectric constant tensor:
#      x y z
#    x 3.952250 0.000000 0.000000 
#    y 0.000000 4.011080 0.000000 
#    z 0.000000 0.000000 4.375810 
# 
# 
# High freq. dielectric constant tensor:
#      x y z
#    x 1.861770 0.000000 0.000000 
#    y 0.000000 1.865630 0.000000 
#    z 0.000000 0.000000 1.891220 
# 
# From -- ./inp_files/7631.got.cif
#   From: 2010.03.12/outbox.cif.g09.slc.cpg/sg33_4_cif.got.tgz:7631.got - 2010.04.14 01:49:19.
