data_PCOD8171203
_publ_section_title
;
Structure prediction by ZEFSAII (Michael W. Deem and Ramdas Pophale) SiO2 
 PCOD8171203
Probable space group: P N A 21
;
_chemical_formula_sum "Si O2"
_cell_formula_units_Z 32
_cell_length_a 10.004725
_cell_length_b 19.190507
_cell_length_c 8.132605
_cell_angle_alpha 90.000000
_cell_angle_beta 90.000000
_cell_angle_gamma 90.000000
_cell_volume 1561.425557
_symmetry_space_group_name_H-M "P N A 21"
_symmetry_group_IT_number 33
_symmetry_cell_setting 'orthorhombic'
loop_
_space_group_symop_operation_xyz
x,y,z
-x,-y,1/2+z
1/2-x,1/2+y,1/2+z
1/2+x,1/2-y,z
loop_
_atom_site_type_symbol
_atom_site_label
_atom_site_fract_x
_atom_site_fract_y
_atom_site_fract_z
Si Si1 0.005789 0.399846 0.913250
Si Si2 0.385888 0.262221 0.610405
Si Si3 0.724988 0.861183 0.911411
Si Si4 0.277655 0.638562 0.527428
Si Si5 0.507089 0.598832 0.028168
Si Si6 0.614807 0.479519 0.814162
Si Si7 0.888222 0.478097 0.622210
Si Si8 0.863364 0.735990 0.330953
O O1 0.119622 0.340787 0.907511
O O2 0.865999 0.360565 0.940049
O O3 0.995285 0.441210 0.741426
O O4 0.043218 0.451201 0.061212
O O5 0.354439 0.208372 0.463519
O O6 0.382048 0.340708 0.539796
O O7 0.282006 0.256256 0.756107
O O8 0.529903 0.247028 0.687400
O O9 0.753300 0.861393 0.719855
O O10 0.865585 0.863384 0.003951
O O11 0.639197 0.928512 0.965624
O O12 0.356497 0.569442 0.471044
O O13 0.367096 0.705169 0.473740
O O14 0.549156 0.550697 0.876497
O O15 0.496165 0.555552 0.197234
O O16 0.751047 0.496256 0.716524
#
# Coordination Sequence:
#
# PCOD8171203 Si02
#       8
#     4   4   4   4   4   4   4   4
#     4  11  23  42  69  95 134 174 222 275 333 399
#     4  12  23  45  69  93 131 180 217 271 342 395
#     4  11  23  42  66  94 134 174 221 281 333 395
#     4  11  23  42  66  94 134 174 221 281 333 395
#     4  11  23  42  69  95 134 174 222 275 333 399
#     4  10  22  41  64  96 135 173 221 280 337 399
#     4  10  22  41  64  96 135 173 221 280 337 399
#     4  12  23  45  69  93 131 180 217 271 342 395
#
# _framework density 20.494094
#
# number of rings (size 3 to 8) (size 9 to 14) (size 15 to 20)
#    0.000    1.000    5.000    2.250    0.000    7.000 
#    4.500    0.000    0.000    0.000    0.000    0.000 
#    0.000    0.000    0.000    0.000    0.000    0.000 
#
# Total GULP energy -396891.634745 kJ/mol
# GULP energy per Si atom -12402.863586 kJ/mol
# Density = 2.044745 g / cm^3
# Si number density = 20.494094 Si / 1000 Ang^3
#
#
#
# Elastic Constant Matrix: (Units=GPa)
#
#
# Indices 1 2 3 4 5 6 
#
# 1 58.5274 44.7218 20.1180 0.0000 0.0000 0.0000
# 2 44.7218 141.0580 61.6812 0.0000 0.0000 0.0000
# 3 20.1180 61.6812 117.9765 0.0000 0.0000 0.0000
# 4 0.0000 0.0000 0.0000 34.3542 0.0000 0.0000
# 5 0.0000 0.0000 0.0000 0.0000 29.4745 0.0000
# 6 0.0000 0.0000 0.0000 0.0000 0.0000 32.6080
#
#
#
# Elastic Compliance Matrix: (Units=1/GPa)
#
#
# Indices 1 2 3 4 5 6 
#
# 1 0.022550 -0.007089 -0.000139 0.000000 0.000000 0.000000
# 2 -0.007089 0.011419 -0.004761 0.000000 0.000000 0.000000
# 3 -0.000139 -0.004761 0.010989 0.000000 0.000000 0.000000
# 4 0.000000 0.000000 0.000000 0.029109 0.000000 0.000000
# 5 0.000000 0.000000 0.000000 0.000000 0.033928 0.000000
# 6 0.000000 0.000000 0.000000 0.000000 0.000000 0.030667
#
#
# Mechanical properties :
#
#
# Convention : Reuss Voigt Hill
#
# Bulk Modulus (GPa) = 47.66409 63.40044 55.53226
# Shear Modulus (GPa) = 29.47534 32.02340 30.74937
#
# Velocity S-wave (km/s) = 3.79652 3.95722 3.87770
# Velocity P-wave (km/s) = 6.52120 7.20296 6.87054
#
# Compressibility (1/GPa) = 0.02098016
#
# Stress axis : x y z
#
# Youngs Moduli (GPa) = 44.34514 87.57616 90.99761
#
# Poissons Ratio (x) = 0.62079 0.01268
# Poissons Ratio (y) = 0.31434 0.43326
# Poissons Ratio (z) = 0.00618 0.41697
#
# Static dielectric constant tensor:
#      x y z
#    x 3.688780 0.000000 0.000000 
#    y 0.000000 3.906840 0.000000 
#    z 0.000000 0.000000 3.748810 
# 
# 
# High freq. dielectric constant tensor:
#      x y z
#    x 1.795840 0.000000 0.000000 
#    y 0.000000 1.813280 0.000000 
#    z 0.000000 0.000000 1.798900 
# 
# From -- ./inp_files/4069.got.cif
#   From: 2010.03.12/outbox.cif.g09.slc.cpg/sg33_3_cif.got.tgz:4069.got - 2010.04.14 01:49:19.
