data_PCOD8171997
_publ_section_title
;
Structure prediction by ZEFSAII (Michael W. Deem and Ramdas Pophale) SiO2 
 PCOD8171997
Probable space group: P N N 2
;
_chemical_formula_sum "Si O2"
_cell_formula_units_Z 32
_cell_length_a 13.604469
_cell_length_b 6.352061
_cell_length_c 16.173823
_cell_angle_alpha 90.000000
_cell_angle_beta 90.000000
_cell_angle_gamma 90.000000
_cell_volume 1397.683832
_symmetry_space_group_name_H-M "P N N 2"
_symmetry_group_IT_number 34
_symmetry_cell_setting 'orthorhombic'
loop_
_space_group_symop_operation_xyz
x,y,z
-x,-y,z
1/2-x,1/2+y,1/2+z
1/2+x,1/2-y,1/2+z
loop_
_atom_site_type_symbol
_atom_site_label
_atom_site_fract_x
_atom_site_fract_y
_atom_site_fract_z
Si Si1 0.778245 0.733799 0.950600
Si Si2 0.246095 0.099898 0.634609
Si Si3 0.695024 0.511312 0.311186
Si Si4 0.575408 0.176518 0.655343
Si Si5 0.375426 0.442848 0.561656
Si Si6 0.592205 0.854625 0.418565
Si Si7 0.890726 0.973925 0.484206
Si Si8 0.587986 0.143812 0.841964
O O1 0.826234 0.501792 0.963432
O O2 0.660401 0.691436 0.952876
O O3 0.833028 0.810831 0.867039
O O4 0.793136 0.914352 0.018067
O O5 0.319512 0.302008 0.631723
O O6 0.172125 0.122667 0.558828
O O7 0.179935 0.067158 0.717303
O O8 0.313265 0.890227 0.632640
O O9 0.634594 0.723297 0.338367
O O10 0.810212 0.522717 0.332259
O O11 0.550654 0.391841 0.607112
O O12 0.557985 0.227137 0.751435
O O13 0.500000 0.000000 0.623013
O O14 0.434718 0.309700 0.491743
O O15 0.500000 0.000000 0.391853
O O16 0.894199 0.831931 0.403701
O O17 0.000000 0.000000 0.519189
O O18 0.500000 0.000000 0.876850
#
# Coordination Sequence:
#
# PCOD8171997 Si02
#       8
#     4   4   4   4   4   4   4   4
#     4  11  22  43  66 101 133 182 240 288 357 421
#     4  11  24  43  64 105 141 184 234 298 359 427
#     4  10  23  42  72  96 144 183 237 300 359 428
#     4  10  23  42  69 106 147 178 234 298 364 436
#     4  11  22  41  69  99 148 182 234 290 369 426
#     4  11  24  44  70  99 138 192 241 291 353 440
#     4  12  23  42  69  96 141 182 242 296 348 432
#     4  10  21  43  68 103 136 185 239 295 360 429
#
# _framework density 22.895019999999999
#
# number of rings (size 3 to 8) (size 9 to 14) (size 15 to 20)
#    0.000    1.250    3.750    1.500    1.750    5.500 
#    2.250    0.000    0.000    0.000    0.000    0.000 
#    0.000    0.000    0.000    0.000    0.000    0.000 
#
# Total GULP energy -396501.328540 kJ/mol
# GULP energy per Si atom -12390.666517 kJ/mol
# Density = 2.284291 g / cm^3
# Si number density = 22.895020 Si / 1000 Ang^3
#
#
#
# Elastic Constant Matrix: (Units=GPa)
#
#
# Indices 1 2 3 4 5 6 
#
# 1 105.2851 45.2638 37.4840 0.0000 0.0000 0.0000
# 2 45.2638 129.0446 73.3670 0.0000 0.0000 0.0000
# 3 37.4840 73.3670 120.2015 0.0000 0.0000 0.0000
# 4 0.0000 0.0000 0.0000 39.9123 0.0000 0.0000
# 5 0.0000 0.0000 0.0000 0.0000 31.6033 0.0000
# 6 0.0000 0.0000 0.0000 0.0000 0.0000 50.6642
#
#
#
# Elastic Compliance Matrix: (Units=1/GPa)
#
#
# Indices 1 2 3 4 5 6 
#
# 1 0.011409 -0.003031 -0.001708 0.000000 0.000000 0.000000
# 2 -0.003031 0.012673 -0.006790 0.000000 0.000000 0.000000
# 3 -0.001708 -0.006790 0.012996 0.000000 0.000000 0.000000
# 4 0.000000 0.000000 0.000000 0.025055 0.000000 0.000000
# 5 0.000000 0.000000 0.000000 0.000000 0.031642 0.000000
# 6 0.000000 0.000000 0.000000 0.000000 0.000000 0.019738
#
#
# Mechanical properties :
#
#
# Convention : Reuss Voigt Hill
#
# Bulk Modulus (GPa) = 71.32250 74.08455 72.70352
# Shear Modulus (GPa) = 35.39981 37.66371 36.53176
#
# Velocity S-wave (km/s) = 3.93641 4.06034 3.99886
# Velocity P-wave (km/s) = 7.20278 7.37634 7.29008
#
# Compressibility (1/GPa) = 0.01402082
#
# Stress axis : x y z
#
# Youngs Moduli (GPa) = 87.64938 78.91022 76.94539
#
# Poissons Ratio (x) = 0.23916 0.13142
# Poissons Ratio (y) = 0.26565 0.52244
# Poissons Ratio (z) = 0.14970 0.53578
#
# Static dielectric constant tensor:
#      x y z
#    x 4.516860 0.000000 0.000000 
#    y 0.000000 4.265490 0.000000 
#    z 0.000000 0.000000 4.325200 
# 
# 
# High freq. dielectric constant tensor:
#      x y z
#    x 1.903340 0.000000 0.000000 
#    y 0.000000 1.911950 0.000000 
#    z 0.000000 0.000000 1.901540 
# 
# From -- ./inp_files/7798.got.cif
#   From: 2010.03.12/outbox.cif.g09.slc.cpg/sg34_4_cif.got.tgz:7798.got - 2010.04.14 01:56:33.
