data_PCOD8171665
_publ_section_title
;
Structure prediction by ZEFSAII (Michael W. Deem and Ramdas Pophale) SiO2 
 PCOD8171665
Probable space group: P N A 21
;
_chemical_formula_sum "Si O2"
_cell_formula_units_Z 28
_cell_length_a 8.180817
_cell_length_b 11.915930
_cell_length_c 12.498379
_cell_angle_alpha 90.000000
_cell_angle_beta 90.000000
_cell_angle_gamma 90.000000
_cell_volume 1218.367516
_symmetry_space_group_name_H-M "P N A 21"
_symmetry_group_IT_number 33
_symmetry_cell_setting 'orthorhombic'
loop_
_space_group_symop_operation_xyz
x,y,z
-x,-y,1/2+z
1/2-x,1/2+y,1/2+z
1/2+x,1/2-y,z
loop_
_atom_site_type_symbol
_atom_site_label
_atom_site_fract_x
_atom_site_fract_y
_atom_site_fract_z
Si Si1 0.973098 0.312004 0.001990
Si Si2 0.749111 0.014436 0.456099
Si Si3 0.947456 0.681392 0.825046
Si Si4 0.806293 0.899650 0.884234
Si Si5 0.010763 0.883007 0.331396
Si Si6 0.228172 0.848247 0.623861
Si Si7 0.456130 0.571113 0.101153
O O1 0.897879 0.255835 0.111161
O O2 0.165256 0.339454 0.014677
O O3 0.894191 0.432722 0.991379
O O4 0.953665 0.229047 0.899673
O O5 0.667255 0.128577 0.416116
O O6 0.865839 0.049067 0.552739
O O7 0.847216 0.945398 0.367394
O O8 0.945236 0.816701 0.835538
O O9 0.864477 0.649837 0.714288
O O10 0.131265 0.636854 0.838505
O O11 0.841354 0.027465 0.848311
O O12 0.826960 0.882532 0.013176
O O13 0.984031 0.850550 0.205936
O O14 0.114382 0.953949 0.640529
#
# Coordination Sequence:
#
# PCOD8171665 Si02
#       7
#     4   4   4   4   4   4   4
#     4  12  24  43  68 107 138 179 225 300 348 425
#     4  11  24  44  67  97 143 174 236 282 346 423
#     4  12  26  44  71 102 132 188 235 294 345 416
#     4  11  25  45  68  98 141 176 237 290 347 419
#     4  11  24  45  68 102 143 181 223 299 354 413
#     4  12  23  40  72 102 132 178 237 288 343 418
#     4  11  24  47  70 100 141 192 229 289 359 422
#
# _framework density 22.981572
#
# number of rings (size 3 to 8) (size 9 to 14) (size 15 to 20)
#    0.000    0.571    5.714    3.429    6.000    0.000 
#    5.143    0.000    0.000    0.000    0.000    0.000 
#    0.000    0.000    0.000    0.000    0.000    0.000 
#
# Total GULP energy -346992.622742 kJ/mol
# GULP energy per Si atom -12392.593669 kJ/mol
# Density = 2.292927 g / cm^3
# Si number density = 22.981572 Si / 1000 Ang^3
#
#
#
# Elastic Constant Matrix: (Units=GPa)
#
#
# Indices 1 2 3 4 5 6 
#
# 1 85.9853 8.6911 3.4288 0.0000 0.0000 0.0000
# 2 8.6911 61.1679 6.8915 0.0000 0.0000 0.0000
# 3 3.4288 6.8915 66.3739 0.0000 0.0000 0.0000
# 4 0.0000 0.0000 0.0000 23.6926 0.0000 0.0000
# 5 0.0000 0.0000 0.0000 0.0000 39.1660 0.0000
# 6 0.0000 0.0000 0.0000 0.0000 0.0000 72.6243
#
#
#
# Elastic Compliance Matrix: (Units=1/GPa)
#
#
# Indices 1 2 3 4 5 6 
#
# 1 0.011812 -0.001629 -0.000441 0.000000 0.000000 0.000000
# 2 -0.001629 0.016767 -0.001657 0.000000 0.000000 0.000000
# 3 -0.000441 -0.001657 0.015261 0.000000 0.000000 0.000000
# 4 0.000000 0.000000 0.000000 0.042207 0.000000 0.000000
# 5 0.000000 0.000000 0.000000 0.000000 0.025532 0.000000
# 6 0.000000 0.000000 0.000000 0.000000 0.000000 0.013769
#
#
# Mechanical properties :
#
#
# Convention : Reuss Voigt Hill
#
# Bulk Modulus (GPa) = 27.48257 27.94998 27.71628
# Shear Modulus (GPa) = 34.49929 40.06429 37.28179
#
# Velocity S-wave (km/s) = 3.87870 4.17984 4.03208
# Velocity P-wave (km/s) = 5.66070 5.95677 5.81062
#
# Compressibility (1/GPa) = 0.03638669
#
# Stress axis : x y z
#
# Youngs Moduli (GPa) = 84.65889 59.64268 65.52668
#
# Poissons Ratio (x) = 0.09714 0.02890
# Poissons Ratio (y) = 0.13788 0.10856
# Poissons Ratio (z) = 0.03734 0.09881
#
# Static dielectric constant tensor:
#      x y z
#    x 4.453050 0.000000 0.000000 
#    y 0.000000 4.222470 0.000000 
#    z 0.000000 0.000000 4.308280 
# 
# 
# High freq. dielectric constant tensor:
#      x y z
#    x 1.924560 0.000000 0.000000 
#    y 0.000000 1.895930 0.000000 
#    z 0.000000 0.000000 1.907310 
# 
# From -- ./inp_files/5838.got.cif
#   From: 2010.03.12/outbox.cif.g09.slc.cpg/sg33_3_cif.got.tgz:5838.got - 2010.04.14 01:49:19.
