data_PCOD8171906
_publ_section_title
;
Structure prediction by ZEFSAII (Michael W. Deem and Ramdas Pophale) SiO2 
 PCOD8171906
Probable space group: P N N 2
;
_chemical_formula_sum "Si O2"
_cell_formula_units_Z 24
_cell_length_a 4.993035
_cell_length_b 19.369839
_cell_length_c 12.758919
_cell_angle_alpha 90.000000
_cell_angle_beta 90.000000
_cell_angle_gamma 90.000000
_cell_volume 1233.969717
_symmetry_space_group_name_H-M "P N N 2"
_symmetry_group_IT_number 34
_symmetry_cell_setting 'orthorhombic'
loop_
_space_group_symop_operation_xyz
x,y,z
-x,-y,z
1/2-x,1/2+y,1/2+z
1/2+x,1/2-y,1/2+z
loop_
_atom_site_type_symbol
_atom_site_label
_atom_site_fract_x
_atom_site_fract_y
_atom_site_fract_z
Si Si1 0.420933 0.179906 0.902290
Si Si2 0.133447 0.644173 0.865886
Si Si3 0.877471 0.200593 0.252940
Si Si4 0.234132 0.043090 0.801760
Si Si5 0.000000 0.000000 0.605268
Si Si6 0.500000 0.000000 0.467071
Si Si7 0.413921 0.270690 0.509893
O O1 0.436884 0.223860 0.797146
O O2 0.303890 0.106349 0.874291
O O3 0.718450 0.175446 0.950090
O O4 0.223648 0.215579 0.985471
O O5 0.401121 0.647001 0.795534
O O6 0.090942 0.564779 0.897304
O O7 0.158637 0.692707 0.970202
O O8 0.904909 0.671234 0.789267
O O9 0.871139 0.214389 0.130554
O O10 0.500000 0.000000 0.782007
O O11 0.110968 0.060622 0.684669
O O12 0.000000 0.000000 0.862168
O O13 0.246633 0.973520 0.535023
#
# Coordination Sequence:
#
# PCOD8171906 Si02
#       7
#     4   4   4   4   2   2   4
#     4  10  21  37  58  89 115 153 194 251 294 347
#     4  10  23  39  60  92 117 159 197 249 304 350
#     4  10  21  40  61  85 120 154 199 247 291 358
#     4  10  20  36  55  84 123 146 193 236 308 361
#     4  10  22  34  56  92 110 162 184 242 312 362
#     4  12  22  40  60  86 130 150 206 248 298 382
#     4  10  21  37  62  86 115 155 204 244 299 353
#
# _framework density 19.449422999999999
#
# number of rings (size 3 to 8) (size 9 to 14) (size 15 to 20)
#    0.500    1.333    0.833    3.000    2.333    0.000 
#    6.000    0.000   18.333    0.000    0.000    0.000 
#    0.000    0.000    0.000    0.000    0.000    0.000 
#
# Total GULP energy -297406.042152 kJ/mol
# GULP energy per Si atom -12391.918423 kJ/mol
# Density = 1.940515 g / cm^3
# Si number density = 19.449423 Si / 1000 Ang^3
#
#
#
# Elastic Constant Matrix: (Units=GPa)
#
#
# Indices 1 2 3 4 5 6 
#
# 1 92.0321 19.9200 12.5006 0.0000 0.0000 0.0000
# 2 19.9200 101.3949 46.7546 0.0000 0.0000 0.0000
# 3 12.5006 46.7546 103.3299 0.0000 0.0000 0.0000
# 4 0.0000 0.0000 0.0000 81.0497 0.0000 0.0000
# 5 0.0000 0.0000 0.0000 0.0000 31.3438 0.0000
# 6 0.0000 0.0000 0.0000 0.0000 0.0000 29.6311
#
#
#
# Elastic Compliance Matrix: (Units=1/GPa)
#
#
# Indices 1 2 3 4 5 6 
#
# 1 0.011366 -0.002020 -0.000461 0.000000 0.000000 0.000000
# 2 -0.002020 0.012822 -0.005557 0.000000 0.000000 0.000000
# 3 -0.000461 -0.005557 0.012248 0.000000 0.000000 0.000000
# 4 0.000000 0.000000 0.000000 0.012338 0.000000 0.000000
# 5 0.000000 0.000000 0.000000 0.000000 0.031904 0.000000
# 6 0.000000 0.000000 0.000000 0.000000 0.000000 0.033748
#
#
# Mechanical properties :
#
#
# Convention : Reuss Voigt Hill
#
# Bulk Modulus (GPa) = 49.11901 50.56747 49.84324
# Shear Modulus (GPa) = 36.41945 42.91037 39.66491
#
# Velocity S-wave (km/s) = 4.33196 4.70217 4.52086
# Velocity P-wave (km/s) = 7.09441 7.45228 7.27555
#
# Compressibility (1/GPa) = 0.02035872
#
# Stress axis : x y z
#
# Youngs Moduli (GPa) = 87.98424 77.99183 81.64604
#
# Poissons Ratio (x) = 0.15758 0.03762
# Poissons Ratio (y) = 0.17776 0.45372
# Poissons Ratio (z) = 0.04054 0.43342
#
# Static dielectric constant tensor:
#      x y z
#    x 3.923670 0.000000 0.000000 
#    y 0.000000 -0.361670 0.000000 
#    z 0.000000 0.000000 3.368070 
# 
# 
# High freq. dielectric constant tensor:
#      x y z
#    x 1.788580 0.000000 0.000000 
#    y 0.000000 1.728710 0.000000 
#    z 0.000000 0.000000 1.746110 
# 
# From -- ./inp_files/4456.got.cif
#   From: 2010.03.12/outbox.cif.g09.slc.cpg/sg34_3_cif.got.tgz:4456.got - 2010.04.14 01:56:33.
