data_PCOD8171892
_publ_section_title
;
Structure prediction by ZEFSAII (Michael W. Deem and Ramdas Pophale) SiO2 
 PCOD8171892
Probable space group: P N N 2
;
_chemical_formula_sum "Si O2"
_cell_formula_units_Z 32
_cell_length_a 15.226335
_cell_length_b 9.349393
_cell_length_c 11.139268
_cell_angle_alpha 90.000000
_cell_angle_beta 90.000000
_cell_angle_gamma 90.000000
_cell_volume 1585.752662
_symmetry_space_group_name_H-M "P N N 2"
_symmetry_group_IT_number 34
_symmetry_cell_setting 'orthorhombic'
loop_
_space_group_symop_operation_xyz
x,y,z
-x,-y,z
1/2-x,1/2+y,1/2+z
1/2+x,1/2-y,1/2+z
loop_
_atom_site_type_symbol
_atom_site_label
_atom_site_fract_x
_atom_site_fract_y
_atom_site_fract_z
Si Si1 0.023699 0.338276 0.973430
Si Si2 0.516572 0.153856 0.811948
Si Si3 0.257223 0.526759 0.006684
Si Si4 0.324853 0.788668 0.646519
Si Si5 0.434210 0.882020 0.199696
Si Si6 0.254491 0.486095 0.729641
Si Si7 0.947644 0.860819 0.519085
Si Si8 0.623175 0.752277 0.619515
O O1 0.040491 0.345577 0.834260
O O2 0.000000 0.500000 0.021176
O O3 0.111565 0.273878 0.032021
O O4 0.944032 0.227883 0.007095
O O5 0.614749 0.155184 0.755719
O O6 0.438943 0.171358 0.716408
O O7 0.500000 0.000000 0.874160
O O8 0.508150 0.280221 0.907377
O O9 0.252345 0.396660 0.102812
O O10 0.350971 0.593133 0.985804
O O11 0.196903 0.647543 0.064350
O O12 0.232327 0.477122 0.871814
O O13 0.276820 0.644380 0.685457
O O14 0.335979 0.934864 0.170792
O O15 0.449496 0.733900 0.135724
O O16 0.500000 0.000000 0.147202
O O17 0.334414 0.387026 0.681586
O O18 0.000000 0.000000 0.552624
#
# Coordination Sequence:
#
# PCOD8171892 Si02
#       8
#     4   4   4   4   4   4   4   4
#     4  10  19  42  73  95 134 184 232 281 343 415
#     4  11  22  43  72 105 135 183 231 283 348 426
#     4  12  22  46  68 100 141 177 229 289 352 415
#     4  11  22  40  70 104 131 176 230 281 348 420
#     4  11  24  46  65  95 138 188 228 282 358 424
#     4  12  25  42  70 105 140 175 230 296 354 413
#     4  12  27  45  64  99 144 182 227 296 358 416
#     4  11  22  43  73 102 133 179 231 284 336 422
#
# _framework density 20.179693
#
# number of rings (size 3 to 8) (size 9 to 14) (size 15 to 20)
#    0.000    0.750    6.250    2.625    1.750    1.500 
#    4.500    2.500    0.000    0.000    0.000    0.000 
#    0.000    0.000    0.000    0.000    0.000    0.000 
#
# Total GULP energy -396560.414187 kJ/mol
# GULP energy per Si atom -12392.512943 kJ/mol
# Density = 2.013376 g / cm^3
# Si number density = 20.179693 Si / 1000 Ang^3
#
#
#
# Elastic Constant Matrix: (Units=GPa)
#
#
# Indices 1 2 3 4 5 6 
#
# 1 88.3010 41.6340 23.7548 0.0000 0.0000 0.0000
# 2 41.6340 129.1886 52.7809 0.0000 0.0000 0.0000
# 3 23.7548 52.7809 52.6620 0.0000 0.0000 0.0000
# 4 0.0000 0.0000 0.0000 -9.3661 0.0000 0.0000
# 5 0.0000 0.0000 0.0000 0.0000 41.3378 0.0000
# 6 0.0000 0.0000 0.0000 0.0000 0.0000 36.7825
#
#
#
# Elastic Compliance Matrix: (Units=1/GPa)
#
#
# Indices 1 2 3 4 5 6 
#
# 1 0.013620 -0.003182 -0.002954 0.000000 0.000000 0.000000
# 2 -0.003182 0.013852 -0.012447 0.000000 0.000000 0.000000
# 3 -0.002954 -0.012447 0.032797 0.000000 0.000000 0.000000
# 4 0.000000 0.000000 0.000000 -0.106768 0.000000 0.000000
# 5 0.000000 0.000000 0.000000 0.000000 0.024191 0.000000
# 6 0.000000 0.000000 0.000000 0.000000 0.000000 0.027187
#
#
# Mechanical properties :
#
#
# Convention : Reuss Voigt Hill
#
# Bulk Modulus (GPa) = 43.28831 56.27677 49.78254
# Shear Modulus (GPa) = 100.50749 23.88296 62.19522
#
# Velocity S-wave (km/s) = 7.06501 3.44396 5.55766
# Velocity P-wave (km/s) = 9.38352 6.61535 8.11829
#
# Compressibility (1/GPa) = 0.02310092
#
# Stress axis : x y z
#
# Youngs Moduli (GPa) = 73.42056 72.19296 30.49046
#
# Poissons Ratio (x) = 0.22975 0.09007
# Poissons Ratio (y) = 0.23366 0.37953
# Poissons Ratio (z) = 0.21689 0.89862
#
# Static dielectric constant tensor:
#      x y z
#    x 4.459570 0.000000 0.000000 
#    y 0.000000 3.745940 0.000000 
#    z 0.000000 0.000000 3.691610 
# 
# 
# High freq. dielectric constant tensor:
#      x y z
#    x 1.800590 0.000000 0.000000 
#    y 0.000000 1.781810 0.000000 
#    z 0.000000 0.000000 1.790890 
# 
# From -- ./inp_files/5088.got.cif
#   From: 2010.03.12/outbox.cif.g09.slc.cpg/sg34_3_cif.got.tgz:5088.got - 2010.04.14 01:56:33.
