data_PCOD8171157
_publ_section_title
;
Structure prediction by ZEFSAII (Michael W. Deem and Ramdas Pophale) SiO2 
 PCOD8171157
Probable space group: P N A 21
;
_chemical_formula_sum "Si O2"
_cell_formula_units_Z 32
_cell_length_a 18.598483
_cell_length_b 14.681460
_cell_length_c 5.183574
_cell_angle_alpha 90.000000
_cell_angle_beta 90.000000
_cell_angle_gamma 90.000000
_cell_volume 1415.389831
_symmetry_space_group_name_H-M "P N A 21"
_symmetry_group_IT_number 33
_symmetry_cell_setting 'orthorhombic'
loop_
_space_group_symop_operation_xyz
x,y,z
-x,-y,1/2+z
1/2-x,1/2+y,1/2+z
1/2+x,1/2-y,z
loop_
_atom_site_type_symbol
_atom_site_label
_atom_site_fract_x
_atom_site_fract_y
_atom_site_fract_z
Si Si1 0.936545 0.583451 0.656500
Si Si2 0.954471 0.005232 0.169279
Si Si3 0.145943 0.905046 0.329785
Si Si4 0.504295 0.886813 0.157899
Si Si5 0.771605 0.583969 0.687629
Si Si6 0.345839 0.211153 0.695647
Si Si7 0.242788 0.709849 0.710803
Si Si8 0.830649 0.945759 0.464718
O O1 0.986762 0.495116 0.656748
O O2 0.853437 0.554464 0.647367
O O3 0.957139 0.643025 0.405574
O O4 0.957473 0.642541 0.908594
O O5 0.890984 0.930469 0.240555
O O6 0.910518 0.095787 0.071129
O O7 0.998761 0.031642 0.427585
O O8 0.228792 0.915303 0.418831
O O9 0.137522 0.817564 0.145910
O O10 0.125274 0.994543 0.170546
O O11 0.581475 0.842146 0.162715
O O12 0.769807 0.688951 0.784509
O O13 0.737429 0.507902 0.876763
O O14 0.289713 0.171787 0.481727
O O15 0.317862 0.206095 0.989389
O O16 0.307467 0.647903 0.602010
#
# Coordination Sequence:
#
# PCOD8171157 Si02
#       8
#     4   4   4   4   4   4   4   4
#     4  10  22  39  62  89 129 165 212 265 327 389
#     4  11  23  43  65  93 132 177 228 276 336 412
#     4  10  23  42  70  94 133 173 231 270 345 394
#     4  10  22  39  60  92 124 170 213 255 326 404
#     4  10  23  42  63  97 130 175 214 287 330 396
#     4  11  23  44  64  98 129 174 222 274 323 417
#     4  11  25  39  69  97 131 165 230 278 336 395
#     4  11  23  42  69 100 128 179 222 285 345 401
#
# _framework density 22.608609999999999
#
# number of rings (size 3 to 8) (size 9 to 14) (size 15 to 20)
#    0.000    1.500    2.500    1.500    7.000    1.000 
#    2.250    1.250    0.000    0.000    0.000    0.000 
#    0.000    0.000    0.000    0.000    0.000    0.000 
#
# Total GULP energy -396497.833683 kJ/mol
# GULP energy per Si atom -12390.557303 kJ/mol
# Density = 2.255715 g / cm^3
# Si number density = 22.608610 Si / 1000 Ang^3
#
#
#
# Elastic Constant Matrix: (Units=GPa)
#
#
# Indices 1 2 3 4 5 6 
#
# 1 113.6528 1.0459 53.7262 0.0000 0.0000 0.0000
# 2 1.0459 48.7348 15.2738 0.0000 0.0000 0.0000
# 3 53.7262 15.2738 146.5230 0.0000 0.0000 0.0000
# 4 0.0000 0.0000 0.0000 24.8759 0.0000 0.0000
# 5 0.0000 0.0000 0.0000 0.0000 42.8683 0.0000
# 6 0.0000 0.0000 0.0000 0.0000 0.0000 25.3930
#
#
#
# Elastic Compliance Matrix: (Units=1/GPa)
#
#
# Indices 1 2 3 4 5 6 
#
# 1 0.010694 0.001033 -0.004029 0.000000 0.000000 0.000000
# 2 0.001033 0.021312 -0.002600 0.000000 0.000000 0.000000
# 3 -0.004029 -0.002600 0.008573 0.000000 0.000000 0.000000
# 4 0.000000 0.000000 0.000000 0.040199 0.000000 0.000000
# 5 0.000000 0.000000 0.000000 0.000000 0.023327 0.000000
# 6 0.000000 0.000000 0.000000 0.000000 0.000000 0.039381
#
#
# Mechanical properties :
#
#
# Convention : Reuss Voigt Hill
#
# Bulk Modulus (GPa) = 34.02891 49.88914 41.95903
# Shear Modulus (GPa) = 30.39987 34.55176 32.47582
#
# Velocity S-wave (km/s) = 3.67088 3.91353 3.79415
# Velocity P-wave (km/s) = 5.74901 6.52191 6.14762
#
# Compressibility (1/GPa) = 0.02938678
#
# Stress axis : x y z
#
# Youngs Moduli (GPa) = 93.51277 46.92189 116.64264
#
# Poissons Ratio (x) = -0.04848 0.46993
# Poissons Ratio (y) = -0.09661 0.30332
# Poissons Ratio (z) = 0.37674 0.12202
#
# Static dielectric constant tensor:
#      x y z
#    x 4.007120 0.000000 0.000000 
#    y 0.000000 3.833060 0.000000 
#    z 0.000000 0.000000 4.565320 
# 
# 
# High freq. dielectric constant tensor:
#      x y z
#    x 1.895620 0.000000 0.000000 
#    y 0.000000 1.852730 0.000000 
#    z 0.000000 0.000000 1.910680 
# 
# From -- ./inp_files/1828.got.cif
#   From: 2010.03.12/outbox.cif.g09.slc.cpg/sg33_1_cif.got.tgz:1828.got - 2010.04.14 01:49:19.
