data_PCOD8171254
_publ_section_title
;
Structure prediction by ZEFSAII (Michael W. Deem and Ramdas Pophale) SiO2 
 PCOD8171254
Probable space group: P N A 21
;
_chemical_formula_sum "Si O2"
_cell_formula_units_Z 32
_cell_length_a 11.577702
_cell_length_b 13.920659
_cell_length_c 9.264684
_cell_angle_alpha 90.000000
_cell_angle_beta 90.000000
_cell_angle_gamma 90.000000
_cell_volume 1493.182093
_symmetry_space_group_name_H-M "P N A 21"
_symmetry_group_IT_number 33
_symmetry_cell_setting 'orthorhombic'
loop_
_space_group_symop_operation_xyz
x,y,z
-x,-y,1/2+z
1/2-x,1/2+y,1/2+z
1/2+x,1/2-y,z
loop_
_atom_site_type_symbol
_atom_site_label
_atom_site_fract_x
_atom_site_fract_y
_atom_site_fract_z
Si Si1 0.233649 0.870955 0.064640
Si Si2 0.598118 0.213217 0.773749
Si Si3 0.035696 0.524182 0.310749
Si Si4 0.050252 0.920589 0.557201
Si Si5 0.144298 0.557142 0.609870
Si Si6 0.830055 0.782634 0.564163
Si Si7 0.229145 0.383828 0.237900
Si Si8 0.472779 0.401705 0.737703
O O1 0.334095 0.803929 0.125650
O O2 0.118259 0.840431 0.145553
O O3 0.251835 0.981237 0.114003
O O4 0.218670 0.863216 0.894772
O O5 0.493443 0.135257 0.773470
O O6 0.567408 0.324057 0.775420
O O7 0.673900 0.213031 0.921592
O O8 0.055096 0.523825 0.483367
O O9 0.153915 0.482818 0.237735
O O10 0.929891 0.453804 0.259183
O O11 0.167670 0.879867 0.623264
O O12 0.073913 0.944578 0.388970
O O13 0.942503 0.849116 0.573448
O O14 0.027803 0.017662 0.640515
O O15 0.207375 0.659370 0.582489
O O16 0.847819 0.708554 0.696567
#
# Coordination Sequence:
#
# PCOD8171254 Si02
#       8
#     4   4   4   4   4   4   4   4
#     4  10  22  44  60  97 132 173 216 285 340 405
#     4  10  24  40  70  95 131 180 232 271 348 416
#     4  10  23  43  68 100 135 180 226 287 347 420
#     4  11  25  42  67 100 135 182 228 285 353 411
#     4  10  22  43  68  93 138 174 229 284 341 417
#     4  11  24  44  70 100 133 186 231 288 341 427
#     4  11  25  40  69  99 140 173 226 283 354 413
#     4  11  23  42  66  94 134 176 228 281 338 415
#
# _framework density 21.430741999999999
#
# number of rings (size 3 to 8) (size 9 to 14) (size 15 to 20)
#    0.000    1.500    1.250    2.250   12.250    3.000 
#    4.500    0.000    0.000    0.000    0.000    0.000 
#    0.000    0.000    0.000    0.000    0.000    0.000 
#
# Total GULP energy -396473.737618 kJ/mol
# GULP energy per Si atom -12389.804301 kJ/mol
# Density = 2.138196 g / cm^3
# Si number density = 21.430742 Si / 1000 Ang^3
#
#
#
# Elastic Constant Matrix: (Units=GPa)
#
#
# Indices 1 2 3 4 5 6 
#
# 1 66.9250 30.8557 32.2597 0.0000 0.0000 0.0000
# 2 30.8557 105.1224 50.3319 0.0000 0.0000 0.0000
# 3 32.2597 50.3319 111.5779 0.0000 0.0000 0.0000
# 4 0.0000 0.0000 0.0000 32.4522 0.0000 0.0000
# 5 0.0000 0.0000 0.0000 0.0000 35.1246 0.0000
# 6 0.0000 0.0000 0.0000 0.0000 0.0000 12.2778
#
#
#
# Elastic Compliance Matrix: (Units=1/GPa)
#
#
# Indices 1 2 3 4 5 6 
#
# 1 0.018392 -0.003638 -0.003676 0.000000 0.000000 0.000000
# 2 -0.003638 0.012853 -0.004746 0.000000 0.000000 0.000000
# 3 -0.003676 -0.004746 0.012166 0.000000 0.000000 0.000000
# 4 0.000000 0.000000 0.000000 0.030815 0.000000 0.000000
# 5 0.000000 0.000000 0.000000 0.000000 0.028470 0.000000
# 6 0.000000 0.000000 0.000000 0.000000 0.000000 0.081448
#
#
# Mechanical properties :
#
#
# Convention : Reuss Voigt Hill
#
# Bulk Modulus (GPa) = 51.84089 56.72442 54.28265
# Shear Modulus (GPa) = 23.28900 27.31613 25.30256
#
# Velocity S-wave (km/s) = 3.30010 3.57406 3.43981
# Velocity P-wave (km/s) = 6.22603 6.59985 6.41566
#
# Compressibility (1/GPa) = 0.01928979
#
# Stress axis : x y z
#
# Youngs Moduli (GPa) = 54.37285 77.80325 82.19554
#
# Poissons Ratio (x) = 0.28306 0.30217
# Poissons Ratio (y) = 0.19782 0.39010
# Poissons Ratio (z) = 0.19989 0.36925
#
# Static dielectric constant tensor:
#      x y z
#    x 4.019210 0.000000 0.000000 
#    y 0.000000 3.810730 0.000000 
#    z 0.000000 0.000000 4.173850 
# 
# 
# High freq. dielectric constant tensor:
#      x y z
#    x 1.838260 0.000000 0.000000 
#    y 0.000000 1.836990 0.000000 
#    z 0.000000 0.000000 1.849240 
# 
# From -- ./inp_files/3992.got.cif
#   From: 2010.03.12/outbox.cif.g09.slc.cpg/sg33_2_cif.got.tgz:3992.got - 2010.04.14 01:49:19.
