data_PCOD8171669
_publ_section_title
;
Structure prediction by ZEFSAII (Michael W. Deem and Ramdas Pophale) SiO2 
 PCOD8171669
Probable space group: P N A 21
;
_chemical_formula_sum "Si O2"
_cell_formula_units_Z 32
_cell_length_a 14.364109
_cell_length_b 9.956106
_cell_length_c 10.032418
_cell_angle_alpha 90.000000
_cell_angle_beta 90.000000
_cell_angle_gamma 90.000000
_cell_volume 1434.742035
_symmetry_space_group_name_H-M "P N A 21"
_symmetry_group_IT_number 33
_symmetry_cell_setting 'orthorhombic'
loop_
_space_group_symop_operation_xyz
x,y,z
-x,-y,1/2+z
1/2-x,1/2+y,1/2+z
1/2+x,1/2-y,z
loop_
_atom_site_type_symbol
_atom_site_label
_atom_site_fract_x
_atom_site_fract_y
_atom_site_fract_z
Si Si1 0.896348 0.121391 0.880430
Si Si2 0.755017 0.952999 0.482678
Si Si3 0.922279 0.861404 0.030923
Si Si4 0.368642 0.331248 0.599222
Si Si5 0.468032 0.873583 0.350740
Si Si6 0.292359 0.827374 0.512623
Si Si7 0.569505 0.068060 0.548943
Si Si8 0.235310 0.573932 0.174718
O O1 0.842367 0.104107 0.740918
O O2 0.816986 0.161913 0.982879
O O3 0.976102 0.235572 0.879760
O O4 0.936111 0.973532 0.917240
O O5 0.807385 0.828094 0.554321
O O6 0.724665 0.911046 0.332910
O O7 0.824358 0.080428 0.480708
O O8 0.663580 0.984037 0.568265
O O9 0.899419 0.710457 0.980464
O O10 0.843659 0.907571 0.136288
O O11 0.020405 0.836994 0.101824
O O12 0.328334 0.180596 0.594516
O O13 0.359526 0.854568 0.386653
O O14 0.477391 0.914489 0.195324
O O15 0.502388 0.993329 0.445863
O O16 0.308623 0.930091 0.634010
#
# Coordination Sequence:
#
# PCOD8171669 Si02
#       8
#     4   4   4   4   4   4   4   4
#     4  11  24  46  68 102 143 183 236 296 355 430
#     4  12  25  46  71 104 144 191 234 303 362 427
#     4  11  25  44  71 106 135 187 239 295 355 437
#     4  12  23  44  74  97 140 190 230 289 368 418
#     4  12  25  47  76 103 145 194 240 304 357 435
#     4  11  24  44  72 102 139 185 239 291 362 425
#     4  12  25  47  73 107 147 190 245 297 368 431
#     4  11  25  48  71 103 147 186 237 303 357 431
#
# _framework density 22.303661999999999
#
# number of rings (size 3 to 8) (size 9 to 14) (size 15 to 20)
#    0.000    0.500    5.000    3.000    3.500    1.000 
#    6.750    0.000    0.000    0.000    0.000    0.000 
#    0.000    0.000    0.000    0.000    0.000    0.000 
#
# Total GULP energy -396582.259071 kJ/mol
# GULP energy per Si atom -12393.195596 kJ/mol
# Density = 2.225290 g / cm^3
# Si number density = 22.303662 Si / 1000 Ang^3
#
#
#
# Elastic Constant Matrix: (Units=GPa)
#
#
# Indices 1 2 3 4 5 6 
#
# 1 106.9490 38.9516 25.2205 0.0000 0.0000 0.0000
# 2 38.9516 181.7500 66.7302 0.0000 0.0000 0.0000
# 3 25.2205 66.7302 70.8276 0.0000 0.0000 0.0000
# 4 0.0000 0.0000 0.0000 37.4802 0.0000 0.0000
# 5 0.0000 0.0000 0.0000 0.0000 31.5925 0.0000
# 6 0.0000 0.0000 0.0000 0.0000 0.0000 39.3595
#
#
#
# Elastic Compliance Matrix: (Units=1/GPa)
#
#
# Indices 1 2 3 4 5 6 
#
# 1 0.010414 -0.001331 -0.002454 0.000000 0.000000 0.000000
# 2 -0.001331 0.008582 -0.007612 0.000000 0.000000 0.000000
# 3 -0.002454 -0.007612 0.022164 0.000000 0.000000 0.000000
# 4 0.000000 0.000000 0.000000 0.026681 0.000000 0.000000
# 5 0.000000 0.000000 0.000000 0.000000 0.031653 0.000000
# 6 0.000000 0.000000 0.000000 0.000000 0.000000 0.025407
#
#
# Mechanical properties :
#
#
# Convention : Reuss Voigt Hill
#
# Bulk Modulus (GPa) = 54.44789 69.03681 61.74235
# Shear Modulus (GPa) = 32.50646 36.92808 34.71727
#
# Velocity S-wave (km/s) = 3.82180 4.07344 3.94962
# Velocity P-wave (km/s) = 6.62872 7.29001 6.96721
#
# Compressibility (1/GPa) = 0.01836618
#
# Stress axis : x y z
#
# Youngs Moduli (GPa) = 96.02749 116.52502 45.11818
#
# Poissons Ratio (x) = 0.15505 0.11074
# Poissons Ratio (y) = 0.12778 0.34342
# Poissons Ratio (z) = 0.23570 0.88694
#
# Static dielectric constant tensor:
#      x y z
#    x 4.113920 0.000000 0.000000 
#    y 0.000000 4.605750 0.000000 
#    z 0.000000 0.000000 3.788360 
# 
# 
# High freq. dielectric constant tensor:
#      x y z
#    x 1.894460 0.000000 0.000000 
#    y 0.000000 1.899110 0.000000 
#    z 0.000000 0.000000 1.847530 
# 
# From -- ./inp_files/6755.got.cif
#   From: 2010.03.12/outbox.cif.g09.slc.cpg/sg33_4_cif.got.tgz:6755.got - 2010.04.14 01:49:19.
