data_PCOD8171066
_publ_section_title
;
Structure prediction by ZEFSAII (Michael W. Deem and Ramdas Pophale) SiO2 
 PCOD8171066
Probable space group: P N A 21
;
_chemical_formula_sum "Si O2"
_cell_formula_units_Z 24
_cell_length_a 8.713176
_cell_length_b 14.340550
_cell_length_c 8.810546
_cell_angle_alpha 90.000000
_cell_angle_beta 90.000000
_cell_angle_gamma 90.000000
_cell_volume 1100.893019
_symmetry_space_group_name_H-M "P N A 21"
_symmetry_group_IT_number 33
_symmetry_cell_setting 'orthorhombic'
loop_
_space_group_symop_operation_xyz
x,y,z
-x,-y,1/2+z
1/2-x,1/2+y,1/2+z
1/2+x,1/2-y,z
loop_
_atom_site_type_symbol
_atom_site_label
_atom_site_fract_x
_atom_site_fract_y
_atom_site_fract_z
Si Si1 0.581232 0.984592 0.810690
Si Si2 0.792868 0.144710 0.859123
Si Si3 0.196627 0.538587 0.489588
Si Si4 0.094035 0.213345 0.015917
Si Si5 0.034792 0.286689 0.348000
Si Si6 0.331963 0.353376 0.510686
O O1 0.729186 0.038696 0.881545
O O2 0.591635 0.993831 0.629979
O O3 0.581614 0.875159 0.856408
O O4 0.420205 0.036332 0.848163
O O5 0.853450 0.162833 0.689758
O O6 0.646551 0.210829 0.892429
O O7 0.932288 0.165504 0.974316
O O8 0.268977 0.638640 0.519291
O O9 0.333274 0.463326 0.468467
O O10 0.084629 0.265996 0.176060
O O11 0.967181 0.192889 0.417029
O O12 0.175135 0.308908 0.455294
#
# Coordination Sequence:
#
# PCOD8171066 Si02
#       6
#     4   4   4   4   4   4
#     4  10  21  41  63  88 124 167 210 262 324 382
#     4  11  23  40  62  91 125 163 211 264 320 382
#     4  10  23  40  62  90 124 164 211 260 322 381
#     4  12  24  41  66  96 127 168 217 268 320 385
#     4  11  22  40  64  89 124 165 210 262 322 385
#     4  10  23  40  59  88 122 163 205 258 320 381
#
# _framework density 21.800484000000001
#
# number of rings (size 3 to 8) (size 9 to 14) (size 15 to 20)
#    0.000    1.333    0.000    6.000    0.000    8.000 
#    0.000    1.667    0.000    0.000    0.000    0.000 
#    0.000    0.000    0.000    0.000    0.000    0.000 
#
# Total GULP energy -297577.427179 kJ/mol
# GULP energy per Si atom -12399.059466 kJ/mol
# Density = 2.175086 g / cm^3
# Si number density = 21.800484 Si / 1000 Ang^3
#
#
#
# Elastic Constant Matrix: (Units=GPa)
#
#
# Indices 1 2 3 4 5 6 
#
# 1 43.3837 34.2453 30.4685 0.0000 0.0000 0.0000
# 2 34.2453 100.5569 27.0082 0.0000 0.0000 0.0000
# 3 30.4685 27.0082 49.0327 0.0000 0.0000 0.0000
# 4 0.0000 0.0000 0.0000 30.5063 0.0000 0.0000
# 5 0.0000 0.0000 0.0000 0.0000 25.8097 0.0000
# 6 0.0000 0.0000 0.0000 0.0000 0.0000 38.7490
#
#
#
# Elastic Compliance Matrix: (Units=1/GPa)
#
#
# Indices 1 2 3 4 5 6 
#
# 1 0.047866 -0.009756 -0.024370 0.000000 0.000000 0.000000
# 2 -0.009756 0.013660 -0.001462 0.000000 0.000000 0.000000
# 3 -0.024370 -0.001462 0.036343 0.000000 0.000000 0.000000
# 4 0.000000 0.000000 0.000000 0.032780 0.000000 0.000000
# 5 0.000000 0.000000 0.000000 0.000000 0.038745 0.000000
# 6 0.000000 0.000000 0.000000 0.000000 0.000000 0.025807
#
#
# Mechanical properties :
#
#
# Convention : Reuss Voigt Hill
#
# Bulk Modulus (GPa) = 37.46202 41.82415 39.64309
# Shear Modulus (GPa) = 18.16380 25.76310 21.96345
#
# Velocity S-wave (km/s) = 2.88962 3.44141 3.17752
# Velocity P-wave (km/s) = 5.32490 5.91758 5.62904
#
# Compressibility (1/GPa) = 0.02669370
#
# Stress axis : x y z
#
# Youngs Moduli (GPa) = 20.89181 73.20849 27.51568
#
# Poissons Ratio (x) = 0.71419 0.67055
# Poissons Ratio (y) = 0.20381 0.04023
# Poissons Ratio (z) = 0.50913 0.10703
#
# Static dielectric constant tensor:
#      x y z
#    x 3.761080 0.000000 0.000000 
#    y 0.000000 4.479540 0.000000 
#    z 0.000000 0.000000 3.886650 
# 
# 
# High freq. dielectric constant tensor:
#      x y z
#    x 1.847910 0.000000 0.000000 
#    y 0.000000 1.871580 0.000000 
#    z 0.000000 0.000000 1.856790 
# 
# From -- ./inp_files/3142.got.cif
#   From: 2010.03.12/outbox.cif.g09.slc.cpg/sg33_2_cif.got.tgz:3142.got - 2010.04.14 01:49:19.
