data_PCOD8171937
_publ_section_title
;
Structure prediction by ZEFSAII (Michael W. Deem and Ramdas Pophale) SiO2 
 PCOD8171937
Probable space group: P N N 2
;
_chemical_formula_sum "Si O2"
_cell_formula_units_Z 18
_cell_length_a 9.454982
_cell_length_b 10.959221
_cell_length_c 8.862674
_cell_angle_alpha 90.000000
_cell_angle_beta 90.000000
_cell_angle_gamma 90.000000
_cell_volume 918.343520
_symmetry_space_group_name_H-M "P N N 2"
_symmetry_group_IT_number 34
_symmetry_cell_setting 'orthorhombic'
loop_
_space_group_symop_operation_xyz
x,y,z
-x,-y,z
1/2-x,1/2+y,1/2+z
1/2+x,1/2-y,1/2+z
loop_
_atom_site_type_symbol
_atom_site_label
_atom_site_fract_x
_atom_site_fract_y
_atom_site_fract_z
Si Si1 0.099184 0.716064 0.262830
Si Si2 0.909303 0.616919 0.031581
Si Si3 0.000000 0.500000 0.465102
Si Si4 0.895347 0.690904 0.689870
Si Si5 0.086687 0.878314 0.540469
O O1 0.093264 0.591143 0.361579
O O2 0.251080 0.730939 0.181555
O O3 0.073008 0.832521 0.368827
O O4 0.978125 0.723164 0.134395
O O5 0.748913 0.597263 0.083608
O O6 0.000000 0.500000 0.075150
O O7 0.922477 0.642677 0.856415
O O8 0.107144 0.421860 0.571254
O O9 0.027250 0.777427 0.653971
O O10 0.000000 0.000000 0.560079
#
# Coordination Sequence:
#
# PCOD8171937 Si02
#       5
#     4   4   2   4   4
#     4  10  22  40  63  92 121 165 203 250 311 363
#     4  11  21  39  64  89 120 159 204 248 313 366
#     4  10  20  40  66  90 126 160 202 262 302 362
#     4  10  22  41  62  91 124 160 207 250 309 365
#     4  10  23  40  60  91 125 159 202 253 305 366
#
# _framework density 19.60051
#
# number of rings (size 3 to 8) (size 9 to 14) (size 15 to 20)
#    0.000    1.778    2.222    1.333    0.000    5.333 
#   12.000    0.000    0.000    0.000    0.000    0.000 
#    0.000    0.000    0.000    0.000    0.000    0.000 
#
# Total GULP energy -223190.257276 kJ/mol
# GULP energy per Si atom -12399.458738 kJ/mol
# Density = 1.955590 g / cm^3
# Si number density = 19.600510 Si / 1000 Ang^3
#
#
#
# Elastic Constant Matrix: (Units=GPa)
#
#
# Indices 1 2 3 4 5 6 
#
# 1 160.7957 48.5123 54.1373 0.0000 0.0000 0.0000
# 2 48.5123 81.6094 24.1194 0.0000 0.0000 0.0000
# 3 54.1373 24.1194 89.6470 0.0000 0.0000 0.0000
# 4 0.0000 0.0000 0.0000 17.9060 0.0000 0.0000
# 5 0.0000 0.0000 0.0000 0.0000 33.1458 0.0000
# 6 0.0000 0.0000 0.0000 0.0000 0.0000 35.6866
#
#
#
# Elastic Compliance Matrix: (Units=1/GPa)
#
#
# Indices 1 2 3 4 5 6 
#
# 1 0.008868 -0.004008 -0.004277 0.000000 0.000000 0.000000
# 2 -0.004008 0.015123 -0.001649 0.000000 0.000000 0.000000
# 3 -0.004277 -0.001649 0.014181 0.000000 0.000000 0.000000
# 4 0.000000 0.000000 0.000000 0.055847 0.000000 0.000000
# 5 0.000000 0.000000 0.000000 0.000000 0.030170 0.000000
# 6 0.000000 0.000000 0.000000 0.000000 0.000000 0.028022
#
#
# Mechanical properties :
#
#
# Convention : Reuss Voigt Hill
#
# Bulk Modulus (GPa) = 54.62770 65.06556 59.84663
# Shear Modulus (GPa) = 28.06145 31.03321 29.54733
#
# Velocity S-wave (km/s) = 3.78785 3.98337 3.88684
# Velocity P-wave (km/s) = 6.86013 7.37728 7.12340
#
# Compressibility (1/GPa) = 0.01830573
#
# Stress axis : x y z
#
# Youngs Moduli (GPa) = 112.76194 66.12431 70.51465
#
# Poissons Ratio (x) = 0.26500 0.30161
# Poissons Ratio (y) = 0.45190 0.11626
# Poissons Ratio (z) = 0.48231 0.10902
#
# Static dielectric constant tensor:
#      x y z
#    x 3.719430 0.000000 0.000000 
#    y 0.000000 3.631820 0.000000 
#    z 0.000000 0.000000 3.668890 
# 
# 
# High freq. dielectric constant tensor:
#      x y z
#    x 1.761480 0.000000 0.000000 
#    y 0.000000 1.763050 0.000000 
#    z 0.000000 0.000000 1.776380 
# 
# From -- ./inp_files/2365.got.cif
#   From: 2010.03.12/outbox.cif.g09.slc.cpg/sg34_2_cif.got.tgz:2365.got - 2010.04.14 01:56:33.
