data_PCOD8171502
_publ_section_title
;
Structure prediction by ZEFSAII (Michael W. Deem and Ramdas Pophale) SiO2 
 PCOD8171502
Probable space group: P N A 21
;
_chemical_formula_sum "Si O2"
_cell_formula_units_Z 28
_cell_length_a 9.139160
_cell_length_b 5.803770
_cell_length_c 21.364747
_cell_angle_alpha 90.000000
_cell_angle_beta 90.000000
_cell_angle_gamma 90.000000
_cell_volume 1133.219993
_symmetry_space_group_name_H-M "P N A 21"
_symmetry_group_IT_number 33
_symmetry_cell_setting 'orthorhombic'
loop_
_space_group_symop_operation_xyz
x,y,z
-x,-y,1/2+z
1/2-x,1/2+y,1/2+z
1/2+x,1/2-y,z
loop_
_atom_site_type_symbol
_atom_site_label
_atom_site_fract_x
_atom_site_fract_y
_atom_site_fract_z
Si Si1 0.872806 0.068245 0.892480
Si Si2 0.316024 0.006541 0.655217
Si Si3 0.537867 0.661823 0.606316
Si Si4 0.373440 0.048704 0.794451
Si Si5 0.378654 0.049424 0.998663
Si Si6 0.388044 0.283359 0.533049
Si Si7 0.377855 0.250584 0.354406
O O1 0.881538 0.202624 0.826822
O O2 0.724632 0.918402 0.895355
O O3 0.868454 0.257189 0.946505
O O4 0.017209 0.906457 0.899413
O O5 0.368975 0.107766 0.720936
O O6 0.339367 0.189425 0.600539
O O7 0.400909 0.768594 0.642017
O O8 0.142596 0.954652 0.657627
O O9 0.633280 0.853425 0.569154
O O10 0.494165 0.494480 0.549170
O O11 0.517143 0.898574 0.809469
O O12 0.226424 0.913096 0.813156
O O13 0.531029 0.911230 0.991714
O O14 0.246916 0.867872 0.990544
#
# Coordination Sequence:
#
# PCOD8171502 Si02
#       7
#     4   4   4   4   4   4   4
#     4  11  26  50  75 106 149 194 255 312 381 451
#     4  11  24  43  73 106 150 193 248 304 370 446
#     4  11  23  45  67 105 146 198 246 301 366 439
#     4  11  24  45  74 111 148 194 248 312 373 446
#     4  11  26  48  73 106 148 196 252 308 369 456
#     4  11  24  46  72 108 146 196 245 303 379 429
#     4  10  25  49  70 112 141 199 248 304 390 437
#
# _framework density 24.708355000000001
#
# number of rings (size 3 to 8) (size 9 to 14) (size 15 to 20)
#    0.000    1.143    2.857    1.714    0.000   10.286 
#    2.571    2.857    0.000    0.000    0.000    0.000 
#    0.000    0.000    0.000    0.000    0.000    0.000 
#
# Total GULP energy -347294.094950 kJ/mol
# GULP energy per Si atom -12403.360534 kJ/mol
# Density = 2.465212 g / cm^3
# Si number density = 24.708355 Si / 1000 Ang^3
#
#
#
# Elastic Constant Matrix: (Units=GPa)
#
#
# Indices 1 2 3 4 5 6 
#
# 1 158.3870 60.9589 54.3812 0.0000 0.0000 0.0000
# 2 60.9589 128.3851 57.7505 0.0000 0.0000 0.0000
# 3 54.3812 57.7505 110.7139 0.0000 0.0000 0.0000
# 4 0.0000 0.0000 0.0000 31.2442 0.0000 0.0000
# 5 0.0000 0.0000 0.0000 0.0000 25.0786 0.0000
# 6 0.0000 0.0000 0.0000 0.0000 0.0000 48.3068
#
#
#
# Elastic Compliance Matrix: (Units=1/GPa)
#
#
# Indices 1 2 3 4 5 6 
#
# 1 0.008274 -0.002744 -0.002632 0.000000 0.000000 0.000000
# 2 -0.002744 0.011087 -0.004435 0.000000 0.000000 0.000000
# 3 -0.002632 -0.004435 0.012639 0.000000 0.000000 0.000000
# 4 0.000000 0.000000 0.000000 0.032006 0.000000 0.000000
# 5 0.000000 0.000000 0.000000 0.000000 0.039875 0.000000
# 6 0.000000 0.000000 0.000000 0.000000 0.000000 0.020701
#
#
# Mechanical properties :
#
#
# Convention : Reuss Voigt Hill
#
# Bulk Modulus (GPa) = 80.80421 82.62967 81.71694
# Shear Modulus (GPa) = 33.70845 35.88561 34.79703
#
# Velocity S-wave (km/s) = 3.69759 3.81513 3.75682
# Velocity P-wave (km/s) = 7.14169 7.27472 7.20851
#
# Compressibility (1/GPa) = 0.01237559
#
# Stress axis : x y z
#
# Youngs Moduli (GPa) = 120.86491 90.19394 79.12109
#
# Poissons Ratio (x) = 0.24752 0.20828
# Poissons Ratio (y) = 0.33169 0.35093
# Poissons Ratio (z) = 0.31817 0.40004
#
# Static dielectric constant tensor:
#      x y z
#    x 4.630780 0.000000 0.000000 
#    y 0.000000 4.714570 0.000000 
#    z 0.000000 0.000000 4.149640 
# 
# 
# High freq. dielectric constant tensor:
#      x y z
#    x 1.999240 0.000000 0.000000 
#    y 0.000000 1.995020 0.000000 
#    z 0.000000 0.000000 1.974680 
# 
# From -- ./inp_files/9251.got.cif
#   From: 2010.03.12/outbox.cif.g09.slc.cpg/sg33_5_cif.got.tgz:9251.got - 2010.04.14 01:49:19.
