data_PCOD8171423
_publ_section_title
;
Structure prediction by ZEFSAII (Michael W. Deem and Ramdas Pophale) SiO2 
 PCOD8171423
Probable space group: P N A 21
;
_chemical_formula_sum "Si O2"
_cell_formula_units_Z 20
_cell_length_a 18.813595
_cell_length_b 5.181650
_cell_length_c 8.778334
_cell_angle_alpha 90.000000
_cell_angle_beta 90.000000
_cell_angle_gamma 90.000000
_cell_volume 855.759968
_symmetry_space_group_name_H-M "P N A 21"
_symmetry_group_IT_number 33
_symmetry_cell_setting 'orthorhombic'
loop_
_space_group_symop_operation_xyz
x,y,z
-x,-y,1/2+z
1/2-x,1/2+y,1/2+z
1/2+x,1/2-y,z
loop_
_atom_site_type_symbol
_atom_site_label
_atom_site_fract_x
_atom_site_fract_y
_atom_site_fract_z
Si Si1 0.704539 0.710280 0.284260
Si Si2 0.071594 0.952637 0.730193
Si Si3 0.551544 0.683343 0.391871
Si Si4 0.212128 0.315308 0.095684
Si Si5 0.088734 0.441169 0.893506
O O1 0.620746 0.772533 0.301418
O O2 0.738105 0.672972 0.448961
O O3 0.891427 0.290906 0.312374
O O4 0.740321 0.961571 0.208327
O O5 0.284432 0.540570 0.678851
O O6 0.989660 0.972041 0.788281
O O7 0.075823 0.940379 0.550001
O O8 0.113686 0.211234 0.779511
O O9 0.496477 0.920393 0.426271
O O10 0.131912 0.398875 0.049100
#
# Coordination Sequence:
#
# PCOD8171423 Si02
#       5
#     4   4   4   4   4
#     4  12  29  47  78  99 151 188 247 290 363 427
#     4  10  24  39  70 100 138 179 226 293 347 424
#     4  10  26  41  73 101 142 179 242 281 372 403
#     4  12  28  51  72 108 142 194 241 298 356 429
#     4  10  25  40  73  96 145 168 240 290 354 407
#
# _framework density 23.371037999999999
#
# number of rings (size 3 to 8) (size 9 to 14) (size 15 to 20)
#    1.200    0.000    0.000    3.600   16.800    0.000 
#    0.000    0.000    0.000    0.000    0.000    0.000 
#    0.000    0.000    0.000    0.000    0.000    0.000 
#
# Total GULP energy -247921.296044 kJ/mol
# GULP energy per Si atom -12396.064802 kJ/mol
# Density = 2.331784 g / cm^3
# Si number density = 23.371038 Si / 1000 Ang^3
#
#
#
# Elastic Constant Matrix: (Units=GPa)
#
#
# Indices 1 2 3 4 5 6 
#
# 1 74.5293 14.5053 11.6952 0.0000 0.0000 0.0000
# 2 14.5053 125.8304 23.3922 0.0000 0.0000 0.0000
# 3 11.6952 23.3922 95.1077 0.0000 0.0000 0.0000
# 4 0.0000 0.0000 0.0000 41.6468 0.0000 0.0000
# 5 0.0000 0.0000 0.0000 0.0000 38.7172 0.0000
# 6 0.0000 0.0000 0.0000 0.0000 0.0000 20.8253
#
#
#
# Elastic Compliance Matrix: (Units=1/GPa)
#
#
# Indices 1 2 3 4 5 6 
#
# 1 0.013896 -0.001346 -0.001378 0.000000 0.000000 0.000000
# 2 -0.001346 0.008458 -0.001915 0.000000 0.000000 0.000000
# 3 -0.001378 -0.001915 0.011155 0.000000 0.000000 0.000000
# 4 0.000000 0.000000 0.000000 0.024011 0.000000 0.000000
# 5 0.000000 0.000000 0.000000 0.000000 0.025828 0.000000
# 6 0.000000 0.000000 0.000000 0.000000 0.000000 0.048019
#
#
# Mechanical properties :
#
#
# Convention : Reuss Voigt Hill
#
# Bulk Modulus (GPa) = 41.26759 43.85029 42.55894
# Shear Modulus (GPa) = 33.61997 36.62950 35.12474
#
# Velocity S-wave (km/s) = 3.79691 3.96321 3.88095
# Velocity P-wave (km/s) = 6.07602 6.30445 6.19129
#
# Compressibility (1/GPa) = 0.02423209
#
# Stress axis : x y z
#
# Youngs Moduli (GPa) = 71.96494 118.22683 89.64767
#
# Poissons Ratio (x) = 0.15910 0.12351
# Poissons Ratio (y) = 0.09684 0.17166
# Poissons Ratio (z) = 0.09915 0.22639
#
# Static dielectric constant tensor:
#      x y z
#    x 4.241740 0.000000 0.000000 
#    y 0.000000 4.051340 0.000000 
#    z 0.000000 0.000000 4.076040 
# 
# 
# High freq. dielectric constant tensor:
#      x y z
#    x 1.923300 0.000000 0.000000 
#    y 0.000000 1.921590 0.000000 
#    z 0.000000 0.000000 1.931030 
# 
# From -- ./inp_files/4201.got.cif
#   From: 2010.03.12/outbox.cif.g09.slc.cpg/sg33_3_cif.got.tgz:4201.got - 2010.04.14 01:49:19.
