data_PCOD8171327
_publ_section_title
;
Structure prediction by ZEFSAII (Michael W. Deem and Ramdas Pophale) SiO2 
 PCOD8171327
Probable space group: P N A 21
;
_chemical_formula_sum "Si O2"
_cell_formula_units_Z 16
_cell_length_a 9.390305
_cell_length_b 11.192385
_cell_length_c 7.234209
_cell_angle_alpha 90.000000
_cell_angle_beta 90.000000
_cell_angle_gamma 90.000000
_cell_volume 760.314706
_symmetry_space_group_name_H-M "P N A 21"
_symmetry_group_IT_number 33
_symmetry_cell_setting 'orthorhombic'
loop_
_space_group_symop_operation_xyz
x,y,z
-x,-y,1/2+z
1/2-x,1/2+y,1/2+z
1/2+x,1/2-y,z
loop_
_atom_site_type_symbol
_atom_site_label
_atom_site_fract_x
_atom_site_fract_y
_atom_site_fract_z
Si Si1 0.607066 0.344466 0.975040
Si Si2 0.334010 0.978938 0.997312
Si Si3 0.137008 0.972638 0.682784
Si Si4 0.367867 0.927086 0.401138
O O1 0.576082 0.402065 0.769441
O O2 0.603683 0.203051 0.983298
O O3 0.765027 0.389336 0.034438
O O4 0.492962 0.389140 0.125775
O O5 0.330818 0.906238 0.187064
O O6 0.234402 0.911323 0.845244
O O7 0.492597 0.991134 0.917875
O O8 0.239210 0.994121 0.506193
#
# Coordination Sequence:
#
# PCOD8171327 Si02
#       4
#     4   4   4   4
#     4  10  23  43  65  94 132 169 209 269 317 380
#     4  10  23  41  66  94 128 169 215 267 308 393
#     4  10  23  44  63  94 130 165 215 266 310 392
#     4  12  21  46  64  94 132 167 215 264 325 369
#
# _framework density 21.043917
#
# number of rings (size 3 to 8) (size 9 to 14) (size 15 to 20)
#    1.500    0.000    2.500    3.000    0.000    0.000 
#   13.500    0.000    0.000    0.000    0.000    0.000 
#    0.000    0.000    0.000    0.000    0.000    0.000 
#
# Total GULP energy -198221.517348 kJ/mol
# GULP energy per Si atom -12388.844834 kJ/mol
# Density = 2.099602 g / cm^3
# Si number density = 21.043917 Si / 1000 Ang^3
#
#
#
# Elastic Constant Matrix: (Units=GPa)
#
#
# Indices 1 2 3 4 5 6 
#
# 1 75.5804 -4.7303 31.3489 0.0000 0.0000 0.0000
# 2 -4.7303 52.9211 10.3570 0.0000 0.0000 0.0000
# 3 31.3489 10.3570 117.8872 0.0000 0.0000 0.0000
# 4 0.0000 0.0000 0.0000 29.8151 0.0000 0.0000
# 5 0.0000 0.0000 0.0000 0.0000 52.1386 0.0000
# 6 0.0000 0.0000 0.0000 0.0000 0.0000 15.2358
#
#
#
# Elastic Compliance Matrix: (Units=1/GPa)
#
#
# Indices 1 2 3 4 5 6 
#
# 1 0.015113 0.002175 -0.004210 0.000000 0.000000 0.000000
# 2 0.002175 0.019540 -0.002295 0.000000 0.000000 0.000000
# 3 -0.004210 -0.002295 0.009804 0.000000 0.000000 0.000000
# 4 0.000000 0.000000 0.000000 0.033540 0.000000 0.000000
# 5 0.000000 0.000000 0.000000 0.000000 0.019180 0.000000
# 6 0.000000 0.000000 0.000000 0.000000 0.000000 0.065635
#
#
# Mechanical properties :
#
#
# Convention : Reuss Voigt Hill
#
# Bulk Modulus (GPa) = 27.93584 35.59332 31.76458
# Shear Modulus (GPa) = 27.26223 33.39877 30.33050
#
# Velocity S-wave (km/s) = 3.60320 3.98816 3.80056
# Velocity P-wave (km/s) = 5.53304 6.17720 5.86397
#
# Compressibility (1/GPa) = 0.03579631
#
# Stress axis : x y z
#
# Youngs Moduli (GPa) = 66.16697 51.17816 102.00067
#
# Poissons Ratio (x) = -0.11130 0.42943
# Poissons Ratio (y) = -0.14390 0.23409
# Poissons Ratio (z) = 0.27857 0.11745
#
# Static dielectric constant tensor:
#      x y z
#    x 3.931530 0.000000 0.000000 
#    y 0.000000 3.179670 0.000000 
#    z 0.000000 0.000000 3.847170 
# 
# 
# High freq. dielectric constant tensor:
#      x y z
#    x 1.842270 0.000000 0.000000 
#    y 0.000000 1.770600 0.000000 
#    z 0.000000 0.000000 1.832640 
# 
# From -- ./inp_files/282.got.cif
#   From: 2010.03.12/outbox.cif.g09.slc.cpg/sg33_1_cif.got.tgz:282.got - 2010.04.14 01:49:19.
