data_PCOD8171295
_publ_section_title
;
Structure prediction by ZEFSAII (Michael W. Deem and Ramdas Pophale) SiO2 
 PCOD8171295
Probable space group: P N A 21
;
_chemical_formula_sum "Si O2"
_cell_formula_units_Z 16
_cell_length_a 10.615016
_cell_length_b 9.844319
_cell_length_c 7.133429
_cell_angle_alpha 90.000000
_cell_angle_beta 90.000000
_cell_angle_gamma 90.000000
_cell_volume 745.426237
_symmetry_space_group_name_H-M "P N A 21"
_symmetry_group_IT_number 33
_symmetry_cell_setting 'orthorhombic'
loop_
_space_group_symop_operation_xyz
x,y,z
-x,-y,1/2+z
1/2-x,1/2+y,1/2+z
1/2+x,1/2-y,z
loop_
_atom_site_type_symbol
_atom_site_label
_atom_site_fract_x
_atom_site_fract_y
_atom_site_fract_z
Si Si1 0.308749 0.497863 0.723770
Si Si2 0.501656 0.651102 0.486584
Si Si3 0.924340 0.348678 0.306006
Si Si4 0.062649 0.365555 0.677420
O O1 0.390545 0.550915 0.550246
O O2 0.390454 0.437054 0.890956
O O3 0.225684 0.619619 0.817584
O O4 0.212493 0.385258 0.636610
O O5 0.558072 0.723018 0.668507
O O6 0.446585 0.761586 0.346935
O O7 0.995405 0.486742 0.235111
O O8 0.984495 0.305269 0.503978
#
# Coordination Sequence:
#
# PCOD8171295 Si02
#       4
#     4   4   4   4
#     4  10  26  46  68 106 144 184 228 292 344 420
#     4  12  24  48  68 106 142 182 236 282 354 412
#     4  10  22  45  72  99 137 185 228 287 343 406
#     4  10  22  45  72  99 137 185 228 287 343 406
#
# _framework density 21.464227999999999
#
# number of rings (size 3 to 8) (size 9 to 14) (size 15 to 20)
#    1.500    0.000    2.500    1.500    3.500    2.000 
#   13.500    0.000    0.000    0.000    0.000    0.000 
#    0.000    0.000    0.000    0.000    0.000    0.000 
#
# Total GULP energy -198345.538822 kJ/mol
# GULP energy per Si atom -12396.596176 kJ/mol
# Density = 2.141537 g / cm^3
# Si number density = 21.464228 Si / 1000 Ang^3
#
#
#
# Elastic Constant Matrix: (Units=GPa)
#
#
# Indices 1 2 3 4 5 6 
#
# 1 114.1276 12.2210 24.8878 0.0000 0.0000 0.0000
# 2 12.2210 44.3163 16.9334 0.0000 0.0000 0.0000
# 3 24.8878 16.9334 92.5887 0.0000 0.0000 0.0000
# 4 0.0000 0.0000 0.0000 46.1922 0.0000 0.0000
# 5 0.0000 0.0000 0.0000 0.0000 44.3402 0.0000
# 6 0.0000 0.0000 0.0000 0.0000 0.0000 93.2415
#
#
#
# Elastic Compliance Matrix: (Units=1/GPa)
#
#
# Indices 1 2 3 4 5 6 
#
# 1 0.009433 -0.001755 -0.002215 0.000000 0.000000 0.000000
# 2 -0.001755 0.024587 -0.004025 0.000000 0.000000 0.000000
# 3 -0.002215 -0.004025 0.012132 0.000000 0.000000 0.000000
# 4 0.000000 0.000000 0.000000 0.021649 0.000000 0.000000
# 5 0.000000 0.000000 0.000000 0.000000 0.022553 0.000000
# 6 0.000000 0.000000 0.000000 0.000000 0.000000 0.010725
#
#
# Mechanical properties :
#
#
# Convention : Reuss Voigt Hill
#
# Bulk Modulus (GPa) = 33.15364 39.90190 36.52777
# Shear Modulus (GPa) = 39.33239 49.88746 44.60993
#
# Velocity S-wave (km/s) = 4.28537 4.82624 4.56383
# Velocity P-wave (km/s) = 6.32182 7.04891 6.69524
#
# Compressibility (1/GPa) = 0.03016260
#
# Stress axis : x y z
#
# Youngs Moduli (GPa) = 106.01082 40.67189 82.42769
#
# Poissons Ratio (x) = 0.07138 0.18254
# Poissons Ratio (y) = 0.18606 0.33176
# Poissons Ratio (z) = 0.23477 0.16370
#
# Static dielectric constant tensor:
#      x y z
#    x 3.783740 0.000000 0.000000 
#    y 0.000000 3.817700 0.000000 
#    z 0.000000 0.000000 3.763950 
# 
# 
# High freq. dielectric constant tensor:
#      x y z
#    x 1.837900 0.000000 0.000000 
#    y 0.000000 1.843760 0.000000 
#    z 0.000000 0.000000 1.839070 
# 
# From -- ./inp_files/662.got.cif
#   From: 2010.03.12/outbox.cif.g09.slc.cpg/sg33_1_cif.got.tgz:662.got - 2010.04.14 01:49:19.
