data_PCOD8171183
_publ_section_title
;
Structure prediction by ZEFSAII (Michael W. Deem and Ramdas Pophale) SiO2 
 PCOD8171183
Probable space group: P N A 21
;
_chemical_formula_sum "Si O2"
_cell_formula_units_Z 28
_cell_length_a 19.053454
_cell_length_b 6.198162
_cell_length_c 11.229963
_cell_angle_alpha 90.000000
_cell_angle_beta 90.000000
_cell_angle_gamma 90.000000
_cell_volume 1326.218141
_symmetry_space_group_name_H-M "P N A 21"
_symmetry_group_IT_number 33
_symmetry_cell_setting 'orthorhombic'
loop_
_space_group_symop_operation_xyz
x,y,z
-x,-y,1/2+z
1/2-x,1/2+y,1/2+z
1/2+x,1/2-y,z
loop_
_atom_site_type_symbol
_atom_site_label
_atom_site_fract_x
_atom_site_fract_y
_atom_site_fract_z
Si Si1 0.371255 0.500002 0.178550
Si Si2 0.669961 0.854919 0.851076
Si Si3 0.921607 0.265085 0.972698
Si Si4 0.819323 0.995095 0.817543
Si Si5 0.421608 0.765086 0.384402
Si Si6 0.669962 0.145079 0.506024
Si Si7 0.819324 0.004903 0.539557
O O1 0.323129 0.318470 0.242870
O O2 0.422852 0.600298 0.275400
O O3 0.323128 0.681533 0.114231
O O4 0.422852 0.399704 0.081700
O O5 0.735827 0.020379 0.842282
O O6 0.600410 0.998466 0.838299
O O7 0.663320 0.735906 0.978650
O O8 0.865256 0.186948 0.874181
O O9 1.000000 0.278252 0.928550
O O10 0.899589 0.501531 0.018802
O O11 0.837229 0.999998 0.678550
O O12 0.836681 0.764094 0.878451
O O13 0.365257 0.686949 0.482919
O O14 0.735827 0.979621 0.514816
#
# Coordination Sequence:
#
# PCOD8171183 Si02
#       7
#     4   4   4   4   4   4   4
#     4  10  22  42  64  88 126 166 208 266 312 380
#     4  10  22  42  66  93 125 168 211 262 320 365
#     4  11  24  40  63  92 129 167 208 258 322 382
#     4  10  22  40  66  95 127 159 216 266 306 374
#     4  11  24  40  63  92 129 167 208 258 322 382
#     4  10  22  42  66  93 125 168 211 262 320 365
#     4  10  22  40  66  95 127 159 216 266 306 374
#
# _framework density 21.112663999999999
#
# number of rings (size 3 to 8) (size 9 to 14) (size 15 to 20)
#    0.000    1.714    0.000    3.429    2.000   10.286 
#    5.143    0.000    0.000    0.000    0.000    0.000 
#    0.000    0.000    0.000    0.000    0.000    0.000 
#
# Total GULP energy -347111.634542 kJ/mol
# GULP energy per Si atom -12396.844091 kJ/mol
# Density = 2.106461 g / cm^3
# Si number density = 21.112664 Si / 1000 Ang^3
#
#
#
# Elastic Constant Matrix: (Units=GPa)
#
#
# Indices 1 2 3 4 5 6 
#
# 1 151.3516 64.4259 46.2388 0.0000 0.0000 0.0000
# 2 64.4259 91.4605 51.6920 0.0000 0.0000 0.0000
# 3 46.2388 51.6920 154.4830 0.0000 0.0000 0.0000
# 4 0.0000 0.0000 0.0000 22.5104 0.0000 0.0000
# 5 0.0000 0.0000 0.0000 0.0000 21.5582 0.0000
# 6 0.0000 0.0000 0.0000 0.0000 0.0000 25.9143
#
#
#
# Elastic Compliance Matrix: (Units=1/GPa)
#
#
# Indices 1 2 3 4 5 6 
#
# 1 0.009506 -0.006275 -0.000746 0.000000 0.000000 0.000000
# 2 -0.006275 0.017625 -0.004020 0.000000 0.000000 0.000000
# 3 -0.000746 -0.004020 0.008041 0.000000 0.000000 0.000000
# 4 0.000000 0.000000 0.000000 0.044424 0.000000 0.000000
# 5 0.000000 0.000000 0.000000 0.000000 0.046386 0.000000
# 6 0.000000 0.000000 0.000000 0.000000 0.000000 0.038589
#
#
# Mechanical properties :
#
#
# Convention : Reuss Voigt Hill
#
# Bulk Modulus (GPa) = 76.37725 80.22315 78.30020
# Shear Modulus (GPa) = 26.17589 29.65914 27.91752
#
# Velocity S-wave (km/s) = 3.52493 3.75214 3.64030
# Velocity P-wave (km/s) = 7.26783 7.53999 7.40516
#
# Compressibility (1/GPa) = 0.01309290
#
# Stress axis : x y z
#
# Youngs Moduli (GPa) = 105.19846 56.73631 124.35631
#
# Poissons Ratio (x) = 0.35600 0.09273
# Poissons Ratio (y) = 0.66008 0.49986
# Poissons Ratio (z) = 0.07844 0.22806
#
# Static dielectric constant tensor:
#      x y z
#    x 3.532110 0.000000 0.000000 
#    y 0.000000 3.919870 0.000000 
#    z 0.000000 0.000000 3.979380 
# 
# 
# High freq. dielectric constant tensor:
#      x y z
#    x 1.805430 0.000000 0.000000 
#    y 0.000000 1.831260 0.000000 
#    z 0.000000 0.000000 1.839700 
# 
# From -- ./inp_files/6965.got.cif
#   From: 2010.03.12/outbox.cif.g09.slc.cpg/sg33_4_cif.got.tgz:6965.got - 2010.04.14 01:49:19.
