data_PCOD8171485
_publ_section_title
;
Structure prediction by ZEFSAII (Michael W. Deem and Ramdas Pophale) SiO2 
 PCOD8171485
Probable space group: P N A 21
;
_chemical_formula_sum "Si O2"
_cell_formula_units_Z 32
_cell_length_a 12.390472
_cell_length_b 7.516679
_cell_length_c 13.863757
_cell_angle_alpha 90.000000
_cell_angle_beta 90.000000
_cell_angle_gamma 90.000000
_cell_volume 1291.203790
_symmetry_space_group_name_H-M "P N A 21"
_symmetry_group_IT_number 33
_symmetry_cell_setting 'orthorhombic'
loop_
_space_group_symop_operation_xyz
x,y,z
-x,-y,1/2+z
1/2-x,1/2+y,1/2+z
1/2+x,1/2-y,z
loop_
_atom_site_type_symbol
_atom_site_label
_atom_site_fract_x
_atom_site_fract_y
_atom_site_fract_z
Si Si1 0.985842 0.112962 0.879040
Si Si2 0.825933 0.772982 0.501951
Si Si3 0.668006 0.073160 0.432787
Si Si4 0.867450 0.965288 0.208898
Si Si5 0.729377 0.435760 0.405711
Si Si6 0.551418 0.132774 0.609403
Si Si7 0.786761 0.350161 0.187627
Si Si8 0.630526 0.907174 0.249608
O O1 0.075892 0.023265 0.812440
O O2 0.922219 0.259436 0.817558
O O3 0.050960 0.188484 0.971393
O O4 0.897919 0.976284 0.918201
O O5 0.801964 0.572986 0.465210
O O6 0.816183 0.805710 0.617649
O O7 0.734265 0.893403 0.451137
O O8 0.745064 0.242513 0.455433
O O9 0.557210 0.093771 0.494987
O O10 0.634700 0.081767 0.319014
O O11 0.935202 0.843069 0.134415
O O12 0.752079 0.865068 0.217757
O O13 0.857835 0.170488 0.177918
O O14 0.755395 0.415490 0.293210
O O15 0.439759 0.059612 0.653665
O O16 0.650531 0.020121 0.649897
#
# Coordination Sequence:
#
# PCOD8171485 Si02
#       8
#     4   4   4   4   4   4   4   4
#     4  11  22  41  69  93 136 179 219 281 349 405
#     4  11  24  48  66 101 137 179 227 289 342 417
#     4  11  23  46  64  99 136 170 233 281 332 418
#     4  11  22  44  63  98 130 178 226 281 336 414
#     4  12  23  44  71  98 136 186 224 288 352 408
#     4  10  25  42  67  98 132 178 221 283 344 403
#     4  11  24  42  73  96 133 177 231 281 347 419
#     4  11  21  43  67  91 138 171 219 280 338 408
#
# _framework density 24.783073999999999
#
# number of rings (size 3 to 8) (size 9 to 14) (size 15 to 20)
#    0.000    1.000    3.750    3.000    1.750    1.000 
#   13.500    0.000    0.000    0.000    0.000    0.000 
#    0.000    0.000    0.000    0.000    0.000    0.000 
#
# Total GULP energy -396558.984182 kJ/mol
# GULP energy per Si atom -12392.468256 kJ/mol
# Density = 2.472667 g / cm^3
# Si number density = 24.783074 Si / 1000 Ang^3
#
#
#
# Elastic Constant Matrix: (Units=GPa)
#
#
# Indices 1 2 3 4 5 6 
#
# 1 48.0463 -6.4861 -3.7594 0.0000 0.0000 0.0000
# 2 -6.4861 108.5044 -7.8615 0.0000 0.0000 0.0000
# 3 -3.7594 -7.8615 54.6787 0.0000 0.0000 0.0000
# 4 0.0000 0.0000 0.0000 25.4751 0.0000 0.0000
# 5 0.0000 0.0000 0.0000 0.0000 25.0725 0.0000
# 6 0.0000 0.0000 0.0000 0.0000 0.0000 19.6437
#
#
#
# Elastic Compliance Matrix: (Units=1/GPa)
#
#
# Indices 1 2 3 4 5 6 
#
# 1 0.021129 0.001383 0.001652 0.000000 0.000000 0.000000
# 2 0.001383 0.009404 0.001447 0.000000 0.000000 0.000000
# 3 0.001652 0.001447 0.018610 0.000000 0.000000 0.000000
# 4 0.000000 0.000000 0.000000 0.039254 0.000000 0.000000
# 5 0.000000 0.000000 0.000000 0.000000 0.039884 0.000000
# 6 0.000000 0.000000 0.000000 0.000000 0.000000 0.050907
#
#
# Mechanical properties :
#
#
# Convention : Reuss Voigt Hill
#
# Bulk Modulus (GPa) = 17.21001 19.44617 18.32809
# Shear Modulus (GPa) = 26.37209 29.32735 27.84972
#
# Velocity S-wave (km/s) = 3.26562 3.44373 3.35586
# Velocity P-wave (km/s) = 4.60200 4.86580 4.73573
#
# Compressibility (1/GPa) = 0.05810573
#
# Stress axis : x y z
#
# Youngs Moduli (GPa) = 47.32798 106.34093 53.73382
#
# Poissons Ratio (x) = -0.14704 -0.08874
# Poissons Ratio (y) = -0.06544 -0.07776
# Poissons Ratio (z) = -0.07816 -0.15389
#
# Static dielectric constant tensor:
#      x y z
#    x 4.337660 0.000000 0.000000 
#    y 0.000000 4.633110 0.000000 
#    z 0.000000 0.000000 4.829550 
# 
# 
# High freq. dielectric constant tensor:
#      x y z
#    x 1.968480 0.000000 0.000000 
#    y 0.000000 1.995740 0.000000 
#    z 0.000000 0.000000 1.994410 
# 
# From -- ./inp_files/7975.got.cif
#   From: 2010.03.12/outbox.cif.g09.slc.cpg/sg33_4_cif.got.tgz:7975.got - 2010.04.14 01:49:19.
