data_PCOD8171105
_publ_section_title
;
Structure prediction by ZEFSAII (Michael W. Deem and Ramdas Pophale) SiO2 
 PCOD8171105
Probable space group: P N A 21
;
_chemical_formula_sum "Si O2"
_cell_formula_units_Z 32
_cell_length_a 14.171867
_cell_length_b 11.098209
_cell_length_c 9.112725
_cell_angle_alpha 90.000000
_cell_angle_beta 90.000000
_cell_angle_gamma 90.000000
_cell_volume 1433.270729
_symmetry_space_group_name_H-M "P N A 21"
_symmetry_group_IT_number 33
_symmetry_cell_setting 'orthorhombic'
loop_
_space_group_symop_operation_xyz
x,y,z
-x,-y,1/2+z
1/2-x,1/2+y,1/2+z
1/2+x,1/2-y,z
loop_
_atom_site_type_symbol
_atom_site_label
_atom_site_fract_x
_atom_site_fract_y
_atom_site_fract_z
Si Si1 0.631855 0.352254 0.775300
Si Si2 0.605328 0.706723 0.656283
Si Si3 0.801672 0.757970 0.565441
Si Si4 0.973569 0.591370 0.561451
Si Si5 0.926557 0.599661 0.234064
Si Si6 0.712416 0.517078 0.198616
Si Si7 0.383232 0.517530 0.003309
Si Si8 0.421889 0.412479 0.443717
O O1 0.561062 0.244576 0.724130
O O2 0.679558 0.413274 0.630108
O O3 0.580003 0.456552 0.865817
O O4 0.702660 0.286977 0.890208
O O5 0.711201 0.680110 0.601886
O O6 0.568793 0.833083 0.594214
O O7 0.555927 0.592845 0.577318
O O8 0.605809 0.695894 0.832909
O O9 0.797173 0.877480 0.661542
O O10 0.889633 0.676959 0.620198
O O11 0.991556 0.462820 0.637632
O O12 0.951408 0.555917 0.396418
O O13 0.820164 0.562035 0.186161
O O14 0.677996 0.527225 0.366471
O O15 0.646114 0.593420 0.086680
O O16 0.467604 0.611537 0.972054
#
# Coordination Sequence:
#
# PCOD8171105 Si02
#       8
#     4   4   4   4   4   4   4   4
#     4   9  21  40  61  90 129 172 216 272 336 393
#     4  11  22  42  66  94 124 176 225 265 343 399
#     4  10  21  43  64  89 130 173 224 274 329 410
#     4  11  24  43  67  95 132 179 226 279 345 406
#     4  11  24  44  61  95 138 179 225 279 346 415
#     4  11  22  40  64  98 138 170 226 283 339 413
#     4  11  20  37  67  98 128 168 220 284 332 394
#     4  10  22  39  68  95 131 173 224 278 338 402
#
# _framework density 22.326557000000001
#
# number of rings (size 3 to 8) (size 9 to 14) (size 15 to 20)
#    0.000    1.500    1.250    6.000    0.000    4.000 
#    4.500    0.000    0.000    0.000    0.000    0.000 
#    0.000    0.000    0.000    0.000    0.000    0.000 
#
# Total GULP energy -396417.539719 kJ/mol
# GULP energy per Si atom -12388.048116 kJ/mol
# Density = 2.227574 g / cm^3
# Si number density = 22.326557 Si / 1000 Ang^3
#
#
#
# Elastic Constant Matrix: (Units=GPa)
#
#
# Indices 1 2 3 4 5 6 
#
# 1 77.5216 -8.0896 21.0594 0.0000 0.0000 0.0000
# 2 -8.0896 48.8506 17.6180 0.0000 0.0000 0.0000
# 3 21.0594 17.6180 114.4375 0.0000 0.0000 0.0000
# 4 0.0000 0.0000 0.0000 33.6159 0.0000 0.0000
# 5 0.0000 0.0000 0.0000 0.0000 28.8684 0.0000
# 6 0.0000 0.0000 0.0000 0.0000 0.0000 23.4699
#
#
#
# Elastic Compliance Matrix: (Units=1/GPa)
#
#
# Indices 1 2 3 4 5 6 
#
# 1 0.014112 0.003466 -0.003131 0.000000 0.000000 0.000000
# 2 0.003466 0.022525 -0.004106 0.000000 0.000000 0.000000
# 3 -0.003131 -0.004106 0.009947 0.000000 0.000000 0.000000
# 4 0.000000 0.000000 0.000000 0.029748 0.000000 0.000000
# 5 0.000000 0.000000 0.000000 0.000000 0.034640 0.000000
# 6 0.000000 0.000000 0.000000 0.000000 0.000000 0.042608
#
#
# Mechanical properties :
#
#
# Convention : Reuss Voigt Hill
#
# Bulk Modulus (GPa) = 25.61274 33.55392 29.58333
# Shear Modulus (GPa) = 28.71352 31.20562 29.95957
#
# Velocity S-wave (km/s) = 3.59007 3.74263 3.66714
# Velocity P-wave (km/s) = 5.35552 5.80841 5.58656
#
# Compressibility (1/GPa) = 0.03904306
#
# Stress axis : x y z
#
# Youngs Moduli (GPa) = 70.86305 44.39462 100.53726
#
# Poissons Ratio (x) = -0.15387 0.31473
# Poissons Ratio (y) = -0.24560 0.41277
# Poissons Ratio (z) = 0.22184 0.18227
#
# Static dielectric constant tensor:
#      x y z
#    x 3.913330 0.000000 0.000000 
#    y 0.000000 4.091990 0.000000 
#    z 0.000000 0.000000 4.265180 
# 
# 
# High freq. dielectric constant tensor:
#      x y z
#    x 1.855470 0.000000 0.000000 
#    y 0.000000 1.883260 0.000000 
#    z 0.000000 0.000000 1.889300 
# 
# From -- ./inp_files/4426.got.cif
#   From: 2010.03.12/outbox.cif.g09.slc.cpg/sg33_3_cif.got.tgz:4426.got - 2010.04.14 01:49:19.
