data_PCOD8171236
_publ_section_title
;
Structure prediction by ZEFSAII (Michael W. Deem and Ramdas Pophale) SiO2 
 PCOD8171236
Probable space group: P N A 21
;
_chemical_formula_sum "Si O2"
_cell_formula_units_Z 28
_cell_length_a 18.565266
_cell_length_b 8.113410
_cell_length_c 8.479474
_cell_angle_alpha 90.000000
_cell_angle_beta 90.000000
_cell_angle_gamma 90.000000
_cell_volume 1277.242944
_symmetry_space_group_name_H-M "P N A 21"
_symmetry_group_IT_number 33
_symmetry_cell_setting 'orthorhombic'
loop_
_space_group_symop_operation_xyz
x,y,z
-x,-y,1/2+z
1/2-x,1/2+y,1/2+z
1/2+x,1/2-y,z
loop_
_atom_site_type_symbol
_atom_site_label
_atom_site_fract_x
_atom_site_fract_y
_atom_site_fract_z
Si Si1 0.132161 0.815405 0.310990
Si Si2 0.993817 0.859816 0.467187
Si Si3 0.035714 0.473709 0.085364
Si Si4 0.605316 0.028616 0.418592
Si Si5 0.183910 0.133217 0.497063
Si Si6 0.655673 0.784223 0.977429
Si Si7 0.101749 0.957888 0.744930
O O1 0.154059 0.639279 0.396844
O O2 0.044999 0.815687 0.318263
O O3 0.158856 0.977411 0.397129
O O4 0.157848 0.833241 0.131617
O O5 0.946676 0.702996 0.511319
O O6 0.042581 0.912503 0.614994
O O7 0.938012 0.995639 0.408108
O O8 0.053328 0.458995 0.268459
O O9 0.087441 0.597814 0.993734
O O10 0.950423 0.517838 0.065644
O O11 0.655856 0.189346 0.435691
O O12 0.269328 0.119533 0.484502
O O13 0.154023 0.100561 0.674825
O O14 0.650393 0.693674 0.807575
#
# Coordination Sequence:
#
# PCOD8171236 Si02
#       7
#     4   4   4   4   4   4   4
#     4   9  23  46  67  97 135 176 232 285 345 415
#     4  10  22  42  69 104 131 175 232 296 351 397
#     4  10  23  40  70  98 131 171 234 292 344 393
#     4  10  23  44  70  99 135 175 233 291 341 409
#     4  11  27  46  68  96 146 191 220 284 362 423
#     4  11  25  45  67 101 140 179 235 282 350 435
#     4  11  25  41  71 101 140 179 238 286 355 420
#
# _framework density 21.922218000000001
#
# number of rings (size 3 to 8) (size 9 to 14) (size 15 to 20)
#    0.000    1.714    0.000    1.714   20.000    1.143 
#    7.714    0.000    0.000    0.000    0.000    0.000 
#    0.000    0.000    0.000    0.000    0.000    0.000 
#
# Total GULP energy -346938.070783 kJ/mol
# GULP energy per Si atom -12390.645385 kJ/mol
# Density = 2.187232 g / cm^3
# Si number density = 21.922218 Si / 1000 Ang^3
#
#
#
# Elastic Constant Matrix: (Units=GPa)
#
#
# Indices 1 2 3 4 5 6 
#
# 1 59.6944 27.2008 20.9918 0.0000 0.0000 0.0000
# 2 27.2008 117.5733 26.2485 0.0000 0.0000 0.0000
# 3 20.9918 26.2485 83.9362 0.0000 0.0000 0.0000
# 4 0.0000 0.0000 0.0000 31.3636 0.0000 0.0000
# 5 0.0000 0.0000 0.0000 0.0000 22.7542 0.0000
# 6 0.0000 0.0000 0.0000 0.0000 0.0000 22.0104
#
#
#
# Elastic Compliance Matrix: (Units=1/GPa)
#
#
# Indices 1 2 3 4 5 6 
#
# 1 0.019782 -0.003733 -0.003780 0.000000 0.000000 0.000000
# 2 -0.003733 0.009848 -0.002146 0.000000 0.000000 0.000000
# 3 -0.003780 -0.002146 0.013530 0.000000 0.000000 0.000000
# 4 0.000000 0.000000 0.000000 0.031884 0.000000 0.000000
# 5 0.000000 0.000000 0.000000 0.000000 0.043948 0.000000
# 6 0.000000 0.000000 0.000000 0.000000 0.000000 0.045433
#
#
# Mechanical properties :
#
#
# Convention : Reuss Voigt Hill
#
# Bulk Modulus (GPa) = 41.94170 45.56511 43.75341
# Shear Modulus (GPa) = 26.08364 27.67649 26.88006
#
# Velocity S-wave (km/s) = 3.45313 3.55700 3.50545
# Velocity P-wave (km/s) = 5.92219 6.14001 6.03208
#
# Compressibility (1/GPa) = 0.02384262
#
# Stress axis : x y z
#
# Youngs Moduli (GPa) = 50.55063 101.54303 73.90808
#
# Poissons Ratio (x) = 0.37903 0.27938
# Poissons Ratio (y) = 0.18869 0.15862
# Poissons Ratio (z) = 0.19108 0.21793
#
# Static dielectric constant tensor:
#      x y z
#    x 3.950890 0.000000 0.000000 
#    y 0.000000 4.162900 0.000000 
#    z 0.000000 0.000000 4.106130 
# 
# 
# High freq. dielectric constant tensor:
#      x y z
#    x 1.843410 0.000000 0.000000 
#    y 0.000000 1.871510 0.000000 
#    z 0.000000 0.000000 1.866060 
# 
# From -- ./inp_files/4701.got.cif
#   From: 2010.03.12/outbox.cif.g09.slc.cpg/sg33_3_cif.got.tgz:4701.got - 2010.04.14 01:49:19.
