data_PCOD8171687
_publ_section_title
;
Structure prediction by ZEFSAII (Michael W. Deem and Ramdas Pophale) SiO2 
 PCOD8171687
Probable space group: P N A 21
;
_chemical_formula_sum "Si O2"
_cell_formula_units_Z 20
_cell_length_a 13.931189
_cell_length_b 4.925781
_cell_length_c 11.877515
_cell_angle_alpha 90.000000
_cell_angle_beta 90.000000
_cell_angle_gamma 90.000000
_cell_volume 815.058669
_symmetry_space_group_name_H-M "P N A 21"
_symmetry_group_IT_number 33
_symmetry_cell_setting 'orthorhombic'
loop_
_space_group_symop_operation_xyz
x,y,z
-x,-y,1/2+z
1/2-x,1/2+y,1/2+z
1/2+x,1/2-y,z
loop_
_atom_site_type_symbol
_atom_site_label
_atom_site_fract_x
_atom_site_fract_y
_atom_site_fract_z
Si Si1 0.610273 0.565214 0.375000
Si Si2 0.465390 0.655203 0.080677
Si Si3 0.102108 0.135270 0.817439
Si Si4 0.091845 0.355519 0.047731
Si Si5 0.801086 0.577338 0.766319
O O1 0.621946 0.473327 0.505817
O O2 0.496556 0.497740 0.359358
O O3 0.674457 0.385651 0.294030
O O4 0.639094 0.874778 0.348169
O O5 0.424434 0.775260 0.198762
O O6 0.546324 0.421454 0.098967
O O7 0.510194 0.921893 0.024175
O O8 0.187555 0.930862 0.786707
O O9 0.139344 0.318093 0.922921
O O10 0.170392 0.471917 0.135645
#
# Coordination Sequence:
#
# PCOD8171687 Si02
#       5
#     4   4   4   4   4
#     4  11  25  48  67 105 144 191 240 307 357 444
#     4  11  24  46  75  99 151 192 240 302 379 421
#     4  11  26  46  77 104 147 198 239 307 374 435
#     4  11  24  46  72 107 145 188 248 302 355 455
#     4  12  25  46  73 105 147 187 251 298 369 439
#
# _framework density 24.538112999999999
#
# number of rings (size 3 to 8) (size 9 to 14) (size 15 to 20)
#    0.000    0.800    4.000    2.400    2.800    6.400 
#    3.600    0.000    0.000    0.000    0.000    0.000 
#    0.000    0.000    0.000    0.000    0.000    0.000 
#
# Total GULP energy -247797.326255 kJ/mol
# GULP energy per Si atom -12389.866313 kJ/mol
# Density = 2.448226 g / cm^3
# Si number density = 24.538113 Si / 1000 Ang^3
#
#
#
# Elastic Constant Matrix: (Units=GPa)
#
#
# Indices 1 2 3 4 5 6 
#
# 1 78.2979 1.4698 -3.6968 0.0000 0.0000 0.0000
# 2 1.4698 69.3441 7.4779 0.0000 0.0000 0.0000
# 3 -3.6968 7.4779 162.7761 0.0000 0.0000 0.0000
# 4 0.0000 0.0000 0.0000 38.1418 0.0000 0.0000
# 5 0.0000 0.0000 0.0000 0.0000 26.1143 0.0000
# 6 0.0000 0.0000 0.0000 0.0000 0.0000 23.4790
#
#
#
# Elastic Compliance Matrix: (Units=1/GPa)
#
#
# Indices 1 2 3 4 5 6 
#
# 1 0.012792 -0.000304 0.000304 0.000000 0.000000 0.000000
# 2 -0.000304 0.014500 -0.000673 0.000000 0.000000 0.000000
# 3 0.000304 -0.000673 0.006181 0.000000 0.000000 0.000000
# 4 0.000000 0.000000 0.000000 0.026218 0.000000 0.000000
# 5 0.000000 0.000000 0.000000 0.000000 0.038293 0.000000
# 6 0.000000 0.000000 0.000000 0.000000 0.000000 0.042591
#
#
# Mechanical properties :
#
#
# Convention : Reuss Voigt Hill
#
# Bulk Modulus (GPa) = 31.12561 35.65777 33.39169
# Shear Modulus (GPa) = 32.75903 37.89150 35.32527
#
# Velocity S-wave (km/s) = 3.65777 3.93388 3.79833
# Velocity P-wave (km/s) = 5.52731 5.93271 5.73359
#
# Compressibility (1/GPa) = 0.03212788
#
# Stress axis : x y z
#
# Youngs Moduli (GPa) = 78.17496 68.96623 161.77983
#
# Poissons Ratio (x) = 0.02096 -0.04926
# Poissons Ratio (y) = 0.02376 0.10888
# Poissons Ratio (z) = -0.02380 0.04642
#
# Static dielectric constant tensor:
#      x y z
#    x 4.240220 0.000000 0.000000 
#    y 0.000000 4.020050 0.000000 
#    z 0.000000 0.000000 4.963430 
# 
# 
# High freq. dielectric constant tensor:
#      x y z
#    x 1.957490 0.000000 0.000000 
#    y 0.000000 1.955160 0.000000 
#    z 0.000000 0.000000 2.002930 
# 
# From -- ./inp_files/6575.got.cif
#   From: 2010.03.12/outbox.cif.g09.slc.cpg/sg33_4_cif.got.tgz:6575.got - 2010.04.14 01:49:19.
