data_PCOD8171783
_publ_section_title
;
Structure prediction by ZEFSAII (Michael W. Deem and Ramdas Pophale) SiO2 
 PCOD8171783
Probable space group: P N A 21
;
_chemical_formula_sum "Si O2"
_cell_formula_units_Z 20
_cell_length_a 7.478420
_cell_length_b 12.292709
_cell_length_c 7.957480
_cell_angle_alpha 90.000000
_cell_angle_beta 90.000000
_cell_angle_gamma 90.000000
_cell_volume 731.531461
_symmetry_space_group_name_H-M "P N A 21"
_symmetry_group_IT_number 33
_symmetry_cell_setting 'orthorhombic'
loop_
_space_group_symop_operation_xyz
x,y,z
-x,-y,1/2+z
1/2-x,1/2+y,1/2+z
1/2+x,1/2-y,z
loop_
_atom_site_type_symbol
_atom_site_label
_atom_site_fract_x
_atom_site_fract_y
_atom_site_fract_z
Si Si1 0.331113 0.079968 0.269490
Si Si2 0.414130 0.439630 0.273789
Si Si3 0.816909 0.235390 0.020322
Si Si4 0.622517 0.116124 0.540936
Si Si5 0.068961 0.191285 0.765067
O O1 0.400685 0.169834 0.136465
O O2 0.442163 0.096921 0.438142
O O3 0.119441 0.093423 0.304239
O O4 0.380572 0.960935 0.202982
O O5 0.322157 0.379384 0.116148
O O6 0.305720 0.407487 0.440946
O O7 0.389811 0.566013 0.229610
O O8 0.621635 0.279432 0.964953
O O9 0.864511 0.218847 0.816711
O O10 0.626063 0.240547 0.602469
#
# Coordination Sequence:
#
# PCOD8171783 Si02
#       5
#     4   4   4   4   4
#     4  12  28  55  85 124 173 227 281 359 423 514
#     4  12  28  58  87 119 176 229 283 354 436 512
#     4  12  25  56  81 118 173 218 286 349 426 507
#     4  12  29  54  87 129 168 227 295 347 426 514
#     4  12  28  55  84 124 172 225 281 363 423 509
#
# _framework density 27.339901000000001
#
# number of rings (size 3 to 8) (size 9 to 14) (size 15 to 20)
#    0.000    0.000    4.000    3.600    0.000    8.000 
#    7.200    0.000    0.000    0.000    0.000    0.000 
#    0.000    0.000    0.000    0.000    0.000    0.000 
#
# Total GULP energy -247916.281076 kJ/mol
# GULP energy per Si atom -12395.814054 kJ/mol
# Density = 2.727767 g / cm^3
# Si number density = 27.339901 Si / 1000 Ang^3
#
#
#
# Elastic Constant Matrix: (Units=GPa)
#
#
# Indices 1 2 3 4 5 6 
#
# 1 106.5994 47.0019 49.8947 0.0000 0.0000 0.0000
# 2 47.0019 200.5021 49.4874 0.0000 0.0000 0.0000
# 3 49.8947 49.4874 88.2538 0.0000 0.0000 0.0000
# 4 0.0000 0.0000 0.0000 62.7222 0.0000 0.0000
# 5 0.0000 0.0000 0.0000 0.0000 58.4412 0.0000
# 6 0.0000 0.0000 0.0000 0.0000 0.0000 25.7841
#
#
#
# Elastic Compliance Matrix: (Units=1/GPa)
#
#
# Indices 1 2 3 4 5 6 
#
# 1 0.013107 -0.001443 -0.006601 0.000000 0.000000 0.000000
# 2 -0.001443 0.005948 -0.002519 0.000000 0.000000 0.000000
# 3 -0.006601 -0.002519 0.016475 0.000000 0.000000 0.000000
# 4 0.000000 0.000000 0.000000 0.015943 0.000000 0.000000
# 5 0.000000 0.000000 0.000000 0.000000 0.017111 0.000000
# 6 0.000000 0.000000 0.000000 0.000000 0.000000 0.038784
#
#
# Mechanical properties :
#
#
# Convention : Reuss Voigt Hill
#
# Bulk Modulus (GPa) = 69.42762 76.45815 72.94289
# Shear Modulus (GPa) = 37.51082 45.98759 41.74920
#
# Velocity S-wave (km/s) = 3.70809 4.10575 3.91198
# Velocity P-wave (km/s) = 6.61685 7.10653 6.86605
#
# Compressibility (1/GPa) = 0.01440349
#
# Stress axis : x y z
#
# Youngs Moduli (GPa) = 76.29624 168.13580 60.69738
#
# Poissons Ratio (x) = 0.24268 0.40064
# Poissons Ratio (y) = 0.11012 0.15290
# Poissons Ratio (z) = 0.50360 0.42354
#
# Static dielectric constant tensor:
#      x y z
#    x 5.472440 0.000000 0.000000 
#    y 0.000000 5.010690 0.000000 
#    z 0.000000 0.000000 4.788330 
# 
# 
# High freq. dielectric constant tensor:
#      x y z
#    x 2.134420 0.000000 0.000000 
#    y 0.000000 2.105990 0.000000 
#    z 0.000000 0.000000 2.116030 
# 
# From -- ./inp_files/2992.got.cif
#   From: 2010.03.12/outbox.cif.g09.slc.cpg/sg33_2_cif.got.tgz:2992.got - 2010.04.14 01:49:19.
