data_PCOD8171888
_publ_section_title
;
Structure prediction by ZEFSAII (Michael W. Deem and Ramdas Pophale) SiO2 
 PCOD8171888
Probable space group: P N N 2
;
_chemical_formula_sum "Si O2"
_cell_formula_units_Z 30
_cell_length_a 12.085428
_cell_length_b 8.221635
_cell_length_c 15.260306
_cell_angle_alpha 90.000000
_cell_angle_beta 90.000000
_cell_angle_gamma 90.000000
_cell_volume 1516.294187
_symmetry_space_group_name_H-M "P N N 2"
_symmetry_group_IT_number 34
_symmetry_cell_setting 'orthorhombic'
loop_
_space_group_symop_operation_xyz
x,y,z
-x,-y,z
1/2-x,1/2+y,1/2+z
1/2+x,1/2-y,1/2+z
loop_
_atom_site_type_symbol
_atom_site_label
_atom_site_fract_x
_atom_site_fract_y
_atom_site_fract_z
Si Si1 0.581416 0.349381 0.814270
Si Si2 0.059751 0.663208 0.782942
Si Si3 0.228241 0.656569 0.938880
Si Si4 0.568799 0.343368 0.415475
Si Si5 0.277904 0.014038 0.978985
Si Si6 0.607193 0.081474 0.555935
Si Si7 0.500000 0.000000 0.873213
Si Si8 0.247276 0.185678 0.161488
O O1 0.500000 0.500000 0.807866
O O2 0.647794 0.373243 0.904624
O O3 0.666803 0.386069 0.735466
O O4 0.525707 0.165428 0.815566
O O5 0.137878 0.625577 0.864543
O O6 0.133963 0.734541 0.703734
O O7 0.000000 0.500000 0.749885
O O8 0.968059 0.792253 0.816933
O O9 0.224346 0.837262 0.976268
O O10 0.199371 0.535755 0.016008
O O11 0.500000 0.500000 0.447124
O O12 0.700013 0.375788 0.416612
O O13 0.548641 0.200248 0.485359
O O14 0.398648 0.034723 0.938578
O O15 0.271407 0.066154 0.080503
O O16 0.679960 0.158565 0.631456
O O17 0.500000 0.000000 0.600920
#
# Coordination Sequence:
#
# PCOD8171888 Si02
#       8
#     4   4   4   4   4   4   2   4
#     4  10  24  42  63  90 127 174 214 268 327 398
#     4  11  20  39  60  89 125 164 203 265 319 381
#     4  10  19  40  65  90 115 163 223 257 312 397
#     4  11  19  34  65  95 115 159 216 261 304 380
#     4  10  22  40  66  93 125 165 217 270 316 387
#     4  11  20  37  64  93 120 164 209 272 313 385
#     4  10  24  44  70  88 128 180 222 254 328 396
#     4  10  26  38  58  96 134 158 210 275 339 380
#
# _framework density 19.785077999999999
#
# number of rings (size 3 to 8) (size 9 to 14) (size 15 to 20)
#    0.000    1.600    4.000    0.000    5.600    3.200 
#    0.000    1.333    0.000    0.000    0.000    0.000 
#    0.000    0.000    0.000    0.000    0.000    0.000 
#
# Total GULP energy -371705.149692 kJ/mol
# GULP energy per Si atom -12390.171656 kJ/mol
# Density = 1.974005 g / cm^3
# Si number density = 19.785078 Si / 1000 Ang^3
#
#
#
# Elastic Constant Matrix: (Units=GPa)
#
#
# Indices 1 2 3 4 5 6 
#
# 1 130.9183 52.3695 59.0264 0.0000 0.0000 0.0000
# 2 52.3695 92.2017 38.1536 0.0000 0.0000 0.0000
# 3 59.0264 38.1536 89.9785 0.0000 0.0000 0.0000
# 4 0.0000 0.0000 0.0000 875.2077 0.0000 0.0000
# 5 0.0000 0.0000 0.0000 0.0000 36.3654 0.0000
# 6 0.0000 0.0000 0.0000 0.0000 0.0000 35.0877
#
#
#
# Elastic Compliance Matrix: (Units=1/GPa)
#
#
# Indices 1 2 3 4 5 6 
#
# 1 0.012141 -0.004366 -0.006113 0.000000 0.000000 0.000000
# 2 -0.004366 0.014724 -0.003379 0.000000 0.000000 0.000000
# 3 -0.006113 -0.003379 0.016557 0.000000 0.000000 0.000000
# 4 0.000000 0.000000 0.000000 0.001143 0.000000 0.000000
# 5 0.000000 0.000000 0.000000 0.000000 0.027499 0.000000
# 6 0.000000 0.000000 0.000000 0.000000 0.000000 0.028500
#
#
# Mechanical properties :
#
#
# Convention : Reuss Voigt Hill
#
# Bulk Modulus (GPa) = 63.67465 68.02194 65.84829
# Shear Modulus (GPa) = 37.44871 200.23541 118.84206
#
# Velocity S-wave (km/s) = 4.35532 10.07100 7.75867
# Velocity P-wave (km/s) = 7.58583 13.02645 10.65911
#
# Compressibility (1/GPa) = 0.01570484
#
# Stress axis : x y z
#
# Youngs Moduli (GPa) = 82.36411 67.91571 60.39763
#
# Poissons Ratio (x) = 0.29655 0.36922
# Poissons Ratio (y) = 0.35963 0.20409
# Poissons Ratio (z) = 0.50351 0.22950
#
# Static dielectric constant tensor:
#      x y z
#    x 3.763670 0.000000 0.000000 
#    y 0.000000 -3.972420 0.000000 
#    z 0.000000 0.000000 3.522020 
# 
# 
# High freq. dielectric constant tensor:
#      x y z
#    x 1.788690 0.000000 0.000000 
#    y 0.000000 1.771600 0.000000 
#    z 0.000000 0.000000 1.751430 
# 
# From -- ./inp_files/6776.got.cif
#   From: 2010.03.12/outbox.cif.g09.slc.cpg/sg34_4_cif.got.tgz:6776.got - 2010.04.14 01:56:33.
