data_PCOD8171435
_publ_section_title
;
Structure prediction by ZEFSAII (Michael W. Deem and Ramdas Pophale) SiO2 
 PCOD8171435
Probable space group: P N A 21
;
_chemical_formula_sum "Si O2"
_cell_formula_units_Z 28
_cell_length_a 8.767248
_cell_length_b 5.182638
_cell_length_c 26.375500
_cell_angle_alpha 90.000000
_cell_angle_beta 90.000000
_cell_angle_gamma 90.000000
_cell_volume 1198.436060
_symmetry_space_group_name_H-M "P N A 21"
_symmetry_group_IT_number 33
_symmetry_cell_setting 'orthorhombic'
loop_
_space_group_symop_operation_xyz
x,y,z
-x,-y,1/2+z
1/2-x,1/2+y,1/2+z
1/2+x,1/2-y,z
loop_
_atom_site_type_symbol
_atom_site_label
_atom_site_fract_x
_atom_site_fract_y
_atom_site_fract_z
Si Si1 0.739613 0.443544 0.838510
Si Si2 0.738722 0.062844 0.751034
Si Si3 0.325222 0.939577 0.139143
Si Si4 0.343354 0.963492 0.603868
Si Si5 0.821920 0.450287 0.952629
Si Si6 0.500502 0.729753 0.791539
Si Si7 0.346368 0.031289 0.488948
O O1 0.682363 0.221745 0.800250
O O2 0.780041 0.370266 0.895214
O O3 0.593405 0.632673 0.841126
O O4 0.885659 0.557434 0.810743
O O5 0.724664 0.170380 0.694525
O O6 0.624490 0.819718 0.750370
O O7 0.913999 0.993628 0.761052
O O8 0.506219 0.991098 0.137927
O O9 0.281453 0.692124 0.105760
O O10 0.232322 0.191911 0.120254
O O11 0.401777 0.986773 0.546277
O O12 0.729542 0.693909 0.975059
O O13 0.002740 0.498387 0.954781
O O14 0.779426 0.191258 0.982090
#
# Coordination Sequence:
#
# PCOD8171435 Si02
#       7
#     4   4   4   4   4   4   4
#     4  11  25  42  69 100 143 181 233 284 348 425
#     4  11  25  42  69 100 143 181 233 284 348 425
#     4  12  28  45  78 106 145 190 240 291 372 424
#     4  12  26  49  74 106 142 186 243 303 358 427
#     4  12  28  45  78 106 145 190 240 291 372 424
#     4  10  24  42  66  94 146 176 230 278 346 402
#     4  12  26  49  74 106 142 186 243 303 358 427
#
# _framework density 23.363785
#
# number of rings (size 3 to 8) (size 9 to 14) (size 15 to 20)
#    0.000    0.571    0.000    6.857   16.000    0.000 
#    0.000    0.000    0.000    0.000    0.000    0.000 
#    0.000    0.000    0.000    0.000    0.000    0.000 
#
# Total GULP energy -347002.878883 kJ/mol
# GULP energy per Si atom -12392.959960 kJ/mol
# Density = 2.331061 g / cm^3
# Si number density = 23.363785 Si / 1000 Ang^3
#
#
#
# Elastic Constant Matrix: (Units=GPa)
#
#
# Indices 1 2 3 4 5 6 
#
# 1 102.6596 17.5634 -12.7093 0.0000 0.0000 0.0000
# 2 17.5634 110.5035 17.0692 0.0000 0.0000 0.0000
# 3 -12.7093 17.0692 102.9675 0.0000 0.0000 0.0000
# 4 0.0000 0.0000 0.0000 34.8714 0.0000 0.0000
# 5 0.0000 0.0000 0.0000 0.0000 23.7175 0.0000
# 6 0.0000 0.0000 0.0000 0.0000 0.0000 32.6074
#
#
#
# Elastic Compliance Matrix: (Units=1/GPa)
#
#
# Indices 1 2 3 4 5 6 
#
# 1 0.010257 -0.001874 0.001577 0.000000 0.000000 0.000000
# 2 -0.001874 0.009630 -0.001828 0.000000 0.000000 0.000000
# 3 0.001577 -0.001828 0.010209 0.000000 0.000000 0.000000
# 4 0.000000 0.000000 0.000000 0.028677 0.000000 0.000000
# 5 0.000000 0.000000 0.000000 0.000000 0.042163 0.000000
# 6 0.000000 0.000000 0.000000 0.000000 0.000000 0.030668
#
#
# Mechanical properties :
#
#
# Convention : Reuss Voigt Hill
#
# Bulk Modulus (GPa) = 38.69043 39.99747 39.34395
# Shear Modulus (GPa) = 34.60969 37.85307 36.23138
#
# Velocity S-wave (km/s) = 3.85299 4.02949 3.94223
# Velocity P-wave (km/s) = 6.03241 6.22942 6.13171
#
# Compressibility (1/GPa) = 0.02584618
#
# Stress axis : x y z
#
# Youngs Moduli (GPa) = 97.49750 103.84650 97.94923
#
# Poissons Ratio (x) = 0.19458 -0.15443
# Poissons Ratio (y) = 0.18268 0.17901
# Poissons Ratio (z) = -0.15371 0.18979
#
# Static dielectric constant tensor:
#      x y z
#    x 4.299140 0.000000 0.000000 
#    y 0.000000 4.269910 0.000000 
#    z 0.000000 0.000000 4.367440 
# 
# 
# High freq. dielectric constant tensor:
#      x y z
#    x 1.947460 0.000000 0.000000 
#    y 0.000000 1.927590 0.000000 
#    z 0.000000 0.000000 1.925980 
# 
# From -- ./inp_files/9245.got.cif
#   From: 2010.03.12/outbox.cif.g09.slc.cpg/sg33_5_cif.got.tgz:9245.got - 2010.04.14 01:49:19.
