data_PCOD8171211
_publ_section_title
;
Structure prediction by ZEFSAII (Michael W. Deem and Ramdas Pophale) SiO2 
 PCOD8171211
Probable space group: P N A 21
;
_chemical_formula_sum "Si O2"
_cell_formula_units_Z 32
_cell_length_a 9.571294
_cell_length_b 14.861702
_cell_length_c 10.213739
_cell_angle_alpha 90.000000
_cell_angle_beta 90.000000
_cell_angle_gamma 90.000000
_cell_volume 1452.860650
_symmetry_space_group_name_H-M "P N A 21"
_symmetry_group_IT_number 33
_symmetry_cell_setting 'orthorhombic'
loop_
_space_group_symop_operation_xyz
x,y,z
-x,-y,1/2+z
1/2-x,1/2+y,1/2+z
1/2+x,1/2-y,z
loop_
_atom_site_type_symbol
_atom_site_label
_atom_site_fract_x
_atom_site_fract_y
_atom_site_fract_z
Si Si1 0.194373 0.958797 0.730200
Si Si2 0.966240 0.088547 0.679065
Si Si3 0.202777 0.343550 0.005170
Si Si4 0.299893 0.154611 0.405995
Si Si5 0.174480 0.475109 0.768600
Si Si6 0.466231 0.266496 0.885926
Si Si7 0.027691 0.829113 0.910704
Si Si8 0.398064 0.106090 0.695850
O O1 0.284209 0.885747 0.649300
O O2 0.107184 0.914171 0.847243
O O3 0.304432 0.034540 0.778273
O O4 0.078897 0.011679 0.642356
O O5 0.818050 0.040441 0.693579
O O6 0.015316 0.143614 0.808581
O O7 0.955140 0.161818 0.565517
O O8 0.174943 0.423682 0.905587
O O9 0.344350 0.290973 0.983338
O O10 0.081608 0.270491 0.985667
O O11 0.395307 0.238754 0.366290
O O12 0.326355 0.125625 0.556202
O O13 0.136808 0.175632 0.378395
O O14 0.347547 0.079046 0.303191
O O15 0.051238 0.437780 0.675530
O O16 0.409722 0.196547 0.778801
#
# Coordination Sequence:
#
# PCOD8171211 Si02
#       8
#     4   4   4   4   4   4   4   4
#     4  12  25  45  65  99 145 187 221 291 365 419
#     4  11  22  44  71 100 133 185 240 279 355 420
#     4  10  22  42  66  95 135 172 228 279 346 407
#     4  12  25  47  65 105 143 179 237 299 350 426
#     4  10  23  43  71  99 135 180 230 290 345 418
#     4  10  22  41  70 100 126 179 232 285 331 417
#     4  12  28  42  72 102 142 186 235 296 360 428
#     4  11  23  42  72  98 139 178 233 291 346 417
#
# _framework density 22.025511000000002
#
# number of rings (size 3 to 8) (size 9 to 14) (size 15 to 20)
#    0.000    1.000    5.000    0.750    5.250    1.000 
#    0.000    0.000    0.000    0.000    0.000    0.000 
#    0.000    0.000    0.000    0.000    0.000    0.000 
#
# Total GULP energy -396759.412364 kJ/mol
# GULP energy per Si atom -12398.731636 kJ/mol
# Density = 2.197538 g / cm^3
# Si number density = 22.025511 Si / 1000 Ang^3
#
#
#
# Elastic Constant Matrix: (Units=GPa)
#
#
# Indices 1 2 3 4 5 6 
#
# 1 104.3973 42.2933 25.5761 0.0000 0.0000 0.0000
# 2 42.2933 106.8219 11.9058 0.0000 0.0000 0.0000
# 3 25.5761 11.9058 25.3008 0.0000 0.0000 0.0000
# 4 0.0000 0.0000 0.0000 27.7991 0.0000 0.0000
# 5 0.0000 0.0000 0.0000 0.0000 27.7354 0.0000
# 6 0.0000 0.0000 0.0000 0.0000 0.0000 37.5733
#
#
#
# Elastic Compliance Matrix: (Units=1/GPa)
#
#
# Indices 1 2 3 4 5 6 
#
# 1 0.014389 -0.004301 -0.012521 0.000000 0.000000 0.000000
# 2 -0.004301 0.011165 -0.000906 0.000000 0.000000 0.000000
# 3 -0.012521 -0.000906 0.052608 0.000000 0.000000 0.000000
# 4 0.000000 0.000000 0.000000 0.035972 0.000000 0.000000
# 5 0.000000 0.000000 0.000000 0.000000 0.036055 0.000000
# 6 0.000000 0.000000 0.000000 0.000000 0.000000 0.026615
#
#
# Mechanical properties :
#
#
# Convention : Reuss Voigt Hill
#
# Bulk Modulus (GPa) = 23.41631 44.00780 33.71206
# Shear Modulus (GPa) = 22.07535 29.07124 25.57329
#
# Velocity S-wave (km/s) = 3.16929 3.63697 3.41115
# Velocity P-wave (km/s) = 4.90378 6.13681 5.55462
#
# Compressibility (1/GPa) = 0.04270527
#
# Stress axis : x y z
#
# Youngs Moduli (GPa) = 69.49784 89.56277 19.00840
#
# Poissons Ratio (x) = 0.38524 0.23801
# Poissons Ratio (y) = 0.29893 0.01722
# Poissons Ratio (z) = 0.87021 0.08114
#
# Static dielectric constant tensor:
#      x y z
#    x 4.200380 0.000000 0.000000 
#    y 0.000000 4.276210 0.000000 
#    z 0.000000 0.000000 3.619480 
# 
# 
# High freq. dielectric constant tensor:
#      x y z
#    x 1.882850 0.000000 0.000000 
#    y 0.000000 1.882420 0.000000 
#    z 0.000000 0.000000 1.836000 
# 
# From -- ./inp_files/6032.got.cif
#   From: 2010.03.12/outbox.cif.g09.slc.cpg/sg33_4_cif.got.tgz:6032.got - 2010.04.14 01:49:19.
