data_PCOD8171273
_publ_section_title
;
Structure prediction by ZEFSAII (Michael W. Deem and Ramdas Pophale) SiO2 
 PCOD8171273
Probable space group: P N A 21
;
_chemical_formula_sum "Si O2"
_cell_formula_units_Z 28
_cell_length_a 17.481490
_cell_length_b 9.277058
_cell_length_c 7.460331
_cell_angle_alpha 90.000000
_cell_angle_beta 90.000000
_cell_angle_gamma 90.000000
_cell_volume 1209.892584
_symmetry_space_group_name_H-M "P N A 21"
_symmetry_group_IT_number 33
_symmetry_cell_setting 'orthorhombic'
loop_
_space_group_symop_operation_xyz
x,y,z
-x,-y,1/2+z
1/2-x,1/2+y,1/2+z
1/2+x,1/2-y,z
loop_
_atom_site_type_symbol
_atom_site_label
_atom_site_fract_x
_atom_site_fract_y
_atom_site_fract_z
Si Si1 0.355075 0.247069 0.163030
Si Si2 0.997475 0.325915 0.638499
Si Si3 0.839394 0.256633 0.755236
Si Si4 0.782095 0.542012 0.196154
Si Si5 0.518366 0.154405 0.244729
Si Si6 0.272811 0.511518 0.327152
Si Si7 0.890035 0.755625 0.409953
O O1 0.440762 0.247452 0.236626
O O2 0.312041 0.396453 0.197886
O O3 0.299608 0.123864 0.245656
O O4 0.367614 0.215030 0.954785
O O5 0.909725 0.271323 0.616786
O O6 0.043863 0.322469 0.451293
O O7 0.999747 0.487480 0.714852
O O8 0.036041 0.218465 0.783744
O O9 0.802408 0.097306 0.750835
O O10 0.776811 0.379848 0.703369
O O11 0.845241 0.632002 0.302190
O O12 0.781758 0.561002 0.978137
O O13 0.584444 0.207619 0.109569
O O14 0.338916 0.602286 0.430651
#
# Coordination Sequence:
#
# PCOD8171273 Si02
#       7
#     4   4   4   4   4   4   4
#     4  11  21  44  67 100 140 188 233 292 355 428
#     4  12  22  42  74 103 142 189 239 304 360 429
#     4  10  23  42  69 102 140 179 241 300 348 429
#     4  10  22  44  69  98 135 182 235 289 355 426
#     4  12  23  41  74 102 140 189 242 290 360 432
#     4  10  25  44  70 103 145 184 237 300 367 427
#     4  11  24  47  67 108 140 181 247 293 355 441
#
# _framework density 23.142548999999999
#
# number of rings (size 3 to 8) (size 9 to 14) (size 15 to 20)
#    0.000    1.143    4.286    0.857    2.000    6.857 
#    7.714    0.000    0.000    0.000    0.000    0.000 
#    0.000    0.000    0.000    0.000    0.000    0.000 
#
# Total GULP energy -347046.712893 kJ/mol
# GULP energy per Si atom -12394.525460 kJ/mol
# Density = 2.308988 g / cm^3
# Si number density = 23.142549 Si / 1000 Ang^3
#
#
#
# Elastic Constant Matrix: (Units=GPa)
#
#
# Indices 1 2 3 4 5 6 
#
# 1 107.6469 33.5138 32.2228 0.0000 0.0000 0.0000
# 2 33.5138 83.6634 23.9502 0.0000 0.0000 0.0000
# 3 32.2228 23.9502 105.9882 0.0000 0.0000 0.0000
# 4 0.0000 0.0000 0.0000 26.8670 0.0000 0.0000
# 5 0.0000 0.0000 0.0000 0.0000 41.0335 0.0000
# 6 0.0000 0.0000 0.0000 0.0000 0.0000 35.8835
#
#
#
# Elastic Compliance Matrix: (Units=1/GPa)
#
#
# Indices 1 2 3 4 5 6 
#
# 1 0.011229 -0.003764 -0.002563 0.000000 0.000000 0.000000
# 2 -0.003764 0.014041 -0.002028 0.000000 0.000000 0.000000
# 3 -0.002563 -0.002028 0.010673 0.000000 0.000000 0.000000
# 4 0.000000 0.000000 0.000000 0.037220 0.000000 0.000000
# 5 0.000000 0.000000 0.000000 0.000000 0.024370 0.000000
# 6 0.000000 0.000000 0.000000 0.000000 0.000000 0.027868
#
#
# Mechanical properties :
#
#
# Convention : Reuss Voigt Hill
#
# Bulk Modulus (GPa) = 51.99989 52.96359 52.48174
# Shear Modulus (GPa) = 33.66467 34.59756 34.13112
#
# Velocity S-wave (km/s) = 3.81815 3.87069 3.84451
# Velocity P-wave (km/s) = 6.47733 6.55071 6.51412
#
# Compressibility (1/GPa) = 0.01923081
#
# Stress axis : x y z
#
# Youngs Moduli (GPa) = 89.05648 71.21882 93.69733
#
# Poissons Ratio (x) = 0.26809 0.24017
# Poissons Ratio (y) = 0.33523 0.19006
# Poissons Ratio (z) = 0.22827 0.14447
#
# Static dielectric constant tensor:
#      x y z
#    x 4.394260 0.000000 0.000000 
#    y 0.000000 3.999340 0.000000 
#    z 0.000000 0.000000 4.167260 
# 
# 
# High freq. dielectric constant tensor:
#      x y z
#    x 1.920650 0.000000 0.000000 
#    y 0.000000 1.892490 0.000000 
#    z 0.000000 0.000000 1.917460 
# 
# From -- ./inp_files/4770.got.cif
#   From: 2010.03.12/outbox.cif.g09.slc.cpg/sg33_3_cif.got.tgz:4770.got - 2010.04.14 01:49:19.
