data_PCOD8171792
_publ_section_title
;
Structure prediction by ZEFSAII (Michael W. Deem and Ramdas Pophale) SiO2 
 PCOD8171792
Probable space group: P N A 21
;
_chemical_formula_sum "Si O2"
_cell_formula_units_Z 12
_cell_length_a 11.997294
_cell_length_b 6.748788
_cell_length_c 6.809657
_cell_angle_alpha 90.000000
_cell_angle_beta 90.000000
_cell_angle_gamma 90.000000
_cell_volume 551.358818
_symmetry_space_group_name_H-M "P N A 21"
_symmetry_group_IT_number 33
_symmetry_cell_setting 'orthorhombic'
loop_
_space_group_symop_operation_xyz
x,y,z
-x,-y,1/2+z
1/2-x,1/2+y,1/2+z
1/2+x,1/2-y,z
loop_
_atom_site_type_symbol
_atom_site_label
_atom_site_fract_x
_atom_site_fract_y
_atom_site_fract_z
Si Si1 0.644894 0.931289 0.219700
Si Si2 0.857596 0.111784 0.397460
Si Si3 0.000037 0.236212 0.044267
O O1 0.547180 0.839698 0.350622
O O2 0.752607 0.973678 0.350892
O O3 0.601656 0.135522 0.127946
O O4 0.680274 0.779910 0.049456
O O5 0.901245 0.216714 0.201082
O O6 0.955533 0.981186 0.491829
#
# Coordination Sequence:
#
# PCOD8171792 Si02
#       3
#     4   4   4
#     4  12  28  46  75 107 142 188 239 293 359 422
#     4  12  28  46  75 107 142 188 239 293 359 422
#     4  12  26  48  72 106 148 184 234 296 356 426
#
# _framework density 21.764412
#
# number of rings (size 3 to 8) (size 9 to 14) (size 15 to 20)
#    0.000    0.000    6.667    2.000    9.333    5.333 
#    0.000    0.000    0.000    0.000    0.000    0.000 
#    0.000    0.000    0.000    0.000    0.000    0.000 
#
# Total GULP energy -148939.907387 kJ/mol
# GULP energy per Si atom -12411.658949 kJ/mol
# Density = 2.171488 g / cm^3
# Si number density = 21.764412 Si / 1000 Ang^3
#
#
#
# Elastic Constant Matrix: (Units=GPa)
#
#
# Indices 1 2 3 4 5 6 
#
# 1 84.7894 18.9218 23.2592 0.0000 0.0000 0.0000
# 2 18.9218 92.2998 32.8484 0.0000 0.0000 0.0000
# 3 23.2592 32.8484 95.8948 0.0000 0.0000 0.0000
# 4 0.0000 0.0000 0.0000 47.9239 0.0000 0.0000
# 5 0.0000 0.0000 0.0000 0.0000 41.3458 0.0000
# 6 0.0000 0.0000 0.0000 0.0000 0.0000 42.1753
#
#
#
# Elastic Compliance Matrix: (Units=1/GPa)
#
#
# Indices 1 2 3 4 5 6 
#
# 1 0.012875 -0.001740 -0.002527 0.000000 0.000000 0.000000
# 2 -0.001740 0.012574 -0.003885 0.000000 0.000000 0.000000
# 3 -0.002527 -0.003885 0.012372 0.000000 0.000000 0.000000
# 4 0.000000 0.000000 0.000000 0.020866 0.000000 0.000000
# 5 0.000000 0.000000 0.000000 0.000000 0.024186 0.000000
# 6 0.000000 0.000000 0.000000 0.000000 0.000000 0.023711
#
#
# Mechanical properties :
#
#
# Convention : Reuss Voigt Hill
#
# Bulk Modulus (GPa) = 46.47537 47.00477 46.74007
# Shear Modulus (GPa) = 38.44369 39.48596 38.96482
#
# Velocity S-wave (km/s) = 4.20736 4.26402 4.23578
# Velocity P-wave (km/s) = 6.70841 6.77395 6.74126
#
# Compressibility (1/GPa) = 0.02151677
#
# Stress axis : x y z
#
# Youngs Moduli (GPa) = 77.66729 79.53154 80.82935
#
# Poissons Ratio (x) = 0.13841 0.20424
# Poissons Ratio (y) = 0.13516 0.31402
# Poissons Ratio (z) = 0.19625 0.30898
#
# Static dielectric constant tensor:
#      x y z
#    x 3.691970 0.000000 0.000000 
#    y 0.000000 3.939620 0.000000 
#    z 0.000000 0.000000 4.035190 
# 
# 
# High freq. dielectric constant tensor:
#      x y z
#    x 1.854580 0.000000 0.000000 
#    y 0.000000 1.868140 0.000000 
#    z 0.000000 0.000000 1.872960 
# 
# From -- ./inp_files/236.got.cif
#   From: 2010.03.12/outbox.cif.g09.slc.cpg/sg33_1_cif.got.tgz:236.got - 2010.04.14 01:49:19.
