data_PCOD8171772
_publ_section_title
;
Structure prediction by ZEFSAII (Michael W. Deem and Ramdas Pophale) SiO2 
 PCOD8171772
Probable space group: P N A 21
;
_chemical_formula_sum "Si O2"
_cell_formula_units_Z 28
_cell_length_a 12.688993
_cell_length_b 14.813650
_cell_length_c 6.418441
_cell_angle_alpha 90.000000
_cell_angle_beta 90.000000
_cell_angle_gamma 90.000000
_cell_volume 1206.476288
_symmetry_space_group_name_H-M "P N A 21"
_symmetry_group_IT_number 33
_symmetry_cell_setting 'orthorhombic'
loop_
_space_group_symop_operation_xyz
x,y,z
-x,-y,1/2+z
1/2-x,1/2+y,1/2+z
1/2+x,1/2-y,z
loop_
_atom_site_type_symbol
_atom_site_label
_atom_site_fract_x
_atom_site_fract_y
_atom_site_fract_z
Si Si1 0.156957 0.979816 0.461820
Si Si2 0.140652 0.561567 0.053481
Si Si3 0.805778 0.653121 0.201677
Si Si4 0.899193 0.237478 0.628195
Si Si5 0.449352 0.920000 0.832992
Si Si6 0.511350 0.606476 0.785646
Si Si7 0.461893 0.760862 0.510351
O O1 0.231490 0.920362 0.313933
O O2 0.118253 0.926542 0.668471
O O3 0.234447 0.064451 0.511366
O O4 0.054690 0.017179 0.342804
O O5 0.085654 0.659270 0.064121
O O6 0.130781 0.495347 0.249735
O O7 0.058266 0.523224 0.879830
O O8 0.723940 0.719575 0.090693
O O9 0.862335 0.714912 0.372036
O O10 0.890280 0.617543 0.037737
O O11 0.963360 0.165642 0.490029
O O12 0.936315 0.234078 0.869008
O O13 0.482137 0.842532 0.669411
O O14 0.439575 0.669187 0.637660
#
# Coordination Sequence:
#
# PCOD8171772 Si02
#       7
#     4   4   4   4   4   4   4
#     4  12  28  48  76 112 150 207 262 318 401 459
#     4  12  25  43  77 109 146 200 248 324 387 453
#     4  12  26  48  75 112 152 208 252 316 392 472
#     4  12  27  47  76 108 152 203 257 312 394 462
#     4  12  25  49  74 112 161 189 259 324 387 467
#     4  12  28  52  76 109 160 205 261 330 382 485
#     4  12  25  49  76 110 153 202 253 318 389 464
#
# _framework density 23.208079999999999
#
# number of rings (size 3 to 8) (size 9 to 14) (size 15 to 20)
#    0.000    0.000    5.714    3.429    4.000    2.286 
#    0.000    0.000    0.000    0.000    0.000    0.000 
#    0.000    0.000    0.000    0.000    0.000    0.000 
#
# Total GULP energy -346952.752711 kJ/mol
# GULP energy per Si atom -12391.169740 kJ/mol
# Density = 2.315526 g / cm^3
# Si number density = 23.208080 Si / 1000 Ang^3
#
#
#
# Elastic Constant Matrix: (Units=GPa)
#
#
# Indices 1 2 3 4 5 6 
#
# 1 136.3702 41.7241 56.1538 0.0000 0.0000 0.0000
# 2 41.7241 87.1156 41.7909 0.0000 0.0000 0.0000
# 3 56.1538 41.7909 120.7404 0.0000 0.0000 0.0000
# 4 0.0000 0.0000 0.0000 42.2821 0.0000 0.0000
# 5 0.0000 0.0000 0.0000 0.0000 37.5743 0.0000
# 6 0.0000 0.0000 0.0000 0.0000 0.0000 45.1732
#
#
#
# Elastic Compliance Matrix: (Units=1/GPa)
#
#
# Indices 1 2 3 4 5 6 
#
# 1 0.009670 -0.002966 -0.003470 0.000000 0.000000 0.000000
# 2 -0.002966 0.014675 -0.003700 0.000000 0.000000 0.000000
# 3 -0.003470 -0.003700 0.011177 0.000000 0.000000 0.000000
# 4 0.000000 0.000000 0.000000 0.023651 0.000000 0.000000
# 5 0.000000 0.000000 0.000000 0.000000 0.026614 0.000000
# 6 0.000000 0.000000 0.000000 0.000000 0.000000 0.022137
#
#
# Mechanical properties :
#
#
# Convention : Reuss Voigt Hill
#
# Bulk Modulus (GPa) = 65.58191 69.28486 67.43338
# Shear Modulus (GPa) = 37.51560 38.64309 38.07935
#
# Velocity S-wave (km/s) = 4.02492 4.08495 4.05505
# Velocity P-wave (km/s) = 7.06538 7.22272 7.14448
#
# Compressibility (1/GPa) = 0.01524811
#
# Stress axis : x y z
#
# Youngs Moduli (GPa) = 103.41667 68.14536 89.47176
#
# Poissons Ratio (x) = 0.20215 0.31050
# Poissons Ratio (y) = 0.30678 0.33100
# Poissons Ratio (z) = 0.35889 0.25211
#
# Static dielectric constant tensor:
#      x y z
#    x 4.608700 0.000000 0.000000 
#    y 0.000000 4.326060 0.000000 
#    z 0.000000 0.000000 4.410470 
# 
# 
# High freq. dielectric constant tensor:
#      x y z
#    x 1.926880 0.000000 0.000000 
#    y 0.000000 1.929540 0.000000 
#    z 0.000000 0.000000 1.921890 
# 
# From -- ./inp_files/925.got.cif
#   From: 2010.03.12/outbox.cif.g09.slc.cpg/sg33_1_cif.got.tgz:925.got - 2010.04.14 01:49:19.
