data_PCOD8171562
_publ_section_title
;
Structure prediction by ZEFSAII (Michael W. Deem and Ramdas Pophale) SiO2 
 PCOD8171562
Probable space group: P N A 21
;
_chemical_formula_sum "Si O2"
_cell_formula_units_Z 16
_cell_length_a 9.117401
_cell_length_b 10.404771
_cell_length_c 7.653531
_cell_angle_alpha 90.000000
_cell_angle_beta 90.000000
_cell_angle_gamma 90.000000
_cell_volume 726.048158
_symmetry_space_group_name_H-M "P N A 21"
_symmetry_group_IT_number 33
_symmetry_cell_setting 'orthorhombic'
loop_
_space_group_symop_operation_xyz
x,y,z
-x,-y,1/2+z
1/2-x,1/2+y,1/2+z
1/2+x,1/2-y,z
loop_
_atom_site_type_symbol
_atom_site_label
_atom_site_fract_x
_atom_site_fract_y
_atom_site_fract_z
Si Si1 0.067534 0.484422 0.447510
Si Si2 0.094352 0.239669 0.216688
Si Si3 0.735200 0.002259 0.814343
Si Si4 0.340077 0.253872 0.968754
O O1 0.123266 0.366855 0.330757
O O2 0.142870 0.479572 0.636740
O O3 0.112102 0.624287 0.366390
O O4 0.889321 0.482249 0.464332
O O5 0.152848 0.116742 0.321669
O O6 0.171618 0.245209 0.028039
O O7 0.925349 0.227840 0.155613
O O8 0.844541 0.123086 0.842038
#
# Coordination Sequence:
#
# PCOD8171562 Si02
#       4
#     4   4   4   4
#     4  11  22  44  69  97 138 182 216 291 340 399
#     4  11  23  44  68  96 140 175 229 281 337 405
#     4  11  24  43  71 101 139 181 228 279 349 410
#     4  11  23  45  66  98 139 176 225 287 332 414
#
# _framework density 22.037105
#
# number of rings (size 3 to 8) (size 9 to 14) (size 15 to 20)
#    0.000    1.000    7.500    0.000    0.000    8.000 
#    4.500    0.000    0.000    0.000    0.000    0.000 
#    0.000    0.000    0.000    0.000    0.000    0.000 
#
# Total GULP energy -198257.157348 kJ/mol
# GULP energy per Si atom -12391.072334 kJ/mol
# Density = 2.198695 g / cm^3
# Si number density = 22.037105 Si / 1000 Ang^3
#
#
#
# Elastic Constant Matrix: (Units=GPa)
#
#
# Indices 1 2 3 4 5 6 
#
# 1 51.2789 52.7364 25.5475 0.0000 0.0000 0.0000
# 2 52.7364 240.0704 60.2912 0.0000 0.0000 0.0000
# 3 25.5475 60.2912 56.2403 0.0000 0.0000 0.0000
# 4 0.0000 0.0000 0.0000 46.0714 0.0000 0.0000
# 5 0.0000 0.0000 0.0000 0.0000 41.9942 0.0000
# 6 0.0000 0.0000 0.0000 0.0000 0.0000 40.3127
#
#
#
# Elastic Compliance Matrix: (Units=1/GPa)
#
#
# Indices 1 2 3 4 5 6 
#
# 1 0.027769 -0.004012 -0.008313 0.000000 0.000000 0.000000
# 2 -0.004012 0.006280 -0.004909 0.000000 0.000000 0.000000
# 3 -0.008313 -0.004909 0.026820 0.000000 0.000000 0.000000
# 4 0.000000 0.000000 0.000000 0.021705 0.000000 0.000000
# 5 0.000000 0.000000 0.000000 0.000000 0.023813 0.000000
# 6 0.000000 0.000000 0.000000 0.000000 0.000000 0.024806
#
#
# Mechanical properties :
#
#
# Convention : Reuss Voigt Hill
#
# Bulk Modulus (GPa) = 37.87945 69.41552 53.64748
# Shear Modulus (GPa) = 28.65938 39.60995 34.13466
#
# Velocity S-wave (km/s) = 3.61016 4.24420 3.93996
# Velocity P-wave (km/s) = 5.88251 7.45556 6.71526
#
# Compressibility (1/GPa) = 0.02639954
#
# Stress axis : x y z
#
# Youngs Moduli (GPa) = 36.01115 159.24046 37.28537
#
# Poissons Ratio (x) = 0.63893 0.30995
# Poissons Ratio (y) = 0.14449 0.18305
# Poissons Ratio (z) = 0.29936 0.78179
#
# Static dielectric constant tensor:
#      x y z
#    x 4.074040 0.000000 0.000000 
#    y 0.000000 4.322770 0.000000 
#    z 0.000000 0.000000 3.563040 
# 
# 
# High freq. dielectric constant tensor:
#      x y z
#    x 1.873410 0.000000 0.000000 
#    y 0.000000 1.889170 0.000000 
#    z 0.000000 0.000000 1.834670 
# 
# From -- ./inp_files/2897.got.cif
#   From: 2010.03.12/outbox.cif.g09.slc.cpg/sg33_2_cif.got.tgz:2897.got - 2010.04.14 01:49:19.
