data_PCOD8171790
_publ_section_title
;
Structure prediction by ZEFSAII (Michael W. Deem and Ramdas Pophale) SiO2 
 PCOD8171790
Probable space group: P N A 21
;
_chemical_formula_sum "Si O2"
_cell_formula_units_Z 24
_cell_length_a 9.849380
_cell_length_b 17.722814
_cell_length_c 5.765131
_cell_angle_alpha 90.000000
_cell_angle_beta 90.000000
_cell_angle_gamma 90.000000
_cell_volume 1006.353944
_symmetry_space_group_name_H-M "P N A 21"
_symmetry_group_IT_number 33
_symmetry_cell_setting 'orthorhombic'
loop_
_space_group_symop_operation_xyz
x,y,z
-x,-y,1/2+z
1/2-x,1/2+y,1/2+z
1/2+x,1/2-y,z
loop_
_atom_site_type_symbol
_atom_site_label
_atom_site_fract_x
_atom_site_fract_y
_atom_site_fract_z
Si Si1 0.364927 0.813793 0.338730
Si Si2 0.556343 0.902330 0.654948
Si Si3 0.498600 0.703852 0.997628
Si Si4 0.758566 0.267843 0.233166
Si Si5 0.458291 0.465939 0.436526
Si Si6 0.335593 0.939470 0.011367
O O1 0.485197 0.867078 0.432419
O O2 0.442765 0.741751 0.231740
O O3 0.243176 0.783285 0.501986
O O4 0.283347 0.872608 0.178577
O O5 0.690266 0.853282 0.704614
O O6 0.596745 0.989165 0.634618
O O7 0.446821 0.896830 0.858318
O O8 0.483041 0.614579 0.011682
O O9 0.400226 0.733025 0.793967
O O10 0.651456 0.728594 0.933105
O O11 0.522368 0.488742 0.184200
O O12 0.297911 0.466402 0.374050
#
# Coordination Sequence:
#
# PCOD8171790 Si02
#       6
#     4   4   4   4   4   4
#     4  12  26  47  79 107 158 204 268 339 407 489
#     4  12  26  47  79 112 151 206 271 335 404 495
#     4  12  28  48  77 111 156 205 271 330 415 483
#     4  12  27  48  76 117 150 211 269 340 402 491
#     4  12  32  52  79 118 163 216 265 338 410 498
#     4  12  27  50  78 113 158 212 270 336 416 486
#
# _framework density 23.848469000000001
#
# number of rings (size 3 to 8) (size 9 to 14) (size 15 to 20)
#    0.000    0.000    5.000    3.000   14.000    1.333 
#    0.000    0.000    0.000    0.000    0.000    0.000 
#    0.000    0.000    0.000    0.000    0.000    0.000 
#
# Total GULP energy -297437.878880 kJ/mol
# GULP energy per Si atom -12393.244953 kJ/mol
# Density = 2.379419 g / cm^3
# Si number density = 23.848469 Si / 1000 Ang^3
#
#
#
# Elastic Constant Matrix: (Units=GPa)
#
#
# Indices 1 2 3 4 5 6 
#
# 1 95.6529 23.9056 16.1338 0.0000 0.0000 0.0000
# 2 23.9056 153.6187 38.3698 0.0000 0.0000 0.0000
# 3 16.1338 38.3698 86.7249 0.0000 0.0000 0.0000
# 4 0.0000 0.0000 0.0000 41.9107 0.0000 0.0000
# 5 0.0000 0.0000 0.0000 0.0000 35.8327 0.0000
# 6 0.0000 0.0000 0.0000 0.0000 0.0000 41.9358
#
#
#
# Elastic Compliance Matrix: (Units=1/GPa)
#
#
# Indices 1 2 3 4 5 6 
#
# 1 0.011038 -0.001355 -0.001454 0.000000 0.000000 0.000000
# 2 -0.001355 0.007485 -0.003059 0.000000 0.000000 0.000000
# 3 -0.001454 -0.003059 0.013155 0.000000 0.000000 0.000000
# 4 0.000000 0.000000 0.000000 0.023860 0.000000 0.000000
# 5 0.000000 0.000000 0.000000 0.000000 0.027907 0.000000
# 6 0.000000 0.000000 0.000000 0.000000 0.000000 0.023846
#
#
# Mechanical properties :
#
#
# Convention : Reuss Voigt Hill
#
# Bulk Modulus (GPa) = 50.14702 54.75721 52.45211
# Shear Modulus (GPa) = 39.78523 41.10833 40.44678
#
# Velocity S-wave (km/s) = 4.08885 4.15629 4.12271
# Velocity P-wave (km/s) = 6.58518 6.78552 6.68610
#
# Compressibility (1/GPa) = 0.01994137
#
# Stress axis : x y z
#
# Youngs Moduli (GPa) = 90.59396 133.60826 76.01771
#
# Poissons Ratio (x) = 0.18097 0.11055
# Poissons Ratio (y) = 0.12271 0.23257
# Poissons Ratio (z) = 0.13174 0.40876
#
# Static dielectric constant tensor:
#      x y z
#    x 4.252640 0.000000 0.000000 
#    y 0.000000 4.616340 0.000000 
#    z 0.000000 0.000000 4.307100 
# 
# 
# High freq. dielectric constant tensor:
#      x y z
#    x 1.954470 0.000000 0.000000 
#    y 0.000000 1.970650 0.000000 
#    z 0.000000 0.000000 1.940400 
# 
# From -- ./inp_files/399.got.cif
#   From: 2010.03.12/outbox.cif.g09.slc.cpg/sg33_1_cif.got.tgz:399.got - 2010.04.14 01:49:19.
