data_PCOD8171894
_publ_section_title
;
Structure prediction by ZEFSAII (Michael W. Deem and Ramdas Pophale) SiO2 
 PCOD8171894
Probable space group: P N N 2
;
_chemical_formula_sum "Si O2"
_cell_formula_units_Z 30
_cell_length_a 5.300961
_cell_length_b 12.522565
_cell_length_c 21.612000
_cell_angle_alpha 90.000000
_cell_angle_beta 90.000000
_cell_angle_gamma 90.000000
_cell_volume 1434.639759
_symmetry_space_group_name_H-M "P N N 2"
_symmetry_group_IT_number 34
_symmetry_cell_setting 'orthorhombic'
loop_
_space_group_symop_operation_xyz
x,y,z
-x,-y,z
1/2-x,1/2+y,1/2+z
1/2+x,1/2-y,1/2+z
loop_
_atom_site_type_symbol
_atom_site_label
_atom_site_fract_x
_atom_site_fract_y
_atom_site_fract_z
Si Si1 0.758702 0.066949 0.903260
Si Si2 0.836962 0.214758 0.572884
Si Si3 0.841062 0.356482 0.697402
Si Si4 0.697154 0.669527 0.278249
Si Si5 0.189442 0.637724 0.209538
Si Si6 0.000000 0.000000 0.620123
Si Si7 0.160907 0.880731 0.160537
Si Si8 0.327017 0.314576 0.529889
O O1 0.734827 0.157139 0.850294
O O2 0.836635 0.118802 0.967633
O O3 0.500000 0.000000 0.909411
O O4 0.000000 0.000000 0.881354
O O5 0.860394 0.270057 0.640598
O O6 0.578529 0.243288 0.537406
O O7 0.851965 0.087522 0.579781
O O8 0.071702 0.246110 0.529265
O O9 0.792736 0.295886 0.761865
O O10 0.604650 0.434158 0.682838
O O11 0.097583 0.426356 0.697574
O O12 0.414386 0.631909 0.260770
O O13 0.918592 0.606545 0.240218
O O14 0.271183 0.554032 0.157827
O O15 0.151166 0.753753 0.177836
O O16 0.186379 0.897884 0.087203
#
# Coordination Sequence:
#
# PCOD8171894 Si02
#       8
#     4   4   4   4   4   2   4   4
#     4  12  26  38  53  70  93 149 200 223 252 300
#     4  10  20  31  53  74 103 142 161 209 263 307
#     4   8  14  27  43  68  96 128 158 183 244 302
#     4  10  20  33  44  71 106 141 171 203 239 303
#     4  10  20  29  48  76 114 136 161 197 245 322
#     4  12  20  30  52  90 112 144 170 190 264 352
#     4   8  14  29  45  65  89 135 157 191 258 283
#     4  10  20  39  48  65  99 139 180 227 255 281
#
# _framework density 20.911171
#
# number of rings (size 3 to 8) (size 9 to 14) (size 15 to 20)
#    0.000    2.133    4.000    1.600    2.800    1.600 
#    0.000    0.000    0.000    0.000    0.000    0.000 
#    0.000    0.000  204.000    0.000    0.800    0.000 
#
# Total GULP energy -371704.920771 kJ/mol
# GULP energy per Si atom -12390.164026 kJ/mol
# Density = 2.086358 g / cm^3
# Si number density = 20.911171 Si / 1000 Ang^3
#
#
#
# Elastic Constant Matrix: (Units=GPa)
#
#
# Indices 1 2 3 4 5 6 
#
# 1 200.0829 35.6724 41.2050 0.0000 0.0000 0.0000
# 2 35.6724 49.2654 22.3775 0.0000 0.0000 0.0000
# 3 41.2050 22.3775 112.4885 0.0000 0.0000 0.0000
# 4 0.0000 0.0000 0.0000 24.4364 0.0000 0.0000
# 5 0.0000 0.0000 0.0000 0.0000 23.0805 0.0000
# 6 0.0000 0.0000 0.0000 0.0000 0.0000 33.1531
#
#
#
# Elastic Compliance Matrix: (Units=1/GPa)
#
#
# Indices 1 2 3 4 5 6 
#
# 1 0.005947 -0.003646 -0.001453 0.000000 0.000000 0.000000
# 2 -0.003646 0.024550 -0.003548 0.000000 0.000000 0.000000
# 3 -0.001453 -0.003548 0.010128 0.000000 0.000000 0.000000
# 4 0.000000 0.000000 0.000000 0.040923 0.000000 0.000000
# 5 0.000000 0.000000 0.000000 0.000000 0.043327 0.000000
# 6 0.000000 0.000000 0.000000 0.000000 0.000000 0.030163
#
#
# Mechanical properties :
#
#
# Convention : Reuss Voigt Hill
#
# Bulk Modulus (GPa) = 42.86297 62.26074 52.56185
# Shear Modulus (GPa) = 27.76090 33.63947 30.70018
#
# Velocity S-wave (km/s) = 3.64753 4.01519 3.83577
# Velocity P-wave (km/s) = 6.18720 7.16479 6.69386
#
# Compressibility (1/GPa) = 0.02333016
#
# Stress axis : x y z
#
# Youngs Moduli (GPa) = 168.14406 40.73301 98.73690
#
# Poissons Ratio (x) = 0.14852 0.14348
# Poissons Ratio (y) = 0.61310 0.35033
# Poissons Ratio (z) = 0.24434 0.14453
#
# Static dielectric constant tensor:
#      x y z
#    x 5.328740 0.000000 0.000000 
#    y 0.000000 3.696730 0.000000 
#    z 0.000000 0.000000 3.433830 
# 
# 
# High freq. dielectric constant tensor:
#      x y z
#    x 1.869460 0.000000 0.000000 
#    y 0.000000 1.818870 0.000000 
#    z 0.000000 0.000000 1.768300 
# 
# From -- ./inp_files/7246.got.cif
#   From: 2010.03.12/outbox.cif.g09.slc.cpg/sg34_4_cif.got.tgz:7246.got - 2010.04.14 01:56:33.
