data_PCOD8171450
_publ_section_title
;
Structure prediction by ZEFSAII (Michael W. Deem and Ramdas Pophale) SiO2 
 PCOD8171450
Probable space group: P N A 21
;
_chemical_formula_sum "Si O2"
_cell_formula_units_Z 20
_cell_length_a 11.441046
_cell_length_b 9.358971
_cell_length_c 7.795608
_cell_angle_alpha 90.000000
_cell_angle_beta 90.000000
_cell_angle_gamma 90.000000
_cell_volume 834.725779
_symmetry_space_group_name_H-M "P N A 21"
_symmetry_group_IT_number 33
_symmetry_cell_setting 'orthorhombic'
loop_
_space_group_symop_operation_xyz
x,y,z
-x,-y,1/2+z
1/2-x,1/2+y,1/2+z
1/2+x,1/2-y,z
loop_
_atom_site_type_symbol
_atom_site_label
_atom_site_fract_x
_atom_site_fract_y
_atom_site_fract_z
Si Si1 0.855056 0.124244 0.934560
Si Si2 0.566816 0.445561 0.722268
Si Si3 0.139735 0.534992 0.821191
Si Si4 0.779462 0.425998 0.966905
Si Si5 0.051156 0.345282 0.546672
O O1 0.850149 0.291790 0.888364
O O2 0.933917 0.055319 0.785303
O O3 0.725066 0.059263 0.938912
O O4 0.910570 0.093050 0.121602
O O5 0.650534 0.432733 0.887650
O O6 0.586996 0.317940 0.583619
O O7 0.220544 0.607852 0.673092
O O8 0.044237 0.430684 0.728567
O O9 0.071541 0.646525 0.943454
O O10 0.846837 0.576520 0.934021
#
# Coordination Sequence:
#
# PCOD8171450 Si02
#       5
#     4   4   4   4   4
#     4  12  27  44  71 104 146 186 236 310 346 431
#     4  12  27  46  70 106 151 183 244 298 365 418
#     4  10  24  43  74 101 136 190 241 287 364 417
#     4  10  24  47  71 103 139 187 242 297 355 437
#     4  10  24  46  74  98 144 190 243 292 356 443
#
# _framework density 23.959965
#
# number of rings (size 3 to 8) (size 9 to 14) (size 15 to 20)
#    1.200    0.000    2.000    2.400    8.400    1.600 
#    0.000    0.000    0.000    0.000    0.000    0.000 
#    0.000    0.000    0.000    0.000    0.000    0.000 
#
# Total GULP energy -247845.037442 kJ/mol
# GULP energy per Si atom -12392.251872 kJ/mol
# Density = 2.390543 g / cm^3
# Si number density = 23.959965 Si / 1000 Ang^3
#
#
#
# Elastic Constant Matrix: (Units=GPa)
#
#
# Indices 1 2 3 4 5 6 
#
# 1 95.7048 26.1335 30.9948 0.0000 0.0000 0.0000
# 2 26.1335 53.2094 4.9559 0.0000 0.0000 0.0000
# 3 30.9948 4.9559 72.3378 0.0000 0.0000 0.0000
# 4 0.0000 0.0000 0.0000 36.6162 0.0000 0.0000
# 5 0.0000 0.0000 0.0000 0.0000 59.5241 0.0000
# 6 0.0000 0.0000 0.0000 0.0000 0.0000 26.6467
#
#
#
# Elastic Compliance Matrix: (Units=1/GPa)
#
#
# Indices 1 2 3 4 5 6 
#
# 1 0.013982 -0.006350 -0.005556 0.000000 0.000000 0.000000
# 2 -0.006350 0.021798 0.001227 0.000000 0.000000 0.000000
# 3 -0.005556 0.001227 0.016120 0.000000 0.000000 0.000000
# 4 0.000000 0.000000 0.000000 0.027310 0.000000 0.000000
# 5 0.000000 0.000000 0.000000 0.000000 0.016800 0.000000
# 6 0.000000 0.000000 0.000000 0.000000 0.000000 0.037528
#
#
# Mechanical properties :
#
#
# Convention : Reuss Voigt Hill
#
# Bulk Modulus (GPa) = 32.73980 38.38003 35.55991
# Shear Modulus (GPa) = 30.28895 35.16858 32.72877
#
# Velocity S-wave (km/s) = 3.55934 3.83535 3.69992
# Velocity P-wave (km/s) = 5.53046 5.97214 5.75553
#
# Compressibility (1/GPa) = 0.03054387
#
# Stress axis : x y z
#
# Youngs Moduli (GPa) = 71.52059 45.87580 62.03290
#
# Poissons Ratio (x) = 0.29130 0.34465
# Poissons Ratio (y) = 0.45413 -0.07613
# Poissons Ratio (z) = 0.39736 -0.05630
#
# Static dielectric constant tensor:
#      x y z
#    x 3.940350 0.000000 0.000000 
#    y 0.000000 4.076970 0.000000 
#    z 0.000000 0.000000 4.104470 
# 
# 
# High freq. dielectric constant tensor:
#      x y z
#    x 1.942550 0.000000 0.000000 
#    y 0.000000 1.933860 0.000000 
#    z 0.000000 0.000000 1.943750 
# 
# From -- ./inp_files/3751.got.cif
#   From: 2010.03.12/outbox.cif.g09.slc.cpg/sg33_2_cif.got.tgz:3751.got - 2010.04.14 01:49:19.
