data_PCOD8171128
_publ_section_title
;
Structure prediction by ZEFSAII (Michael W. Deem and Ramdas Pophale) SiO2 
 PCOD8171128
Probable space group: P N A 21
;
_chemical_formula_sum "Si O2"
_cell_formula_units_Z 20
_cell_length_a 9.910120
_cell_length_b 12.427981
_cell_length_c 7.786973
_cell_angle_alpha 90.000000
_cell_angle_beta 90.000000
_cell_angle_gamma 90.000000
_cell_volume 959.065266
_symmetry_space_group_name_H-M "P N A 21"
_symmetry_group_IT_number 33
_symmetry_cell_setting 'orthorhombic'
loop_
_space_group_symop_operation_xyz
x,y,z
-x,-y,1/2+z
1/2-x,1/2+y,1/2+z
1/2+x,1/2-y,z
loop_
_atom_site_type_symbol
_atom_site_label
_atom_site_fract_x
_atom_site_fract_y
_atom_site_fract_z
Si Si1 0.350910 0.296460 0.103330
Si Si2 0.608257 0.277338 0.328284
Si Si3 0.016214 0.416987 0.547852
Si Si4 0.776389 0.965792 0.035476
Si Si5 0.146710 0.598777 0.363745
O O1 0.502314 0.288590 0.174363
O O2 0.246127 0.271820 0.254854
O O3 0.329522 0.413321 0.022240
O O4 0.329068 0.213174 0.949246
O O5 0.556315 0.196992 0.472298
O O6 0.626858 0.391950 0.420076
O O7 0.875613 0.456998 0.461207
O O8 0.992186 0.401817 0.751609
O O9 0.130852 0.506667 0.509760
O O10 0.772918 0.927773 0.236991
#
# Coordination Sequence:
#
# PCOD8171128 Si02
#       5
#     4   4   4   4   4
#     4  12  24  46  69 106 143 185 230 300 351 417
#     4  12  24  45  71 100 148 181 238 289 354 420
#     4  10  21  45  70  93 137 195 233 274 345 439
#     4  10  25  42  68 106 136 182 238 298 344 413
#     4  10  22  42  72  99 136 187 243 273 354 417
#
# _framework density 20.853638
#
# number of rings (size 3 to 8) (size 9 to 14) (size 15 to 20)
#    1.200    0.000    4.000    2.400    0.000    6.400 
#    0.000    0.000    0.000    0.000    0.000    0.000 
#    0.000    0.000    0.000    0.000    0.000    0.000 
#
# Total GULP energy -247929.271358 kJ/mol
# GULP energy per Si atom -12396.463568 kJ/mol
# Density = 2.080617 g / cm^3
# Si number density = 20.853638 Si / 1000 Ang^3
#
#
#
# Elastic Constant Matrix: (Units=GPa)
#
#
# Indices 1 2 3 4 5 6 
#
# 1 53.9513 16.7112 2.4203 0.0000 0.0000 0.0000
# 2 16.7112 167.9146 26.2230 0.0000 0.0000 0.0000
# 3 2.4203 26.2230 47.5990 0.0000 0.0000 0.0000
# 4 0.0000 0.0000 0.0000 46.6136 0.0000 0.0000
# 5 0.0000 0.0000 0.0000 0.0000 30.1365 0.0000
# 6 0.0000 0.0000 0.0000 0.0000 0.0000 33.1631
#
#
#
# Elastic Compliance Matrix: (Units=1/GPa)
#
#
# Indices 1 2 3 4 5 6 
#
# 1 0.019125 -0.001916 0.000083 0.000000 0.000000 0.000000
# 2 -0.001916 0.006708 -0.003598 0.000000 0.000000 0.000000
# 3 0.000083 -0.003598 0.022987 0.000000 0.000000 0.000000
# 4 0.000000 0.000000 0.000000 0.021453 0.000000 0.000000
# 5 0.000000 0.000000 0.000000 0.000000 0.033182 0.000000
# 6 0.000000 0.000000 0.000000 0.000000 0.000000 0.030154
#
#
# Mechanical properties :
#
#
# Convention : Reuss Voigt Hill
#
# Bulk Modulus (GPa) = 26.34516 40.01933 33.18225
# Shear Modulus (GPa) = 31.82193 36.92332 34.37263
#
# Velocity S-wave (km/s) = 3.91060 4.21241 4.06431
# Velocity P-wave (km/s) = 5.74901 6.54915 6.16208
#
# Compressibility (1/GPa) = 0.03795763
#
# Stress axis : x y z
#
# Youngs Moduli (GPa) = 52.28730 149.07473 43.50306
#
# Poissons Ratio (x) = 0.28568 -0.00362
# Poissons Ratio (y) = 0.10020 0.15653
# Poissons Ratio (z) = -0.00436 0.53639
#
# Static dielectric constant tensor:
#      x y z
#    x 3.696260 0.000000 0.000000 
#    y 0.000000 3.708670 0.000000 
#    z 0.000000 0.000000 3.577920 
# 
# 
# High freq. dielectric constant tensor:
#      x y z
#    x 1.796640 0.000000 0.000000 
#    y 0.000000 1.827720 0.000000 
#    z 0.000000 0.000000 1.813140 
# 
# From -- ./inp_files/2981.got.cif
#   From: 2010.03.12/outbox.cif.g09.slc.cpg/sg33_2_cif.got.tgz:2981.got - 2010.04.14 01:49:19.
