data_PCOD8171406
_publ_section_title
;
Structure prediction by ZEFSAII (Michael W. Deem and Ramdas Pophale) SiO2 
 PCOD8171406
Probable space group: P N A 21
;
_chemical_formula_sum "Si O2"
_cell_formula_units_Z 32
_cell_length_a 8.126741
_cell_length_b 18.981445
_cell_length_c 8.795938
_cell_angle_alpha 90.000000
_cell_angle_beta 90.000000
_cell_angle_gamma 90.000000
_cell_volume 1356.837535
_symmetry_space_group_name_H-M "P N A 21"
_symmetry_group_IT_number 33
_symmetry_cell_setting 'orthorhombic'
loop_
_space_group_symop_operation_xyz
x,y,z
-x,-y,1/2+z
1/2-x,1/2+y,1/2+z
1/2+x,1/2-y,z
loop_
_atom_site_type_symbol
_atom_site_label
_atom_site_fract_x
_atom_site_fract_y
_atom_site_fract_z
Si Si1 0.540591 0.062179 0.797080
Si Si2 0.400217 0.085871 0.245573
Si Si3 0.527969 0.437627 0.317226
Si Si4 0.406855 0.683162 0.047654
Si Si5 0.649865 0.561854 0.505280
Si Si6 0.001909 0.806996 0.379918
Si Si7 0.521048 0.837504 0.040830
Si Si8 0.850596 0.336110 0.963494
O O1 0.584769 0.122945 0.672848
O O2 0.510137 0.988687 0.708911
O O3 0.668104 0.047181 0.937509
O O4 0.371168 0.090684 0.870709
O O5 0.205364 0.070330 0.239640
O O6 0.484274 0.111203 0.398467
O O7 0.432179 0.148912 0.127144
O O8 0.508567 0.368691 0.424899
O O9 0.523543 0.508273 0.421246
O O10 0.383547 0.443946 0.188261
O O11 0.492415 0.667203 0.207478
O O12 0.435713 0.763833 0.998587
O O13 0.213878 0.672132 0.078725
O O14 0.630680 0.643700 0.464012
O O15 0.836956 0.814887 0.477242
O O16 0.050928 0.725585 0.379057
#
# Coordination Sequence:
#
# PCOD8171406 Si02
#       8
#     4   4   4   4   4   4   4   4
#     4  11  23  45  69  99 141 183 238 288 357 429
#     4  10  24  44  68  99 141 181 235 300 348 427
#     4  10  23  46  69 103 143 183 233 297 360 434
#     4  11  23  44  67  95 137 179 236 286 354 427
#     4  11  24  44  71 104 139 184 234 290 364 434
#     4  12  23  41  70  97 138 181 232 291 356 433
#     4  11  24  43  68  98 133 186 230 291 352 418
#     4  12  24  43  68 103 136 185 236 291 363 424
#
# _framework density 23.584254000000001
#
# number of rings (size 3 to 8) (size 9 to 14) (size 15 to 20)
#    0.000    1.000    3.750    2.250    3.500    0.000 
#    4.500    0.000    0.000    0.000    0.000    0.000 
#    0.000    0.000    0.000    0.000    0.000    0.000 
#
# Total GULP energy -396498.239428 kJ/mol
# GULP energy per Si atom -12390.569982 kJ/mol
# Density = 2.353057 g / cm^3
# Si number density = 23.584254 Si / 1000 Ang^3
#
#
#
# Elastic Constant Matrix: (Units=GPa)
#
#
# Indices 1 2 3 4 5 6 
#
# 1 34.0309 13.9757 17.6863 0.0000 0.0000 0.0000
# 2 13.9757 116.4947 43.4257 0.0000 0.0000 0.0000
# 3 17.6863 43.4257 115.6342 0.0000 0.0000 0.0000
# 4 0.0000 0.0000 0.0000 39.2105 0.0000 0.0000
# 5 0.0000 0.0000 0.0000 0.0000 37.6758 0.0000
# 6 0.0000 0.0000 0.0000 0.0000 0.0000 25.1419
#
#
#
# Elastic Compliance Matrix: (Units=1/GPa)
#
#
# Indices 1 2 3 4 5 6 
#
# 1 0.032479 -0.002377 -0.004075 0.000000 0.000000 0.000000
# 2 -0.002377 0.010155 -0.003450 0.000000 0.000000 0.000000
# 3 -0.004075 -0.003450 0.010567 0.000000 0.000000 0.000000
# 4 0.000000 0.000000 0.000000 0.025503 0.000000 0.000000
# 5 0.000000 0.000000 0.000000 0.000000 0.026542 0.000000
# 6 0.000000 0.000000 0.000000 0.000000 0.000000 0.039774
#
#
# Mechanical properties :
#
#
# Convention : Reuss Voigt Hill
#
# Bulk Modulus (GPa) = 29.94329 46.25948 38.10138
# Shear Modulus (GPa) = 28.41579 33.14379 30.77979
#
# Velocity S-wave (km/s) = 3.47488 3.75285 3.61653
# Velocity P-wave (km/s) = 5.36876 6.19965 5.79910
#
# Compressibility (1/GPa) = 0.03339647
#
# Stress axis : x y z
#
# Youngs Moduli (GPa) = 30.78896 98.46950 94.63507
#
# Poissons Ratio (x) = 0.23411 0.38562
# Poissons Ratio (y) = 0.07320 0.32651
# Poissons Ratio (z) = 0.12546 0.33974
#
# Static dielectric constant tensor:
#      x y z
#    x 3.979990 0.000000 0.000000 
#    y 0.000000 4.686840 0.000000 
#    z 0.000000 0.000000 4.390890 
# 
# 
# High freq. dielectric constant tensor:
#      x y z
#    x 1.906710 0.000000 0.000000 
#    y 0.000000 1.951660 0.000000 
#    z 0.000000 0.000000 1.940040 
# 
# From -- ./inp_files/3517.got.cif
#   From: 2010.03.12/outbox.cif.g09.slc.cpg/sg33_2_cif.got.tgz:3517.got - 2010.04.14 01:49:19.
