data_PCOD8171577
_publ_section_title
;
Structure prediction by ZEFSAII (Michael W. Deem and Ramdas Pophale) SiO2 
 PCOD8171577
Probable space group: P N A 21
;
_chemical_formula_sum "Si O2"
_cell_formula_units_Z 32
_cell_length_a 12.771471
_cell_length_b 13.677196
_cell_length_c 8.013966
_cell_angle_alpha 90.000000
_cell_angle_beta 90.000000
_cell_angle_gamma 90.000000
_cell_volume 1399.862848
_symmetry_space_group_name_H-M "P N A 21"
_symmetry_group_IT_number 33
_symmetry_cell_setting 'orthorhombic'
loop_
_space_group_symop_operation_xyz
x,y,z
-x,-y,1/2+z
1/2-x,1/2+y,1/2+z
1/2+x,1/2-y,z
loop_
_atom_site_type_symbol
_atom_site_label
_atom_site_fract_x
_atom_site_fract_y
_atom_site_fract_z
Si Si1 0.666363 0.774031 0.111680
Si Si2 0.327883 0.575430 0.035421
Si Si3 0.594513 0.944430 0.341798
Si Si4 0.415367 0.886722 0.577473
Si Si5 0.815632 0.953578 0.416945
Si Si6 0.989919 0.823514 0.571939
Si Si7 0.298049 0.373823 0.893646
Si Si8 0.455333 0.371830 0.428547
O O1 0.756434 0.829110 0.005671
O O2 0.601270 0.848523 0.226166
O O3 0.715089 0.682363 0.217212
O O4 0.587941 0.735122 0.970013
O O5 0.301199 0.535115 0.217613
O O6 0.309231 0.493048 0.890952
O O7 0.447219 0.607258 0.046152
O O8 0.485124 0.942978 0.439886
O O9 0.693809 0.942242 0.472864
O O10 0.597557 0.044416 0.236708
O O11 0.472915 0.787325 0.629503
O O12 0.303161 0.853390 0.505854
O O13 0.888301 0.862652 0.471448
O O14 0.865964 0.052309 0.484423
O O15 0.094746 0.829409 0.465063
O O16 0.008514 0.886542 0.738475
#
# Coordination Sequence:
#
# PCOD8171577 Si02
#       8
#     4   4   4   4   4   4   4   4
#     4  11  26  45  69 104 151 189 237 313 370 448
#     4  11  24  46  71 105 142 189 251 295 366 446
#     4  11  26  47  69 101 148 193 238 305 374 450
#     4  12  26  46  72 102 146 190 246 298 378 446
#     4  11  22  49  69 101 140 183 240 307 359 435
#     4  12  26  42  76 104 138 188 244 304 364 435
#     4  12  23  47  76 102 141 203 241 301 374 443
#     4  12  25  42  72 105 142 181 245 305 363 439
#
# _framework density 22.859380999999999
#
# number of rings (size 3 to 8) (size 9 to 14) (size 15 to 20)
#    0.000    0.500    6.250    2.250    5.250    3.000 
#    0.000    0.000    0.000    0.000    0.000    0.000 
#    0.000    0.000    0.000    0.000    0.000    0.000 
#
# Total GULP energy -396687.291422 kJ/mol
# GULP energy per Si atom -12396.477857 kJ/mol
# Density = 2.280735 g / cm^3
# Si number density = 22.859381 Si / 1000 Ang^3
#
#
#
# Elastic Constant Matrix: (Units=GPa)
#
#
# Indices 1 2 3 4 5 6 
#
# 1 135.6224 51.1849 15.8362 0.0000 0.0000 0.0000
# 2 51.1849 150.0249 30.2425 0.0000 0.0000 0.0000
# 3 15.8362 30.2425 38.8263 0.0000 0.0000 0.0000
# 4 0.0000 0.0000 0.0000 13.3188 0.0000 0.0000
# 5 0.0000 0.0000 0.0000 0.0000 26.4331 0.0000
# 6 0.0000 0.0000 0.0000 0.0000 0.0000 46.5267
#
#
#
# Elastic Compliance Matrix: (Units=1/GPa)
#
#
# Indices 1 2 3 4 5 6 
#
# 1 0.008530 -0.002620 -0.001438 0.000000 0.000000 0.000000
# 2 -0.002620 0.008712 -0.005717 0.000000 0.000000 0.000000
# 3 -0.001438 -0.005717 0.030796 0.000000 0.000000 0.000000
# 4 0.000000 0.000000 0.000000 0.075082 0.000000 0.000000
# 5 0.000000 0.000000 0.000000 0.000000 0.037831 0.000000
# 6 0.000000 0.000000 0.000000 0.000000 0.000000 0.021493
#
#
# Mechanical properties :
#
#
# Convention : Reuss Voigt Hill
#
# Bulk Modulus (GPa) = 35.10454 57.66677 46.38566
# Shear Modulus (GPa) = 23.64162 32.40305 28.02234
#
# Velocity S-wave (km/s) = 3.21942 3.76905 3.50502
# Velocity P-wave (km/s) = 5.40459 6.65000 6.05938
#
# Compressibility (1/GPa) = 0.02848635
#
# Stress axis : x y z
#
# Youngs Moduli (GPa) = 117.22902 114.78321 32.47217
#
# Poissons Ratio (x) = 0.30078 0.04670
# Poissons Ratio (y) = 0.30719 0.18565
# Poissons Ratio (z) = 0.16860 0.65624
#
# Static dielectric constant tensor:
#      x y z
#    x 4.538890 0.000000 0.000000 
#    y 0.000000 4.254640 0.000000 
#    z 0.000000 0.000000 3.785760 
# 
# 
# High freq. dielectric constant tensor:
#      x y z
#    x 1.919820 0.000000 0.000000 
#    y 0.000000 1.913220 0.000000 
#    z 0.000000 0.000000 1.875430 
# 
# From -- ./inp_files/3948.got.cif
#   From: 2010.03.12/outbox.cif.g09.slc.cpg/sg33_2_cif.got.tgz:3948.got - 2010.04.14 01:49:19.
