data_PCOD8171998
_publ_section_title
;
Structure prediction by ZEFSAII (Michael W. Deem and Ramdas Pophale) SiO2 
 PCOD8171998
Probable space group: P N N 2
;
_chemical_formula_sum "Si O2"
_cell_formula_units_Z 24
_cell_length_a 7.509915
_cell_length_b 6.083126
_cell_length_c 22.272506
_cell_angle_alpha 90.000000
_cell_angle_beta 90.000000
_cell_angle_gamma 90.000000
_cell_volume 1017.491801
_symmetry_space_group_name_H-M "P N N 2"
_symmetry_group_IT_number 34
_symmetry_cell_setting 'orthorhombic'
loop_
_space_group_symop_operation_xyz
x,y,z
-x,-y,z
1/2-x,1/2+y,1/2+z
1/2+x,1/2-y,1/2+z
loop_
_atom_site_type_symbol
_atom_site_label
_atom_site_fract_x
_atom_site_fract_y
_atom_site_fract_z
Si Si1 0.184273 0.869975 0.412700
Si Si2 0.759400 0.208530 0.066680
Si Si3 0.000000 0.500000 0.218018
Si Si4 0.000000 0.500000 0.474325
Si Si5 0.257046 0.143842 0.171146
Si Si6 0.500000 0.000000 0.498848
Si Si7 0.000000 0.000000 0.630990
Si Si8 0.181625 0.868826 0.279825
O O1 0.327969 0.960812 0.458613
O O2 0.270775 0.869755 0.345775
O O3 0.138757 0.622910 0.431348
O O4 0.000000 0.000000 0.416649
O O5 0.677011 0.429944 0.095535
O O6 0.780912 0.006774 0.112941
O O7 0.950762 0.285414 0.039600
O O8 0.617901 0.156200 0.015402
O O9 0.086507 0.306285 0.177798
O O10 0.149738 0.615600 0.259426
O O11 0.439173 0.283706 0.167426
O O12 0.295131 0.994736 0.229510
O O13 0.000000 0.000000 0.286368
#
# Coordination Sequence:
#
# PCOD8171998 Si02
#       8
#     4   4   2   2   4   2   2   4
#     4  11  24  50  77 106 150 194 251 311 368 439
#     4  12  26  46  73 108 148 197 250 305 372 447
#     4  10  21  43  70 110 140 190 238 298 376 448
#     4  12  23  48  76 100 152 201 246 302 378 440
#     4  11  24  44  71 108 146 192 244 302 381 440
#     4  12  28  49  76 112 146 199 258 308 368 438
#     4  12  24  46  68 102 150 200 234 306 382 442
#     4   9  21  43  74 103 142 191 241 304 374 442
#
# _framework density 23.587410999999999
#
# number of rings (size 3 to 8) (size 9 to 14) (size 15 to 20)
#    0.000    1.000    3.333    2.500    0.000    6.000 
#    9.000    0.000    0.000    0.000    0.000    0.000 
#    0.000    0.000    0.000    0.000    0.000    0.000 
#
# Total GULP energy -297519.546059 kJ/mol
# GULP energy per Si atom -12396.647752 kJ/mol
# Density = 2.353373 g / cm^3
# Si number density = 23.587411 Si / 1000 Ang^3
#
#
#
# Elastic Constant Matrix: (Units=GPa)
#
#
# Indices 1 2 3 4 5 6 
#
# 1 92.9796 42.8547 55.4611 0.0000 0.0000 0.0000
# 2 42.8547 138.7436 80.7584 0.0000 0.0000 0.0000
# 3 55.4611 80.7584 172.1384 0.0000 0.0000 0.0000
# 4 0.0000 0.0000 0.0000 32.5934 0.0000 0.0000
# 5 0.0000 0.0000 0.0000 0.0000 21.3236 0.0000
# 6 0.0000 0.0000 0.0000 0.0000 0.0000 54.2806
#
#
#
# Elastic Compliance Matrix: (Units=1/GPa)
#
#
# Indices 1 2 3 4 5 6 
#
# 1 0.013831 -0.002309 -0.003373 0.000000 0.000000 0.000000
# 2 -0.002309 0.010301 -0.004089 0.000000 0.000000 0.000000
# 3 -0.003373 -0.004089 0.008814 0.000000 0.000000 0.000000
# 4 0.000000 0.000000 0.000000 0.030681 0.000000 0.000000
# 5 0.000000 0.000000 0.000000 0.000000 0.046896 0.000000
# 6 0.000000 0.000000 0.000000 0.000000 0.000000 0.018423
#
#
# Mechanical properties :
#
#
# Convention : Reuss Voigt Hill
#
# Bulk Modulus (GPa) = 74.59919 84.66779 79.63349
# Shear Modulus (GPa) = 32.68928 36.62534 34.65731
#
# Velocity S-wave (km/s) = 3.72678 3.94477 3.83732
# Velocity P-wave (km/s) = 7.08617 7.53137 7.31216
#
# Compressibility (1/GPa) = 0.01340497
#
# Stress axis : x y z
#
# Youngs Moduli (GPa) = 72.30043 97.08246 113.45296
#
# Poissons Ratio (x) = 0.22414 0.38269
# Poissons Ratio (y) = 0.16692 0.46387
# Poissons Ratio (z) = 0.24388 0.39693
#
# Static dielectric constant tensor:
#      x y z
#    x 4.034140 0.000000 0.000000 
#    y 0.000000 4.437530 0.000000 
#    z 0.000000 0.000000 4.677100 
# 
# 
# High freq. dielectric constant tensor:
#      x y z
#    x 1.918670 0.000000 0.000000 
#    y 0.000000 1.947680 0.000000 
#    z 0.000000 0.000000 1.939670 
# 
# From -- ./inp_files/8411.got.cif
#   From: 2010.03.12/outbox.cif.g09.slc.cpg/sg34_5_cif.got.tgz:8411.got - 2010.04.14 01:56:33.
