data_PCOD8171382
_publ_section_title
;
Structure prediction by ZEFSAII (Michael W. Deem and Ramdas Pophale) SiO2 
 PCOD8171382
Probable space group: P N A 21
;
_chemical_formula_sum "Si O2"
_cell_formula_units_Z 32
_cell_length_a 12.734458
_cell_length_b 13.226867
_cell_length_c 8.676272
_cell_angle_alpha 90.000000
_cell_angle_beta 90.000000
_cell_angle_gamma 90.000000
_cell_volume 1461.405073
_symmetry_space_group_name_H-M "P N A 21"
_symmetry_group_IT_number 33
_symmetry_cell_setting 'orthorhombic'
loop_
_space_group_symop_operation_xyz
x,y,z
-x,-y,1/2+z
1/2-x,1/2+y,1/2+z
1/2+x,1/2-y,z
loop_
_atom_site_type_symbol
_atom_site_label
_atom_site_fract_x
_atom_site_fract_y
_atom_site_fract_z
Si Si1 0.275563 0.293047 0.123420
Si Si2 0.925704 0.037143 0.054740
Si Si3 0.874462 0.935872 0.744434
Si Si4 0.329709 0.940223 0.135696
Si Si5 0.207119 0.128512 0.717585
Si Si6 0.785399 0.750616 0.929973
Si Si7 0.100138 0.310133 0.899441
Si Si8 0.623568 0.879318 0.460008
O O1 0.357080 0.363250 0.036380
O O2 0.294128 0.302296 0.308999
O O3 0.158593 0.321873 0.063512
O O4 0.297123 0.178819 0.072548
O O5 0.041493 0.070735 0.106755
O O6 0.870681 0.962398 0.177610
O O7 0.931961 0.990272 0.886055
O O8 0.850515 0.821220 0.805904
O O9 0.781677 0.005258 0.671547
O O10 0.376197 0.910119 0.299842
O O11 0.335050 0.842643 0.022945
O O12 0.407681 0.018823 0.050555
O O13 0.258337 0.174007 0.559723
O O14 0.138784 0.210885 0.809241
O O15 0.309383 0.090832 0.808678
O O16 0.975411 0.308608 0.923025
#
# Coordination Sequence:
#
# PCOD8171382 Si02
#       8
#     4   4   4   4   4   4   4   4
#     4  11  23  41  66  98 133 173 224 288 332 409
#     4  11  25  40  70  99 135 176 223 286 346 404
#     4  11  25  45  68 106 132 178 233 284 354 420
#     4  11  23  47  67  94 143 179 222 292 343 417
#     4   9  23  44  64  97 134 172 225 281 338 413
#     4  10  23  44  65  97 141 171 225 287 337 413
#     4  10  24  44  65  95 134 176 226 273 342 413
#     4  11  24  41  71  94 130 187 220 279 350 409
#
# _framework density 21.896737000000002
#
# number of rings (size 3 to 8) (size 9 to 14) (size 15 to 20)
#    0.000    1.500    2.500    0.750    7.000    2.000 
#    4.500    0.000    0.000    0.000    0.000    0.000 
#    0.000    0.000    0.000    0.000    0.000    0.000 
#
# Total GULP energy -396417.860646 kJ/mol
# GULP energy per Si atom -12388.058145 kJ/mol
# Density = 2.184690 g / cm^3
# Si number density = 21.896737 Si / 1000 Ang^3
#
#
#
# Elastic Constant Matrix: (Units=GPa)
#
#
# Indices 1 2 3 4 5 6 
#
# 1 77.9725 13.3826 21.2741 0.0000 0.0000 0.0000
# 2 13.3826 95.3302 29.4371 0.0000 0.0000 0.0000
# 3 21.2741 29.4371 107.6645 0.0000 0.0000 0.0000
# 4 0.0000 0.0000 0.0000 36.6134 0.0000 0.0000
# 5 0.0000 0.0000 0.0000 0.0000 31.0864 0.0000
# 6 0.0000 0.0000 0.0000 0.0000 0.0000 21.7822
#
#
#
# Elastic Compliance Matrix: (Units=1/GPa)
#
#
# Indices 1 2 3 4 5 6 
#
# 1 0.013677 -0.001186 -0.002378 0.000000 0.000000 0.000000
# 2 -0.001186 0.011560 -0.002926 0.000000 0.000000 0.000000
# 3 -0.002378 -0.002926 0.010558 0.000000 0.000000 0.000000
# 4 0.000000 0.000000 0.000000 0.027312 0.000000 0.000000
# 5 0.000000 0.000000 0.000000 0.000000 0.032168 0.000000
# 6 0.000000 0.000000 0.000000 0.000000 0.000000 0.045909
#
#
# Mechanical properties :
#
#
# Convention : Reuss Voigt Hill
#
# Bulk Modulus (GPa) = 43.83142 45.46166 44.64654
# Shear Modulus (GPa) = 30.90786 32.35464 31.63125
#
# Velocity S-wave (km/s) = 3.76111 3.84813 3.80487
# Velocity P-wave (km/s) = 6.23875 6.36797 6.30369
#
# Compressibility (1/GPa) = 0.02281468
#
# Stress axis : x y z
#
# Youngs Moduli (GPa) = 73.11298 86.50567 94.71312
#
# Poissons Ratio (x) = 0.10256 0.22527
# Poissons Ratio (y) = 0.08668 0.27717
# Poissons Ratio (z) = 0.17390 0.25315
#
# Static dielectric constant tensor:
#      x y z
#    x 3.601080 0.000000 0.000000 
#    y 0.000000 4.161900 0.000000 
#    z 0.000000 0.000000 4.242580 
# 
# 
# High freq. dielectric constant tensor:
#      x y z
#    x 1.824640 0.000000 0.000000 
#    y 0.000000 1.879560 0.000000 
#    z 0.000000 0.000000 1.883760 
# 
# From -- ./inp_files/3942.got.cif
#   From: 2010.03.12/outbox.cif.g09.slc.cpg/sg33_2_cif.got.tgz:3942.got - 2010.04.14 01:49:19.
