data_PCOD8171897
_publ_section_title
;
Structure prediction by ZEFSAII (Michael W. Deem and Ramdas Pophale) SiO2 
 PCOD8171897
Probable space group: P N N 2
;
_chemical_formula_sum "Si O2"
_cell_formula_units_Z 28
_cell_length_a 4.853861
_cell_length_b 24.877379
_cell_length_c 11.919577
_cell_angle_alpha 90.000000
_cell_angle_beta 90.000000
_cell_angle_gamma 90.000000
_cell_volume 1439.304892
_symmetry_space_group_name_H-M "P N N 2"
_symmetry_group_IT_number 34
_symmetry_cell_setting 'orthorhombic'
loop_
_space_group_symop_operation_xyz
x,y,z
-x,-y,z
1/2-x,1/2+y,1/2+z
1/2+x,1/2-y,1/2+z
loop_
_atom_site_type_symbol
_atom_site_label
_atom_site_fract_x
_atom_site_fract_y
_atom_site_fract_z
Si Si1 0.000000 0.000000 0.132090
Si Si2 0.202284 0.389283 0.423264
Si Si3 0.186342 0.669188 0.773765
Si Si4 0.998834 0.769586 0.628914
Si Si5 0.313658 0.669188 0.335641
Si Si6 0.202284 0.889283 0.186142
Si Si7 0.000000 0.500000 0.477315
Si Si8 0.998835 0.269586 0.980492
O O1 0.097844 0.950008 0.208092
O O2 0.250000 0.021000 0.054703
O O3 0.496820 0.381912 0.364871
O O4 0.250000 0.378627 0.554703
O O5 0.999576 0.346497 0.363962
O O6 0.097844 0.450008 0.401314
O O7 0.499575 0.653503 0.745444
O O8 0.116228 0.720460 0.699220
O O9 0.996820 0.618088 0.744535
O O10 0.135710 0.683761 0.903575
O O11 0.864290 0.816239 0.705830
O O12 0.749999 0.746589 0.554703
O O13 0.249999 0.793628 0.554703
O O14 0.383772 0.720460 0.410186
#
# Coordination Sequence:
#
# PCOD8171897 Si02
#       8
#     2   4   4   4   4   4   2   4
#     4  10  20  32  50  78 108 136 166 206 260 310
#     4  11  20  34  53  78 109 137 168 210 256 312
#     4  11  22  34  54  78 102 141 176 202 260 311
#     4  11  22  36  52  76 107 136 173 217 250 300
#     4  11  22  34  54  78 102 141 176 202 260 311
#     4  11  20  34  53  78 109 137 168 210 256 312
#     4  10  20  32  50  78 108 136 166 206 260 310
#     4  11  22  36  52  76 107 136 173 217 250 300
#
# _framework density 19.453837
#
# number of rings (size 3 to 8) (size 9 to 14) (size 15 to 20)
#    0.000    1.143    0.000   10.286    0.000    4.571 
#    0.000    0.000    0.000    0.000    0.000   20.000 
#    0.000    0.000    0.000    0.000    0.000    0.000 
#
# Total GULP energy -347208.074915 kJ/mol
# GULP energy per Si atom -12400.288390 kJ/mol
# Density = 1.940956 g / cm^3
# Si number density = 19.453837 Si / 1000 Ang^3
#
#
#
# Elastic Constant Matrix: (Units=GPa)
#
#
# Indices 1 2 3 4 5 6 
#
# 1 81.9337 -0.4356 21.1969 0.0000 0.0000 0.0000
# 2 -0.4356 71.3618 21.5899 0.0000 0.0000 0.0000
# 3 21.1969 21.5899 78.2552 0.0000 0.0000 0.0000
# 4 0.0000 0.0000 0.0000 9.8836 0.0000 0.0000
# 5 0.0000 0.0000 0.0000 0.0000 33.3180 0.0000
# 6 0.0000 0.0000 0.0000 0.0000 0.0000 37.9259
#
#
#
# Elastic Compliance Matrix: (Units=1/GPa)
#
#
# Indices 1 2 3 4 5 6 
#
# 1 0.013230 0.001271 -0.003934 0.000000 0.000000 0.000000
# 2 0.001271 0.015411 -0.004596 0.000000 0.000000 0.000000
# 3 -0.003934 -0.004596 0.015112 0.000000 0.000000 0.000000
# 4 0.000000 0.000000 0.000000 0.101178 0.000000 0.000000
# 5 0.000000 0.000000 0.000000 0.000000 0.030014 0.000000
# 6 0.000000 0.000000 0.000000 0.000000 0.000000 0.026367
#
#
# Mechanical properties :
#
#
# Convention : Reuss Voigt Hill
#
# Bulk Modulus (GPa) = 34.20587 35.13924 34.67255
# Shear Modulus (GPa) = 22.16552 28.83882 25.50217
#
# Velocity S-wave (km/s) = 3.37915 3.85440 3.62457
# Velocity P-wave (km/s) = 5.73115 6.15716 5.94797
#
# Compressibility (1/GPa) = 0.02923475
#
# Stress axis : x y z
#
# Youngs Moduli (GPa) = 75.58844 64.88716 66.17099
#
# Poissons Ratio (x) = -0.08247 0.26032
# Poissons Ratio (y) = -0.09607 0.30413
# Poissons Ratio (z) = 0.29737 0.29823
#
# Static dielectric constant tensor:
#      x y z
#    x 4.069980 0.000000 0.000000 
#    y 0.000000 3.418730 0.000000 
#    z 0.000000 0.000000 3.592380 
# 
# 
# High freq. dielectric constant tensor:
#      x y z
#    x 1.787880 0.000000 0.000000 
#    y 0.000000 1.738440 0.000000 
#    z 0.000000 0.000000 1.725690 
# 
# From -- ./inp_files/4543.got.cif
#   From: 2010.03.12/outbox.cif.g09.slc.cpg/sg34_3_cif.got.tgz:4543.got - 2010.04.14 01:56:33.
