data_PCOD8171973
_publ_section_title
;
Structure prediction by ZEFSAII (Michael W. Deem and Ramdas Pophale) SiO2 
 PCOD8171973
Probable space group: P N N 2
;
_chemical_formula_sum "Si O2"
_cell_formula_units_Z 28
_cell_length_a 20.295534
_cell_length_b 13.049079
_cell_length_c 4.975518
_cell_angle_alpha 90.000000
_cell_angle_beta 90.000000
_cell_angle_gamma 90.000000
_cell_volume 1317.706368
_symmetry_space_group_name_H-M "P N N 2"
_symmetry_group_IT_number 34
_symmetry_cell_setting 'orthorhombic'
loop_
_space_group_symop_operation_xyz
x,y,z
-x,-y,z
1/2-x,1/2+y,1/2+z
1/2+x,1/2-y,1/2+z
loop_
_atom_site_type_symbol
_atom_site_label
_atom_site_fract_x
_atom_site_fract_y
_atom_site_fract_z
Si Si1 0.760854 0.387153 0.633920
Si Si2 0.579349 0.294863 0.624505
Si Si3 0.214000 0.316057 0.270044
Si Si4 0.935007 0.933964 0.628860
Si Si5 0.860765 0.554437 0.665604
Si Si6 0.706697 0.487582 0.124680
Si Si7 0.446246 0.919215 0.668000
O O1 0.770415 0.270994 0.745368
O O2 0.831568 0.440538 0.659214
O O3 0.733465 0.401151 0.331638
O O4 0.708231 0.442859 0.825978
O O5 0.651953 0.244102 0.640668
O O6 0.567670 0.338427 0.329617
O O7 0.528331 0.198761 0.664506
O O8 0.565002 0.385010 0.833512
O O9 0.192059 0.358068 0.565645
O O10 0.246293 0.412966 0.118343
O O11 0.871103 0.007393 0.678407
O O12 0.000000 0.000000 0.675103
O O13 0.882905 0.576565 0.969118
O O14 0.923171 0.553009 0.467204
O O15 0.500000 0.000000 0.567930
#
# Coordination Sequence:
#
# PCOD8171973 Si02
#       7
#     4   4   4   4   4   4   4
#     4  11  21  38  63  89 131 157 204 268 327 374
#     4  11  22  42  67  89 118 177 208 257 332 381
#     4  10  21  39  67  91 126 161 212 263 329 377
#     4  12  24  43  65  91 132 172 220 259 314 399
#     4  10  22  38  63  98 124 162 212 262 314 381
#     4  11  23  39  61  99 121 163 217 267 318 388
#     4  11  23  43  65  93 127 168 217 260 309 387
#
# _framework density 21.249044000000001
#
# number of rings (size 3 to 8) (size 9 to 14) (size 15 to 20)
#    0.000    1.143    2.857    5.143    0.000    3.429 
#    5.143    0.000    0.000    0.000    0.000    0.000 
#    0.000    0.000    0.000    0.000    0.000    0.000 
#
# Total GULP energy -346928.598340 kJ/mol
# GULP energy per Si atom -12390.307084 kJ/mol
# Density = 2.120068 g / cm^3
# Si number density = 21.249044 Si / 1000 Ang^3
#
#
#
# Elastic Constant Matrix: (Units=GPa)
#
#
# Indices 1 2 3 4 5 6 
#
# 1 64.4299 39.1966 2.6714 0.0000 0.0000 0.0000
# 2 39.1966 130.1529 7.2457 0.0000 0.0000 0.0000
# 3 2.6714 7.2457 57.7338 0.0000 0.0000 0.0000
# 4 0.0000 0.0000 0.0000 28.4632 0.0000 0.0000
# 5 0.0000 0.0000 0.0000 0.0000 18.9666 0.0000
# 6 0.0000 0.0000 0.0000 0.0000 0.0000 41.4057
#
#
#
# Elastic Compliance Matrix: (Units=1/GPa)
#
#
# Indices 1 2 3 4 5 6 
#
# 1 0.019004 -0.005714 -0.000162 0.000000 0.000000 0.000000
# 2 -0.005714 0.009455 -0.000922 0.000000 0.000000 0.000000
# 3 -0.000162 -0.000922 0.017444 0.000000 0.000000 0.000000
# 4 0.000000 0.000000 0.000000 0.035133 0.000000 0.000000
# 5 0.000000 0.000000 0.000000 0.000000 0.052724 0.000000
# 6 0.000000 0.000000 0.000000 0.000000 0.000000 0.024151
#
#
# Mechanical properties :
#
#
# Convention : Reuss Voigt Hill
#
# Bulk Modulus (GPa) = 30.95386 38.94935 34.95160
# Shear Modulus (GPa) = 27.43066 31.31396 29.37231
#
# Velocity S-wave (km/s) = 3.59682 3.84300 3.72195
# Velocity P-wave (km/s) = 5.64343 6.16938 5.91226
#
# Compressibility (1/GPa) = 0.03230615
#
# Stress axis : x y z
#
# Youngs Moduli (GPa) = 52.62137 105.75899 57.32586
#
# Poissons Ratio (x) = 0.60432 0.00930
# Poissons Ratio (y) = 0.30068 0.05287
# Poissons Ratio (z) = 0.00853 0.09754
#
# Static dielectric constant tensor:
#      x y z
#    x 3.705200 0.000000 0.000000 
#    y 0.000000 4.379230 0.000000 
#    z 0.000000 0.000000 3.823380 
# 
# 
# High freq. dielectric constant tensor:
#      x y z
#    x 1.804360 0.000000 0.000000 
#    y 0.000000 1.838090 0.000000 
#    z 0.000000 0.000000 1.845720 
# 
# From -- ./inp_files/1592.got.cif
#   From: 2010.03.12/outbox.cif.g09.slc.cpg/sg34_1_cif.got.tgz:1592.got - 2010.04.14 01:56:33.
