data_PCOD8171866
_publ_section_title
;
Structure prediction by ZEFSAII (Michael W. Deem and Ramdas Pophale) SiO2 
 PCOD8171866
Probable space group: P N N 2
;
_chemical_formula_sum "Si O2"
_cell_formula_units_Z 32
_cell_length_a 28.064167
_cell_length_b 8.262657
_cell_length_c 6.534779
_cell_angle_alpha 90.000000
_cell_angle_beta 90.000000
_cell_angle_gamma 90.000000
_cell_volume 1515.314522
_symmetry_space_group_name_H-M "P N N 2"
_symmetry_group_IT_number 34
_symmetry_cell_setting 'orthorhombic'
loop_
_space_group_symop_operation_xyz
x,y,z
-x,-y,z
1/2-x,1/2+y,1/2+z
1/2+x,1/2-y,1/2+z
loop_
_atom_site_type_symbol
_atom_site_label
_atom_site_fract_x
_atom_site_fract_y
_atom_site_fract_z
Si Si1 0.951731 0.650919 0.021710
Si Si2 0.638345 0.348524 0.409250
Si Si3 0.045453 0.673062 0.242780
Si Si4 0.382073 0.287482 0.473283
Si Si5 0.289319 0.090678 0.391341
Si Si6 0.711669 0.186717 0.689632
Si Si7 0.344473 0.895788 0.072727
Si Si8 0.562756 0.924648 0.169909
O O1 0.937450 0.503614 0.168174
O O2 0.998865 0.734016 0.116385
O O3 0.908579 0.776704 0.018788
O O4 0.962540 0.573934 0.794071
O O5 0.633898 0.539528 0.392440
O O6 0.686305 0.310509 0.535005
O O7 0.643233 0.274448 0.182775
O O8 0.032362 0.656050 0.484314
O O9 0.090284 0.793276 0.193943
O O10 0.336218 0.172588 0.487103
O O11 0.422655 0.217783 0.323503
O O12 0.252398 0.227030 0.321945
O O13 0.267911 0.969542 0.565341
O O14 0.302186 0.984766 0.194568
O O15 0.670888 0.129577 0.842267
O O16 0.389807 0.010193 0.062920
#
# Coordination Sequence:
#
# PCOD8171866 Si02
#       8
#     4   4   4   4   4   4   4   4
#     4   9  20  36  61  88 118 153 204 253 296 362
#     4  10  22  40  59  89 124 160 199 254 307 362
#     4  10  19  35  62  88 114 158 202 246 303 366
#     4  10  22  38  57  87 123 155 197 252 303 359
#     4  10  24  39  59  89 119 156 201 251 298 368
#     4  11  23  40  63  87 120 160 204 248 307 365
#     4   9  20  39  61  84 118 155 197 245 296 359
#     4   9  18  38  60  86 114 154 199 241 301 355
#
# _framework density 21.117730999999999
#
# number of rings (size 3 to 8) (size 9 to 14) (size 15 to 20)
#    0.000    2.250    0.000    3.750    3.500    6.500 
#    2.250    0.000    0.000    4.500    0.000    0.000 
#    0.000    0.000    0.000    0.000    0.000    0.000 
#
# Total GULP energy -396614.610151 kJ/mol
# GULP energy per Si atom -12394.206567 kJ/mol
# Density = 2.106967 g / cm^3
# Si number density = 21.117731 Si / 1000 Ang^3
#
#
#
# Elastic Constant Matrix: (Units=GPa)
#
#
# Indices 1 2 3 4 5 6 
#
# 1 82.1070 16.8895 28.6414 0.0000 0.0000 0.0000
# 2 16.8895 84.7386 14.1908 0.0000 0.0000 0.0000
# 3 28.6414 14.1908 96.4270 0.0000 0.0000 0.0000
# 4 0.0000 0.0000 0.0000 20.9958 0.0000 0.0000
# 5 0.0000 0.0000 0.0000 0.0000 28.8871 0.0000
# 6 0.0000 0.0000 0.0000 0.0000 0.0000 27.6823
#
#
#
# Elastic Compliance Matrix: (Units=1/GPa)
#
#
# Indices 1 2 3 4 5 6 
#
# 1 0.013956 -0.002140 -0.003830 0.000000 0.000000 0.000000
# 2 -0.002140 0.012427 -0.001193 0.000000 0.000000 0.000000
# 3 -0.003830 -0.001193 0.011684 0.000000 0.000000 0.000000
# 4 0.000000 0.000000 0.000000 0.047629 0.000000 0.000000
# 5 0.000000 0.000000 0.000000 0.000000 0.034618 0.000000
# 6 0.000000 0.000000 0.000000 0.000000 0.000000 0.036124
#
#
# Mechanical properties :
#
#
# Convention : Reuss Voigt Hill
#
# Bulk Modulus (GPa) = 42.12360 42.52400 42.32380
# Shear Modulus (GPa) = 27.98340 29.08309 28.53325
#
# Velocity S-wave (km/s) = 3.64416 3.71507 3.67979
# Velocity P-wave (km/s) = 6.13978 6.21150 6.17574
#
# Compressibility (1/GPa) = 0.02373966
#
# Stress axis : x y z
#
# Youngs Moduli (GPa) = 71.65611 80.46757 85.58850
#
# Poissons Ratio (x) = 0.17221 0.32782
# Poissons Ratio (y) = 0.15335 0.10213
# Poissons Ratio (z) = 0.27446 0.09602
#
# Static dielectric constant tensor:
#      x y z
#    x 3.794470 0.000000 0.000000 
#    y 0.000000 3.557860 0.000000 
#    z 0.000000 0.000000 3.948940 
# 
# 
# High freq. dielectric constant tensor:
#      x y z
#    x 1.832830 0.000000 0.000000 
#    y 0.000000 1.797770 0.000000 
#    z 0.000000 0.000000 1.830560 
# 
# From -- ./inp_files/1835.got.cif
#   From: 2010.03.12/outbox.cif.g09.slc.cpg/sg34_1_cif.got.tgz:1835.got - 2010.04.14 01:56:33.
