data_PCOD8171692
_publ_section_title
;
Structure prediction by ZEFSAII (Michael W. Deem and Ramdas Pophale) SiO2 
 PCOD8171692
Probable space group: P N A 21
;
_chemical_formula_sum "Si O2"
_cell_formula_units_Z 20
_cell_length_a 9.959476
_cell_length_b 9.278698
_cell_length_c 9.326292
_cell_angle_alpha 90.000000
_cell_angle_beta 90.000000
_cell_angle_gamma 90.000000
_cell_volume 861.851691
_symmetry_space_group_name_H-M "P N A 21"
_symmetry_group_IT_number 33
_symmetry_cell_setting 'orthorhombic'
loop_
_space_group_symop_operation_xyz
x,y,z
-x,-y,1/2+z
1/2-x,1/2+y,1/2+z
1/2+x,1/2-y,z
loop_
_atom_site_type_symbol
_atom_site_label
_atom_site_fract_x
_atom_site_fract_y
_atom_site_fract_z
Si Si1 0.593877 0.439436 0.070360
Si Si2 0.277315 0.802807 0.062292
Si Si3 0.444053 0.113586 0.433374
Si Si4 0.602905 0.117152 0.166562
Si Si5 0.851479 0.946674 0.248128
O O1 0.719172 0.542250 0.109173
O O2 0.623647 0.284965 0.137748
O O3 0.456036 0.503235 0.128759
O O4 0.575728 0.429526 0.899537
O O5 0.423435 0.810968 0.994573
O O6 0.177387 0.725630 0.949305
O O7 0.286717 0.706433 0.205518
O O8 0.471045 0.085421 0.264415
O O9 0.412573 0.964829 0.515494
O O10 0.731381 0.062551 0.257092
#
# Coordination Sequence:
#
# PCOD8171692 Si02
#       5
#     4   4   4   4   4
#     4  12  26  46  78 105 150 196 255 303 377 448
#     4  11  24  47  73 104 150 189 244 307 365 440
#     4  11  25  49  72 107 149 191 245 306 373 441
#     4  11  28  46  76 109 147 196 249 307 378 448
#     4  11  27  48  71 113 144 200 251 309 377 443
#
# _framework density 23.205846999999999
#
# number of rings (size 3 to 8) (size 9 to 14) (size 15 to 20)
#    0.000    0.800    4.000    1.200    5.600    1.600 
#    0.000    0.000    0.000    0.000    0.000    0.000 
#    0.000    0.000    0.000    0.000    0.000    0.000 
#
# Total GULP energy -248123.854541 kJ/mol
# GULP energy per Si atom -12406.192727 kJ/mol
# Density = 2.315303 g / cm^3
# Si number density = 23.205847 Si / 1000 Ang^3
#
#
#
# Elastic Constant Matrix: (Units=GPa)
#
#
# Indices 1 2 3 4 5 6 
#
# 1 85.0022 15.1497 13.2836 0.0000 0.0000 0.0000
# 2 15.1497 136.4211 33.8641 0.0000 0.0000 0.0000
# 3 13.2836 33.8641 111.8006 0.0000 0.0000 0.0000
# 4 0.0000 0.0000 0.0000 25.9605 0.0000 0.0000
# 5 0.0000 0.0000 0.0000 0.0000 44.3329 0.0000
# 6 0.0000 0.0000 0.0000 0.0000 0.0000 20.5567
#
#
#
# Elastic Compliance Matrix: (Units=1/GPa)
#
#
# Indices 1 2 3 4 5 6 
#
# 1 0.012130 -0.001070 -0.001117 0.000000 0.000000 0.000000
# 2 -0.001070 0.008021 -0.002302 0.000000 0.000000 0.000000
# 3 -0.001117 -0.002302 0.009775 0.000000 0.000000 0.000000
# 4 0.000000 0.000000 0.000000 0.038520 0.000000 0.000000
# 5 0.000000 0.000000 0.000000 0.000000 0.022557 0.000000
# 6 0.000000 0.000000 0.000000 0.000000 0.000000 0.048646
#
#
# Mechanical properties :
#
#
# Convention : Reuss Voigt Hill
#
# Bulk Modulus (GPa) = 47.74084 50.86874 49.30479
# Shear Modulus (GPa) = 32.13207 36.23179 34.18193
#
# Velocity S-wave (km/s) = 3.72513 3.95564 3.84212
# Velocity P-wave (km/s) = 6.25456 6.54454 6.40120
#
# Compressibility (1/GPa) = 0.02094643
#
# Stress axis : x y z
#
# Youngs Moduli (GPa) = 82.44270 124.67992 102.30607
#
# Poissons Ratio (x) = 0.13337 0.11429
# Poissons Ratio (y) = 0.08819 0.23554
# Poissons Ratio (z) = 0.09210 0.28705
#
# Static dielectric constant tensor:
#      x y z
#    x 4.178220 0.000000 0.000000 
#    y 0.000000 4.324230 0.000000 
#    z 0.000000 0.000000 4.155170 
# 
# 
# High freq. dielectric constant tensor:
#      x y z
#    x 1.923270 0.000000 0.000000 
#    y 0.000000 1.931220 0.000000 
#    z 0.000000 0.000000 1.916600 
# 
# From -- ./inp_files/2932.got.cif
#   From: 2010.03.12/outbox.cif.g09.slc.cpg/sg33_2_cif.got.tgz:2932.got - 2010.04.14 01:49:19.
