data_PCOD8171230
_publ_section_title
;
Structure prediction by ZEFSAII (Michael W. Deem and Ramdas Pophale) SiO2 
 PCOD8171230
Probable space group: P N A 21
;
_chemical_formula_sum "Si O2"
_cell_formula_units_Z 32
_cell_length_a 24.297530
_cell_length_b 5.042160
_cell_length_c 11.895284
_cell_angle_alpha 90.000000
_cell_angle_beta 90.000000
_cell_angle_gamma 90.000000
_cell_volume 1457.315436
_symmetry_space_group_name_H-M "P N A 21"
_symmetry_group_IT_number 33
_symmetry_cell_setting 'orthorhombic'
loop_
_space_group_symop_operation_xyz
x,y,z
-x,-y,1/2+z
1/2-x,1/2+y,1/2+z
1/2+x,1/2-y,z
loop_
_atom_site_type_symbol
_atom_site_label
_atom_site_fract_x
_atom_site_fract_y
_atom_site_fract_z
Si Si1 0.719289 0.376487 0.839570
Si Si2 0.040381 0.114319 0.485446
Si Si3 0.918640 0.059385 0.443360
Si Si4 0.171979 0.662945 0.220172
Si Si5 0.172231 0.158288 0.076936
Si Si6 0.348164 0.134916 0.298590
Si Si7 0.942389 0.699299 0.230034
Si Si8 0.942465 0.395321 0.841003
O O1 0.784203 0.401370 0.817571
O O2 0.685135 0.596425 0.766762
O O3 0.697110 0.091481 0.803865
O O4 0.712409 0.408546 0.973091
O O5 0.060160 0.142246 0.613035
O O6 0.068009 0.324341 0.401391
O O7 0.975541 0.173668 0.486498
O O8 0.052159 0.821250 0.439767
O O9 0.878067 0.309580 0.419422
O O10 0.891533 0.876996 0.539125
O O11 0.922020 0.896699 0.326969
O O12 0.180059 0.455487 0.119546
O O13 0.110064 0.659991 0.264976
O O14 0.186076 0.955078 0.176244
O O15 0.399143 0.046304 0.217679
O O16 0.003539 0.594547 0.261150
#
# Coordination Sequence:
#
# PCOD8171230 Si02
#       8
#     4   4   4   4   4   4   4   4
#     4  11  25  44  69  99 129 163 235 282 312 395
#     4  11  25  40  65 103 138 182 209 273 357 381
#     4  10  22  42  67 103 133 168 241 270 308 422
#     4  12  26  48  66  99 136 175 221 272 341 397
#     4  11  23  43  75  93 124 186 222 267 334 388
#     4  11  20  42  68  92 131 166 218 291 308 377
#     4  11  23  41  71  99 137 176 223 276 332 401
#     4  11  26  44  65 100 144 172 219 279 330 411
#
# _framework density 21.958182999999998
#
# number of rings (size 3 to 8) (size 9 to 14) (size 15 to 20)
#    0.000    1.000    3.750    3.750    1.750    3.000 
#    6.750    0.000    0.000    0.000    0.000    0.000 
#    0.000    0.000    0.000    0.000    0.000    0.000 
#
# Total GULP energy -396716.360130 kJ/mol
# GULP energy per Si atom -12397.386254 kJ/mol
# Density = 2.190821 g / cm^3
# Si number density = 21.958183 Si / 1000 Ang^3
#
#
#
# Elastic Constant Matrix: (Units=GPa)
#
#
# Indices 1 2 3 4 5 6 
#
# 1 119.2805 18.4590 31.1613 0.0000 0.0000 0.0000
# 2 18.4590 85.2222 9.7660 0.0000 0.0000 0.0000
# 3 31.1613 9.7660 80.1651 0.0000 0.0000 0.0000
# 4 0.0000 0.0000 0.0000 28.0569 0.0000 0.0000
# 5 0.0000 0.0000 0.0000 0.0000 35.1419 0.0000
# 6 0.0000 0.0000 0.0000 0.0000 0.0000 29.0818
#
#
#
# Elastic Compliance Matrix: (Units=1/GPa)
#
#
# Indices 1 2 3 4 5 6 
#
# 1 0.009559 -0.001668 -0.003513 0.000000 0.000000 0.000000
# 2 -0.001668 0.012191 -0.000837 0.000000 0.000000 0.000000
# 3 -0.003513 -0.000837 0.013942 0.000000 0.000000 0.000000
# 4 0.000000 0.000000 0.000000 0.035642 0.000000 0.000000
# 5 0.000000 0.000000 0.000000 0.000000 0.028456 0.000000
# 6 0.000000 0.000000 0.000000 0.000000 0.000000 0.034386
#
#
# Mechanical properties :
#
#
# Convention : Reuss Voigt Hill
#
# Bulk Modulus (GPa) = 42.27029 44.82669 43.54849
# Shear Modulus (GPa) = 32.44720 33.47491 32.96106
#
# Velocity S-wave (km/s) = 3.84823 3.90870 3.87858
# Velocity P-wave (km/s) = 6.24799 6.38979 6.31929
#
# Compressibility (1/GPa) = 0.02365728
#
# Stress axis : x y z
#
# Youngs Moduli (GPa) = 104.60912 82.02630 71.72770
#
# Poissons Ratio (x) = 0.13682 0.25196
# Poissons Ratio (y) = 0.17449 0.06002
# Poissons Ratio (z) = 0.36746 0.06864
#
# Static dielectric constant tensor:
#      x y z
#    x 4.109190 0.000000 0.000000 
#    y 0.000000 4.112780 0.000000 
#    z 0.000000 0.000000 3.727230 
# 
# 
# High freq. dielectric constant tensor:
#      x y z
#    x 1.864380 0.000000 0.000000 
#    y 0.000000 1.878280 0.000000 
#    z 0.000000 0.000000 1.842820 
# 
# From -- ./inp_files/7308.got.cif
#   From: 2010.03.12/outbox.cif.g09.slc.cpg/sg33_4_cif.got.tgz:7308.got - 2010.04.14 01:49:19.
