data_PCOD8171584
_publ_section_title
;
Structure prediction by ZEFSAII (Michael W. Deem and Ramdas Pophale) SiO2 
 PCOD8171584
Probable space group: P N A 21
;
_chemical_formula_sum "Si O2"
_cell_formula_units_Z 20
_cell_length_a 15.886647
_cell_length_b 11.705948
_cell_length_c 4.841574
_cell_angle_alpha 90.000000
_cell_angle_beta 90.000000
_cell_angle_gamma 90.000000
_cell_volume 900.379110
_symmetry_space_group_name_H-M "P N A 21"
_symmetry_group_IT_number 33
_symmetry_cell_setting 'orthorhombic'
loop_
_space_group_symop_operation_xyz
x,y,z
-x,-y,1/2+z
1/2-x,1/2+y,1/2+z
1/2+x,1/2-y,z
loop_
_atom_site_type_symbol
_atom_site_label
_atom_site_fract_x
_atom_site_fract_y
_atom_site_fract_z
Si Si1 0.378070 0.367017 0.897680
Si Si2 0.338384 0.223724 0.414112
Si Si3 0.009668 0.573257 0.096963
Si Si4 0.659770 0.373816 0.361918
Si Si5 0.436962 0.707868 0.355983
O O1 0.323625 0.280114 0.712025
O O2 0.345083 0.491269 0.820536
O O3 0.476345 0.360931 0.818939
O O4 0.366603 0.326384 0.211731
O O5 0.410484 0.128560 0.443712
O O6 0.254639 0.164327 0.302998
O O7 0.039785 0.489524 0.346274
O O8 0.948355 0.662526 0.251756
O O9 0.634806 0.352120 0.676943
O O10 0.595468 0.301108 0.170612
#
# Coordination Sequence:
#
# PCOD8171584 Si02
#       5
#     4   4   4   4   4
#     4  11  23  44  65  90 131 166 205 267 319 372
#     4  11  25  42  62  97 130 161 212 267 315 375
#     4  11  23  42  67  92 130 175 213 259 316 382
#     4  12  24  41  67  95 125 167 211 264 321 371
#     4  11  23  41  65  96 124 165 221 255 307 392
#
# _framework density 22.212866000000002
#
# number of rings (size 3 to 8) (size 9 to 14) (size 15 to 20)
#    0.000    0.800    0.000    9.600    0.000    4.800 
#    0.000    2.000    0.000    0.000    0.000    0.000 
#    0.000    0.000    0.000    0.000    0.000    0.000 
#
# Total GULP energy -248052.830890 kJ/mol
# GULP energy per Si atom -12402.641545 kJ/mol
# Density = 2.216231 g / cm^3
# Si number density = 22.212866 Si / 1000 Ang^3
#
#
#
# Elastic Constant Matrix: (Units=GPa)
#
#
# Indices 1 2 3 4 5 6 
#
# 1 98.3280 57.0829 29.0465 0.0000 0.0000 0.0000
# 2 57.0829 103.8660 28.4776 0.0000 0.0000 0.0000
# 3 29.0465 28.4776 105.0398 0.0000 0.0000 0.0000
# 4 0.0000 0.0000 0.0000 52.9800 0.0000 0.0000
# 5 0.0000 0.0000 0.0000 0.0000 35.7678 0.0000
# 6 0.0000 0.0000 0.0000 0.0000 0.0000 21.7301
#
#
#
# Elastic Compliance Matrix: (Units=1/GPa)
#
#
# Indices 1 2 3 4 5 6 
#
# 1 0.015358 -0.007861 -0.002116 0.000000 0.000000 0.000000
# 2 -0.007861 0.014424 -0.001737 0.000000 0.000000 0.000000
# 3 -0.002116 -0.001737 0.010576 0.000000 0.000000 0.000000
# 4 0.000000 0.000000 0.000000 0.018875 0.000000 0.000000
# 5 0.000000 0.000000 0.000000 0.000000 0.027958 0.000000
# 6 0.000000 0.000000 0.000000 0.000000 0.000000 0.046019
#
#
# Mechanical properties :
#
#
# Convention : Reuss Voigt Hill
#
# Bulk Modulus (GPa) = 59.06010 59.60531 59.33271
# Shear Modulus (GPa) = 30.81060 34.93735 32.87397
#
# Velocity S-wave (km/s) = 3.72837 3.97021 3.85119
# Velocity P-wave (km/s) = 6.72163 6.92161 6.82235
#
# Compressibility (1/GPa) = 0.01693190
#
# Stress axis : x y z
#
# Youngs Moduli (GPa) = 65.11068 69.32875 94.55182
#
# Poissons Ratio (x) = 0.54496 0.20007
# Poissons Ratio (y) = 0.51181 0.16422
# Poissons Ratio (z) = 0.13777 0.12041
#
# Static dielectric constant tensor:
#      x y z
#    x 3.674880 0.000000 0.000000 
#    y 0.000000 4.035780 0.000000 
#    z 0.000000 0.000000 4.133920 
# 
# 
# High freq. dielectric constant tensor:
#      x y z
#    x 1.856080 0.000000 0.000000 
#    y 0.000000 1.880820 0.000000 
#    z 0.000000 0.000000 1.896930 
# 
# From -- ./inp_files/1279.got.cif
#   From: 2010.03.12/outbox.cif.g09.slc.cpg/sg33_1_cif.got.tgz:1279.got - 2010.04.14 01:49:19.
