data_PCOD8171911
_publ_section_title
;
Structure prediction by ZEFSAII (Michael W. Deem and Ramdas Pophale) SiO2 
 PCOD8171911
Probable space group: P N N 2
;
_chemical_formula_sum "Si O2"
_cell_formula_units_Z 32
_cell_length_a 4.965611
_cell_length_b 26.539250
_cell_length_c 11.739320
_cell_angle_alpha 90.000000
_cell_angle_beta 90.000000
_cell_angle_gamma 90.000000
_cell_volume 1547.049754
_symmetry_space_group_name_H-M "P N N 2"
_symmetry_group_IT_number 34
_symmetry_cell_setting 'orthorhombic'
loop_
_space_group_symop_operation_xyz
x,y,z
-x,-y,z
1/2-x,1/2+y,1/2+z
1/2+x,1/2-y,1/2+z
loop_
_atom_site_type_symbol
_atom_site_label
_atom_site_fract_x
_atom_site_fract_y
_atom_site_fract_z
Si Si1 0.784492 0.693744 0.007890
Si Si2 0.821458 0.668696 0.269587
Si Si3 0.709163 0.241361 0.967073
Si Si4 0.338066 0.624516 0.375317
Si Si5 0.862318 0.145091 0.085376
Si Si6 0.347237 0.051981 0.276796
Si Si7 0.857261 0.111563 0.329558
Si Si8 0.059449 0.556998 0.525568
O O1 0.777685 0.678783 0.138743
O O2 0.593919 0.739972 0.978742
O O3 0.086559 0.711574 0.979128
O O4 0.665341 0.646080 0.939953
O O5 0.738401 0.717807 0.342273
O O6 0.621045 0.623190 0.307870
O O7 0.128002 0.654988 0.297912
O O8 0.719043 0.198771 0.065601
O O9 0.375448 0.648631 0.502836
O O10 0.225873 0.570001 0.410568
O O11 0.951542 0.142508 0.217214
O O12 0.689259 0.095913 0.044447
O O13 0.554346 0.095064 0.308349
O O14 0.267230 0.055298 0.143206
O O15 0.069338 0.064561 0.345729
O O16 0.500000 0.000000 0.308970
O O17 0.000000 0.500000 0.497562
#
# Coordination Sequence:
#
# PCOD8171911 Si02
#       8
#     4   4   4   4   4   4   4   4
#     4  12  27  42  62  94 122 172 212 265 298 377
#     4  11  25  42  63  84 126 165 212 250 320 366
#     4  11  24  40  64  89 123 167 210 254 322 365
#     4  11  19  41  62  88 122 171 193 256 318 370
#     4  10  22  38  63  92 130 167 202 259 325 377
#     4  10  21  38  64  95 131 164 198 260 325 380
#     4  11  23  39  63  95 130 159 212 259 312 377
#     4  10  20  36  63 100 129 159 207 259 326 379
#
# _framework density 20.684529999999999
#
# number of rings (size 3 to 8) (size 9 to 14) (size 15 to 20)
#    0.000    1.250    3.750    3.375    3.500    0.500 
#    0.000    0.000    0.000    4.500    0.000    0.000 
#    0.000    0.000    0.000    0.000    0.000    0.000 
#
# Total GULP energy -396449.146942 kJ/mol
# GULP energy per Si atom -12389.035842 kJ/mol
# Density = 2.063745 g / cm^3
# Si number density = 20.684530 Si / 1000 Ang^3
#
#
#
# Elastic Constant Matrix: (Units=GPa)
#
#
# Indices 1 2 3 4 5 6 
#
# 1 79.6325 5.8448 14.1182 0.0000 0.0000 0.0000
# 2 5.8448 70.6866 24.3690 0.0000 0.0000 0.0000
# 3 14.1182 24.3690 114.7934 0.0000 0.0000 0.0000
# 4 0.0000 0.0000 0.0000 23.3083 0.0000 0.0000
# 5 0.0000 0.0000 0.0000 0.0000 15.7301 0.0000
# 6 0.0000 0.0000 0.0000 0.0000 0.0000 21.8470
#
#
#
# Elastic Compliance Matrix: (Units=1/GPa)
#
#
# Indices 1 2 3 4 5 6 
#
# 1 0.012858 -0.000559 -0.001463 0.000000 0.000000 0.000000
# 2 -0.000559 0.015288 -0.003177 0.000000 0.000000 0.000000
# 3 -0.001463 -0.003177 0.009566 0.000000 0.000000 0.000000
# 4 0.000000 0.000000 0.000000 0.042903 0.000000 0.000000
# 5 0.000000 0.000000 0.000000 0.000000 0.063573 0.000000
# 6 0.000000 0.000000 0.000000 0.000000 0.000000 0.045773
#
#
# Mechanical properties :
#
#
# Convention : Reuss Voigt Hill
#
# Bulk Modulus (GPa) = 36.60971 39.30850 37.95910
# Shear Modulus (GPa) = 23.87064 26.89579 25.38322
#
# Velocity S-wave (km/s) = 3.40079 3.60986 3.50688
# Velocity P-wave (km/s) = 5.75830 6.03489 5.89821
#
# Compressibility (1/GPa) = 0.02731516
#
# Stress axis : x y z
#
# Youngs Moduli (GPa) = 77.77237 65.40936 104.54154
#
# Poissons Ratio (x) = 0.03656 0.15292
# Poissons Ratio (y) = 0.04347 0.33210
# Poissons Ratio (z) = 0.11376 0.20779
#
# Static dielectric constant tensor:
#      x y z
#    x 3.934750 0.000000 0.000000 
#    y 0.000000 3.787960 0.000000 
#    z 0.000000 0.000000 3.703580 
# 
# 
# High freq. dielectric constant tensor:
#      x y z
#    x 1.824760 0.000000 0.000000 
#    y 0.000000 1.798200 0.000000 
#    z 0.000000 0.000000 1.783370 
# 
# From -- ./inp_files/4567.got.cif
#   From: 2010.03.12/outbox.cif.g09.slc.cpg/sg34_3_cif.got.tgz:4567.got - 2010.04.14 01:56:33.
