data_PCOD8171679
_publ_section_title
;
Structure prediction by ZEFSAII (Michael W. Deem and Ramdas Pophale) SiO2 
 PCOD8171679
Probable space group: P N A 21
;
_chemical_formula_sum "Si O2"
_cell_formula_units_Z 28
_cell_length_a 10.518609
_cell_length_b 9.220889
_cell_length_c 12.882196
_cell_angle_alpha 90.000000
_cell_angle_beta 90.000000
_cell_angle_gamma 90.000000
_cell_volume 1249.456119
_symmetry_space_group_name_H-M "P N A 21"
_symmetry_group_IT_number 33
_symmetry_cell_setting 'orthorhombic'
loop_
_space_group_symop_operation_xyz
x,y,z
-x,-y,1/2+z
1/2-x,1/2+y,1/2+z
1/2+x,1/2-y,z
loop_
_atom_site_type_symbol
_atom_site_label
_atom_site_fract_x
_atom_site_fract_y
_atom_site_fract_z
Si Si1 0.003361 0.679155 0.679640
Si Si2 0.859430 0.171810 0.813688
Si Si3 0.841704 0.578091 0.144735
Si Si4 0.995677 0.107667 0.000733
Si Si5 0.726835 0.634797 0.754802
Si Si6 0.075187 0.117072 0.655988
Si Si7 0.759390 0.441158 0.932550
O O1 0.030546 0.747017 0.566406
O O2 0.855726 0.707639 0.708982
O O3 0.031930 0.506898 0.683763
O O4 0.106379 0.756660 0.755221
O O5 0.751727 0.097575 0.743588
O O6 0.841226 0.334165 0.859258
O O7 0.880931 0.078033 0.919086
O O8 0.990540 0.172372 0.750692
O O9 0.869684 0.738521 0.101809
O O10 0.795791 0.473724 0.051702
O O11 0.122449 0.134243 0.935470
O O12 0.011891 0.966881 0.073353
O O13 0.690090 0.488056 0.691499
O O14 0.754798 0.595461 0.873965
#
# Coordination Sequence:
#
# PCOD8171679 Si02
#       7
#     4   4   4   4   4   4   4
#     4  11  26  45  73 105 142 193 249 310 363 455
#     4  12  23  46  75 104 147 198 243 313 386 437
#     4  12  25  44  72 105 145 190 253 304 373 459
#     4  11  24  45  73 103 145 197 249 308 387 441
#     4  11  25  46  70 103 147 191 250 308 378 441
#     4  11  25  45  72 100 151 194 242 318 372 446
#     4  12  24  43  73 108 145 197 246 307 385 445
#
# _framework density 22.409752000000001
#
# number of rings (size 3 to 8) (size 9 to 14) (size 15 to 20)
#    0.000    0.571    5.714    1.714    4.000    2.286 
#    0.000    0.000    0.000    0.000    0.000    0.000 
#    0.000    0.000    0.000    0.000    0.000    0.000 
#
# Total GULP energy -346945.331660 kJ/mol
# GULP energy per Si atom -12390.904702 kJ/mol
# Density = 2.235875 g / cm^3
# Si number density = 22.409752 Si / 1000 Ang^3
#
#
#
# Elastic Constant Matrix: (Units=GPa)
#
#
# Indices 1 2 3 4 5 6 
#
# 1 123.6314 47.2332 44.8536 0.0000 0.0000 0.0000
# 2 47.2332 127.1257 36.9247 0.0000 0.0000 0.0000
# 3 44.8536 36.9247 122.5689 0.0000 0.0000 0.0000
# 4 0.0000 0.0000 0.0000 29.8313 0.0000 0.0000
# 5 0.0000 0.0000 0.0000 0.0000 35.8700 0.0000
# 6 0.0000 0.0000 0.0000 0.0000 0.0000 36.1098
#
#
#
# Elastic Compliance Matrix: (Units=1/GPa)
#
#
# Indices 1 2 3 4 5 6 
#
# 1 0.010265 -0.002984 -0.002858 0.000000 0.000000 0.000000
# 2 -0.002984 0.009488 -0.001766 0.000000 0.000000 0.000000
# 3 -0.002858 -0.001766 0.009737 0.000000 0.000000 0.000000
# 4 0.000000 0.000000 0.000000 0.033522 0.000000 0.000000
# 5 0.000000 0.000000 0.000000 0.000000 0.027878 0.000000
# 6 0.000000 0.000000 0.000000 0.000000 0.000000 0.027693
#
#
# Mechanical properties :
#
#
# Convention : Reuss Voigt Hill
#
# Bulk Modulus (GPa) = 70.05784 70.14990 70.10387
# Shear Modulus (GPa) = 36.08613 36.64985 36.36799
#
# Velocity S-wave (km/s) = 4.01719 4.04845 4.03285
# Velocity P-wave (km/s) = 7.26961 7.29551 7.28257
#
# Compressibility (1/GPa) = 0.01427392
#
# Stress axis : x y z
#
# Youngs Moduli (GPa) = 97.41503 105.39645 102.70609
#
# Poissons Ratio (x) = 0.31451 0.29349
# Poissons Ratio (y) = 0.29069 0.18141
# Poissons Ratio (z) = 0.27837 0.18616
#
# Static dielectric constant tensor:
#      x y z
#    x 4.016370 0.000000 0.000000 
#    y 0.000000 3.958510 0.000000 
#    z 0.000000 0.000000 4.151400 
# 
# 
# High freq. dielectric constant tensor:
#      x y z
#    x 1.883690 0.000000 0.000000 
#    y 0.000000 1.877200 0.000000 
#    z 0.000000 0.000000 1.886600 
# 
# From -- ./inp_files/6343.got.cif
#   From: 2010.03.12/outbox.cif.g09.slc.cpg/sg33_4_cif.got.tgz:6343.got - 2010.04.14 01:49:19.
