data_PCOD8171108
_publ_section_title
;
Structure prediction by ZEFSAII (Michael W. Deem and Ramdas Pophale) SiO2 
 PCOD8171108
Probable space group: P N A 21
;
_chemical_formula_sum "Si O2"
_cell_formula_units_Z 32
_cell_length_a 9.578558
_cell_length_b 12.620094
_cell_length_c 12.819266
_cell_angle_alpha 90.000000
_cell_angle_beta 90.000000
_cell_angle_gamma 90.000000
_cell_volume 1549.622388
_symmetry_space_group_name_H-M "P N A 21"
_symmetry_group_IT_number 33
_symmetry_cell_setting 'orthorhombic'
loop_
_space_group_symop_operation_xyz
x,y,z
-x,-y,1/2+z
1/2-x,1/2+y,1/2+z
1/2+x,1/2-y,z
loop_
_atom_site_type_symbol
_atom_site_label
_atom_site_fract_x
_atom_site_fract_y
_atom_site_fract_z
Si Si1 0.463453 0.834245 0.357030
Si Si2 0.366831 0.567417 0.124482
Si Si3 0.394648 0.965959 0.538472
Si Si4 0.962769 0.342213 0.406225
Si Si5 0.791440 0.876148 0.347395
Si Si6 0.174979 0.992939 0.060465
Si Si7 0.101688 0.531585 0.716784
Si Si8 0.714495 0.229237 0.508569
O O1 0.412798 0.856391 0.475922
O O2 0.632068 0.833948 0.347222
O O3 0.402380 0.718735 0.334476
O O4 0.393982 0.920405 0.279251
O O5 0.266717 0.498516 0.049232
O O6 0.321628 0.551966 0.245130
O O7 0.519538 0.522769 0.102272
O O8 0.352063 0.691351 0.093830
O O9 0.482408 0.049043 0.469533
O O10 0.459806 0.962658 0.652117
O O11 0.907642 0.366673 0.291834
O O12 0.860713 0.266396 0.467212
O O13 0.111320 0.282911 0.409190
O O14 0.822639 0.947019 0.449524
O O15 0.259312 0.883176 0.061383
O O16 0.261286 0.056843 0.148099
#
# Coordination Sequence:
#
# PCOD8171108 Si02
#       8
#     4   4   4   4   4   4   4   4
#     4  11  25  44  68  96 137 178 227 276 341 408
#     4  11  26  40  72 100 129 174 229 277 337 396
#     4  10  21  43  66  91 130 173 216 274 333 397
#     4  10  22  38  67  94 125 165 222 267 329 393
#     4  12  27  43  67 104 134 181 227 279 336 410
#     4  12  25  45  66  98 142 169 225 284 333 403
#     4  11  21  44  67  91 127 182 216 268 345 392
#     4  11  21  43  65  98 128 168 214 283 320 395
#
# _framework density 20.650193000000002
#
# number of rings (size 3 to 8) (size 9 to 14) (size 15 to 20)
#    0.000    1.000    5.000    1.500    5.250    2.000 
#    2.250    0.000    0.000    0.000    0.000    0.000 
#    0.000    0.000    0.000    0.000    0.000    0.000 
#
# Total GULP energy -396731.059713 kJ/mol
# GULP energy per Si atom -12397.845616 kJ/mol
# Density = 2.060319 g / cm^3
# Si number density = 20.650193 Si / 1000 Ang^3
#
#
#
# Elastic Constant Matrix: (Units=GPa)
#
#
# Indices 1 2 3 4 5 6 
#
# 1 122.2936 15.7291 31.4438 0.0000 0.0000 0.0000
# 2 15.7291 30.1080 23.4882 0.0000 0.0000 0.0000
# 3 31.4438 23.4882 120.3125 0.0000 0.0000 0.0000
# 4 0.0000 0.0000 0.0000 26.9040 0.0000 0.0000
# 5 0.0000 0.0000 0.0000 0.0000 35.6407 0.0000
# 6 0.0000 0.0000 0.0000 0.0000 0.0000 10.9635
#
#
#
# Elastic Compliance Matrix: (Units=1/GPa)
#
#
# Indices 1 2 3 4 5 6 
#
# 1 0.009052 -0.003401 -0.001702 0.000000 0.000000 0.000000
# 2 -0.003401 0.040459 -0.007010 0.000000 0.000000 0.000000
# 3 -0.001702 -0.007010 0.010125 0.000000 0.000000 0.000000
# 4 0.000000 0.000000 0.000000 0.037169 0.000000 0.000000
# 5 0.000000 0.000000 0.000000 0.000000 0.028058 0.000000
# 6 0.000000 0.000000 0.000000 0.000000 0.000000 0.091212
#
#
# Mechanical properties :
#
#
# Convention : Reuss Voigt Hill
#
# Bulk Modulus (GPa) = 28.24027 46.00403 37.12215
# Shear Modulus (GPa) = 19.83307 28.17185 24.00246
#
# Velocity S-wave (km/s) = 3.10244 3.69757 3.41300
# Velocity P-wave (km/s) = 5.15158 6.36832 5.79199
#
# Compressibility (1/GPa) = 0.03541043
#
# Stress axis : x y z
#
# Youngs Moduli (GPa) = 110.47197 24.71624 98.76619
#
# Poissons Ratio (x) = 0.08407 0.16807
# Poissons Ratio (y) = 0.37576 0.69233
# Poissons Ratio (z) = 0.18799 0.17325
#
# Static dielectric constant tensor:
#      x y z
#    x 3.751780 0.000000 0.000000 
#    y 0.000000 3.751190 0.000000 
#    z 0.000000 0.000000 3.854580 
# 
# 
# High freq. dielectric constant tensor:
#      x y z
#    x 1.821990 0.000000 0.000000 
#    y 0.000000 1.787030 0.000000 
#    z 0.000000 0.000000 1.813440 
# 
# From -- ./inp_files/6010.got.cif
#   From: 2010.03.12/outbox.cif.g09.slc.cpg/sg33_4_cif.got.tgz:6010.got - 2010.04.14 01:49:19.
