data_PCOD8171924
_publ_section_title
;
Structure prediction by ZEFSAII (Michael W. Deem and Ramdas Pophale) SiO2 
 PCOD8171924
Probable space group: P N N 2
;
_chemical_formula_sum "Si O2"
_cell_formula_units_Z 20
_cell_length_a 15.989562
_cell_length_b 4.835540
_cell_length_c 11.548776
_cell_angle_alpha 90.000000
_cell_angle_beta 90.000000
_cell_angle_gamma 90.000000
_cell_volume 892.930187
_symmetry_space_group_name_H-M "P N N 2"
_symmetry_group_IT_number 34
_symmetry_cell_setting 'orthorhombic'
loop_
_space_group_symop_operation_xyz
x,y,z
-x,-y,z
1/2-x,1/2+y,1/2+z
1/2+x,1/2-y,1/2+z
loop_
_atom_site_type_symbol
_atom_site_label
_atom_site_fract_x
_atom_site_fract_y
_atom_site_fract_z
Si Si1 0.145291 0.776218 0.836420
Si Si2 0.500000 0.500000 0.635448
Si Si3 0.354711 0.223790 0.782104
Si Si4 0.178785 0.264737 0.690345
Si Si5 0.500000 0.000000 0.483068
Si Si6 0.821217 0.764729 0.428181
O O1 0.170527 0.577923 0.731158
O O2 0.223837 0.826541 0.921803
O O3 0.122705 0.067750 0.774427
O O4 0.069248 0.650854 0.907077
O O5 0.430754 0.349135 0.711438
O O6 0.459434 0.749998 0.559257
O O7 0.276163 0.173453 0.696726
O O8 0.329481 0.422096 0.887362
O O9 0.377296 0.932269 0.844105
O O10 0.146255 0.249997 0.559264
#
# Coordination Sequence:
#
# PCOD8171924 Si02
#       6
#     4   2   4   4   2   4
#     4  10  22  37  59  90 118 153 207 249 297 372
#     4  12  24  40  62  88 124 162 202 260 318 362
#     4  10  22  37  59  90 118 153 207 249 297 372
#     4  10  20  38  61  86 119 157 199 251 301 355
#     4  12  24  40  62  88 124 162 202 260 318 362
#     4  10  20  38  61  86 119 157 199 251 301 355
#
# _framework density 22.398167000000001
#
# number of rings (size 3 to 8) (size 9 to 14) (size 15 to 20)
#    0.000    1.600    0.000    4.800    0.000    6.400 
#    0.000    4.000    0.000    0.000    0.000    0.000 
#    0.000    0.000    0.000    0.000    0.000    0.000 
#
# Total GULP energy -248010.002549 kJ/mol
# GULP energy per Si atom -12400.500127 kJ/mol
# Density = 2.234719 g / cm^3
# Si number density = 22.398167 Si / 1000 Ang^3
#
#
#
# Elastic Constant Matrix: (Units=GPa)
#
#
# Indices 1 2 3 4 5 6 
#
# 1 82.9918 16.6186 33.3494 0.0000 0.0000 0.0000
# 2 16.6186 105.8074 26.1023 0.0000 0.0000 0.0000
# 3 33.3494 26.1023 115.8303 0.0000 0.0000 0.0000
# 4 0.0000 0.0000 0.0000 35.2875 0.0000 0.0000
# 5 0.0000 0.0000 0.0000 0.0000 10.9919 0.0000
# 6 0.0000 0.0000 0.0000 0.0000 0.0000 33.8723
#
#
#
# Elastic Compliance Matrix: (Units=1/GPa)
#
#
# Indices 1 2 3 4 5 6 
#
# 1 0.013782 -0.001256 -0.003685 0.000000 0.000000 0.000000
# 2 -0.001256 0.010122 -0.001919 0.000000 0.000000 0.000000
# 3 -0.003685 -0.001919 0.010127 0.000000 0.000000 0.000000
# 4 0.000000 0.000000 0.000000 0.028339 0.000000 0.000000
# 5 0.000000 0.000000 0.000000 0.000000 0.090976 0.000000
# 6 0.000000 0.000000 0.000000 0.000000 0.000000 0.029523
#
#
# Mechanical properties :
#
#
# Convention : Reuss Voigt Hill
#
# Bulk Modulus (GPa) = 49.23614 50.75224 49.99419
# Shear Modulus (GPa) = 24.58719 31.26762 27.92740
#
# Velocity S-wave (km/s) = 3.31680 3.74035 3.53492
# Velocity P-wave (km/s) = 6.05790 6.43132 6.24740
#
# Compressibility (1/GPa) = 0.02031028
#
# Stress axis : x y z
#
# Youngs Moduli (GPa) = 72.56064 98.79608 98.74738
#
# Poissons Ratio (x) = 0.12404 0.36389
# Poissons Ratio (y) = 0.09110 0.18954
# Poissons Ratio (z) = 0.26739 0.18964
#
# Static dielectric constant tensor:
#      x y z
#    x 3.585290 0.000000 0.000000 
#    y 0.000000 4.647670 0.000000 
#    z 0.000000 0.000000 3.932350 
# 
# 
# High freq. dielectric constant tensor:
#      x y z
#    x 1.845040 0.000000 0.000000 
#    y 0.000000 1.908770 0.000000 
#    z 0.000000 0.000000 1.884380 
# 
# From -- ./inp_files/5574.got.cif
#   From: 2010.03.12/outbox.cif.g09.slc.cpg/sg34_3_cif.got.tgz:5574.got - 2010.04.14 01:56:33.
