data_PCOD8171731
_publ_section_title
;
Structure prediction by ZEFSAII (Michael W. Deem and Ramdas Pophale) SiO2 
 PCOD8171731
Probable space group: P N A 21
;
_chemical_formula_sum "Si O2"
_cell_formula_units_Z 24
_cell_length_a 9.146832
_cell_length_b 13.766694
_cell_length_c 7.874237
_cell_angle_alpha 90.000000
_cell_angle_beta 90.000000
_cell_angle_gamma 90.000000
_cell_volume 991.536815
_symmetry_space_group_name_H-M "P N A 21"
_symmetry_group_IT_number 33
_symmetry_cell_setting 'orthorhombic'
loop_
_space_group_symop_operation_xyz
x,y,z
-x,-y,1/2+z
1/2-x,1/2+y,1/2+z
1/2+x,1/2-y,z
loop_
_atom_site_type_symbol
_atom_site_label
_atom_site_fract_x
_atom_site_fract_y
_atom_site_fract_z
Si Si1 0.875365 0.700050 0.084630
Si Si2 0.368433 0.104505 0.983612
Si Si3 0.949879 0.445832 0.352440
Si Si4 0.448220 0.551487 0.550870
Si Si5 0.109897 0.800438 0.315364
Si Si6 0.132786 0.103565 0.417305
O O1 0.734189 0.660448 0.186472
O O2 0.980352 0.749994 0.217131
O O3 0.948302 0.613200 0.982024
O O4 0.828390 0.784725 0.953688
O O5 0.448344 0.101628 0.166516
O O6 0.216428 0.045490 0.981243
O O7 0.328870 0.215233 0.938291
O O8 0.478856 0.054080 0.847378
O O9 0.785376 0.454503 0.421932
O O10 0.554896 0.610162 0.426076
O O11 0.448807 0.598241 0.736552
O O12 0.520843 0.443377 0.555677
#
# Coordination Sequence:
#
# PCOD8171731 Si02
#       6
#     4   4   4   4   4   4
#     4  12  25  46  71 100 141 185 236 292 354 423
#     4  11  26  46  70 105 142 186 242 291 357 422
#     4  11  26  45  73 103 142 189 237 297 355 420
#     4  11  26  45  73 103 142 189 237 297 355 420
#     4  12  25  46  71 100 141 185 236 292 354 423
#     4  11  26  46  70 105 142 186 242 291 357 422
#
# _framework density 24.204851000000001
#
# number of rings (size 3 to 8) (size 9 to 14) (size 15 to 20)
#    0.000    0.667    3.333    3.000    9.333    0.000 
#    0.000    0.000    0.000    0.000    0.000    0.000 
#    0.000    0.000    0.000    0.000    0.000    0.000 
#
# Total GULP energy -297714.020623 kJ/mol
# GULP energy per Si atom -12404.750859 kJ/mol
# Density = 2.414976 g / cm^3
# Si number density = 24.204851 Si / 1000 Ang^3
#
#
#
# Elastic Constant Matrix: (Units=GPa)
#
#
# Indices 1 2 3 4 5 6 
#
# 1 114.3776 24.6143 49.3064 0.0000 0.0000 0.0000
# 2 24.6143 64.7463 17.3422 0.0000 0.0000 0.0000
# 3 49.3064 17.3422 111.4432 0.0000 0.0000 0.0000
# 4 0.0000 0.0000 0.0000 36.9237 0.0000 0.0000
# 5 0.0000 0.0000 0.0000 0.0000 51.1063 0.0000
# 6 0.0000 0.0000 0.0000 0.0000 0.0000 39.5439
#
#
#
# Elastic Compliance Matrix: (Units=1/GPa)
#
#
# Indices 1 2 3 4 5 6 
#
# 1 0.011372 -0.003105 -0.004548 0.000000 0.000000 0.000000
# 2 -0.003105 0.016964 -0.001266 0.000000 0.000000 0.000000
# 3 -0.004548 -0.001266 0.011182 0.000000 0.000000 0.000000
# 4 0.000000 0.000000 0.000000 0.027083 0.000000 0.000000
# 5 0.000000 0.000000 0.000000 0.000000 0.019567 0.000000
# 6 0.000000 0.000000 0.000000 0.000000 0.000000 0.025288
#
#
# Mechanical properties :
#
#
# Convention : Reuss Voigt Hill
#
# Bulk Modulus (GPa) = 46.12500 52.56586 49.34543
# Shear Modulus (GPa) = 36.62410 38.80173 37.71292
#
# Velocity S-wave (km/s) = 3.89406 4.00816 3.95153
# Velocity P-wave (km/s) = 6.27023 6.57151 6.42264
#
# Compressibility (1/GPa) = 0.02168022
#
# Stress axis : x y z
#
# Youngs Moduli (GPa) = 87.93697 58.94687 89.42582
#
# Poissons Ratio (x) = 0.18303 0.40672
# Poissons Ratio (y) = 0.27304 0.11323
# Poissons Ratio (z) = 0.39995 0.07464
#
# Static dielectric constant tensor:
#      x y z
#    x 4.430760 0.000000 0.000000 
#    y 0.000000 4.782180 0.000000 
#    z 0.000000 0.000000 4.488550 
# 
# 
# High freq. dielectric constant tensor:
#      x y z
#    x 1.972750 0.000000 0.000000 
#    y 0.000000 1.967210 0.000000 
#    z 0.000000 0.000000 1.965640 
# 
# From -- ./inp_files/3136.got.cif
#   From: 2010.03.12/outbox.cif.g09.slc.cpg/sg33_2_cif.got.tgz:3136.got - 2010.04.14 01:49:19.
