data_PCOD8171479
_publ_section_title
;
Structure prediction by ZEFSAII (Michael W. Deem and Ramdas Pophale) SiO2 
 PCOD8171479
Probable space group: P N A 21
;
_chemical_formula_sum "Si O2"
_cell_formula_units_Z 12
_cell_length_a 4.826734
_cell_length_b 17.394202
_cell_length_c 4.975411
_cell_angle_alpha 90.000000
_cell_angle_beta 90.000000
_cell_angle_gamma 90.000000
_cell_volume 417.721508
_symmetry_space_group_name_H-M "P N A 21"
_symmetry_group_IT_number 33
_symmetry_cell_setting 'orthorhombic'
loop_
_space_group_symop_operation_xyz
x,y,z
-x,-y,1/2+z
1/2-x,1/2+y,1/2+z
1/2+x,1/2-y,z
loop_
_atom_site_type_symbol
_atom_site_label
_atom_site_fract_x
_atom_site_fract_y
_atom_site_fract_z
Si Si1 0.867924 0.406077 0.262060
Si Si2 0.358516 0.698060 0.374883
Si Si3 0.738665 0.076237 0.756732
O O1 0.696009 0.485725 0.223725
O O2 0.997525 0.395620 0.554661
O O3 0.662955 0.334880 0.183758
O O4 0.123105 0.405913 0.051629
O O5 0.049568 0.728340 0.317151
O O6 0.474924 0.624236 0.203232
#
# Coordination Sequence:
#
# PCOD8171479 Si02
#       3
#     4   4   4
#     4  10  24  48  78 110 152 206 264 318 382 467
#     4  12  26  50  76 116 158 200 252 326 390 458
#     4  10  24  48  78 110 152 206 264 318 382 467
#
# _framework density 28.727276
#
# number of rings (size 3 to 8) (size 9 to 14) (size 15 to 20)
#    0.000    1.333    3.333    0.000    0.000   13.333 
#    0.000    0.000    0.000    0.000    0.000    0.000 
#    0.000    0.000    0.000    0.000    0.000    0.000 
#
# Total GULP energy -148671.258697 kJ/mol
# GULP energy per Si atom -12389.271558 kJ/mol
# Density = 2.866189 g / cm^3
# Si number density = 28.727276 Si / 1000 Ang^3
#
#
#
# Elastic Constant Matrix: (Units=GPa)
#
#
# Indices 1 2 3 4 5 6 
#
# 1 105.9741 28.0949 2.2211 0.0000 0.0000 0.0000
# 2 28.0949 155.0587 3.5752 0.0000 0.0000 0.0000
# 3 2.2211 3.5752 51.8746 0.0000 0.0000 0.0000
# 4 0.0000 0.0000 0.0000 46.5220 0.0000 0.0000
# 5 0.0000 0.0000 0.0000 0.0000 18.4213 0.0000
# 6 0.0000 0.0000 0.0000 0.0000 0.0000 51.3644
#
#
#
# Elastic Compliance Matrix: (Units=1/GPa)
#
#
# Indices 1 2 3 4 5 6 
#
# 1 0.009917 -0.001790 -0.000301 0.000000 0.000000 0.000000
# 2 -0.001790 0.006782 -0.000391 0.000000 0.000000 0.000000
# 3 -0.000301 -0.000391 0.019317 0.000000 0.000000 0.000000
# 4 0.000000 0.000000 0.000000 0.021495 0.000000 0.000000
# 5 0.000000 0.000000 0.000000 0.000000 0.054285 0.000000
# 6 0.000000 0.000000 0.000000 0.000000 0.000000 0.019469
#
#
# Mechanical properties :
#
#
# Convention : Reuss Voigt Hill
#
# Bulk Modulus (GPa) = 32.20329 42.29884 37.25106
# Shear Modulus (GPa) = 34.11097 41.86262 37.98680
#
# Velocity S-wave (km/s) = 3.44962 3.82153 3.64032
# Velocity P-wave (km/s) = 5.20584 5.85050 5.53756
#
# Compressibility (1/GPa) = 0.03105273
#
# Stress axis : x y z
#
# Youngs Moduli (GPa) = 100.83580 147.43837 51.76766
#
# Poissons Ratio (x) = 0.26390 0.01560
# Poissons Ratio (y) = 0.18049 0.02023
# Poissons Ratio (z) = 0.03038 0.05762
#
# Static dielectric constant tensor:
#      x y z
#    x 5.041840 0.000000 0.000000 
#    y 0.000000 5.658140 0.000000 
#    z 0.000000 0.000000 4.998420 
# 
# 
# High freq. dielectric constant tensor:
#      x y z
#    x 2.173970 0.000000 0.000000 
#    y 0.000000 2.186630 0.000000 
#    z 0.000000 0.000000 2.147090 
# 
# From -- ./inp_files/104.got.cif
#   From: 2010.03.12/outbox.cif.g09.slc.cpg/sg33_1_cif.got.tgz:104.got - 2010.04.14 01:49:19.
