data_PCOD8171729
_publ_section_title
;
Structure prediction by ZEFSAII (Michael W. Deem and Ramdas Pophale) SiO2 
 PCOD8171729
Probable space group: P N A 21
;
_chemical_formula_sum "Si O2"
_cell_formula_units_Z 28
_cell_length_a 9.595464
_cell_length_b 11.107223
_cell_length_c 10.460906
_cell_angle_alpha 90.000000
_cell_angle_beta 90.000000
_cell_angle_gamma 90.000000
_cell_volume 1114.912466
_symmetry_space_group_name_H-M "P N A 21"
_symmetry_group_IT_number 33
_symmetry_cell_setting 'orthorhombic'
loop_
_space_group_symop_operation_xyz
x,y,z
-x,-y,1/2+z
1/2-x,1/2+y,1/2+z
1/2+x,1/2-y,z
loop_
_atom_site_type_symbol
_atom_site_label
_atom_site_fract_x
_atom_site_fract_y
_atom_site_fract_z
Si Si1 0.637828 0.374781 0.274630
Si Si2 0.036872 0.717528 0.343495
Si Si3 0.617032 0.011402 0.921226
Si Si4 0.762553 0.228141 0.070079
Si Si5 0.293630 0.694063 0.197976
Si Si6 0.341385 0.444162 0.275509
Si Si7 0.376164 0.843013 0.952608
O O1 0.761560 0.443146 0.347828
O O2 0.676253 0.344927 0.125041
O O3 0.507014 0.465081 0.294434
O O4 0.593414 0.248516 0.338301
O O5 0.109998 0.733027 0.480256
O O6 0.146647 0.752737 0.234133
O O7 0.987403 0.578674 0.322199
O O8 0.898206 0.797874 0.321425
O O9 0.517975 0.913627 0.991105
O O10 0.665932 0.123364 0.010118
O O11 0.833971 0.179819 0.198512
O O12 0.279944 0.549994 0.182728
O O13 0.342082 0.762738 0.074598
O O14 0.252139 0.430677 0.407925
#
# Coordination Sequence:
#
# PCOD8171729 Si02
#       7
#     4   4   4   4   4   4   4
#     4  11  26  48  78 112 149 205 261 323 386 468
#     4  12  27  50  70 109 149 197 253 319 378 468
#     4  12  25  50  79 108 153 207 256 310 405 448
#     4  11  25  50  77 109 150 200 264 323 382 472
#     4  12  28  47  73 109 153 192 259 314 383 468
#     4  11  25  48  77 106 150 198 255 324 391 447
#     4  11  26  47  76 109 152 199 258 321 381 463
#
# _framework density 25.114077000000002
#
# number of rings (size 3 to 8) (size 9 to 14) (size 15 to 20)
#    0.000    0.571    2.857    4.286    6.000    2.286 
#    0.000    0.000    0.000    0.000    0.000    0.000 
#    0.000    0.000    0.000    0.000    0.000    0.000 
#
# Total GULP energy -346965.564328 kJ/mol
# GULP energy per Si atom -12391.627297 kJ/mol
# Density = 2.505692 g / cm^3
# Si number density = 25.114077 Si / 1000 Ang^3
#
#
#
# Elastic Constant Matrix: (Units=GPa)
#
#
# Indices 1 2 3 4 5 6 
#
# 1 156.7262 39.7486 36.5794 0.0000 0.0000 0.0000
# 2 39.7486 92.9713 29.6338 0.0000 0.0000 0.0000
# 3 36.5794 29.6338 80.6618 0.0000 0.0000 0.0000
# 4 0.0000 0.0000 0.0000 49.2755 0.0000 0.0000
# 5 0.0000 0.0000 0.0000 0.0000 28.8159 0.0000
# 6 0.0000 0.0000 0.0000 0.0000 0.0000 51.5943
#
#
#
# Elastic Compliance Matrix: (Units=1/GPa)
#
#
# Indices 1 2 3 4 5 6 
#
# 1 0.007593 -0.002434 -0.002549 0.000000 0.000000 0.000000
# 2 -0.002434 0.012963 -0.003659 0.000000 0.000000 0.000000
# 3 -0.002549 -0.003659 0.014898 0.000000 0.000000 0.000000
# 4 0.000000 0.000000 0.000000 0.020294 0.000000 0.000000
# 5 0.000000 0.000000 0.000000 0.000000 0.034703 0.000000
# 6 0.000000 0.000000 0.000000 0.000000 0.000000 0.019382
#
#
# Mechanical properties :
#
#
# Convention : Reuss Voigt Hill
#
# Bulk Modulus (GPa) = 55.03547 60.25366 57.64456
# Shear Modulus (GPa) = 37.54554 40.89697 39.22126
#
# Velocity S-wave (km/s) = 3.87072 4.03978 3.95615
# Velocity P-wave (km/s) = 6.47598 6.76785 6.62353
#
# Compressibility (1/GPa) = 0.01817010
#
# Stress axis : x y z
#
# Youngs Moduli (GPa) = 131.70482 77.14487 67.12505
#
# Poissons Ratio (x) = 0.18774 0.17111
# Poissons Ratio (y) = 0.32052 0.24558
# Poissons Ratio (z) = 0.33574 0.28224
#
# Static dielectric constant tensor:
#      x y z
#    x 4.962870 0.000000 0.000000 
#    y 0.000000 4.754030 0.000000 
#    z 0.000000 0.000000 4.332190 
# 
# 
# High freq. dielectric constant tensor:
#      x y z
#    x 2.024720 0.000000 0.000000 
#    y 0.000000 2.006400 0.000000 
#    z 0.000000 0.000000 1.985350 
# 
# From -- ./inp_files/5860.got.cif
#   From: 2010.03.12/outbox.cif.g09.slc.cpg/sg33_3_cif.got.tgz:5860.got - 2010.04.14 01:49:19.
