data_PCOD8171306
_publ_section_title
;
Structure prediction by ZEFSAII (Michael W. Deem and Ramdas Pophale) SiO2 
 PCOD8171306
Probable space group: P N A 21
;
_chemical_formula_sum "Si O2"
_cell_formula_units_Z 28
_cell_length_a 22.955054
_cell_length_b 6.915952
_cell_length_c 8.021670
_cell_angle_alpha 90.000000
_cell_angle_beta 90.000000
_cell_angle_gamma 90.000000
_cell_volume 1273.488657
_symmetry_space_group_name_H-M "P N A 21"
_symmetry_group_IT_number 33
_symmetry_cell_setting 'orthorhombic'
loop_
_space_group_symop_operation_xyz
x,y,z
-x,-y,1/2+z
1/2-x,1/2+y,1/2+z
1/2+x,1/2-y,z
loop_
_atom_site_type_symbol
_atom_site_label
_atom_site_fract_x
_atom_site_fract_y
_atom_site_fract_z
Si Si1 0.395715 0.066165 0.362830
Si Si2 0.274717 0.819863 0.781314
Si Si3 0.705784 0.823896 0.075314
Si Si4 0.072185 0.145205 0.757028
Si Si5 0.464871 0.382301 0.544193
Si Si6 0.638234 0.510602 0.252761
Si Si7 0.846472 0.153005 0.120456
O O1 0.332352 0.046711 0.448643
O O2 0.439036 0.174652 0.490269
O O3 0.390320 0.181130 0.186932
O O4 0.419563 0.857044 0.326624
O O5 0.334144 0.704263 0.738998
O O6 0.218861 0.776598 0.663853
O O7 0.283388 0.049667 0.743733
O O8 0.262636 0.752966 0.973148
O O9 0.672655 0.628341 0.113286
O O10 0.032114 0.150333 0.592250
O O11 0.134439 0.045905 0.715011
O O12 0.035883 0.029158 0.892640
O O13 0.429057 0.481890 0.697568
O O14 0.647036 0.621380 0.425563
#
# Coordination Sequence:
#
# PCOD8171306 Si02
#       7
#     4   4   4   4   4   4   4
#     4   9  22  42  63  93 126 166 212 267 323 395
#     4  11  22  40  60  93 126 174 211 265 329 382
#     4  10  23  38  62  89 125 167 216 259 329 385
#     4  11  22  43  69  88 137 166 209 278 313 391
#     4  10  23  40  64  97 123 173 217 257 333 385
#     4  11  23  41  62  92 137 161 218 275 308 399
#     4  10  23  40  62 100 122 169 223 255 331 389
#
# _framework density 21.986847999999998
#
# number of rings (size 3 to 8) (size 9 to 14) (size 15 to 20)
#    0.000    1.714    1.429    2.571    2.000    6.857 
#    0.000    2.857    0.000    0.000    0.000    0.000 
#    0.000    0.000    0.000    0.000    0.000    0.000 
#
# Total GULP energy -346983.891417 kJ/mol
# GULP energy per Si atom -12392.281836 kJ/mol
# Density = 2.193680 g / cm^3
# Si number density = 21.986848 Si / 1000 Ang^3
#
#
#
# Elastic Constant Matrix: (Units=GPa)
#
#
# Indices 1 2 3 4 5 6 
#
# 1 58.3160 15.8553 6.9449 0.0000 0.0000 0.0000
# 2 15.8553 104.9711 16.5430 0.0000 0.0000 0.0000
# 3 6.9449 16.5430 70.9453 0.0000 0.0000 0.0000
# 4 0.0000 0.0000 0.0000 32.6268 0.0000 0.0000
# 5 0.0000 0.0000 0.0000 0.0000 26.6556 0.0000
# 6 0.0000 0.0000 0.0000 0.0000 0.0000 17.1260
#
#
#
# Elastic Compliance Matrix: (Units=1/GPa)
#
#
# Indices 1 2 3 4 5 6 
#
# 1 0.017975 -0.002531 -0.001169 0.000000 0.000000 0.000000
# 2 -0.002531 0.010246 -0.002141 0.000000 0.000000 0.000000
# 3 -0.001169 -0.002141 0.014709 0.000000 0.000000 0.000000
# 4 0.000000 0.000000 0.000000 0.030650 0.000000 0.000000
# 5 0.000000 0.000000 0.000000 0.000000 0.037516 0.000000
# 6 0.000000 0.000000 0.000000 0.000000 0.000000 0.058391
#
#
# Mechanical properties :
#
#
# Convention : Reuss Voigt Hill
#
# Bulk Modulus (GPa) = 32.00282 34.76874 33.38578
# Shear Modulus (GPa) = 26.09797 28.27430 27.18614
#
# Velocity S-wave (km/s) = 3.44900 3.58992 3.52017
# Velocity P-wave (km/s) = 5.51795 5.74728 5.63378
#
# Compressibility (1/GPa) = 0.03124725
#
# Stress axis : x y z
#
# Youngs Moduli (GPa) = 55.63190 97.59747 67.98469
#
# Poissons Ratio (x) = 0.24700 0.07951
# Poissons Ratio (y) = 0.14079 0.14559
# Poissons Ratio (z) = 0.06506 0.20900
#
# Static dielectric constant tensor:
#      x y z
#    x 3.936560 0.000000 0.000000 
#    y 0.000000 3.827640 0.000000 
#    z 0.000000 0.000000 4.027610 
# 
# 
# High freq. dielectric constant tensor:
#      x y z
#    x 1.857820 0.000000 0.000000 
#    y 0.000000 1.856600 0.000000 
#    z 0.000000 0.000000 1.867090 
# 
# From -- ./inp_files/5139.got.cif
#   From: 2010.03.12/outbox.cif.g09.slc.cpg/sg33_3_cif.got.tgz:5139.got - 2010.04.14 01:49:19.
