data_PCOD8171290
_publ_section_title
;
Structure prediction by ZEFSAII (Michael W. Deem and Ramdas Pophale) SiO2 
 PCOD8171290
Probable space group: P N A 21
;
_chemical_formula_sum "Si O2"
_cell_formula_units_Z 28
_cell_length_a 12.676822
_cell_length_b 8.734255
_cell_length_c 11.258777
_cell_angle_alpha 90.000000
_cell_angle_beta 90.000000
_cell_angle_gamma 90.000000
_cell_volume 1246.601017
_symmetry_space_group_name_H-M "P N A 21"
_symmetry_group_IT_number 33
_symmetry_cell_setting 'orthorhombic'
loop_
_space_group_symop_operation_xyz
x,y,z
-x,-y,1/2+z
1/2-x,1/2+y,1/2+z
1/2+x,1/2-y,z
loop_
_atom_site_type_symbol
_atom_site_label
_atom_site_fract_x
_atom_site_fract_y
_atom_site_fract_z
Si Si1 0.136540 0.209842 0.726750
Si Si2 0.602273 0.958488 0.623353
Si Si3 0.164934 0.046811 0.491835
Si Si4 0.976549 0.048941 0.322531
Si Si5 0.906885 0.735335 0.650176
Si Si6 0.782084 0.249973 0.312432
Si Si7 0.256987 0.212181 0.958934
O O1 0.105084 0.365066 0.660602
O O2 0.171427 0.088834 0.628681
O O3 0.233690 0.222433 0.818762
O O4 0.036394 0.132567 0.794655
O O5 0.480135 0.908414 0.613784
O O6 0.659387 0.862987 0.723922
O O7 0.664464 0.927615 0.498226
O O8 0.252715 0.146808 0.425159
O O9 0.050370 0.077515 0.435286
O O10 0.185403 0.867800 0.492777
O O11 0.859988 0.114755 0.354385
O O12 0.023453 0.128388 0.205011
O O13 0.820796 0.679943 0.747501
O O14 0.852594 0.801387 0.531577
#
# Coordination Sequence:
#
# PCOD8171290 Si02
#       7
#     4   4   4   4   4   4   4
#     4  12  26  43  71 106 133 188 243 287 362 430
#     4  10  22  45  68 103 138 182 238 294 359 429
#     4  11  24  47  69 103 145 188 233 294 356 425
#     4  10  24  44  71 102 142 186 233 292 358 426
#     4   9  20  44  73  92 142 188 226 300 358 412
#     4   9  19  45  72  99 141 184 232 291 360 422
#     4  11  25  46  70  99 145 184 239 300 357 424
#
# _framework density 22.461075999999998
#
# number of rings (size 3 to 8) (size 9 to 14) (size 15 to 20)
#    0.000    1.714    1.429    2.571    6.000    1.143 
#   10.286    0.000    0.000    0.000    0.000    0.000 
#    0.000    0.000    0.000    0.000    0.000    0.000 
#
# Total GULP energy -347201.931368 kJ/mol
# GULP energy per Si atom -12400.068977 kJ/mol
# Density = 2.240995 g / cm^3
# Si number density = 22.461076 Si / 1000 Ang^3
#
#
#
# Elastic Constant Matrix: (Units=GPa)
#
#
# Indices 1 2 3 4 5 6 
#
# 1 117.5803 45.2717 25.9855 0.0000 0.0000 0.0000
# 2 45.2717 125.3823 28.1540 0.0000 0.0000 0.0000
# 3 25.9855 28.1540 101.9074 0.0000 0.0000 0.0000
# 4 0.0000 0.0000 0.0000 31.9366 0.0000 0.0000
# 5 0.0000 0.0000 0.0000 0.0000 27.6022 0.0000
# 6 0.0000 0.0000 0.0000 0.0000 0.0000 31.5643
#
#
#
# Elastic Compliance Matrix: (Units=1/GPa)
#
#
# Indices 1 2 3 4 5 6 
#
# 1 0.010140 -0.003285 -0.001678 0.000000 0.000000 0.000000
# 2 -0.003285 0.009567 -0.001806 0.000000 0.000000 0.000000
# 3 -0.001678 -0.001806 0.010740 0.000000 0.000000 0.000000
# 4 0.000000 0.000000 0.000000 0.031312 0.000000 0.000000
# 5 0.000000 0.000000 0.000000 0.000000 0.036229 0.000000
# 6 0.000000 0.000000 0.000000 0.000000 0.000000 0.031681
#
#
# Mechanical properties :
#
#
# Convention : Reuss Voigt Hill
#
# Bulk Modulus (GPa) = 59.13581 60.41025 59.77303
# Shear Modulus (GPa) = 33.59250 34.58454 34.08852
#
# Velocity S-wave (km/s) = 3.87148 3.92823 3.89996
# Velocity P-wave (km/s) = 6.80953 6.89409 6.85194
#
# Compressibility (1/GPa) = 0.01691023
#
# Stress axis : x y z
#
# Youngs Moduli (GPa) = 98.61573 104.52620 93.11336
#
# Poissons Ratio (x) = 0.34332 0.15627
# Poissons Ratio (y) = 0.32391 0.16812
# Poissons Ratio (z) = 0.16551 0.18873
#
# Static dielectric constant tensor:
#      x y z
#    x 4.271110 0.000000 0.000000 
#    y 0.000000 4.082630 0.000000 
#    z 0.000000 0.000000 4.192390 
# 
# 
# High freq. dielectric constant tensor:
#      x y z
#    x 1.885420 0.000000 0.000000 
#    y 0.000000 1.881710 0.000000 
#    z 0.000000 0.000000 1.889020 
# 
# From -- ./inp_files/6361.got.cif
#   From: 2010.03.12/outbox.cif.g09.slc.cpg/sg33_4_cif.got.tgz:6361.got - 2010.04.14 01:49:19.
