data_PCOD8171675
_publ_section_title
;
Structure prediction by ZEFSAII (Michael W. Deem and Ramdas Pophale) SiO2 
 PCOD8171675
Probable space group: P N A 21
;
_chemical_formula_sum "Si O2"
_cell_formula_units_Z 20
_cell_length_a 11.680767
_cell_length_b 14.231857
_cell_length_c 4.885730
_cell_angle_alpha 90.000000
_cell_angle_beta 90.000000
_cell_angle_gamma 90.000000
_cell_volume 812.198897
_symmetry_space_group_name_H-M "P N A 21"
_symmetry_group_IT_number 33
_symmetry_cell_setting 'orthorhombic'
loop_
_space_group_symop_operation_xyz
x,y,z
-x,-y,1/2+z
1/2-x,1/2+y,1/2+z
1/2+x,1/2-y,z
loop_
_atom_site_type_symbol
_atom_site_label
_atom_site_fract_x
_atom_site_fract_y
_atom_site_fract_z
Si Si1 0.447382 0.248102 0.320270
Si Si2 0.022508 0.058479 0.322019
Si Si3 0.248084 0.143035 0.542416
Si Si4 0.903575 0.710745 0.316124
Si Si5 0.922775 0.512795 0.532536
O O1 0.436355 0.357673 0.403517
O O2 0.320738 0.205805 0.330033
O O3 0.533932 0.193724 0.525863
O O4 0.498688 0.249393 0.016595
O O5 0.150739 0.094730 0.364042
O O6 0.990548 0.969121 0.505647
O O7 0.198416 0.212237 0.780421
O O8 0.329086 0.059503 0.658834
O O9 0.861329 0.609755 0.432990
O O10 0.015251 0.534926 0.769238
#
# Coordination Sequence:
#
# PCOD8171675 Si02
#       5
#     4   4   4   4   4
#     4  11  24  47  72 103 150 193 250 316 376 463
#     4  11  26  48  68 107 147 189 251 308 372 467
#     4  11  26  46  77 106 150 205 242 315 402 434
#     4  11  24  45  70 112 148 188 255 317 373 461
#     4  12  24  46  73 110 149 191 258 308 365 471
#
# _framework density 24.624511999999999
#
# number of rings (size 3 to 8) (size 9 to 14) (size 15 to 20)
#    0.000    0.800    4.000    2.400    2.800    9.600 
#    7.200    0.000    0.000    0.000    0.000    0.000 
#    0.000    0.000    0.000    0.000    0.000    0.000 
#
# Total GULP energy -247982.522419 kJ/mol
# GULP energy per Si atom -12399.126121 kJ/mol
# Density = 2.456847 g / cm^3
# Si number density = 24.624512 Si / 1000 Ang^3
#
#
#
# Elastic Constant Matrix: (Units=GPa)
#
#
# Indices 1 2 3 4 5 6 
#
# 1 125.2341 73.6110 26.2755 0.0000 0.0000 0.0000
# 2 73.6110 161.1358 28.8664 0.0000 0.0000 0.0000
# 3 26.2755 28.8664 91.1083 0.0000 0.0000 0.0000
# 4 0.0000 0.0000 0.0000 37.4497 0.0000 0.0000
# 5 0.0000 0.0000 0.0000 0.0000 38.7083 0.0000
# 6 0.0000 0.0000 0.0000 0.0000 0.0000 49.2545
#
#
#
# Elastic Compliance Matrix: (Units=1/GPa)
#
#
# Indices 1 2 3 4 5 6 
#
# 1 0.011159 -0.004793 -0.001700 0.000000 0.000000 0.000000
# 2 -0.004793 0.008638 -0.001355 0.000000 0.000000 0.000000
# 3 -0.001700 -0.001355 0.011895 0.000000 0.000000 0.000000
# 4 0.000000 0.000000 0.000000 0.026702 0.000000 0.000000
# 5 0.000000 0.000000 0.000000 0.000000 0.025834 0.000000
# 6 0.000000 0.000000 0.000000 0.000000 0.000000 0.020303
#
#
# Mechanical properties :
#
#
# Convention : Reuss Voigt Hill
#
# Bulk Modulus (GPa) = 62.50850 70.55379 66.53115
# Shear Modulus (GPa) = 39.82176 41.66419 40.74297
#
# Velocity S-wave (km/s) = 4.02575 4.11783 4.07205
# Velocity P-wave (km/s) = 6.85921 7.16399 7.01325
#
# Compressibility (1/GPa) = 0.01599782
#
# Stress axis : x y z
#
# Youngs Moduli (GPa) = 89.61325 115.76349 84.06706
#
# Poissons Ratio (x) = 0.55489 0.14288
# Poissons Ratio (y) = 0.42954 0.11387
# Poissons Ratio (z) = 0.15230 0.15681
#
# Static dielectric constant tensor:
#      x y z
#    x 4.229230 0.000000 0.000000 
#    y 0.000000 4.816320 0.000000 
#    z 0.000000 0.000000 4.201320 
# 
# 
# High freq. dielectric constant tensor:
#      x y z
#    x 1.955360 0.000000 0.000000 
#    y 0.000000 2.009230 0.000000 
#    z 0.000000 0.000000 1.974790 
# 
# From -- ./inp_files/740.got.cif
#   From: 2010.03.12/outbox.cif.g09.slc.cpg/sg33_1_cif.got.tgz:740.got - 2010.04.14 01:49:19.
