data_PCOD8171298
_publ_section_title
;
Structure prediction by ZEFSAII (Michael W. Deem and Ramdas Pophale) SiO2 
 PCOD8171298
Probable space group: P N A 21
;
_chemical_formula_sum "Si O2"
_cell_formula_units_Z 28
_cell_length_a 10.929462
_cell_length_b 11.538332
_cell_length_c 9.534094
_cell_angle_alpha 90.000000
_cell_angle_beta 90.000000
_cell_angle_gamma 90.000000
_cell_volume 1202.323249
_symmetry_space_group_name_H-M "P N A 21"
_symmetry_group_IT_number 33
_symmetry_cell_setting 'orthorhombic'
loop_
_space_group_symop_operation_xyz
x,y,z
-x,-y,1/2+z
1/2-x,1/2+y,1/2+z
1/2+x,1/2-y,z
loop_
_atom_site_type_symbol
_atom_site_label
_atom_site_fract_x
_atom_site_fract_y
_atom_site_fract_z
Si Si1 0.002218 0.695607 0.842260
Si Si2 0.070532 0.071538 0.464372
Si Si3 0.626220 0.820799 0.562233
Si Si4 0.628664 0.211640 0.955143
Si Si5 0.153706 0.548035 0.023076
Si Si6 0.564812 0.414334 0.780147
Si Si7 0.682962 0.007244 0.331060
O O1 0.103465 0.655159 0.726408
O O2 0.055727 0.643727 0.983939
O O3 0.867570 0.638360 0.825794
O O4 0.985755 0.832192 0.860692
O O5 0.212916 0.092187 0.483321
O O6 0.014014 0.076212 0.621907
O O7 0.044198 0.948600 0.387744
O O8 0.499337 0.751718 0.529060
O O9 0.749630 0.745856 0.542743
O O10 0.636242 0.937211 0.468309
O O11 0.622073 0.285455 0.809935
O O12 0.629606 0.073201 0.940852
O O13 0.131882 0.548789 0.188972
O O14 0.670171 0.508861 0.818366
#
# Coordination Sequence:
#
# PCOD8171298 Si02
#       7
#     4   4   4   4   4   4   4
#     4  12  25  41  71 101 138 180 231 288 353 418
#     4  11  28  44  69 105 143 179 234 291 354 423
#     4  11  25  40  72  98 139 183 232 285 347 417
#     4  11  23  45  72  98 137 186 235 285 349 416
#     4  11  25  44  70 100 139 179 234 289 349 417
#     4  10  26  46  69 100 141 184 232 291 348 420
#     4  10  22  46  67 100 135 185 234 283 342 423
#
# _framework density 23.288245
#
# number of rings (size 3 to 8) (size 9 to 14) (size 15 to 20)
#    0.000    1.143    2.857    0.857   12.000    2.286 
#    2.571    0.000    0.000    0.000    0.000    0.000 
#    0.000    0.000    0.000    0.000    0.000    0.000 
#
# Total GULP energy -346924.013360 kJ/mol
# GULP energy per Si atom -12390.143334 kJ/mol
# Density = 2.323524 g / cm^3
# Si number density = 23.288245 Si / 1000 Ang^3
#
#
#
# Elastic Constant Matrix: (Units=GPa)
#
#
# Indices 1 2 3 4 5 6 
#
# 1 84.3976 9.1871 14.4884 0.0000 0.0000 0.0000
# 2 9.1871 85.6400 29.2830 0.0000 0.0000 0.0000
# 3 14.4884 29.2830 123.0463 0.0000 0.0000 0.0000
# 4 0.0000 0.0000 0.0000 27.2697 0.0000 0.0000
# 5 0.0000 0.0000 0.0000 0.0000 34.7482 0.0000
# 6 0.0000 0.0000 0.0000 0.0000 0.0000 34.8833
#
#
#
# Elastic Compliance Matrix: (Units=1/GPa)
#
#
# Indices 1 2 3 4 5 6 
#
# 1 0.012155 -0.000887 -0.001220 0.000000 0.000000 0.000000
# 2 -0.000887 0.012776 -0.002936 0.000000 0.000000 0.000000
# 3 -0.001220 -0.002936 0.008969 0.000000 0.000000 0.000000
# 4 0.000000 0.000000 0.000000 0.036671 0.000000 0.000000
# 5 0.000000 0.000000 0.000000 0.000000 0.028778 0.000000
# 6 0.000000 0.000000 0.000000 0.000000 0.000000 0.028667
#
#
# Mechanical properties :
#
#
# Convention : Reuss Voigt Hill
#
# Bulk Modulus (GPa) = 41.99184 44.33342 43.16263
# Shear Modulus (GPa) = 34.23722 35.38861 34.81292
#
# Velocity S-wave (km/s) = 3.83841 3.90242 3.87055
# Velocity P-wave (km/s) = 6.14126 6.27562 6.20880
#
# Compressibility (1/GPa) = 0.02381415
#
# Stress axis : x y z
#
# Youngs Moduli (GPa) = 82.27293 78.27278 111.48989
#
# Poissons Ratio (x) = 0.06940 0.13604
# Poissons Ratio (y) = 0.07295 0.32734
# Poissons Ratio (z) = 0.10039 0.22981
#
# Static dielectric constant tensor:
#      x y z
#    x 4.363660 0.000000 0.000000 
#    y 0.000000 3.937630 0.000000 
#    z 0.000000 0.000000 4.263970 
# 
# 
# High freq. dielectric constant tensor:
#      x y z
#    x 1.931710 0.000000 0.000000 
#    y 0.000000 1.907420 0.000000 
#    z 0.000000 0.000000 1.918230 
# 
# From -- ./inp_files/3839.got.cif
#   From: 2010.03.12/outbox.cif.g09.slc.cpg/sg33_2_cif.got.tgz:3839.got - 2010.04.14 01:49:19.
