data_PCOD8171263
_publ_section_title
;
Structure prediction by ZEFSAII (Michael W. Deem and Ramdas Pophale) SiO2 
 PCOD8171263
Probable space group: P N A 21
;
_chemical_formula_sum "Si O2"
_cell_formula_units_Z 28
_cell_length_a 18.422905
_cell_length_b 11.825805
_cell_length_c 5.274911
_cell_angle_alpha 90.000000
_cell_angle_beta 90.000000
_cell_angle_gamma 90.000000
_cell_volume 1149.222083
_symmetry_space_group_name_H-M "P N A 21"
_symmetry_group_IT_number 33
_symmetry_cell_setting 'orthorhombic'
loop_
_space_group_symop_operation_xyz
x,y,z
-x,-y,1/2+z
1/2-x,1/2+y,1/2+z
1/2+x,1/2-y,z
loop_
_atom_site_type_symbol
_atom_site_label
_atom_site_fract_x
_atom_site_fract_y
_atom_site_fract_z
Si Si1 0.971158 0.131064 0.826100
Si Si2 0.240585 0.653280 0.072520
Si Si3 0.920898 0.579169 0.070711
Si Si4 0.505101 0.151113 0.072709
Si Si5 0.278009 0.028287 0.094102
Si Si6 0.111004 0.047164 0.597127
Si Si7 0.657254 0.624086 0.989091
O O1 0.919467 0.170301 0.594082
O O2 0.964477 0.227676 0.043763
O O3 0.056586 0.117854 0.775133
O O4 0.940312 0.004726 0.879370
O O5 0.220714 0.617100 0.358876
O O6 0.326872 0.636452 0.019478
O O7 0.217772 0.779456 0.004097
O O8 0.196853 0.582130 0.860179
O O9 0.953054 0.652125 0.839428
O O10 0.947287 0.449295 0.062681
O O11 0.940740 0.638832 0.334111
O O12 0.834328 0.572998 0.036029
O O13 0.196769 0.978841 0.142098
O O14 0.146078 0.931788 0.713551
#
# Coordination Sequence:
#
# PCOD8171263 Si02
#       7
#     4   4   4   4   4   4   4
#     4  12  24  46  73 105 145 198 237 308 366 433
#     4  11  26  45  74 105 141 196 238 300 372 431
#     4  10  22  44  63 108 136 183 236 297 347 445
#     4  10  24  39  71  99 143 181 237 287 369 423
#     4  11  24  46  69 101 145 182 245 301 353 436
#     4  11  26  47  71 109 146 185 254 301 363 451
#     4  11  26  45  73 103 144 195 241 302 370 437
#
# _framework density 24.364308999999999
#
# number of rings (size 3 to 8) (size 9 to 14) (size 15 to 20)
#    0.000    1.143    2.857    1.714    8.000    1.143 
#    5.143    0.000    0.000    0.000    0.000    0.000 
#    0.000    0.000    0.000    0.000    0.000    0.000 
#
# Total GULP energy -346986.246723 kJ/mol
# GULP energy per Si atom -12392.365954 kJ/mol
# Density = 2.430885 g / cm^3
# Si number density = 24.364309 Si / 1000 Ang^3
#
#
#
# Elastic Constant Matrix: (Units=GPa)
#
#
# Indices 1 2 3 4 5 6 
#
# 1 117.4758 35.9480 20.6686 0.0000 0.0000 0.0000
# 2 35.9480 89.5319 9.2537 0.0000 0.0000 0.0000
# 3 20.6686 9.2537 94.9873 0.0000 0.0000 0.0000
# 4 0.0000 0.0000 0.0000 27.9804 0.0000 0.0000
# 5 0.0000 0.0000 0.0000 0.0000 29.0123 0.0000
# 6 0.0000 0.0000 0.0000 0.0000 0.0000 38.8042
#
#
#
# Elastic Compliance Matrix: (Units=1/GPa)
#
#
# Indices 1 2 3 4 5 6 
#
# 1 0.010001 -0.003829 -0.001803 0.000000 0.000000 0.000000
# 2 -0.003829 0.012749 -0.000409 0.000000 0.000000 0.000000
# 3 -0.001803 -0.000409 0.010960 0.000000 0.000000 0.000000
# 4 0.000000 0.000000 0.000000 0.035739 0.000000 0.000000
# 5 0.000000 0.000000 0.000000 0.000000 0.034468 0.000000
# 6 0.000000 0.000000 0.000000 0.000000 0.000000 0.025770
#
#
# Mechanical properties :
#
#
# Convention : Reuss Voigt Hill
#
# Bulk Modulus (GPa) = 46.23689 48.19284 47.21486
# Shear Modulus (GPa) = 33.56157 34.90103 34.23130
#
# Velocity S-wave (km/s) = 3.71548 3.78890 3.75237
# Velocity P-wave (km/s) = 6.11759 6.24212 6.18017
#
# Compressibility (1/GPa) = 0.02162775
#
# Stress axis : x y z
#
# Youngs Moduli (GPa) = 99.98582 78.43783 91.24165
#
# Poissons Ratio (x) = 0.30036 0.16453
# Poissons Ratio (y) = 0.38288 0.03730
# Poissons Ratio (z) = 0.18029 0.03206
#
# Static dielectric constant tensor:
#      x y z
#    x 4.518970 0.000000 0.000000 
#    y 0.000000 4.283470 0.000000 
#    z 0.000000 0.000000 4.229480 
# 
# 
# High freq. dielectric constant tensor:
#      x y z
#    x 1.977070 0.000000 0.000000 
#    y 0.000000 1.966150 0.000000 
#    z 0.000000 0.000000 1.959860 
# 
# From -- ./inp_files/1746.got.cif
#   From: 2010.03.12/outbox.cif.g09.slc.cpg/sg33_1_cif.got.tgz:1746.got - 2010.04.14 01:49:19.
