data_PCOD8171009
_publ_section_title
;
Structure prediction by ZEFSAII (Michael W. Deem and Ramdas Pophale) SiO2 
 PCOD8171009
Probable space group: P N A 21
;
_chemical_formula_sum "Si O2"
_cell_formula_units_Z 32
_cell_length_a 13.752428
_cell_length_b 12.154391
_cell_length_c 9.321306
_cell_angle_alpha 90.000000
_cell_angle_beta 90.000000
_cell_angle_gamma 90.000000
_cell_volume 1558.078549
_symmetry_space_group_name_H-M "P N A 21"
_symmetry_group_IT_number 33
_symmetry_cell_setting 'orthorhombic'
loop_
_space_group_symop_operation_xyz
x,y,z
-x,-y,1/2+z
1/2-x,1/2+y,1/2+z
1/2+x,1/2-y,z
loop_
_atom_site_type_symbol
_atom_site_label
_atom_site_fract_x
_atom_site_fract_y
_atom_site_fract_z
Si Si1 0.783055 0.654180 0.843480
Si Si2 0.492808 0.385705 0.996563
Si Si3 0.756064 0.820300 0.093140
Si Si4 0.386589 0.511541 0.249698
Si Si5 0.851489 0.286415 0.868664
Si Si6 0.822662 0.745520 0.555024
Si Si7 0.044877 0.502255 0.294107
Si Si8 0.376841 0.997292 0.489024
O O1 0.699494 0.563648 0.815068
O O2 0.779858 0.742814 0.715566
O O3 0.887378 0.597417 0.841269
O O4 0.781131 0.716770 0.994351
O O5 0.540324 0.465734 0.879858
O O6 0.404100 0.322271 0.922857
O O7 0.448902 0.451965 0.128541
O O8 0.572818 0.302258 0.057247
O O9 0.677500 0.771342 0.203011
O O10 0.845795 0.873873 0.182261
O O11 0.711612 0.917475 0.996465
O O12 0.923467 0.389305 0.881258
O O13 0.754257 0.312894 0.959820
O O14 0.830827 0.623458 0.489017
O O15 0.049734 0.515831 0.122850
O O16 0.934457 0.478396 0.341924
#
# Coordination Sequence:
#
# PCOD8171009 Si02
#       8
#     4   4   4   4   4   4   4   4
#     4  11  24  43  68  95 138 174 221 287 341 403
#     4  12  26  42  72  94 138 186 228 282 358 408
#     4  11  24  43  68  95 138 174 221 287 341 403
#     4  12  26  48  62 104 142 174 238 296 336 434
#     4  11  21  43  67  91 131 179 217 272 337 396
#     4  11  21  43  67  91 131 179 217 272 337 396
#     4  10  21  39  62  93 126 160 212 270 317 390
#     4  10  21  39  62  93 126 160 212 270 317 390
#
# _framework density 20.538118999999998
#
# number of rings (size 3 to 8) (size 9 to 14) (size 15 to 20)
#    0.000    1.000    7.500    0.000    3.500    6.000 
#    0.000    0.000    0.000    0.000    0.000    0.000 
#    0.000    0.000    0.000    0.000    0.000    0.000 
#
# Total GULP energy -396826.495571 kJ/mol
# GULP energy per Si atom -12400.827987 kJ/mol
# Density = 2.049137 g / cm^3
# Si number density = 20.538119 Si / 1000 Ang^3
#
#
#
# Elastic Constant Matrix: (Units=GPa)
#
#
# Indices 1 2 3 4 5 6 
#
# 1 52.0301 0.9623 -0.2701 0.0000 0.0000 0.0000
# 2 0.9623 59.2713 27.3955 0.0000 0.0000 0.0000
# 3 -0.2701 27.3955 52.9707 0.0000 0.0000 0.0000
# 4 0.0000 0.0000 0.0000 40.3325 0.0000 0.0000
# 5 0.0000 0.0000 0.0000 0.0000 43.6744 0.0000
# 6 0.0000 0.0000 0.0000 0.0000 0.0000 27.5305
#
#
#
# Elastic Compliance Matrix: (Units=1/GPa)
#
#
# Indices 1 2 3 4 5 6 
#
# 1 0.019230 -0.000470 0.000341 0.000000 0.000000 0.000000
# 2 -0.000470 0.022183 -0.011475 0.000000 0.000000 0.000000
# 3 0.000341 -0.011475 0.024815 0.000000 0.000000 0.000000
# 4 0.000000 0.000000 0.000000 0.024794 0.000000 0.000000
# 5 0.000000 0.000000 0.000000 0.000000 0.022897 0.000000
# 6 0.000000 0.000000 0.000000 0.000000 0.000000 0.036323
#
#
# Mechanical properties :
#
#
# Convention : Reuss Voigt Hill
#
# Bulk Modulus (GPa) = 23.24489 24.49417 23.86953
# Shear Modulus (GPa) = 26.62553 31.38644 29.00598
#
# Velocity S-wave (km/s) = 3.60446 3.91347 3.76213
# Velocity P-wave (km/s) = 5.35400 5.68967 5.52439
#
# Compressibility (1/GPa) = 0.04302021
#
# Stress axis : x y z
#
# Youngs Moduli (GPa) = 52.00182 45.07950 40.29852
#
# Poissons Ratio (x) = 0.02118 -0.01374
# Poissons Ratio (y) = 0.02443 0.46243
# Poissons Ratio (z) = -0.01774 0.51729
#
# Static dielectric constant tensor:
#      x y z
#    x 3.715410 0.000000 0.000000 
#    y 0.000000 3.676460 0.000000 
#    z 0.000000 0.000000 3.806950 
# 
# 
# High freq. dielectric constant tensor:
#      x y z
#    x 1.806220 0.000000 0.000000 
#    y 0.000000 1.799810 0.000000 
#    z 0.000000 0.000000 1.806220 
# 
# From -- ./inp_files/4486.got.cif
#   From: 2010.03.12/outbox.cif.g09.slc.cpg/sg33_3_cif.got.tgz:4486.got - 2010.04.14 01:49:19.
