data_PCOD8171032
_publ_section_title
;
Structure prediction by ZEFSAII (Michael W. Deem and Ramdas Pophale) SiO2 
 PCOD8171032
Probable space group: P N A 21
;
_chemical_formula_sum "Si O2"
_cell_formula_units_Z 32
_cell_length_a 20.423669
_cell_length_b 7.513291
_cell_length_c 9.440234
_cell_angle_alpha 90.000000
_cell_angle_beta 90.000000
_cell_angle_gamma 90.000000
_cell_volume 1448.594170
_symmetry_space_group_name_H-M "P N A 21"
_symmetry_group_IT_number 33
_symmetry_cell_setting 'orthorhombic'
loop_
_space_group_symop_operation_xyz
x,y,z
-x,-y,1/2+z
1/2-x,1/2+y,1/2+z
1/2+x,1/2-y,z
loop_
_atom_site_type_symbol
_atom_site_label
_atom_site_fract_x
_atom_site_fract_y
_atom_site_fract_z
Si Si1 0.346558 0.897593 0.716640
Si Si2 0.613882 0.115672 0.773477
Si Si3 0.987933 0.521048 0.644063
Si Si4 0.308783 0.297164 0.708976
Si Si5 0.769353 0.585845 0.459835
Si Si6 0.303587 0.767563 0.020490
Si Si7 0.051448 0.876024 0.167244
Si Si8 0.522306 0.325109 0.946100
O O1 0.425321 0.869792 0.709914
O O2 0.303156 0.805498 0.590859
O O3 0.319304 0.840764 0.866752
O O4 0.333637 0.101023 0.677188
O O5 0.672300 0.011410 0.855048
O O6 0.634297 0.203820 0.623471
O O7 0.592772 0.278057 0.877310
O O8 0.551200 0.986042 0.747814
O O9 0.966261 0.319627 0.604729
O O10 0.008242 0.639491 0.507962
O O11 0.276190 0.286641 0.864779
O O12 0.257607 0.369851 0.592014
O O13 0.372018 0.421313 0.691349
O O14 0.718430 0.436729 0.512133
O O15 0.023574 0.898951 0.323635
O O16 0.023392 0.023364 0.063467
#
# Coordination Sequence:
#
# PCOD8171032 Si02
#       8
#     4   4   4   4   4   4   4   4
#     4  10  21  40  63  93 127 177 221 277 344 400
#     4  10  23  41  68  96 136 178 225 282 350 407
#     4  10  23  43  72  95 138 176 228 289 343 414
#     4   9  22  40  58  88 136 166 219 280 328 411
#     4  10  21  40  61  93 128 173 228 265 336 408
#     4  10  23  38  63  96 126 174 228 269 339 413
#     4  10  25  44  68 102 137 175 233 282 349 417
#     4  11  24  46  69 101 134 183 226 290 349 410
#
# _framework density 22.090382999999999
#
# number of rings (size 3 to 8) (size 9 to 14) (size 15 to 20)
#    0.000    2.000    1.250    0.000    7.000    9.000 
#    0.000    0.000    2.750    0.000    0.000    0.000 
#    0.000    0.000    0.000    0.000    0.000    0.000 
#
# Total GULP energy -396419.320448 kJ/mol
# GULP energy per Si atom -12388.103764 kJ/mol
# Density = 2.204010 g / cm^3
# Si number density = 22.090383 Si / 1000 Ang^3
#
#
#
# Elastic Constant Matrix: (Units=GPa)
#
#
# Indices 1 2 3 4 5 6 
#
# 1 85.2257 22.3888 39.3777 0.0000 0.0000 0.0000
# 2 22.3888 49.5085 44.0838 0.0000 0.0000 0.0000
# 3 39.3777 44.0838 159.0521 0.0000 0.0000 0.0000
# 4 0.0000 0.0000 0.0000 40.0654 0.0000 0.0000
# 5 0.0000 0.0000 0.0000 0.0000 18.2373 0.0000
# 6 0.0000 0.0000 0.0000 0.0000 0.0000 22.5625
#
#
#
# Elastic Compliance Matrix: (Units=1/GPa)
#
#
# Indices 1 2 3 4 5 6 
#
# 1 0.013899 -0.004277 -0.002256 0.000000 0.000000 0.000000
# 2 -0.004277 0.028133 -0.006739 0.000000 0.000000 0.000000
# 3 -0.002256 -0.006739 0.008713 0.000000 0.000000 0.000000
# 4 0.000000 0.000000 0.000000 0.024959 0.000000 0.000000
# 5 0.000000 0.000000 0.000000 0.000000 0.054833 0.000000
# 6 0.000000 0.000000 0.000000 0.000000 0.000000 0.044321
#
#
# Mechanical properties :
#
#
# Convention : Reuss Voigt Hill
#
# Bulk Modulus (GPa) = 41.31708 56.16519 48.74113
# Shear Modulus (GPa) = 23.86985 28.70211 26.28598
#
# Velocity S-wave (km/s) = 3.29074 3.60850 3.45328
# Velocity P-wave (km/s) = 5.76046 6.54538 6.16543
#
# Compressibility (1/GPa) = 0.02420307
#
# Stress axis : x y z
#
# Youngs Moduli (GPa) = 71.94578 35.54550 114.76550
#
# Poissons Ratio (x) = 0.15203 0.25888
# Poissons Ratio (y) = 0.30771 0.77336
# Poissons Ratio (z) = 0.16229 0.23953
#
# Static dielectric constant tensor:
#      x y z
#    x 4.403210 0.000000 0.000000 
#    y 0.000000 3.608270 0.000000 
#    z 0.000000 0.000000 4.127090 
# 
# 
# High freq. dielectric constant tensor:
#      x y z
#    x 1.884090 0.000000 0.000000 
#    y 0.000000 1.830870 0.000000 
#    z 0.000000 0.000000 1.882280 
# 
# From -- ./inp_files/4992.got.cif
#   From: 2010.03.12/outbox.cif.g09.slc.cpg/sg33_3_cif.got.tgz:4992.got - 2010.04.14 01:49:19.
