data_PCOD8171446
_publ_section_title
;
Structure prediction by ZEFSAII (Michael W. Deem and Ramdas Pophale) SiO2 
 PCOD8171446
Probable space group: P N A 21
;
_chemical_formula_sum "Si O2"
_cell_formula_units_Z 24
_cell_length_a 12.906768
_cell_length_b 6.365787
_cell_length_c 13.373004
_cell_angle_alpha 90.000000
_cell_angle_beta 90.000000
_cell_angle_gamma 90.000000
_cell_volume 1098.749223
_symmetry_space_group_name_H-M "P N A 21"
_symmetry_group_IT_number 33
_symmetry_cell_setting 'orthorhombic'
loop_
_space_group_symop_operation_xyz
x,y,z
-x,-y,1/2+z
1/2-x,1/2+y,1/2+z
1/2+x,1/2-y,z
loop_
_atom_site_type_symbol
_atom_site_label
_atom_site_fract_x
_atom_site_fract_y
_atom_site_fract_z
Si Si1 0.754404 0.639997 0.298570
Si Si2 0.437487 0.838669 0.030265
Si Si3 0.603211 0.166053 0.981857
Si Si4 0.781306 0.350030 0.112887
Si Si5 0.458124 0.484234 0.876948
Si Si6 0.108984 0.033829 0.700282
O O1 0.834115 0.581780 0.386435
O O2 0.755223 0.453572 0.218633
O O3 0.639584 0.656520 0.343505
O O4 0.788664 0.862627 0.250850
O O5 0.447616 0.705193 0.131496
O O6 0.336722 0.988668 0.036906
O O7 0.421492 0.696965 0.931679
O O8 0.544453 0.965827 0.026482
O O9 0.522067 0.345209 0.954064
O O10 0.676205 0.265794 0.065497
O O11 0.859154 0.158026 0.130427
O O12 0.527897 0.547141 0.782286
#
# Coordination Sequence:
#
# PCOD8171446 Si02
#       6
#     4   4   4   4   4   4
#     4  10  24  43  66 102 135 179 226 284 347 404
#     4  11  24  42  70  97 137 179 229 280 341 408
#     4  11  24  43  68 100 139 176 230 281 347 408
#     4  11  25  43  69 100 136 182 230 284 345 413
#     4  11  25  43  68  99 139 179 229 280 342 412
#     4  10  24  44  69 100 136 177 232 279 344 407
#
# _framework density 21.843019999999999
#
# number of rings (size 3 to 8) (size 9 to 14) (size 15 to 20)
#    0.000    1.333    0.000    4.000    7.000    6.667 
#    0.000    0.000    0.000    0.000    0.000    0.000 
#    0.000    0.000    0.000    0.000    0.000    0.000 
#
# Total GULP energy -297761.018705 kJ/mol
# GULP energy per Si atom -12406.709113 kJ/mol
# Density = 2.179330 g / cm^3
# Si number density = 21.843020 Si / 1000 Ang^3
#
#
#
# Elastic Constant Matrix: (Units=GPa)
#
#
# Indices 1 2 3 4 5 6 
#
# 1 116.1335 49.5542 57.7823 0.0000 0.0000 0.0000
# 2 49.5542 101.4800 53.0088 0.0000 0.0000 0.0000
# 3 57.7823 53.0088 103.8870 0.0000 0.0000 0.0000
# 4 0.0000 0.0000 0.0000 27.8073 0.0000 0.0000
# 5 0.0000 0.0000 0.0000 0.0000 48.4932 0.0000
# 6 0.0000 0.0000 0.0000 0.0000 0.0000 34.3935
#
#
#
# Elastic Compliance Matrix: (Units=1/GPa)
#
#
# Indices 1 2 3 4 5 6 
#
# 1 0.012725 -0.003431 -0.005327 0.000000 0.000000 0.000000
# 2 -0.003431 0.014360 -0.005419 0.000000 0.000000 0.000000
# 3 -0.005327 -0.005419 0.015354 0.000000 0.000000 0.000000
# 4 0.000000 0.000000 0.000000 0.035962 0.000000 0.000000
# 5 0.000000 0.000000 0.000000 0.000000 0.020621 0.000000
# 6 0.000000 0.000000 0.000000 0.000000 0.000000 0.029075
#
#
# Mechanical properties :
#
#
# Convention : Reuss Voigt Hill
#
# Bulk Modulus (GPa) = 70.99793 71.35456 71.17624
# Shear Modulus (GPa) = 31.02743 32.88247 31.95495
#
# Velocity S-wave (km/s) = 3.77301 3.88416 3.82898
# Velocity P-wave (km/s) = 7.18018 7.27004 7.22525
#
# Compressibility (1/GPa) = 0.01408492
#
# Stress axis : x y z
#
# Youngs Moduli (GPa) = 78.58283 69.63618 65.13055
#
# Poissons Ratio (x) = 0.23895 0.34695
# Poissons Ratio (y) = 0.26965 0.35293
# Poissons Ratio (z) = 0.41861 0.37735
#
# Static dielectric constant tensor:
#      x y z
#    x 3.956890 0.000000 0.000000 
#    y 0.000000 3.931470 0.000000 
#    z 0.000000 0.000000 4.061900 
# 
# 
# High freq. dielectric constant tensor:
#      x y z
#    x 1.862850 0.000000 0.000000 
#    y 0.000000 1.858060 0.000000 
#    z 0.000000 0.000000 1.874360 
# 
# From -- ./inp_files/7834.got.cif
#   From: 2010.03.12/outbox.cif.g09.slc.cpg/sg33_4_cif.got.tgz:7834.got - 2010.04.14 01:49:19.
