data_PCOD8171477
_publ_section_title
;
Structure prediction by ZEFSAII (Michael W. Deem and Ramdas Pophale) SiO2 
 PCOD8171477
Probable space group: P N A 21
;
_chemical_formula_sum "Si O2"
_cell_formula_units_Z 32
_cell_length_a 10.543433
_cell_length_b 8.803380
_cell_length_c 15.207643
_cell_angle_alpha 90.000000
_cell_angle_beta 90.000000
_cell_angle_gamma 90.000000
_cell_volume 1411.540684
_symmetry_space_group_name_H-M "P N A 21"
_symmetry_group_IT_number 33
_symmetry_cell_setting 'orthorhombic'
loop_
_space_group_symop_operation_xyz
x,y,z
-x,-y,1/2+z
1/2-x,1/2+y,1/2+z
1/2+x,1/2-y,z
loop_
_atom_site_type_symbol
_atom_site_label
_atom_site_fract_x
_atom_site_fract_y
_atom_site_fract_z
Si Si1 0.583253 0.725452 0.320550
Si Si2 0.319873 0.318221 0.453879
Si Si3 0.927194 0.745837 0.064883
Si Si4 0.847415 0.274007 0.266766
Si Si5 0.027801 0.510534 0.191891
Si Si6 0.980530 0.004954 0.193298
Si Si7 0.824543 0.825414 0.423626
Si Si8 0.656765 0.259847 0.119254
O O1 0.580744 0.574358 0.259922
O O2 0.716567 0.736906 0.369590
O O3 0.461818 0.726309 0.386189
O O4 0.587762 0.867181 0.255519
O O5 0.203140 0.269119 0.513573
O O6 0.452537 0.281244 0.502324
O O7 0.301966 0.214149 0.367263
O O8 0.311522 0.493474 0.425729
O O9 0.908774 0.879250 0.135826
O O10 0.940922 0.588494 0.117784
O O11 0.748836 0.327726 0.193309
O O12 0.963585 0.387846 0.255740
O O13 0.881880 0.096371 0.253306
O O14 0.133461 0.417098 0.138764
O O15 0.036902 0.127538 0.125149
O O16 0.794442 0.765069 0.520714
#
# Coordination Sequence:
#
# PCOD8171477 Si02
#       8
#     4   4   4   4   4   4   4   4
#     4  11  27  48  76 105 147 191 246 303 361 438
#     4  12  27  47  74 112 147 188 250 306 364 434
#     4  11  27  48  76 105 147 191 246 303 361 438
#     4  11  25  45  72 103 148 191 240 301 369 437
#     4  10  26  46  72 108 144 196 242 298 372 438
#     4  10  24  48  72 104 142 198 240 290 376 438
#     4  12  27  47  74 112 147 188 250 306 364 434
#     4  11  25  45  72 103 148 191 240 301 369 437
#
# _framework density 22.670264
#
# number of rings (size 3 to 8) (size 9 to 14) (size 15 to 20)
#    0.000    1.000    2.500    1.500   14.000    2.000 
#    0.000    0.000    0.000    0.000    0.000    0.000 
#    0.000    0.000    0.000    0.000    0.000    0.000 
#
# Total GULP energy -396689.254591 kJ/mol
# GULP energy per Si atom -12396.539206 kJ/mol
# Density = 2.261867 g / cm^3
# Si number density = 22.670264 Si / 1000 Ang^3
#
#
#
# Elastic Constant Matrix: (Units=GPa)
#
#
# Indices 1 2 3 4 5 6 
#
# 1 77.4582 16.5743 19.0466 0.0000 0.0000 0.0000
# 2 16.5743 88.0839 32.2824 0.0000 0.0000 0.0000
# 3 19.0466 32.2824 135.6214 0.0000 0.0000 0.0000
# 4 0.0000 0.0000 0.0000 22.1028 0.0000 0.0000
# 5 0.0000 0.0000 0.0000 0.0000 44.9850 0.0000
# 6 0.0000 0.0000 0.0000 0.0000 0.0000 21.6153
#
#
#
# Elastic Compliance Matrix: (Units=1/GPa)
#
#
# Indices 1 2 3 4 5 6 
#
# 1 0.013702 -0.002052 -0.001436 0.000000 0.000000 0.000000
# 2 -0.002052 0.012745 -0.002746 0.000000 0.000000 0.000000
# 3 -0.001436 -0.002746 0.008229 0.000000 0.000000 0.000000
# 4 0.000000 0.000000 0.000000 0.045243 0.000000 0.000000
# 5 0.000000 0.000000 0.000000 0.000000 0.022230 0.000000
# 6 0.000000 0.000000 0.000000 0.000000 0.000000 0.046263
#
#
# Mechanical properties :
#
#
# Convention : Reuss Voigt Hill
#
# Bulk Modulus (GPa) = 45.02651 48.55223 46.78937
# Shear Modulus (GPa) = 29.71193 33.29130 31.50161
#
# Velocity S-wave (km/s) = 3.62417 3.83626 3.73172
# Velocity P-wave (km/s) = 6.11697 6.40981 6.26511
#
# Compressibility (1/GPa) = 0.02220914
#
# Stress axis : x y z
#
# Youngs Moduli (GPa) = 72.98012 78.46103 121.52637
#
# Poissons Ratio (x) = 0.16101 0.17450
# Poissons Ratio (y) = 0.14976 0.33366
# Poissons Ratio (z) = 0.10479 0.21542
#
# Static dielectric constant tensor:
#      x y z
#    x 3.935510 0.000000 0.000000 
#    y 0.000000 4.234820 0.000000 
#    z 0.000000 0.000000 4.339120 
# 
# 
# High freq. dielectric constant tensor:
#      x y z
#    x 1.882800 0.000000 0.000000 
#    y 0.000000 1.908340 0.000000 
#    z 0.000000 0.000000 1.913080 
# 
# From -- ./inp_files/7950.got.cif
#   From: 2010.03.12/outbox.cif.g09.slc.cpg/sg33_4_cif.got.tgz:7950.got - 2010.04.14 01:49:19.
