data_PCOD8171386
_publ_section_title
;
Structure prediction by ZEFSAII (Michael W. Deem and Ramdas Pophale) SiO2 
 PCOD8171386
Probable space group: P N A 21
;
_chemical_formula_sum "Si O2"
_cell_formula_units_Z 24
_cell_length_a 4.947723
_cell_length_b 13.909772
_cell_length_c 12.139233
_cell_angle_alpha 90.000000
_cell_angle_beta 90.000000
_cell_angle_gamma 90.000000
_cell_volume 835.442638
_symmetry_space_group_name_H-M "P N A 21"
_symmetry_group_IT_number 33
_symmetry_cell_setting 'orthorhombic'
loop_
_space_group_symop_operation_xyz
x,y,z
-x,-y,1/2+z
1/2-x,1/2+y,1/2+z
1/2+x,1/2-y,z
loop_
_atom_site_type_symbol
_atom_site_label
_atom_site_fract_x
_atom_site_fract_y
_atom_site_fract_z
Si Si1 0.811108 0.315831 0.489160
Si Si2 0.320013 0.529306 0.424833
Si Si3 0.641088 0.688972 0.320452
Si Si4 0.270060 0.919522 0.123584
Si Si5 0.489085 0.814851 0.547443
Si Si6 0.033108 0.584052 0.769158
O O1 0.004013 0.221061 0.501194
O O2 0.927745 0.390354 0.580989
O O3 0.815738 0.363925 0.368857
O O4 0.570577 0.595823 0.392817
O O5 0.416230 0.453128 0.519448
O O6 0.072155 0.588717 0.481298
O O7 0.228807 0.471341 0.316550
O O8 0.452055 0.781441 0.346993
O O9 0.622439 0.667437 0.189432
O O10 0.279823 0.004370 0.212799
O O11 0.191920 0.773727 0.516465
O O12 0.465409 0.835699 0.677632
#
# Coordination Sequence:
#
# PCOD8171386 Si02
#       6
#     4   4   4   4   4   4
#     4  11  24  45  70 102 139 184 234 288 346 415
#     4  10  24  45  72 105 144 187 235 290 352 417
#     4  12  25  46  73 104 140 186 234 288 349 418
#     4  10  24  45  72 105 144 187 235 290 352 417
#     4  11  24  45  70 102 139 184 234 288 346 415
#     4  10  23  44  71 102 140 184 232 288 351 414
#
# _framework density 28.727283
#
# number of rings (size 3 to 8) (size 9 to 14) (size 15 to 20)
#    0.000    1.333    0.000    4.000    0.000    8.000 
#    0.000   15.000    0.000    0.000    0.000    0.000 
#    0.000    0.000    0.000    0.000    0.000    0.000 
#
# Total GULP energy -297602.471031 kJ/mol
# GULP energy per Si atom -12400.102960 kJ/mol
# Density = 2.866190 g / cm^3
# Si number density = 28.727283 Si / 1000 Ang^3
#
#
#
# Elastic Constant Matrix: (Units=GPa)
#
#
# Indices 1 2 3 4 5 6 
#
# 1 87.5745 14.5967 40.8210 0.0000 0.0000 0.0000
# 2 14.5967 93.4259 45.4129 0.0000 0.0000 0.0000
# 3 40.8210 45.4129 175.9202 0.0000 0.0000 0.0000
# 4 0.0000 0.0000 0.0000 47.0173 0.0000 0.0000
# 5 0.0000 0.0000 0.0000 0.0000 40.6020 0.0000
# 6 0.0000 0.0000 0.0000 0.0000 0.0000 37.7285
#
#
#
# Elastic Compliance Matrix: (Units=1/GPa)
#
#
# Indices 1 2 3 4 5 6 
#
# 1 0.012837 -0.000638 -0.002814 0.000000 0.000000 0.000000
# 2 -0.000638 0.012271 -0.003020 0.000000 0.000000 0.000000
# 3 -0.002814 -0.003020 0.007117 0.000000 0.000000 0.000000
# 4 0.000000 0.000000 0.000000 0.021269 0.000000 0.000000
# 5 0.000000 0.000000 0.000000 0.000000 0.024629 0.000000
# 6 0.000000 0.000000 0.000000 0.000000 0.000000 0.026505
#
#
# Mechanical properties :
#
#
# Convention : Reuss Voigt Hill
#
# Bulk Modulus (GPa) = 51.86229 62.06462 56.96346
# Shear Modulus (GPa) = 40.32304 42.14223 41.23264
#
# Velocity S-wave (km/s) = 3.75060 3.83427 3.79266
# Velocity P-wave (km/s) = 6.07029 6.42291 6.24909
#
# Compressibility (1/GPa) = 0.01928183
#
# Stress axis : x y z
#
# Youngs Moduli (GPa) = 77.90064 81.49184 140.51034
#
# Poissons Ratio (x) = 0.05197 0.39541
# Poissons Ratio (y) = 0.04968 0.42431
# Poissons Ratio (z) = 0.21922 0.24609
#
# Static dielectric constant tensor:
#      x y z
#    x 4.630410 0.000000 0.000000 
#    y 0.000000 5.646050 0.000000 
#    z 0.000000 0.000000 6.161860 
# 
# 
# High freq. dielectric constant tensor:
#      x y z
#    x 2.139960 0.000000 0.000000 
#    y 0.000000 2.188860 0.000000 
#    z 0.000000 0.000000 2.211990 
# 
# From -- ./inp_files/5444.got.cif
#   From: 2010.03.12/outbox.cif.g09.slc.cpg/sg33_3_cif.got.tgz:5444.got - 2010.04.14 01:49:19.
