data_PCOD8171868
_publ_section_title
;
Structure prediction by ZEFSAII (Michael W. Deem and Ramdas Pophale) SiO2 
 PCOD8171868
Probable space group: P N N 2
;
_chemical_formula_sum "Si O2"
_cell_formula_units_Z 30
_cell_length_a 7.865526
_cell_length_b 12.926107
_cell_length_c 14.328005
_cell_angle_alpha 90.000000
_cell_angle_beta 90.000000
_cell_angle_gamma 90.000000
_cell_volume 1456.737305
_symmetry_space_group_name_H-M "P N N 2"
_symmetry_group_IT_number 34
_symmetry_cell_setting 'orthorhombic'
loop_
_space_group_symop_operation_xyz
x,y,z
-x,-y,z
1/2-x,1/2+y,1/2+z
1/2+x,1/2-y,1/2+z
loop_
_atom_site_type_symbol
_atom_site_label
_atom_site_fract_x
_atom_site_fract_y
_atom_site_fract_z
Si Si1 0.421133 0.888701 0.495490
Si Si2 0.000000 0.000000 0.979180
Si Si3 0.022145 0.617561 0.197570
Si Si4 0.402276 0.702769 0.380520
Si Si5 0.956286 0.117171 0.504011
Si Si6 0.348139 0.925861 0.052852
Si Si7 0.000750 0.298340 0.390214
Si Si8 0.626150 0.278001 0.168321
O O1 0.413383 0.864453 0.605238
O O2 0.501705 0.793161 0.438538
O O3 0.229913 0.885802 0.461905
O O4 0.500000 0.000000 0.471895
O O5 0.991668 0.902503 0.910590
O O6 0.168756 0.987447 0.043862
O O7 0.953210 0.690094 0.281003
O O8 0.214880 0.643214 0.167983
O O9 0.000000 0.500000 0.232261
O O10 0.202391 0.688898 0.402544
O O11 0.441849 0.730112 0.273310
O O12 0.060403 0.184734 0.427116
O O13 0.979024 0.172369 0.604173
O O14 0.000000 0.000000 0.513659
O O15 0.322387 0.834538 0.128703
O O16 0.500000 0.000000 0.089865
O O17 0.403712 0.884370 0.951093
#
# Coordination Sequence:
#
# PCOD8171868 Si02
#       8
#     4   2   4   4   4   4   4   4
#     4  10  21  38  61  82 121 164 202 257 310 369
#     4  12  24  36  72  98 126 168 224 264 322 392
#     4  10  19  35  63  88 116 160 201 260 319 366
#     4  10  22  40  61  93 127 162 214 264 315 380
#     4  10  20  36  59  84 118 160 206 246 306 373
#     4  11  22  42  67  92 133 172 210 266 329 384
#     4   9  20  38  61  86 124 163 200 258 319 371
#     4  10  23  39  61  93 127 163 212 264 317 387
#
# _framework density 20.593966000000002
#
# number of rings (size 3 to 8) (size 9 to 14) (size 15 to 20)
#    0.000    1.867    1.333    2.800    2.800    2.667 
#    0.000    0.000   23.467    0.000    0.000    0.000 
#    0.000    0.000    0.000    0.000    0.000    0.000 
#
# Total GULP energy -371785.103438 kJ/mol
# GULP energy per Si atom -12392.836781 kJ/mol
# Density = 2.054709 g / cm^3
# Si number density = 20.593966 Si / 1000 Ang^3
#
#
#
# Elastic Constant Matrix: (Units=GPa)
#
#
# Indices 1 2 3 4 5 6 
#
# 1 72.9055 35.6557 14.2613 0.0000 0.0000 0.0000
# 2 35.6557 152.6585 81.4700 0.0000 0.0000 0.0000
# 3 14.2613 81.4700 111.9363 0.0000 0.0000 0.0000
# 4 0.0000 0.0000 0.0000 28.5437 0.0000 0.0000
# 5 0.0000 0.0000 0.0000 0.0000 18.0616 0.0000
# 6 0.0000 0.0000 0.0000 0.0000 0.0000 9.5461
#
#
#
# Elastic Compliance Matrix: (Units=1/GPa)
#
#
# Indices 1 2 3 4 5 6 
#
# 1 0.015565 -0.004214 0.001084 0.000000 0.000000 0.000000
# 2 -0.004214 0.011852 -0.008089 0.000000 0.000000 0.000000
# 3 0.001084 -0.008089 0.014683 0.000000 0.000000 0.000000
# 4 0.000000 0.000000 0.000000 0.035034 0.000000 0.000000
# 5 0.000000 0.000000 0.000000 0.000000 0.055366 0.000000
# 6 0.000000 0.000000 0.000000 0.000000 0.000000 0.104755
#
#
# Mechanical properties :
#
#
# Convention : Reuss Voigt Hill
#
# Bulk Modulus (GPa) = 50.86021 66.69712 58.77867
# Shear Modulus (GPa) = 18.77954 24.97118 21.87536
#
# Velocity S-wave (km/s) = 3.02304 3.48594 3.26271
# Velocity P-wave (km/s) = 6.07744 6.97563 6.54197
#
# Compressibility (1/GPa) = 0.01966174
#
# Stress axis : x y z
#
# Youngs Moduli (GPa) = 64.24556 84.37562 68.10590
#
# Poissons Ratio (x) = 0.35556 -0.07382
# Poissons Ratio (y) = 0.27073 0.55092
# Poissons Ratio (z) = -0.06964 0.68252
#
# Static dielectric constant tensor:
#      x y z
#    x 3.643220 0.000000 0.000000 
#    y 0.000000 3.718480 0.000000 
#    z 0.000000 0.000000 3.665090 
# 
# 
# High freq. dielectric constant tensor:
#      x y z
#    x 1.795230 0.000000 0.000000 
#    y 0.000000 1.816490 0.000000 
#    z 0.000000 0.000000 1.796860 
# 
# From -- ./inp_files/6514.got.cif
#   From: 2010.03.12/outbox.cif.g09.slc.cpg/sg34_4_cif.got.tgz:6514.got - 2010.04.14 01:56:33.
