data_PCOD8171529
_publ_section_title
;
Structure prediction by ZEFSAII (Michael W. Deem and Ramdas Pophale) SiO2 
 PCOD8171529
Probable space group: P N A 21
;
_chemical_formula_sum "Si O2"
_cell_formula_units_Z 24
_cell_length_a 14.521121
_cell_length_b 12.321966
_cell_length_c 5.692066
_cell_angle_alpha 90.000000
_cell_angle_beta 90.000000
_cell_angle_gamma 90.000000
_cell_volume 1018.474307
_symmetry_space_group_name_H-M "P N A 21"
_symmetry_group_IT_number 33
_symmetry_cell_setting 'orthorhombic'
loop_
_space_group_symop_operation_xyz
x,y,z
-x,-y,1/2+z
1/2-x,1/2+y,1/2+z
1/2+x,1/2-y,z
loop_
_atom_site_type_symbol
_atom_site_label
_atom_site_fract_x
_atom_site_fract_y
_atom_site_fract_z
Si Si1 0.092562 0.021961 0.250000
Si Si2 0.828777 0.713122 0.181989
Si Si3 0.254626 0.436871 0.041428
Si Si4 0.312763 0.241882 0.299879
Si Si5 0.988448 0.183215 0.542277
Si Si6 0.753376 0.913900 0.442931
O O1 0.026813 0.123335 0.308039
O O2 0.170506 0.023646 0.451507
O O3 0.147076 0.034985 0.005487
O O4 0.036523 0.909357 0.233647
O O5 0.814492 0.599498 0.327828
O O6 0.937484 0.735507 0.157482
O O7 0.772003 0.801152 0.322339
O O8 0.781428 0.716591 0.926866
O O9 0.319710 0.335342 0.105990
O O10 0.204365 0.500024 0.262484
O O11 0.400759 0.243144 0.472272
O O12 0.305249 0.121624 0.177637
#
# Coordination Sequence:
#
# PCOD8171529 Si02
#       6
#     4   4   4   4   4   4
#     4  12  22  40  68 104 136 172 228 308 362 418
#     4  11  23  40  63 103 137 185 230 293 367 431
#     4  11  21  41  64  99 140 187 227 294 375 427
#     4  11  23  40  63 103 137 185 230 293 367 431
#     4  12  22  38  66 106 136 180 238 304 350 436
#     4  11  21  41  64  99 140 187 227 294 375 427
#
# _framework density 23.564657
#
# number of rings (size 3 to 8) (size 9 to 14) (size 15 to 20)
#    0.000    0.667    6.667    2.000    0.000    0.000 
#    0.000    0.000    0.000    0.000   43.333    0.000 
#    0.000    0.000    0.000    0.000    0.000    0.000 
#
# Total GULP energy -297336.737753 kJ/mol
# GULP energy per Si atom -12389.030740 kJ/mol
# Density = 2.351102 g / cm^3
# Si number density = 23.564657 Si / 1000 Ang^3
#
#
#
# Elastic Constant Matrix: (Units=GPa)
#
#
# Indices 1 2 3 4 5 6 
#
# 1 88.0087 46.7255 21.3748 0.0000 0.0000 0.0000
# 2 46.7255 85.7786 39.7491 0.0000 0.0000 0.0000
# 3 21.3748 39.7491 93.2569 0.0000 0.0000 0.0000
# 4 0.0000 0.0000 0.0000 58.7199 0.0000 0.0000
# 5 0.0000 0.0000 0.0000 0.0000 25.9848 0.0000
# 6 0.0000 0.0000 0.0000 0.0000 0.0000 35.7943
#
#
#
# Elastic Compliance Matrix: (Units=1/GPa)
#
#
# Indices 1 2 3 4 5 6 
#
# 1 0.015986 -0.008735 0.000059 0.000000 0.000000 0.000000
# 2 -0.008735 0.019301 -0.006224 0.000000 0.000000 0.000000
# 3 0.000059 -0.006224 0.013363 0.000000 0.000000 0.000000
# 4 0.000000 0.000000 0.000000 0.017030 0.000000 0.000000
# 5 0.000000 0.000000 0.000000 0.000000 0.038484 0.000000
# 6 0.000000 0.000000 0.000000 0.000000 0.000000 0.027937
#
#
# Mechanical properties :
#
#
# Convention : Reuss Voigt Hill
#
# Bulk Modulus (GPa) = 53.05574 53.63812 53.34693
# Shear Modulus (GPa) = 29.72935 34.71278 32.22107
#
# Velocity S-wave (km/s) = 3.55576 3.84225 3.70178
# Velocity P-wave (km/s) = 6.27868 6.51884 6.39989
#
# Compressibility (1/GPa) = 0.01884810
#
# Stress axis : x y z
#
# Youngs Moduli (GPa) = 62.55522 51.81195 74.83626
#
# Poissons Ratio (x) = 0.45259 -0.00444
# Poissons Ratio (y) = 0.54644 0.46581
# Poissons Ratio (z) = -0.00371 0.32250
#
# Static dielectric constant tensor:
#      x y z
#    x 3.942150 0.000000 0.000000 
#    y 0.000000 4.264420 0.000000 
#    z 0.000000 0.000000 4.732990 
# 
# 
# High freq. dielectric constant tensor:
#      x y z
#    x 1.890120 0.000000 0.000000 
#    y 0.000000 1.930400 0.000000 
#    z 0.000000 0.000000 1.949590 
# 
# From -- ./inp_files/1265.got.cif
#   From: 2010.03.12/outbox.cif.g09.slc.cpg/sg33_1_cif.got.tgz:1265.got - 2010.04.14 01:49:19.
