data_PCOD8171096
_publ_section_title
;
Structure prediction by ZEFSAII (Michael W. Deem and Ramdas Pophale) SiO2 
 PCOD8171096
Probable space group: P N A 21
;
_chemical_formula_sum "Si O2"
_cell_formula_units_Z 32
_cell_length_a 9.373566
_cell_length_b 13.170956
_cell_length_c 12.366659
_cell_angle_alpha 90.000000
_cell_angle_beta 90.000000
_cell_angle_gamma 90.000000
_cell_volume 1526.773194
_symmetry_space_group_name_H-M "P N A 21"
_symmetry_group_IT_number 33
_symmetry_cell_setting 'orthorhombic'
loop_
_space_group_symop_operation_xyz
x,y,z
-x,-y,1/2+z
1/2-x,1/2+y,1/2+z
1/2+x,1/2-y,z
loop_
_atom_site_type_symbol
_atom_site_label
_atom_site_fract_x
_atom_site_fract_y
_atom_site_fract_z
Si Si1 0.239825 0.049828 0.533800
Si Si2 0.443980 0.411994 0.441691
Si Si3 0.875788 0.749035 0.610247
Si Si4 0.717209 0.395530 0.936295
Si Si5 0.120433 0.753218 0.113895
Si Si6 0.365891 0.377347 0.197697
Si Si7 0.464636 0.906002 0.442441
Si Si8 0.361705 0.757077 0.261230
O O1 0.323351 0.139742 0.593348
O O2 0.114354 0.092722 0.456957
O O3 0.172449 0.972656 0.621319
O O4 0.354173 0.998030 0.453958
O O5 0.388892 0.520387 0.484940
O O6 0.368264 0.320503 0.506006
O O7 0.390888 0.412253 0.319077
O O8 0.776852 0.803627 0.521269
O O9 0.766322 0.701677 0.697276
O O10 0.962636 0.659739 0.551573
O O11 0.986790 0.825162 0.663399
O O12 0.660379 0.349868 0.822823
O O13 0.874330 0.444717 0.923630
O O14 0.212756 0.798631 0.213195
O O15 0.958812 0.758701 0.155303
O O16 0.425571 0.842151 0.337401
#
# Coordination Sequence:
#
# PCOD8171096 Si02
#       8
#     4   4   4   4   4   4   4   4
#     4  11  26  47  66  99 141 180 230 283 338 412
#     4  12  28  41  69  95 139 180 228 278 343 417
#     4  10  21  42  69  97 135 169 224 278 335 399
#     4  11  22  42  69 105 125 177 228 277 338 407
#     4  12  26  47  62  98 139 182 222 287 340 407
#     4  11  24  44  69  98 136 181 222 280 343 411
#     4  10  23  41  70 102 129 171 228 285 329 412
#     4  11  24  42  74  94 136 174 228 280 346 401
#
# _framework density 20.959235
#
# number of rings (size 3 to 8) (size 9 to 14) (size 15 to 20)
#    0.000    1.000    5.000    0.750    5.250    0.000 
#    0.000    0.000    0.000    0.000    0.000    0.000 
#    0.000    0.000    0.000    0.000    0.000    0.000 
#
# Total GULP energy -396824.133125 kJ/mol
# GULP energy per Si atom -12400.754160 kJ/mol
# Density = 2.091153 g / cm^3
# Si number density = 20.959235 Si / 1000 Ang^3
#
#
#
# Elastic Constant Matrix: (Units=GPa)
#
#
# Indices 1 2 3 4 5 6 
#
# 1 114.4748 47.8633 32.1606 0.0000 0.0000 0.0000
# 2 47.8633 84.7424 30.9870 0.0000 0.0000 0.0000
# 3 32.1606 30.9870 78.6034 0.0000 0.0000 0.0000
# 4 0.0000 0.0000 0.0000 29.6001 0.0000 0.0000
# 5 0.0000 0.0000 0.0000 0.0000 37.8150 0.0000
# 6 0.0000 0.0000 0.0000 0.0000 0.0000 40.2656
#
#
#
# Elastic Compliance Matrix: (Units=1/GPa)
#
#
# Indices 1 2 3 4 5 6 
#
# 1 0.011870 -0.005758 -0.002586 0.000000 0.000000 0.000000
# 2 -0.005758 0.016582 -0.004181 0.000000 0.000000 0.000000
# 3 -0.002586 -0.004181 0.015428 0.000000 0.000000 0.000000
# 4 0.000000 0.000000 0.000000 0.033784 0.000000 0.000000
# 5 0.000000 0.000000 0.000000 0.000000 0.026445 0.000000
# 6 0.000000 0.000000 0.000000 0.000000 0.000000 0.024835
#
#
# Mechanical properties :
#
#
# Convention : Reuss Voigt Hill
#
# Bulk Modulus (GPa) = 53.11048 55.53806 54.32427
# Shear Modulus (GPa) = 31.19720 32.65678 31.92699
#
# Velocity S-wave (km/s) = 3.86226 3.95157 3.90717
# Velocity P-wave (km/s) = 6.72936 6.88299 6.80661
#
# Compressibility (1/GPa) = 0.01882867
#
# Stress axis : x y z
#
# Youngs Moduli (GPa) = 84.24696 60.30776 64.81523
#
# Poissons Ratio (x) = 0.34728 0.16764
# Poissons Ratio (y) = 0.48513 0.27097
# Poissons Ratio (z) = 0.21790 0.25213
#
# Static dielectric constant tensor:
#      x y z
#    x 3.972170 0.000000 0.000000 
#    y 0.000000 3.709380 0.000000 
#    z 0.000000 0.000000 3.643420 
# 
# 
# High freq. dielectric constant tensor:
#      x y z
#    x 1.836810 0.000000 0.000000 
#    y 0.000000 1.814750 0.000000 
#    z 0.000000 0.000000 1.815250 
# 
# From -- ./inp_files/5997.got.cif
#   From: 2010.03.12/outbox.cif.g09.slc.cpg/sg33_3_cif.got.tgz:5997.got - 2010.04.14 01:49:19.
