data_PCOD8171260
_publ_section_title
;
Structure prediction by ZEFSAII (Michael W. Deem and Ramdas Pophale) SiO2 
 PCOD8171260
Probable space group: P N A 21
;
_chemical_formula_sum "Si O2"
_cell_formula_units_Z 28
_cell_length_a 12.590498
_cell_length_b 8.080524
_cell_length_c 11.629989
_cell_angle_alpha 90.000000
_cell_angle_beta 90.000000
_cell_angle_gamma 90.000000
_cell_volume 1183.209742
_symmetry_space_group_name_H-M "P N A 21"
_symmetry_group_IT_number 33
_symmetry_cell_setting 'orthorhombic'
loop_
_space_group_symop_operation_xyz
x,y,z
-x,-y,1/2+z
1/2-x,1/2+y,1/2+z
1/2+x,1/2-y,z
loop_
_atom_site_type_symbol
_atom_site_label
_atom_site_fract_x
_atom_site_fract_y
_atom_site_fract_z
Si Si1 0.304861 0.990443 0.995590
Si Si2 0.145314 0.183067 0.867072
Si Si3 0.304861 0.009556 0.460909
Si Si4 0.645314 0.683068 0.589427
Si Si5 0.298518 0.755986 0.798784
Si Si6 0.201481 0.744013 0.157715
Si Si7 0.528644 0.500000 0.228249
O O1 0.191478 0.082703 0.976311
O O2 0.341604 0.910770 0.874371
O O3 0.384909 0.130294 0.046992
O O4 0.291458 0.845936 0.088676
O O5 0.115091 0.369705 0.909507
O O6 0.239179 0.184738 0.771905
O O7 0.042529 0.084637 0.826283
O O8 0.191478 0.917296 0.480188
O O9 0.291459 0.154063 0.367823
O O10 0.341604 0.089229 0.582128
O O11 0.739178 0.684738 0.684594
O O12 0.542529 0.584638 0.630216
O O13 0.400823 0.645293 0.778873
O O14 0.099176 0.854705 0.177626
#
# Coordination Sequence:
#
# PCOD8171260 Si02
#       7
#     4   4   4   4   4   4   4
#     4  10  22  43  75  94 144 178 230 304 356 404
#     4  11  22  45  69 104 138 182 237 301 346 426
#     4  10  22  43  75  94 144 178 230 304 356 404
#     4  11  22  45  69 104 138 182 237 301 346 426
#     4  11  22  45  69 104 138 182 237 301 346 426
#     4  11  22  45  69 104 138 182 237 301 346 426
#     4  12  24  42  78  94 154 194 232 290 372 412
#
# _framework density 23.664442999999999
#
# number of rings (size 3 to 8) (size 9 to 14) (size 15 to 20)
#    0.000    1.143    5.714    0.000    0.000    1.143 
#    0.000    8.571    0.000    0.000    0.000    0.000 
#    0.000    0.000    0.000    0.000    0.000    0.000 
#
# Total GULP energy -347106.241196 kJ/mol
# GULP energy per Si atom -12396.651471 kJ/mol
# Density = 2.361058 g / cm^3
# Si number density = 23.664443 Si / 1000 Ang^3
#
#
#
# Elastic Constant Matrix: (Units=GPa)
#
#
# Indices 1 2 3 4 5 6 
#
# 1 84.0739 25.9688 10.2070 0.0000 0.0000 0.0000
# 2 25.9688 105.7643 10.7093 0.0000 0.0000 0.0000
# 3 10.2070 10.7093 58.5455 0.0000 0.0000 0.0000
# 4 0.0000 0.0000 0.0000 64.3941 0.0000 0.0000
# 5 0.0000 0.0000 0.0000 0.0000 15.6032 0.0000
# 6 0.0000 0.0000 0.0000 0.0000 0.0000 46.9861
#
#
#
# Elastic Compliance Matrix: (Units=1/GPa)
#
#
# Indices 1 2 3 4 5 6 
#
# 1 0.013038 -0.003027 -0.001719 0.000000 0.000000 0.000000
# 2 -0.003027 0.010336 -0.001363 0.000000 0.000000 0.000000
# 3 -0.001719 -0.001363 0.017630 0.000000 0.000000 0.000000
# 4 0.000000 0.000000 0.000000 0.015529 0.000000 0.000000
# 5 0.000000 0.000000 0.000000 0.000000 0.064090 0.000000
# 6 0.000000 0.000000 0.000000 0.000000 0.000000 0.021283
#
#
# Mechanical properties :
#
#
# Convention : Reuss Voigt Hill
#
# Bulk Modulus (GPa) = 34.74018 38.01710 36.37864
# Shear Modulus (GPa) = 30.53994 38.82993 34.68494
#
# Velocity S-wave (km/s) = 3.59631 4.05514 3.83260
# Velocity P-wave (km/s) = 5.65303 6.16648 5.91533
#
# Compressibility (1/GPa) = 0.02878511
#
# Stress axis : x y z
#
# Youngs Moduli (GPa) = 76.69843 96.74667 56.72214
#
# Poissons Ratio (x) = 0.29287 0.09753
# Poissons Ratio (y) = 0.23218 0.07731
# Poissons Ratio (z) = 0.13187 0.13186
#
# Static dielectric constant tensor:
#      x y z
#    x 3.695010 0.000000 0.000000 
#    y 0.000000 4.749570 0.000000 
#    z 0.000000 0.000000 4.570300 
# 
# 
# High freq. dielectric constant tensor:
#      x y z
#    x 1.884360 0.000000 0.000000 
#    y 0.000000 1.968730 0.000000 
#    z 0.000000 0.000000 1.952680 
# 
# From -- ./inp_files/6342.got.cif
#   From: 2010.03.12/outbox.cif.g09.slc.cpg/sg33_4_cif.got.tgz:6342.got - 2010.04.14 01:49:19.
