data_PCOD8171626
_publ_section_title
;
Structure prediction by ZEFSAII (Michael W. Deem and Ramdas Pophale) SiO2 
 PCOD8171626
Probable space group: P N A 21
;
_chemical_formula_sum "Si O2"
_cell_formula_units_Z 28
_cell_length_a 12.238590
_cell_length_b 16.137837
_cell_length_c 6.912722
_cell_angle_alpha 90.000000
_cell_angle_beta 90.000000
_cell_angle_gamma 90.000000
_cell_volume 1365.292807
_symmetry_space_group_name_H-M "P N A 21"
_symmetry_group_IT_number 33
_symmetry_cell_setting 'orthorhombic'
loop_
_space_group_symop_operation_xyz
x,y,z
-x,-y,1/2+z
1/2-x,1/2+y,1/2+z
1/2+x,1/2-y,z
loop_
_atom_site_type_symbol
_atom_site_label
_atom_site_fract_x
_atom_site_fract_y
_atom_site_fract_z
Si Si1 0.881026 0.356969 0.601760
Si Si2 0.775064 0.522099 0.453891
Si Si3 0.608271 0.769132 0.701216
Si Si4 0.860424 0.983783 0.591188
Si Si5 0.788492 0.815006 0.419849
Si Si6 0.914033 0.077357 0.231013
Si Si7 0.941449 0.667399 0.404104
O O1 0.847206 0.448328 0.538503
O O2 0.893114 0.296647 0.421438
O O3 0.792754 0.314214 0.739435
O O4 0.996510 0.363386 0.712019
O O5 0.739481 0.501042 0.235566
O O6 0.668284 0.536169 0.580626
O O7 0.847019 0.604025 0.458904
O O8 0.729226 0.780058 0.612276
O O9 0.571667 0.674103 0.689476
O O10 0.524502 0.826649 0.583336
O O11 0.833239 0.906459 0.454774
O O12 0.969867 0.967818 0.711939
O O13 0.873077 0.062981 0.450495
O O14 0.889715 0.757080 0.363603
#
# Coordination Sequence:
#
# PCOD8171626 Si02
#       7
#     4   4   4   4   4   4   4
#     4  11  27  43  69 100 135 181 227 277 340 413
#     4  12  26  45  67 103 142 180 224 284 347 402
#     4  11  25  45  67  98 137 182 225 277 348 402
#     4  12  25  42  70 100 137 176 226 285 344 404
#     4  11  23  46  66  99 139 173 224 291 335 400
#     4  12  25  42  71 102 132 177 230 282 342 405
#     4  11  27  43  70  98 140 177 230 282 336 418
#
# _framework density 20.508421999999999
#
# number of rings (size 3 to 8) (size 9 to 14) (size 15 to 20)
#    0.000    0.571    7.143    0.000    4.000    4.571 
#    0.000    0.000    0.000    0.000    0.000    0.000 
#    0.000    0.000    0.000    0.000    0.000    0.000 
#
# Total GULP energy -347435.173677 kJ/mol
# GULP energy per Si atom -12408.399060 kJ/mol
# Density = 2.046174 g / cm^3
# Si number density = 20.508422 Si / 1000 Ang^3
#
#
#
# Elastic Constant Matrix: (Units=GPa)
#
#
# Indices 1 2 3 4 5 6 
#
# 1 93.0654 21.9652 33.6185 0.0000 0.0000 0.0000
# 2 21.9652 84.1454 24.4276 0.0000 0.0000 0.0000
# 3 33.6185 24.4276 114.8877 0.0000 0.0000 0.0000
# 4 0.0000 0.0000 0.0000 33.2346 0.0000 0.0000
# 5 0.0000 0.0000 0.0000 0.0000 36.2441 0.0000
# 6 0.0000 0.0000 0.0000 0.0000 0.0000 38.2674
#
#
#
# Elastic Compliance Matrix: (Units=1/GPa)
#
#
# Indices 1 2 3 4 5 6 
#
# 1 0.012431 -0.002333 -0.003141 0.000000 0.000000 0.000000
# 2 -0.002333 0.013104 -0.002103 0.000000 0.000000 0.000000
# 3 -0.003141 -0.002103 0.010071 0.000000 0.000000 0.000000
# 4 0.000000 0.000000 0.000000 0.030089 0.000000 0.000000
# 5 0.000000 0.000000 0.000000 0.000000 0.027591 0.000000
# 6 0.000000 0.000000 0.000000 0.000000 0.000000 0.026132
#
#
# Mechanical properties :
#
#
# Convention : Reuss Voigt Hill
#
# Bulk Modulus (GPa) = 48.90120 50.23566 49.56843
# Shear Modulus (GPa) = 35.36348 35.68836 35.52592
#
# Velocity S-wave (km/s) = 4.15702 4.17607 4.16656
# Velocity P-wave (km/s) = 6.85108 6.91383 6.88253
#
# Compressibility (1/GPa) = 0.02044940
#
# Stress axis : x y z
#
# Youngs Moduli (GPa) = 80.44710 76.31363 99.29858
#
# Poissons Ratio (x) = 0.17803 0.31194
# Poissons Ratio (y) = 0.18767 0.20887
# Poissons Ratio (z) = 0.25272 0.16053
#
# Static dielectric constant tensor:
#      x y z
#    x 3.825880 0.000000 0.000000 
#    y 0.000000 3.665080 0.000000 
#    z 0.000000 0.000000 3.759650 
# 
# 
# High freq. dielectric constant tensor:
#      x y z
#    x 1.811740 0.000000 0.000000 
#    y 0.000000 1.807700 0.000000 
#    z 0.000000 0.000000 1.809690 
# 
# From -- ./inp_files/919.got.cif
#   From: 2010.03.12/outbox.cif.g09.slc.cpg/sg33_1_cif.got.tgz:919.got - 2010.04.14 01:49:19.
