data_PCOD8171561
_publ_section_title
;
Structure prediction by ZEFSAII (Michael W. Deem and Ramdas Pophale) SiO2 
 PCOD8171561
Probable space group: P N A 21
;
_chemical_formula_sum "Si O2"
_cell_formula_units_Z 28
_cell_length_a 13.143418
_cell_length_b 16.570582
_cell_length_c 5.180631
_cell_angle_alpha 90.000000
_cell_angle_beta 90.000000
_cell_angle_gamma 90.000000
_cell_volume 1128.310792
_symmetry_space_group_name_H-M "P N A 21"
_symmetry_group_IT_number 33
_symmetry_cell_setting 'orthorhombic'
loop_
_space_group_symop_operation_xyz
x,y,z
-x,-y,1/2+z
1/2-x,1/2+y,1/2+z
1/2+x,1/2-y,z
loop_
_atom_site_type_symbol
_atom_site_label
_atom_site_fract_x
_atom_site_fract_y
_atom_site_fract_z
Si Si1 0.736989 0.348026 0.582560
Si Si2 0.662449 0.895084 0.590699
Si Si3 0.080042 0.066852 0.291481
Si Si4 0.426189 0.702323 0.409053
Si Si5 0.812394 0.576754 0.090709
Si Si6 0.411844 0.387446 0.625669
Si Si7 0.431079 0.873818 0.591004
O O1 0.797044 0.332345 0.312361
O O2 0.658870 0.422800 0.530303
O O3 0.658845 0.277769 0.684260
O O4 0.820782 0.363936 0.801314
O O5 0.542889 0.909831 0.628141
O O6 0.717008 0.982318 0.628141
O O7 0.969647 0.107850 0.351422
O O8 0.063558 0.972821 0.257793
O O9 0.120207 0.121915 0.051313
O O10 0.538302 0.684657 0.293412
O O11 0.435173 0.776533 0.605898
O O12 0.708052 0.628651 0.099998
O O13 0.889874 0.602343 0.311217
O O14 0.860775 0.589392 0.811112
#
# Coordination Sequence:
#
# PCOD8171561 Si02
#       7
#     4   4   4   4   4   4   4
#     4  11  23  44  77 105 138 183 243 305 367 436
#     4  12  24  48  79 104 140 195 257 301 367 425
#     4  11  22  43  74 110 142 178 235 307 366 440
#     4  11  26  47  68 110 153 189 234 304 387 454
#     4  12  27  48  76 107 142 195 255 308 358 436
#     4  11  24  41  78 108 144 183 244 306 374 435
#     4  12  30  49  68 104 155 197 246 299 365 448
#
# _framework density 24.815857999999999
#
# number of rings (size 3 to 8) (size 9 to 14) (size 15 to 20)
#    0.000    0.571    4.286    2.571    8.000    1.143 
#    2.571    0.000    0.000    0.000    0.000    0.000 
#    0.000    0.000    0.000    0.000    0.000    0.000 
#
# Total GULP energy -347119.589789 kJ/mol
# GULP energy per Si atom -12397.128207 kJ/mol
# Density = 2.475938 g / cm^3
# Si number density = 24.815858 Si / 1000 Ang^3
#
#
#
# Elastic Constant Matrix: (Units=GPa)
#
#
# Indices 1 2 3 4 5 6 
#
# 1 136.0806 -8.0497 38.9325 0.0000 0.0000 0.0000
# 2 -8.0497 50.2032 14.5178 0.0000 0.0000 0.0000
# 3 38.9325 14.5178 123.7919 0.0000 0.0000 0.0000
# 4 0.0000 0.0000 0.0000 22.7096 0.0000 0.0000
# 5 0.0000 0.0000 0.0000 0.0000 46.3933 0.0000
# 6 0.0000 0.0000 0.0000 0.0000 0.0000 22.2556
#
#
#
# Elastic Compliance Matrix: (Units=1/GPa)
#
#
# Indices 1 2 3 4 5 6 
#
# 1 0.008295 0.002158 -0.002862 0.000000 0.000000 0.000000
# 2 0.002158 0.021180 -0.003162 0.000000 0.000000 0.000000
# 3 -0.002862 -0.003162 0.009349 0.000000 0.000000 0.000000
# 4 0.000000 0.000000 0.000000 0.044034 0.000000 0.000000
# 5 0.000000 0.000000 0.000000 0.000000 0.021555 0.000000
# 6 0.000000 0.000000 0.000000 0.000000 0.000000 0.044933
#
#
# Mechanical properties :
#
#
# Convention : Reuss Voigt Hill
#
# Bulk Modulus (GPa) = 32.16440 44.54189 38.35314
# Shear Modulus (GPa) = 29.86114 35.91670 32.88892
#
# Velocity S-wave (km/s) = 3.47264 3.80850 3.64444
# Velocity P-wave (km/s) = 5.39150 6.10963 5.76176
#
# Compressibility (1/GPa) = 0.03109027
#
# Stress axis : x y z
#
# Youngs Moduli (GPa) = 120.55483 47.21540 106.96346
#
# Poissons Ratio (x) = -0.10187 0.30611
# Poissons Ratio (y) = -0.26011 0.33826
# Poissons Ratio (z) = 0.34500 0.14931
#
# Static dielectric constant tensor:
#      x y z
#    x 4.590250 0.000000 0.000000 
#    y 0.000000 4.105590 0.000000 
#    z 0.000000 0.000000 4.558770 
# 
# 
# High freq. dielectric constant tensor:
#      x y z
#    x 2.009010 0.000000 0.000000 
#    y 0.000000 1.956940 0.000000 
#    z 0.000000 0.000000 1.996260 
# 
# From -- ./inp_files/999.got.cif
#   From: 2010.03.12/outbox.cif.g09.slc.cpg/sg33_1_cif.got.tgz:999.got - 2010.04.14 01:49:19.
