data_PCOD8171071
_publ_section_title
;
Structure prediction by ZEFSAII (Michael W. Deem and Ramdas Pophale) SiO2 
 PCOD8171071
Probable space group: P N A 21
;
_chemical_formula_sum "Si O2"
_cell_formula_units_Z 20
_cell_length_a 5.301856
_cell_length_b 21.827612
_cell_length_c 7.059644
_cell_angle_alpha 90.000000
_cell_angle_beta 90.000000
_cell_angle_gamma 90.000000
_cell_volume 816.990402
_symmetry_space_group_name_H-M "P N A 21"
_symmetry_group_IT_number 33
_symmetry_cell_setting 'orthorhombic'
loop_
_space_group_symop_operation_xyz
x,y,z
-x,-y,1/2+z
1/2-x,1/2+y,1/2+z
1/2+x,1/2-y,z
loop_
_atom_site_type_symbol
_atom_site_label
_atom_site_fract_x
_atom_site_fract_y
_atom_site_fract_z
Si Si1 0.448870 0.911083 0.235050
Si Si2 0.209260 0.906358 0.854478
Si Si3 0.123485 0.771656 0.784858
Si Si4 0.700332 0.969193 0.905668
Si Si5 0.069544 0.720234 0.369228
O O1 0.561761 0.852666 0.341186
O O2 0.323634 0.957143 0.388112
O O3 0.236856 0.891611 0.080039
O O4 0.674315 0.947097 0.123632
O O5 0.162604 0.843228 0.743236
O O6 0.469175 0.938410 0.784185
O O7 0.968383 0.949740 0.817712
O O8 0.360928 0.741509 0.898330
O O9 0.066872 0.734189 0.592518
O O10 0.822446 0.751841 0.275560
#
# Coordination Sequence:
#
# PCOD8171071 Si02
#       5
#     4   4   4   4   4
#     4  10  26  44  69  97 139 172 232 277 339 405
#     4  10  24  41  65  97 135 170 227 272 336 400
#     4  10  21  41  64  98 129 176 218 272 334 403
#     4  10  25  43  70  96 134 178 220 283 337 397
#     4  10  24  41  66  96 131 176 223 274 336 401
#
# _framework density 24.480091000000002
#
# number of rings (size 3 to 8) (size 9 to 14) (size 15 to 20)
#    1.200    0.800    0.000    1.200    5.600    8.000 
#    0.000    0.000    0.000    0.000    0.000    0.000 
#    0.000    0.000    0.000    0.000    0.000    0.000 
#
# Total GULP energy -247786.352937 kJ/mol
# GULP energy per Si atom -12389.317647 kJ/mol
# Density = 2.442437 g / cm^3
# Si number density = 24.480091 Si / 1000 Ang^3
#
#
#
# Elastic Constant Matrix: (Units=GPa)
#
#
# Indices 1 2 3 4 5 6 
#
# 1 208.0863 40.7177 -3.2854 0.0000 0.0000 0.0000
# 2 40.7177 168.1851 31.0926 0.0000 0.0000 0.0000
# 3 -3.2854 31.0926 51.7184 0.0000 0.0000 0.0000
# 4 0.0000 0.0000 0.0000 41.1035 0.0000 0.0000
# 5 0.0000 0.0000 0.0000 0.0000 5.8532 0.0000
# 6 0.0000 0.0000 0.0000 0.0000 0.0000 37.8931
#
#
#
# Elastic Compliance Matrix: (Units=1/GPa)
#
#
# Indices 1 2 3 4 5 6 
#
# 1 0.005110 -0.001459 0.001202 0.000000 0.000000 0.000000
# 2 -0.001459 0.007106 -0.004365 0.000000 0.000000 0.000000
# 3 0.001202 -0.004365 0.022036 0.000000 0.000000 0.000000
# 4 0.000000 0.000000 0.000000 0.024329 0.000000 0.000000
# 5 0.000000 0.000000 0.000000 0.000000 0.170845 0.000000
# 6 0.000000 0.000000 0.000000 0.000000 0.000000 0.026390
#
#
# Mechanical properties :
#
#
# Convention : Reuss Voigt Hill
#
# Bulk Modulus (GPa) = 39.98747 62.78219 51.38483
# Shear Modulus (GPa) = 18.28843 40.93429 29.61136
#
# Velocity S-wave (km/s) = 2.73623 4.09362 3.48172
# Velocity P-wave (km/s) = 5.13349 6.93149 6.09911
#
# Compressibility (1/GPa) = 0.02500783
#
# Stress axis : x y z
#
# Youngs Moduli (GPa) = 195.68512 140.72442 45.38039
#
# Poissons Ratio (x) = 0.20538 -0.05455
# Poissons Ratio (y) = 0.28559 0.19808
# Poissons Ratio (z) = -0.23522 0.61424
#
# Static dielectric constant tensor:
#      x y z
#    x 5.399330 0.000000 0.000000 
#    y 0.000000 4.118960 0.000000 
#    z 0.000000 0.000000 3.808060 
# 
# 
# High freq. dielectric constant tensor:
#      x y z
#    x 1.986160 0.000000 0.000000 
#    y 0.000000 1.974290 0.000000 
#    z 0.000000 0.000000 1.936190 
# 
# From -- ./inp_files/2630.got.cif
#   From: 2010.03.12/outbox.cif.g09.slc.cpg/sg33_2_cif.got.tgz:2630.got - 2010.04.14 01:49:19.
