data_PCOD8171065
_publ_section_title
;
Structure prediction by ZEFSAII (Michael W. Deem and Ramdas Pophale) SiO2 
 PCOD8171065
Probable space group: P N A 21
;
_chemical_formula_sum "Si O2"
_cell_formula_units_Z 24
_cell_length_a 9.072720
_cell_length_b 15.277356
_cell_length_c 8.083612
_cell_angle_alpha 90.000000
_cell_angle_beta 90.000000
_cell_angle_gamma 90.000000
_cell_volume 1120.446610
_symmetry_space_group_name_H-M "P N A 21"
_symmetry_group_IT_number 33
_symmetry_cell_setting 'orthorhombic'
loop_
_space_group_symop_operation_xyz
x,y,z
-x,-y,1/2+z
1/2-x,1/2+y,1/2+z
1/2+x,1/2-y,z
loop_
_atom_site_type_symbol
_atom_site_label
_atom_site_fract_x
_atom_site_fract_y
_atom_site_fract_z
Si Si1 0.754941 0.688528 0.387210
Si Si2 0.588411 0.096874 0.308059
Si Si3 0.817663 0.198839 0.515473
Si Si4 0.827576 0.502136 0.486025
Si Si5 0.132343 0.148477 0.396668
Si Si6 0.480143 0.731780 0.596391
O O1 0.697273 0.713795 0.209725
O O2 0.810163 0.589379 0.379157
O O3 0.642399 0.702685 0.540651
O O4 0.890542 0.752645 0.428015
O O5 0.719668 0.122083 0.434318
O O6 0.464425 0.052673 0.418968
O O7 0.521566 0.180241 0.209587
O O8 0.650847 0.025336 0.178914
O O9 0.772552 0.289243 0.429076
O O10 0.989915 0.181994 0.494479
O O11 0.676533 0.447943 0.457547
O O12 0.091353 0.151980 0.201377
#
# Coordination Sequence:
#
# PCOD8171065 Si02
#       6
#     4   4   4   4   4   4
#     4  11  23  39  61  90 120 160 205 251 303 365
#     4  10  22  41  62  88 124 165 203 252 308 364
#     4  11  23  40  62  89 124 166 205 245 303 373
#     4  11  23  39  62  91 122 159 204 258 309 354
#     4  11  22  40  64  90 122 163 205 253 304 361
#     4  10  21  41  63  86 120 163 204 245 303 371
#
# _framework density 21.420031000000002
#
# number of rings (size 3 to 8) (size 9 to 14) (size 15 to 20)
#    0.000    1.333    0.000    8.000    0.000    5.333 
#    0.000    6.667    0.000    0.000    0.000    0.000 
#    0.000    0.000    0.000    0.000    0.000    0.000 
#
# Total GULP energy -297581.760088 kJ/mol
# GULP energy per Si atom -12399.240004 kJ/mol
# Density = 2.137128 g / cm^3
# Si number density = 21.420031 Si / 1000 Ang^3
#
#
#
# Elastic Constant Matrix: (Units=GPa)
#
#
# Indices 1 2 3 4 5 6 
#
# 1 74.9705 28.5887 13.4228 0.0000 0.0000 0.0000
# 2 28.5887 59.9403 29.8262 0.0000 0.0000 0.0000
# 3 13.4228 29.8262 103.6335 0.0000 0.0000 0.0000
# 4 0.0000 0.0000 0.0000 32.0932 0.0000 0.0000
# 5 0.0000 0.0000 0.0000 0.0000 36.2890 0.0000
# 6 0.0000 0.0000 0.0000 0.0000 0.0000 36.7041
#
#
#
# Elastic Compliance Matrix: (Units=1/GPa)
#
#
# Indices 1 2 3 4 5 6 
#
# 1 0.016306 -0.007850 0.000147 0.000000 0.000000 0.000000
# 2 -0.007850 0.023251 -0.005675 0.000000 0.000000 0.000000
# 3 0.000147 -0.005675 0.011264 0.000000 0.000000 0.000000
# 4 0.000000 0.000000 0.000000 0.031159 0.000000 0.000000
# 5 0.000000 0.000000 0.000000 0.000000 0.027557 0.000000
# 6 0.000000 0.000000 0.000000 0.000000 0.000000 0.027245
#
#
# Mechanical properties :
#
#
# Convention : Reuss Voigt Hill
#
# Bulk Modulus (GPa) = 41.55465 42.46885 42.01175
# Shear Modulus (GPa) = 29.14445 32.13106 30.63775
#
# Velocity S-wave (km/s) = 3.69266 3.87725 3.78608
# Velocity P-wave (km/s) = 6.13376 6.31774 6.22643
#
# Compressibility (1/GPa) = 0.02406470
#
# Stress axis : x y z
#
# Youngs Moduli (GPa) = 61.32784 43.00807 88.78158
#
# Poissons Ratio (x) = 0.33763 -0.01309
# Poissons Ratio (y) = 0.48145 0.50384
# Poissons Ratio (z) = -0.00904 0.24407
#
# Static dielectric constant tensor:
#      x y z
#    x 3.957120 0.000000 0.000000 
#    y 0.000000 3.865930 0.000000 
#    z 0.000000 0.000000 3.921780 
# 
# 
# High freq. dielectric constant tensor:
#      x y z
#    x 1.852090 0.000000 0.000000 
#    y 0.000000 1.827600 0.000000 
#    z 0.000000 0.000000 1.849890 
# 
# From -- ./inp_files/3109.got.cif
#   From: 2010.03.12/outbox.cif.g09.slc.cpg/sg33_2_cif.got.tgz:3109.got - 2010.04.14 01:49:19.
