data_PCOD8171056
_publ_section_title
;
Structure prediction by ZEFSAII (Michael W. Deem and Ramdas Pophale) SiO2 
 PCOD8171056
Probable space group: P N A 21
;
_chemical_formula_sum "Si O2"
_cell_formula_units_Z 32
_cell_length_a 11.609149
_cell_length_b 10.921358
_cell_length_c 9.475433
_cell_angle_alpha 90.000000
_cell_angle_beta 90.000000
_cell_angle_gamma 90.000000
_cell_volume 1201.368094
_symmetry_space_group_name_H-M "P N A 21"
_symmetry_group_IT_number 33
_symmetry_cell_setting 'orthorhombic'
loop_
_space_group_symop_operation_xyz
x,y,z
-x,-y,1/2+z
1/2-x,1/2+y,1/2+z
1/2+x,1/2-y,z
loop_
_atom_site_type_symbol
_atom_site_label
_atom_site_fract_x
_atom_site_fract_y
_atom_site_fract_z
Si Si1 0.316650 0.584262 0.509010
Si Si2 0.207807 0.133642 0.403766
Si Si3 0.234607 0.585555 0.210475
Si Si4 0.938385 0.082745 0.907481
Si Si5 0.580578 0.021528 0.895949
Si Si6 0.496472 0.789215 0.195622
Si Si7 0.231463 0.339714 0.104798
Si Si8 0.643721 0.117527 0.456688
O O1 0.281679 0.643211 0.355723
O O2 0.451587 0.552353 0.505756
O O3 0.292309 0.693016 0.625717
O O4 0.241843 0.461481 0.539339
O O5 0.187663 0.115482 0.574523
O O6 0.336015 0.091386 0.358187
O O7 0.197042 0.275873 0.352696
O O8 0.113110 0.041323 0.336682
O O9 0.112776 0.638590 0.164706
O O10 0.241196 0.434914 0.240756
O O11 0.977772 0.162236 0.773133
O O12 0.843289 0.150561 0.003853
O O13 0.591881 0.126466 0.781237
O O14 0.446354 0.980205 0.894022
O O15 0.620186 0.091447 0.037618
O O16 0.429098 0.783327 0.048616
#
# Coordination Sequence:
#
# PCOD8171056 Si02
#       8
#     4   4   4   4   4   4   4   4
#     4  12  23  41  71 103 139 189 233 300 365 431
#     4  10  25  43  63  99 139 182 236 300 353 435
#     4  10  21  40  70  99 135 180 236 295 356 429
#     4  10  22  39  69  97 138 183 238 295 356 430
#     4  10  21  42  64  93 136 175 228 295 350 418
#     4  12  20  42  74 101 130 189 240 283 372 445
#     4  10  21  42  69 102 140 181 240 299 354 442
#     4  12  25  41  70 100 141 185 235 295 364 434
#
# _framework density 26.636299999999999
#
# number of rings (size 3 to 8) (size 9 to 14) (size 15 to 20)
#    0.000    1.500    6.250    0.750    1.750    0.000 
#    2.250    5.000    0.000    0.000    0.000    0.000 
#    0.000    0.000    0.000    0.000    0.000    0.000 
#
# Total GULP energy -396429.167587 kJ/mol
# GULP energy per Si atom -12388.411487 kJ/mol
# Density = 2.657567 g / cm^3
# Si number density = 26.636300 Si / 1000 Ang^3
#
#
#
# Elastic Constant Matrix: (Units=GPa)
#
#
# Indices 1 2 3 4 5 6 
#
# 1 129.5767 69.9118 -7.6901 0.0000 0.0000 0.0000
# 2 69.9118 186.6738 6.2090 0.0000 0.0000 0.0000
# 3 -7.6901 6.2090 16.1911 0.0000 0.0000 0.0000
# 4 0.0000 0.0000 0.0000 42.5243 0.0000 0.0000
# 5 0.0000 0.0000 0.0000 0.0000 21.3086 0.0000
# 6 0.0000 0.0000 0.0000 0.0000 0.0000 40.7333
#
#
#
# Elastic Compliance Matrix: (Units=1/GPa)
#
#
# Indices 1 2 3 4 5 6 
#
# 1 0.010297 -0.004071 0.006452 0.000000 0.000000 0.000000
# 2 -0.004071 0.007036 -0.004631 0.000000 0.000000 0.000000
# 3 0.006452 -0.004631 0.066603 0.000000 0.000000 0.000000
# 4 0.000000 0.000000 0.000000 0.023516 0.000000 0.000000
# 5 0.000000 0.000000 0.000000 0.000000 0.046929 0.000000
# 6 0.000000 0.000000 0.000000 0.000000 0.000000 0.024550
#
#
# Mechanical properties :
#
#
# Convention : Reuss Voigt Hill
#
# Bulk Modulus (GPa) = 12.58914 52.14477 32.36696
# Shear Modulus (GPa) = 23.81977 38.51395 31.16686
#
# Velocity S-wave (km/s) = 2.99366 3.80665 3.42437
# Velocity P-wave (km/s) = 4.08484 6.24018 5.27379
#
# Compressibility (1/GPa) = 0.07943352
#
# Stress axis : x y z
#
# Youngs Moduli (GPa) = 97.11837 142.13483 15.01441
#
# Poissons Ratio (x) = 0.57861 -0.09687
# Poissons Ratio (y) = 0.39535 0.06954
# Poissons Ratio (z) = -0.62657 0.65830
#
# Static dielectric constant tensor:
#      x y z
#    x 4.833780 0.000000 0.000000 
#    y 0.000000 5.096140 0.000000 
#    z 0.000000 0.000000 4.937060 
# 
# 
# High freq. dielectric constant tensor:
#      x y z
#    x 2.070580 0.000000 0.000000 
#    y 0.000000 2.090470 0.000000 
#    z 0.000000 0.000000 2.071800 
# 
# From -- ./inp_files/6498.got.cif
#   From: 2010.03.12/outbox.cif.g09.slc.cpg/sg33_4_cif.got.tgz:6498.got - 2010.04.14 01:49:19.
