data_PCOD8171576
_publ_section_title
;
Structure prediction by ZEFSAII (Michael W. Deem and Ramdas Pophale) SiO2 
 PCOD8171576
Probable space group: P N A 21
;
_chemical_formula_sum "Si O2"
_cell_formula_units_Z 28
_cell_length_a 15.716649
_cell_length_b 6.532796
_cell_length_c 11.781714
_cell_angle_alpha 90.000000
_cell_angle_beta 90.000000
_cell_angle_gamma 90.000000
_cell_volume 1209.671718
_symmetry_space_group_name_H-M "P N A 21"
_symmetry_group_IT_number 33
_symmetry_cell_setting 'orthorhombic'
loop_
_space_group_symop_operation_xyz
x,y,z
-x,-y,1/2+z
1/2-x,1/2+y,1/2+z
1/2+x,1/2-y,z
loop_
_atom_site_type_symbol
_atom_site_label
_atom_site_fract_x
_atom_site_fract_y
_atom_site_fract_z
Si Si1 0.707500 0.883508 0.987340
Si Si2 0.496229 0.317865 0.894655
Si Si3 0.832096 0.989195 0.810891
Si Si4 0.798256 0.767148 0.199939
Si Si5 0.618550 0.635462 0.805870
Si Si6 0.402382 0.794476 0.603222
Si Si7 0.044604 0.478321 0.714925
O O1 0.796095 0.862435 0.917121
O O2 0.639063 0.742817 0.924967
O O3 0.728144 0.770583 0.103439
O O4 0.671928 0.111642 0.022172
O O5 0.396843 0.350801 0.869206
O O6 0.535209 0.502419 0.823229
O O7 0.524522 0.099136 0.842768
O O8 0.529808 0.330034 0.024381
O O9 0.866683 0.850588 0.705466
O O10 0.742910 0.105598 0.785865
O O11 0.891277 0.686788 0.157697
O O12 0.806080 0.992560 0.256631
O O13 0.594414 0.806799 0.714236
O O14 0.454820 0.991015 0.651226
#
# Coordination Sequence:
#
# PCOD8171576 Si02
#       7
#     4   4   4   4   4   4   4
#     4  12  25  44  73 104 145 191 238 309 379 420
#     4  11  25  44  73 101 140 194 241 298 366 440
#     4  12  26  45  70 112 143 187 249 303 363 444
#     4  11  26  43  72 105 144 190 237 307 373 426
#     4  11  22  49  68  97 144 185 244 298 353 450
#     4  12  26  46  76 104 148 199 246 302 374 447
#     4  11  24  47  70 103 142 190 247 293 360 451
#
# _framework density 23.146775999999999
#
# number of rings (size 3 to 8) (size 9 to 14) (size 15 to 20)
#    0.000    0.571    4.286    3.429    2.000    3.429 
#    0.000    0.000    0.000    0.000    0.000    0.000 
#    0.000    0.000    0.000    0.000    0.000    0.000 
#
# Total GULP energy -346881.733001 kJ/mol
# GULP energy per Si atom -12388.633321 kJ/mol
# Density = 2.309409 g / cm^3
# Si number density = 23.146776 Si / 1000 Ang^3
#
#
#
# Elastic Constant Matrix: (Units=GPa)
#
#
# Indices 1 2 3 4 5 6 
#
# 1 107.7526 34.9408 36.6135 0.0000 0.0000 0.0000
# 2 34.9408 97.9748 29.4711 0.0000 0.0000 0.0000
# 3 36.6135 29.4711 85.5187 0.0000 0.0000 0.0000
# 4 0.0000 0.0000 0.0000 35.2483 0.0000 0.0000
# 5 0.0000 0.0000 0.0000 0.0000 42.8713 0.0000
# 6 0.0000 0.0000 0.0000 0.0000 0.0000 42.7827
#
#
#
# Elastic Compliance Matrix: (Units=1/GPa)
#
#
# Indices 1 2 3 4 5 6 
#
# 1 0.011574 -0.002942 -0.003941 0.000000 0.000000 0.000000
# 2 -0.002942 0.012135 -0.002922 0.000000 0.000000 0.000000
# 3 -0.003941 -0.002922 0.014388 0.000000 0.000000 0.000000
# 4 0.000000 0.000000 0.000000 0.028370 0.000000 0.000000
# 5 0.000000 0.000000 0.000000 0.000000 0.023326 0.000000
# 6 0.000000 0.000000 0.000000 0.000000 0.000000 0.023374
#
#
# Mechanical properties :
#
#
# Convention : Reuss Voigt Hill
#
# Bulk Modulus (GPa) = 54.09691 54.81076 54.45384
# Shear Modulus (GPa) = 35.98697 36.86183 36.42440
#
# Velocity S-wave (km/s) = 3.94728 3.99498 3.97120
# Velocity P-wave (km/s) = 6.64806 6.70901 6.67861
#
# Compressibility (1/GPa) = 0.01848534
#
# Stress axis : x y z
#
# Youngs Moduli (GPa) = 86.40260 82.40654 69.50326
#
# Poissons Ratio (x) = 0.24244 0.27393
# Poissons Ratio (y) = 0.25420 0.20311
# Poissons Ratio (z) = 0.34053 0.24082
#
# Static dielectric constant tensor:
#      x y z
#    x 4.221120 0.000000 0.000000 
#    y 0.000000 4.098210 0.000000 
#    z 0.000000 0.000000 4.124170 
# 
# 
# High freq. dielectric constant tensor:
#      x y z
#    x 1.924330 0.000000 0.000000 
#    y 0.000000 1.911740 0.000000 
#    z 0.000000 0.000000 1.910360 
# 
# From -- ./inp_files/6973.got.cif
#   From: 2010.03.12/outbox.cif.g09.slc.cpg/sg33_4_cif.got.tgz:6973.got - 2010.04.14 01:49:19.
