data_PCOD8171059
_publ_section_title
;
Structure prediction by ZEFSAII (Michael W. Deem and Ramdas Pophale) SiO2 
 PCOD8171059
Probable space group: P N A 21
;
_chemical_formula_sum "Si O2"
_cell_formula_units_Z 32
_cell_length_a 12.885315
_cell_length_b 9.434165
_cell_length_c 12.999757
_cell_angle_alpha 90.000000
_cell_angle_beta 90.000000
_cell_angle_gamma 90.000000
_cell_volume 1580.278902
_symmetry_space_group_name_H-M "P N A 21"
_symmetry_group_IT_number 33
_symmetry_cell_setting 'orthorhombic'
loop_
_space_group_symop_operation_xyz
x,y,z
-x,-y,1/2+z
1/2-x,1/2+y,1/2+z
1/2+x,1/2-y,z
loop_
_atom_site_type_symbol
_atom_site_label
_atom_site_fract_x
_atom_site_fract_y
_atom_site_fract_z
Si Si1 0.050790 0.368553 0.458420
Si Si2 0.164761 0.263702 0.062302
Si Si3 0.836504 0.346669 0.932436
Si Si4 0.712124 0.244984 0.300957
Si Si5 0.368169 0.633626 0.079022
Si Si6 0.334512 0.530126 0.304119
Si Si7 0.183367 0.565880 0.951933
Si Si8 0.489062 0.393427 0.961043
O O1 0.083501 0.531182 0.462605
O O2 0.108698 0.288577 0.365527
O O3 0.080478 0.289271 0.565766
O O4 0.928135 0.361939 0.443648
O O5 0.178618 0.277957 0.183538
O O6 0.258380 0.162264 0.028657
O O7 0.175363 0.402328 0.988110
O O8 0.052035 0.194527 0.047165
O O9 0.767459 0.377564 0.831590
O O10 0.900290 0.204261 0.910908
O O11 0.757633 0.398053 0.341690
O O12 0.805046 0.133624 0.318456
O O13 0.372285 0.575710 0.192881
O O14 0.249306 0.644270 0.040605
O O15 0.433691 0.527462 0.008893
O O16 0.432545 0.557531 0.374555
#
# Coordination Sequence:
#
# PCOD8171059 Si02
#       8
#     4   4   4   4   4   4   4   4
#     4  10  23  41  64  95 127 170 215 271 328 394
#     4  11  22  42  65  95 128 176 215 272 333 393
#     4  10  21  41  60  91 132 163 213 271 324 391
#     4  10  22  41  64  94 128 170 221 268 326 404
#     4  11  23  42  65  92 128 170 215 268 328 394
#     4  10  22  40  62  90 132 167 212 271 328 387
#     4  11  21  40  66  91 130 167 217 273 325 392
#     4  11  22  39  66  90 127 167 212 268 330 387
#
# _framework density 20.249587999999999
#
# number of rings (size 3 to 8) (size 9 to 14) (size 15 to 20)
#    0.000    1.500    3.750    0.750    0.000    6.000 
#    4.500    0.000    0.000    0.000    0.000    0.000 
#    0.000    0.000    0.000    0.000    0.000    0.000 
#
# Total GULP energy -396559.788281 kJ/mol
# GULP energy per Si atom -12392.493384 kJ/mol
# Density = 2.020350 g / cm^3
# Si number density = 20.249588 Si / 1000 Ang^3
#
#
#
# Elastic Constant Matrix: (Units=GPa)
#
#
# Indices 1 2 3 4 5 6 
#
# 1 113.6445 13.8447 38.3580 0.0000 0.0000 0.0000
# 2 13.8447 35.1850 30.2841 0.0000 0.0000 0.0000
# 3 38.3580 30.2841 98.6841 0.0000 0.0000 0.0000
# 4 0.0000 0.0000 0.0000 25.4957 0.0000 0.0000
# 5 0.0000 0.0000 0.0000 0.0000 13.2661 0.0000
# 6 0.0000 0.0000 0.0000 0.0000 0.0000 19.1314
#
#
#
# Elastic Compliance Matrix: (Units=1/GPa)
#
#
# Indices 1 2 3 4 5 6 
#
# 1 0.010145 -0.000812 -0.003694 0.000000 0.000000 0.000000
# 2 -0.000812 0.038688 -0.011557 0.000000 0.000000 0.000000
# 3 -0.003694 -0.011557 0.015116 0.000000 0.000000 0.000000
# 4 0.000000 0.000000 0.000000 0.039222 0.000000 0.000000
# 5 0.000000 0.000000 0.000000 0.000000 0.075380 0.000000
# 6 0.000000 0.000000 0.000000 0.000000 0.000000 0.052270
#
#
# Mechanical properties :
#
#
# Convention : Reuss Voigt Hill
#
# Bulk Modulus (GPa) = 31.42445 45.83191 38.62818
# Shear Modulus (GPa) = 18.27786 22.58043 20.42914
#
# Velocity S-wave (km/s) = 3.00764 3.34294 3.17971
# Velocity P-wave (km/s) = 5.25485 6.13050 5.70948
#
# Compressibility (1/GPa) = 0.03182236
#
# Stress axis : x y z
#
# Youngs Moduli (GPa) = 98.56891 25.84791 66.15632
#
# Poissons Ratio (x) = 0.02100 0.24439
# Poissons Ratio (y) = 0.08008 0.76455
# Poissons Ratio (z) = 0.36412 0.29872
#
# Static dielectric constant tensor:
#      x y z
#    x 3.951700 0.000000 0.000000 
#    y 0.000000 3.797640 0.000000 
#    z 0.000000 0.000000 3.556430 
# 
# 
# High freq. dielectric constant tensor:
#      x y z
#    x 1.813680 0.000000 0.000000 
#    y 0.000000 1.793640 0.000000 
#    z 0.000000 0.000000 1.771810 
# 
# From -- ./inp_files/6451.got.cif
#   From: 2010.03.12/outbox.cif.g09.slc.cpg/sg33_4_cif.got.tgz:6451.got - 2010.04.14 01:49:19.
