data_PCOD8171488
_publ_section_title
;
Structure prediction by ZEFSAII (Michael W. Deem and Ramdas Pophale) SiO2 
 PCOD8171488
Probable space group: P N A 21
;
_chemical_formula_sum "Si O2"
_cell_formula_units_Z 28
_cell_length_a 9.645832
_cell_length_b 11.891798
_cell_length_c 10.547514
_cell_angle_alpha 90.000000
_cell_angle_beta 90.000000
_cell_angle_gamma 90.000000
_cell_volume 1209.866154
_symmetry_space_group_name_H-M "P N A 21"
_symmetry_group_IT_number 33
_symmetry_cell_setting 'orthorhombic'
loop_
_space_group_symop_operation_xyz
x,y,z
-x,-y,1/2+z
1/2-x,1/2+y,1/2+z
1/2+x,1/2-y,z
loop_
_atom_site_type_symbol
_atom_site_label
_atom_site_fract_x
_atom_site_fract_y
_atom_site_fract_z
Si Si1 0.804023 0.372619 0.529430
Si Si2 0.512391 0.643240 0.670535
Si Si3 0.026411 0.219430 0.450059
Si Si4 0.091608 0.658836 0.292178
Si Si5 0.932775 0.099394 0.681339
Si Si6 0.749706 0.769519 0.518099
Si Si7 0.318146 0.928919 0.347025
O O1 0.958169 0.338844 0.484213
O O2 0.687429 0.281469 0.490214
O O3 0.800448 0.379406 0.682381
O O4 0.769929 0.487156 0.457610
O O5 0.490506 0.703096 0.802776
O O6 0.534901 0.509040 0.694727
O O7 0.649582 0.697919 0.610278
O O8 0.371951 0.664660 0.589831
O O9 0.939188 0.127883 0.532141
O O10 0.032894 0.787058 0.263213
O O11 0.157996 0.646190 0.432135
O O12 0.971750 0.563518 0.289262
O O13 0.782782 0.056963 0.727183
O O14 0.818545 0.692154 0.411782
#
# Coordination Sequence:
#
# PCOD8171488 Si02
#       7
#     4   4   4   4   4   4   4
#     4  11  25  45  74 106 144 188 247 297 367 440
#     4  12  24  45  72 102 147 186 243 294 369 426
#     4  11  25  45  68 107 144 185 239 306 354 436
#     4  10  25  45  74 101 147 187 239 296 366 434
#     4  10  25  42  75  98 143 191 237 291 366 427
#     4  11  25  44  69 103 142 190 236 305 353 441
#     4  11  23  48  70 105 143 187 249 297 361 440
#
# _framework density 23.143056999999999
#
# number of rings (size 3 to 8) (size 9 to 14) (size 15 to 20)
#    0.000    1.143    2.857    1.714   14.000    2.286 
#    2.571    0.000    0.000    0.000    0.000    0.000 
#    0.000    0.000    0.000    0.000    0.000    0.000 
#
# Total GULP energy -346927.105854 kJ/mol
# GULP energy per Si atom -12390.253781 kJ/mol
# Density = 2.309038 g / cm^3
# Si number density = 23.143057 Si / 1000 Ang^3
#
#
#
# Elastic Constant Matrix: (Units=GPa)
#
#
# Indices 1 2 3 4 5 6 
#
# 1 81.5768 12.9037 23.3269 0.0000 0.0000 0.0000
# 2 12.9037 46.8387 -2.9425 0.0000 0.0000 0.0000
# 3 23.3269 -2.9425 106.8827 0.0000 0.0000 0.0000
# 4 0.0000 0.0000 0.0000 32.2687 0.0000 0.0000
# 5 0.0000 0.0000 0.0000 0.0000 50.4152 0.0000
# 6 0.0000 0.0000 0.0000 0.0000 0.0000 32.0711
#
#
#
# Elastic Compliance Matrix: (Units=1/GPa)
#
#
# Indices 1 2 3 4 5 6 
#
# 1 0.013781 -0.003993 -0.003118 0.000000 0.000000 0.000000
# 2 -0.003993 0.022544 0.001492 0.000000 0.000000 0.000000
# 3 -0.003118 0.001492 0.010078 0.000000 0.000000 0.000000
# 4 0.000000 0.000000 0.000000 0.030990 0.000000 0.000000
# 5 0.000000 0.000000 0.000000 0.000000 0.019835 0.000000
# 6 0.000000 0.000000 0.000000 0.000000 0.000000 0.031181
#
#
# Mechanical properties :
#
#
# Convention : Reuss Voigt Hill
#
# Bulk Modulus (GPa) = 28.43652 33.54159 30.98905
# Shear Modulus (GPa) = 33.03235 36.41833 34.72534
#
# Velocity S-wave (km/s) = 3.78208 3.97119 3.87779
# Velocity P-wave (km/s) = 5.60233 5.96253 5.78523
#
# Compressibility (1/GPa) = 0.03516605
#
# Stress axis : x y z
#
# Youngs Moduli (GPa) = 72.56141 44.35866 99.23038
#
# Poissons Ratio (x) = 0.17710 0.30937
# Poissons Ratio (y) = 0.28970 -0.14805
# Poissons Ratio (z) = 0.22622 -0.06618
#
# Static dielectric constant tensor:
#      x y z
#    x 4.316740 0.000000 0.000000 
#    y 0.000000 4.043610 0.000000 
#    z 0.000000 0.000000 4.277610 
# 
# 
# High freq. dielectric constant tensor:
#      x y z
#    x 1.917470 0.000000 0.000000 
#    y 0.000000 1.891790 0.000000 
#    z 0.000000 0.000000 1.927890 
# 
# From -- ./inp_files/5875.got.cif
#   From: 2010.03.12/outbox.cif.g09.slc.cpg/sg33_3_cif.got.tgz:5875.got - 2010.04.14 01:49:19.
