data_PCOD8171269
_publ_section_title
;
Structure prediction by ZEFSAII (Michael W. Deem and Ramdas Pophale) SiO2 
 PCOD8171269
Probable space group: P N A 21
;
_chemical_formula_sum "Si O2"
_cell_formula_units_Z 32
_cell_length_a 10.790348
_cell_length_b 16.304072
_cell_length_c 8.611181
_cell_angle_alpha 90.000000
_cell_angle_beta 90.000000
_cell_angle_gamma 90.000000
_cell_volume 1514.935887
_symmetry_space_group_name_H-M "P N A 21"
_symmetry_group_IT_number 33
_symmetry_cell_setting 'orthorhombic'
loop_
_space_group_symop_operation_xyz
x,y,z
-x,-y,1/2+z
1/2-x,1/2+y,1/2+z
1/2+x,1/2-y,z
loop_
_atom_site_type_symbol
_atom_site_label
_atom_site_fract_x
_atom_site_fract_y
_atom_site_fract_z
Si Si1 0.141048 0.047558 0.088620
Si Si2 0.411434 0.040063 0.140810
Si Si3 0.441511 0.262656 0.649641
Si Si4 0.734891 0.665416 0.361588
Si Si5 0.562688 0.796573 0.802344
Si Si6 0.002809 0.920565 0.294151
Si Si7 0.488092 0.898367 0.320794
Si Si8 0.812982 0.766114 0.650724
O O1 0.273726 0.003879 0.111621
O O2 0.151093 0.139157 0.152780
O O3 0.039960 0.996918 0.185795
O O4 0.108080 0.049742 0.904932
O O5 0.412739 0.106667 0.280288
O O6 0.508700 0.968611 0.189307
O O7 0.445503 0.083512 0.980967
O O8 0.300699 0.290423 0.695909
O O9 0.457519 0.228785 0.478947
O O10 0.531542 0.342057 0.682300
O O11 0.473429 0.191364 0.769843
O O12 0.613009 0.612217 0.409948
O O13 0.840945 0.598385 0.344139
O O14 0.779458 0.735041 0.479757
O O15 0.686365 0.748416 0.746986
O O16 0.434359 0.779759 0.712831
#
# Coordination Sequence:
#
# PCOD8171269 Si02
#       8
#     4   4   4   4   4   4   4   4
#     4  11  23  44  65 100 135 175 230 277 345 418
#     4  11  24  44  67 103 132 181 225 296 346 413
#     4  10  24  41  65  98 131 182 223 281 344 414
#     4  10  22  44  68  94 133 182 224 277 346 417
#     4  11  24  41  67 100 136 173 233 289 340 422
#     4  10  24  44  67  95 139 179 227 282 339 415
#     4  12  22  45  69  94 141 172 230 282 347 413
#     4  11  23  43  70  96 137 182 228 282 355 420
#
# _framework density 21.123007000000001
#
# number of rings (size 3 to 8) (size 9 to 14) (size 15 to 20)
#    0.750    0.500    2.500    3.750    3.500    0.000 
#    4.500    0.000    0.000    0.000    0.000    0.000 
#    0.000    0.000    0.000    0.000    0.000    0.000 
#
# Total GULP energy -396451.391575 kJ/mol
# GULP energy per Si atom -12389.105987 kJ/mol
# Density = 2.107493 g / cm^3
# Si number density = 21.123007 Si / 1000 Ang^3
#
#
#
# Elastic Constant Matrix: (Units=GPa)
#
#
# Indices 1 2 3 4 5 6 
#
# 1 69.0953 5.1589 14.9559 0.0000 0.0000 0.0000
# 2 5.1589 94.6770 36.7401 0.0000 0.0000 0.0000
# 3 14.9559 36.7401 107.6620 0.0000 0.0000 0.0000
# 4 0.0000 0.0000 0.0000 40.8828 0.0000 0.0000
# 5 0.0000 0.0000 0.0000 0.0000 27.0751 0.0000
# 6 0.0000 0.0000 0.0000 0.0000 0.0000 22.5904
#
#
#
# Elastic Compliance Matrix: (Units=1/GPa)
#
#
# Indices 1 2 3 4 5 6 
#
# 1 0.014921 -0.000010 -0.002069 0.000000 0.000000 0.000000
# 2 -0.000010 0.012174 -0.004153 0.000000 0.000000 0.000000
# 3 -0.002069 -0.004153 0.010993 0.000000 0.000000 0.000000
# 4 0.000000 0.000000 0.000000 0.024460 0.000000 0.000000
# 5 0.000000 0.000000 0.000000 0.000000 0.036934 0.000000
# 6 0.000000 0.000000 0.000000 0.000000 0.000000 0.044267
#
#
# Mechanical properties :
#
#
# Convention : Reuss Voigt Hill
#
# Bulk Modulus (GPa) = 39.02624 42.79378 40.91001
# Shear Modulus (GPa) = 30.34780 32.41495 31.38137
#
# Velocity S-wave (km/s) = 3.79452 3.92162 3.85859
# Velocity P-wave (km/s) = 6.14114 6.38818 6.26588
#
# Compressibility (1/GPa) = 0.02562378
#
# Stress axis : x y z
#
# Youngs Moduli (GPa) = 67.01762 82.13925 90.96625
#
# Poissons Ratio (x) = 0.00082 0.18825
# Poissons Ratio (y) = 0.00067 0.37780
# Poissons Ratio (z) = 0.13869 0.34114
#
# Static dielectric constant tensor:
#      x y z
#    x 3.969410 0.000000 0.000000 
#    y 0.000000 3.842370 0.000000 
#    z 0.000000 0.000000 3.659130 
# 
# 
# High freq. dielectric constant tensor:
#      x y z
#    x 1.824810 0.000000 0.000000 
#    y 0.000000 1.837440 0.000000 
#    z 0.000000 0.000000 1.815190 
# 
# From -- ./inp_files/4100.got.cif
#   From: 2010.03.12/outbox.cif.g09.slc.cpg/sg33_3_cif.got.tgz:4100.got - 2010.04.14 01:49:19.
