data_PCOD8171944
_publ_section_title
;
Structure prediction by ZEFSAII (Michael W. Deem and Ramdas Pophale) SiO2 
 PCOD8171944
Probable space group: P N N 2
;
_chemical_formula_sum "Si O2"
_cell_formula_units_Z 28
_cell_length_a 23.599423
_cell_length_b 8.216163
_cell_length_c 6.707193
_cell_angle_alpha 90.000000
_cell_angle_beta 90.000000
_cell_angle_gamma 90.000000
_cell_volume 1300.502630
_symmetry_space_group_name_H-M "P N N 2"
_symmetry_group_IT_number 34
_symmetry_cell_setting 'orthorhombic'
loop_
_space_group_symop_operation_xyz
x,y,z
-x,-y,z
1/2-x,1/2+y,1/2+z
1/2+x,1/2-y,1/2+z
loop_
_atom_site_type_symbol
_atom_site_label
_atom_site_fract_x
_atom_site_fract_y
_atom_site_fract_z
Si Si1 0.797312 0.189223 0.964530
Si Si2 0.000000 0.500000 0.970087
Si Si3 0.884018 0.620547 0.936880
Si Si4 0.533920 0.700599 0.720370
Si Si5 0.794330 0.461250 0.662188
Si Si6 0.590040 0.492846 0.403801
Si Si7 0.143591 0.608751 0.273101
Si Si8 0.000000 0.000000 0.566701
O O1 0.772635 0.298388 0.779778
O O2 0.856646 0.114031 0.889910
O O3 0.805326 0.311674 0.148142
O O4 0.756434 0.048451 0.044116
O O5 0.940999 0.526727 0.847101
O O6 0.000368 0.336382 0.100588
O O7 0.876503 0.556274 0.163189
O O8 0.827902 0.579336 0.811881
O O9 0.888871 0.812569 0.946649
O O10 0.546692 0.544598 0.578431
O O11 0.593917 0.763294 0.791176
O O12 0.499068 0.655644 0.919270
O O13 0.839748 0.417771 0.497846
O O14 0.557155 0.497549 0.194542
#
# Coordination Sequence:
#
# PCOD8171944 Si02
#       8
#     4   2   4   4   4   4   4   2
#     4  10  25  43  65  94 132 172 218 279 330 387
#     4  10  20  42  68  88 142 170 208 274 330 392
#     4  10  23  40  64 100 129 173 216 269 335 395
#     4  10  22  40  62  92 127 170 209 262 329 388
#     4  11  24  43  68  95 127 175 224 271 332 398
#     4  11  24  42  63  98 137 167 215 279 327 394
#     4   9  22  43  63  90 128 165 214 267 325 394
#     4  12  22  38  64  94 130 170 222 256 332 404
#
# _framework density 21.530135999999999
#
# number of rings (size 3 to 8) (size 9 to 14) (size 15 to 20)
#    0.000    1.714    0.000    3.857    4.000    5.714 
#    2.571    1.429    0.000    0.000    0.000    0.000 
#    0.000    0.000    0.000    0.000    0.000    0.000 
#
# Total GULP energy -347051.414962 kJ/mol
# GULP energy per Si atom -12394.693391 kJ/mol
# Density = 2.148113 g / cm^3
# Si number density = 21.530136 Si / 1000 Ang^3
#
#
#
# Elastic Constant Matrix: (Units=GPa)
#
#
# Indices 1 2 3 4 5 6 
#
# 1 94.9450 31.2772 39.4839 0.0000 0.0000 0.0000
# 2 31.2772 126.0962 52.6455 0.0000 0.0000 0.0000
# 3 39.4839 52.6455 112.9544 0.0000 0.0000 0.0000
# 4 0.0000 0.0000 0.0000 27.4850 0.0000 0.0000
# 5 0.0000 0.0000 0.0000 0.0000 33.1321 0.0000
# 6 0.0000 0.0000 0.0000 0.0000 0.0000 32.1711
#
#
#
# Elastic Compliance Matrix: (Units=1/GPa)
#
#
# Indices 1 2 3 4 5 6 
#
# 1 0.012577 -0.001594 -0.003653 0.000000 0.000000 0.000000
# 2 -0.001594 0.010049 -0.004126 0.000000 0.000000 0.000000
# 3 -0.003653 -0.004126 0.012053 0.000000 0.000000 0.000000
# 4 0.000000 0.000000 0.000000 0.036383 0.000000 0.000000
# 5 0.000000 0.000000 0.000000 0.000000 0.030182 0.000000
# 6 0.000000 0.000000 0.000000 0.000000 0.000000 0.031084
#
#
# Mechanical properties :
#
#
# Convention : Reuss Voigt Hill
#
# Bulk Modulus (GPa) = 62.76952 64.53430 63.65191
# Shear Modulus (GPa) = 31.97218 32.59691 32.28455
#
# Velocity S-wave (km/s) = 3.85775 3.89525 3.87655
# Velocity P-wave (km/s) = 7.00432 7.09011 7.04735
#
# Compressibility (1/GPa) = 0.01593130
#
# Stress axis : x y z
#
# Youngs Moduli (GPa) = 79.51103 99.51661 82.96543
#
# Poissons Ratio (x) = 0.15867 0.30309
# Poissons Ratio (y) = 0.12677 0.34232
# Poissons Ratio (z) = 0.29047 0.41061
#
# Static dielectric constant tensor:
#      x y z
#    x 3.920220 0.000000 0.000000 
#    y 0.000000 3.977210 0.000000 
#    z 0.000000 0.000000 3.819820 
# 
# 
# High freq. dielectric constant tensor:
#      x y z
#    x 1.851260 0.000000 0.000000 
#    y 0.000000 1.854850 0.000000 
#    z 0.000000 0.000000 1.836040 
# 
# From -- ./inp_files/605.got.cif
#   From: 2010.03.12/outbox.cif.g09.slc.cpg/sg34_1_cif.got.tgz:605.got - 2010.04.14 01:56:33.
