data_PCOD8171165
_publ_section_title
;
Structure prediction by ZEFSAII (Michael W. Deem and Ramdas Pophale) SiO2 
 PCOD8171165
Probable space group: P N A 21
;
_chemical_formula_sum "Si O2"
_cell_formula_units_Z 28
_cell_length_a 19.411792
_cell_length_b 12.944380
_cell_length_c 5.109368
_cell_angle_alpha 90.000000
_cell_angle_beta 90.000000
_cell_angle_gamma 90.000000
_cell_volume 1283.849353
_symmetry_space_group_name_H-M "P N A 21"
_symmetry_group_IT_number 33
_symmetry_cell_setting 'orthorhombic'
loop_
_space_group_symop_operation_xyz
x,y,z
-x,-y,1/2+z
1/2-x,1/2+y,1/2+z
1/2+x,1/2-y,z
loop_
_atom_site_type_symbol
_atom_site_label
_atom_site_fract_x
_atom_site_fract_y
_atom_site_fract_z
Si Si1 0.251888 0.064009 0.130260
Si Si2 0.968236 0.547707 0.603598
Si Si3 0.354612 0.909232 0.253765
Si Si4 0.418903 0.768091 0.874064
Si Si5 0.039127 0.033594 0.473091
Si Si6 0.685671 0.518052 0.652640
Si Si7 0.770307 0.712368 0.623199
O O1 0.228309 0.036389 0.422615
O O2 0.273768 0.183144 0.107204
O O3 0.318955 0.993792 0.063082
O O4 0.190934 0.048960 0.918118
O O5 0.890185 0.528420 0.496273
O O6 0.969521 0.672072 0.669838
O O7 0.021399 0.518438 0.370766
O O8 0.295041 0.829538 0.341927
O O9 0.416678 0.844255 0.124175
O O10 0.338820 0.763029 0.790366
O O11 0.447729 0.655772 0.940556
O O12 0.106567 0.972825 0.569391
O O13 0.018362 0.984432 0.195058
O O14 0.717297 0.628422 0.737557
#
# Coordination Sequence:
#
# PCOD8171165 Si02
#       7
#     4   4   4   4   4   4   4
#     4  11  22  40  70 102 133 169 221 296 351 410
#     4  11  23  41  67  98 136 180 232 286 337 422
#     4  10  22  40  69 102 133 180 230 278 359 428
#     4  11  22  45  74  94 136 188 240 277 365 417
#     4  12  28  46  70 101 143 197 240 288 341 437
#     4  11  23  43  68 101 136 172 237 282 345 423
#     4  10  22  39  70 102 131 176 224 297 358 399
#
# _framework density 21.809411999999998
#
# number of rings (size 3 to 8) (size 9 to 14) (size 15 to 20)
#    0.000    1.143    4.286    1.714    4.000    0.000 
#    2.571    1.429    3.143    0.000    0.000    0.000 
#    0.000    0.000    0.000    0.000    0.000    0.000 
#
# Total GULP energy -346935.358768 kJ/mol
# GULP energy per Si atom -12390.548527 kJ/mol
# Density = 2.175977 g / cm^3
# Si number density = 21.809412 Si / 1000 Ang^3
#
#
#
# Elastic Constant Matrix: (Units=GPa)
#
#
# Indices 1 2 3 4 5 6 
#
# 1 77.4973 66.7247 27.2857 0.0000 0.0000 0.0000
# 2 66.7247 170.0608 54.4251 0.0000 0.0000 0.0000
# 3 27.2857 54.4251 108.3208 0.0000 0.0000 0.0000
# 4 0.0000 0.0000 0.0000 29.1892 0.0000 0.0000
# 5 0.0000 0.0000 0.0000 0.0000 39.8955 0.0000
# 6 0.0000 0.0000 0.0000 0.0000 0.0000 42.0575
#
#
#
# Elastic Compliance Matrix: (Units=1/GPa)
#
#
# Indices 1 2 3 4 5 6 
#
# 1 0.019635 -0.007294 -0.001281 0.000000 0.000000 0.000000
# 2 -0.007294 0.009716 -0.003045 0.000000 0.000000 0.000000
# 3 -0.001281 -0.003045 0.011084 0.000000 0.000000 0.000000
# 4 0.000000 0.000000 0.000000 0.034259 0.000000 0.000000
# 5 0.000000 0.000000 0.000000 0.000000 0.025065 0.000000
# 6 0.000000 0.000000 0.000000 0.000000 0.000000 0.023777
#
#
# Mechanical properties :
#
#
# Convention : Reuss Voigt Hill
#
# Bulk Modulus (GPa) = 58.15265 72.52775 65.34020
# Shear Modulus (GPa) = 32.78506 36.05801 34.42153
#
# Velocity S-wave (km/s) = 3.88139 4.07052 3.97708
# Velocity P-wave (km/s) = 6.84169 7.44444 7.14942
#
# Compressibility (1/GPa) = 0.01719612
#
# Stress axis : x y z
#
# Youngs Moduli (GPa) = 50.93024 102.91851 90.21738
#
# Poissons Ratio (x) = 0.75067 0.11559
# Poissons Ratio (y) = 0.37148 0.27468
# Poissons Ratio (z) = 0.06525 0.31335
#
# Static dielectric constant tensor:
#      x y z
#    x 3.865990 0.000000 0.000000 
#    y 0.000000 4.035320 0.000000 
#    z 0.000000 0.000000 4.112190 
# 
# 
# High freq. dielectric constant tensor:
#      x y z
#    x 1.835400 0.000000 0.000000 
#    y 0.000000 1.854690 0.000000 
#    z 0.000000 0.000000 1.871090 
# 
# From -- ./inp_files/1997.got.cif
#   From: 2010.03.12/outbox.cif.g09.slc.cpg/sg33_1_cif.got.tgz:1997.got - 2010.04.14 01:49:19.
