data_PCOD8171548
_publ_section_title
;
Structure prediction by ZEFSAII (Michael W. Deem and Ramdas Pophale) SiO2 
 PCOD8171548
Probable space group: P N A 21
;
_chemical_formula_sum "Si O2"
_cell_formula_units_Z 20
_cell_length_a 5.215140
_cell_length_b 15.939508
_cell_length_c 8.514751
_cell_angle_alpha 90.000000
_cell_angle_beta 90.000000
_cell_angle_gamma 90.000000
_cell_volume 707.803712
_symmetry_space_group_name_H-M "P N A 21"
_symmetry_group_IT_number 33
_symmetry_cell_setting 'orthorhombic'
loop_
_space_group_symop_operation_xyz
x,y,z
-x,-y,1/2+z
1/2-x,1/2+y,1/2+z
1/2+x,1/2-y,z
loop_
_atom_site_type_symbol
_atom_site_label
_atom_site_fract_x
_atom_site_fract_y
_atom_site_fract_z
Si Si1 0.898613 0.149300 0.121840
Si Si2 0.329862 0.705958 0.904297
Si Si3 0.663797 0.524319 0.117593
Si Si4 0.612269 0.698921 0.265212
Si Si5 0.017693 0.429243 0.333683
O O1 0.636367 0.147307 0.227048
O O2 0.126433 0.199981 0.212253
O O3 0.864425 0.188310 0.951744
O O4 0.956792 0.049476 0.112669
O O5 0.620373 0.724222 0.967165
O O6 0.207393 0.614398 0.941718
O O7 0.549794 0.611848 0.178549
O O8 0.902688 0.503498 0.230538
O O9 0.761992 0.531279 0.939763
O O10 0.373297 0.756196 0.210163
#
# Coordination Sequence:
#
# PCOD8171548 Si02
#       5
#     4   4   4   4   4
#     4  11  24  46  81 111 150 208 262 324 393 490
#     4  11  22  41  68 108 144 189 244 314 383 456
#     4  11  27  48  78 112 158 211 272 325 402 478
#     4  12  30  51  77 118 165 207 263 339 412 473
#     4  11  25  46  76 109 151 205 271 322 390 485
#
# _framework density 28.256422000000001
#
# number of rings (size 3 to 8) (size 9 to 14) (size 15 to 20)
#    0.000    0.800    2.000    3.600   11.200    3.200 
#    0.000    0.000    0.000    0.000    0.000    0.000 
#    0.000    0.000    0.000    0.000    0.000    0.000 
#
# Total GULP energy -247963.119312 kJ/mol
# GULP energy per Si atom -12398.155966 kJ/mol
# Density = 2.819211 g / cm^3
# Si number density = 28.256422 Si / 1000 Ang^3
#
#
#
# Elastic Constant Matrix: (Units=GPa)
#
#
# Indices 1 2 3 4 5 6 
#
# 1 141.4015 46.2266 46.0827 0.0000 0.0000 0.0000
# 2 46.2266 118.3993 4.7927 0.0000 0.0000 0.0000
# 3 46.0827 4.7927 75.3472 0.0000 0.0000 0.0000
# 4 0.0000 0.0000 0.0000 50.0120 0.0000 0.0000
# 5 0.0000 0.0000 0.0000 0.0000 41.5944 0.0000
# 6 0.0000 0.0000 0.0000 0.0000 0.0000 45.0681
#
#
#
# Elastic Compliance Matrix: (Units=1/GPa)
#
#
# Indices 1 2 3 4 5 6 
#
# 1 0.010273 -0.003766 -0.006043 0.000000 0.000000 0.000000
# 2 -0.003766 0.009849 0.001677 0.000000 0.000000 0.000000
# 3 -0.006043 0.001677 0.016861 0.000000 0.000000 0.000000
# 4 0.000000 0.000000 0.000000 0.019995 0.000000 0.000000
# 5 0.000000 0.000000 0.000000 0.000000 0.024042 0.000000
# 6 0.000000 0.000000 0.000000 0.000000 0.000000 0.022189
#
#
# Mechanical properties :
#
#
# Convention : Reuss Voigt Hill
#
# Bulk Modulus (GPa) = 48.26815 58.81691 53.54253
# Shear Modulus (GPa) = 39.56346 43.20463 41.38404
#
# Velocity S-wave (km/s) = 3.74593 3.91451 3.83115
# Velocity P-wave (km/s) = 5.98570 6.42587 6.20968
#
# Compressibility (1/GPa) = 0.02071760
#
# Stress axis : x y z
#
# Youngs Moduli (GPa) = 97.34432 101.53790 59.30722
#
# Poissons Ratio (x) = 0.38241 0.35841
# Poissons Ratio (y) = 0.36662 -0.09946
# Poissons Ratio (z) = 0.58828 -0.17028
#
# Static dielectric constant tensor:
#      x y z
#    x 5.208300 0.000000 0.000000 
#    y 0.000000 5.127910 0.000000 
#    z 0.000000 0.000000 5.553420 
# 
# 
# High freq. dielectric constant tensor:
#      x y z
#    x 2.153370 0.000000 0.000000 
#    y 0.000000 2.156740 0.000000 
#    z 0.000000 0.000000 2.168110 
# 
# From -- ./inp_files/2652.got.cif
#   From: 2010.03.12/outbox.cif.g09.slc.cpg/sg33_2_cif.got.tgz:2652.got - 2010.04.14 01:49:19.
