data_PCOD8171735
_publ_section_title
;
Structure prediction by ZEFSAII (Michael W. Deem and Ramdas Pophale) SiO2 
 PCOD8171735
Probable space group: P N A 21
;
_chemical_formula_sum "Si O2"
_cell_formula_units_Z 32
_cell_length_a 29.574455
_cell_length_b 4.956085
_cell_length_c 9.089547
_cell_angle_alpha 90.000000
_cell_angle_beta 90.000000
_cell_angle_gamma 90.000000
_cell_volume 1332.286834
_symmetry_space_group_name_H-M "P N A 21"
_symmetry_group_IT_number 33
_symmetry_cell_setting 'orthorhombic'
loop_
_space_group_symop_operation_xyz
x,y,z
-x,-y,1/2+z
1/2-x,1/2+y,1/2+z
1/2+x,1/2-y,z
loop_
_atom_site_type_symbol
_atom_site_label
_atom_site_fract_x
_atom_site_fract_y
_atom_site_fract_z
Si Si1 0.963812 0.140142 0.201770
Si Si2 0.044141 0.950604 0.374632
Si Si3 0.766251 0.763516 0.907713
Si Si4 0.097782 0.615380 0.179924
Si Si5 0.768883 0.760150 0.574052
Si Si6 0.867291 0.695320 0.929125
Si Si7 0.405157 0.864321 0.233771
Si Si8 0.871388 0.866962 0.521570
O O1 0.946767 0.833612 0.204516
O O2 0.927336 0.346198 0.272661
O O3 0.972629 0.191418 0.026920
O O4 0.007567 0.157739 0.307301
O O5 0.092838 0.094393 0.389740
O O6 0.050757 0.714918 0.251912
O O7 0.749144 0.773621 0.739251
O O8 0.819041 0.841371 0.919099
O O9 0.757761 0.465500 0.970119
O O10 0.737078 0.964561 0.006463
O O11 0.132309 0.558655 0.316410
O O12 0.091419 0.327608 0.099378
O O13 0.116642 0.824559 0.058172
O O14 0.822043 0.814474 0.584536
O O15 0.874128 0.582969 0.092478
O O16 0.372821 0.717436 0.351509
#
# Coordination Sequence:
#
# PCOD8171735 Si02
#       8
#     4   4   4   4   4   4   4   4
#     4  11  27  44  71 103 148 177 251 294 364 426
#     4  11  26  47  73 107 141 197 240 304 362 441
#     4  12  28  48  77 109 150 196 245 309 368 445
#     4  12  23  46  74 102 136 198 236 289 355 445
#     4  12  28  48  73 114 146 191 250 306 370 437
#     4  11  26  50  77  99 150 196 246 287 380 444
#     4  11  27  47  69 109 138 192 235 308 360 432
#     4  12  27  46  76 103 147 185 249 295 369 436
#
# _framework density 24.01885
#
# number of rings (size 3 to 8) (size 9 to 14) (size 15 to 20)
#    0.000    0.500    3.750    2.250   12.250    0.000 
#    0.000    0.000    0.000    0.000    0.000    0.000 
#    0.000    0.000    0.000    0.000    0.000    0.000 
#
# Total GULP energy -396756.957656 kJ/mol
# GULP energy per Si atom -12398.654927 kJ/mol
# Density = 2.396418 g / cm^3
# Si number density = 24.018850 Si / 1000 Ang^3
#
#
#
# Elastic Constant Matrix: (Units=GPa)
#
#
# Indices 1 2 3 4 5 6 
#
# 1 52.0395 6.4950 17.7683 0.0000 0.0000 0.0000
# 2 6.4950 86.7723 23.8678 0.0000 0.0000 0.0000
# 3 17.7683 23.8678 132.2210 0.0000 0.0000 0.0000
# 4 0.0000 0.0000 0.0000 42.1089 0.0000 0.0000
# 5 0.0000 0.0000 0.0000 0.0000 33.4558 0.0000
# 6 0.0000 0.0000 0.0000 0.0000 0.0000 31.4013
#
#
#
# Elastic Compliance Matrix: (Units=1/GPa)
#
#
# Indices 1 2 3 4 5 6 
#
# 1 0.020194 -0.000805 -0.002568 0.000000 0.000000 0.000000
# 2 -0.000805 0.012159 -0.002087 0.000000 0.000000 0.000000
# 3 -0.002568 -0.002087 0.008285 0.000000 0.000000 0.000000
# 4 0.000000 0.000000 0.000000 0.023748 0.000000 0.000000
# 5 0.000000 0.000000 0.000000 0.000000 0.029890 0.000000
# 6 0.000000 0.000000 0.000000 0.000000 0.000000 0.031846
#
#
# Mechanical properties :
#
#
# Convention : Reuss Voigt Hill
#
# Bulk Modulus (GPa) = 33.65072 40.81055 37.23063
# Shear Modulus (GPa) = 34.02592 36.25331 35.13961
#
# Velocity S-wave (km/s) = 3.76790 3.88927 3.82907
# Velocity P-wave (km/s) = 5.74195 6.09890 5.92311
#
# Compressibility (1/GPa) = 0.02971705
#
# Stress axis : x y z
#
# Youngs Moduli (GPa) = 49.52071 82.24611 120.70150
#
# Poissons Ratio (x) = 0.06621 0.31000
# Poissons Ratio (y) = 0.03987 0.25186
# Poissons Ratio (z) = 0.12719 0.17162
#
# Static dielectric constant tensor:
#      x y z
#    x 4.003590 0.000000 0.000000 
#    y 0.000000 4.276710 0.000000 
#    z 0.000000 0.000000 4.743790 
# 
# 
# High freq. dielectric constant tensor:
#      x y z
#    x 1.931330 0.000000 0.000000 
#    y 0.000000 1.955880 0.000000 
#    z 0.000000 0.000000 1.975100 
# 
# From -- ./inp_files/5350.got.cif
#   From: 2010.03.12/outbox.cif.g09.slc.cpg/sg33_3_cif.got.tgz:5350.got - 2010.04.14 01:49:19.
