data_PCOD8171600
_publ_section_title
;
Structure prediction by ZEFSAII (Michael W. Deem and Ramdas Pophale) SiO2 
 PCOD8171600
Probable space group: P N A 21
;
_chemical_formula_sum "Si O2"
_cell_formula_units_Z 32
_cell_length_a 12.427591
_cell_length_b 5.321330
_cell_length_c 21.854119
_cell_angle_alpha 90.000000
_cell_angle_beta 90.000000
_cell_angle_gamma 90.000000
_cell_volume 1445.241580
_symmetry_space_group_name_H-M "P N A 21"
_symmetry_group_IT_number 33
_symmetry_cell_setting 'orthorhombic'
loop_
_space_group_symop_operation_xyz
x,y,z
-x,-y,1/2+z
1/2-x,1/2+y,1/2+z
1/2+x,1/2-y,z
loop_
_atom_site_type_symbol
_atom_site_label
_atom_site_fract_x
_atom_site_fract_y
_atom_site_fract_z
Si Si1 0.237189 0.620708 0.836270
Si Si2 0.157280 0.181834 0.977382
Si Si3 0.337039 0.802506 0.949359
Si Si4 0.022724 0.094486 0.091392
Si Si5 0.977825 0.541043 0.379869
Si Si6 0.204132 0.026021 0.562092
Si Si7 0.387577 0.105067 0.648123
Si Si8 0.660217 0.867521 0.288721
O O1 0.291793 0.584805 0.903732
O O2 0.108053 0.630267 0.843342
O O3 0.267384 0.382111 0.794250
O O4 0.274945 0.882152 0.806891
O O5 0.084299 0.255891 0.920156
O O6 0.249896 0.022766 0.945154
O O7 0.080913 0.039995 0.026376
O O8 0.211069 0.404283 0.015701
O O9 0.455276 0.873747 0.927183
O O10 0.351211 0.740234 0.020802
O O11 0.066893 0.338059 0.125973
O O12 0.894593 0.148130 0.084127
O O13 0.037798 0.840983 0.130743
O O14 0.056136 0.672523 0.331279
O O15 0.268091 0.141693 0.619473
O O16 0.379423 0.098197 0.720325
#
# Coordination Sequence:
#
# PCOD8171600 Si02
#       8
#     4   4   4   4   4   4   4   4
#     4  11  25  44  67 102 133 183 223 290 339 411
#     4  11  23  43  63 104 143 182 221 294 347 432
#     4  11  24  40  66 102 142 178 224 285 354 420
#     4  11  26  41  74  99 136 181 233 282 356 406
#     4  11  24  41  70 101 139 183 229 282 355 415
#     4  11  25  41  67 102 139 184 224 291 353 417
#     4  11  26  50  68 102 137 186 237 290 333 421
#     4  11  27  48  71  98 141 183 243 282 341 408
#
# _framework density 22.141628999999998
#
# number of rings (size 3 to 8) (size 9 to 14) (size 15 to 20)
#    0.000    1.000    2.500    3.000    8.750    5.000 
#    0.000    0.000    0.000    0.000    0.000    0.000 
#    0.000    0.000    0.000    0.000    0.000    0.000 
#
# Total GULP energy -396760.733265 kJ/mol
# GULP energy per Si atom -12398.772915 kJ/mol
# Density = 2.209123 g / cm^3
# Si number density = 22.141629 Si / 1000 Ang^3
#
#
#
# Elastic Constant Matrix: (Units=GPa)
#
#
# Indices 1 2 3 4 5 6 
#
# 1 130.5956 37.5932 49.6917 0.0000 0.0000 0.0000
# 2 37.5932 112.2345 40.7032 0.0000 0.0000 0.0000
# 3 49.6917 40.7032 134.6892 0.0000 0.0000 0.0000
# 4 0.0000 0.0000 0.0000 32.5928 0.0000 0.0000
# 5 0.0000 0.0000 0.0000 0.0000 29.3366 0.0000
# 6 0.0000 0.0000 0.0000 0.0000 0.0000 23.6639
#
#
#
# Elastic Compliance Matrix: (Units=1/GPa)
#
#
# Indices 1 2 3 4 5 6 
#
# 1 0.009332 -0.002108 -0.002806 0.000000 0.000000 0.000000
# 2 -0.002108 0.010483 -0.002390 0.000000 0.000000 0.000000
# 3 -0.002806 -0.002390 0.009182 0.000000 0.000000 0.000000
# 4 0.000000 0.000000 0.000000 0.030682 0.000000 0.000000
# 5 0.000000 0.000000 0.000000 0.000000 0.034087 0.000000
# 6 0.000000 0.000000 0.000000 0.000000 0.000000 0.042258
#
#
# Mechanical properties :
#
#
# Convention : Reuss Voigt Hill
#
# Bulk Modulus (GPa) = 69.50021 70.38838 69.94430
# Shear Modulus (GPa) = 32.16929 33.75408 32.96169
#
# Velocity S-wave (km/s) = 3.81581 3.90867 3.86252
# Velocity P-wave (km/s) = 7.13239 7.22699 7.17984
#
# Compressibility (1/GPa) = 0.01438845
#
# Stress axis : x y z
#
# Youngs Moduli (GPa) = 107.16229 95.39385 108.90958
#
# Poissons Ratio (x) = 0.20110 0.30557
# Poissons Ratio (y) = 0.22591 0.26031
# Poissons Ratio (z) = 0.30067 0.22801
#
# Static dielectric constant tensor:
#      x y z
#    x 4.345010 0.000000 0.000000 
#    y 0.000000 3.801040 0.000000 
#    z 0.000000 0.000000 4.171300 
# 
# 
# High freq. dielectric constant tensor:
#      x y z
#    x 1.884610 0.000000 0.000000 
#    y 0.000000 1.863900 0.000000 
#    z 0.000000 0.000000 1.873320 
# 
# From -- ./inp_files/9110.got.cif
#   From: 2010.03.12/outbox.cif.g09.slc.cpg/sg33_5_cif.got.tgz:9110.got - 2010.04.14 01:49:19.
