data_PCOD8171948
_publ_section_title
;
Structure prediction by ZEFSAII (Michael W. Deem and Ramdas Pophale) SiO2 
 PCOD8171948
Probable space group: P N N 2
;
_chemical_formula_sum "Si O2"
_cell_formula_units_Z 22
_cell_length_a 6.443756
_cell_length_b 11.268381
_cell_length_c 13.816385
_cell_angle_alpha 90.000000
_cell_angle_beta 90.000000
_cell_angle_gamma 90.000000
_cell_volume 1003.217354
_symmetry_space_group_name_H-M "P N N 2"
_symmetry_group_IT_number 34
_symmetry_cell_setting 'orthorhombic'
loop_
_space_group_symop_operation_xyz
x,y,z
-x,-y,z
1/2-x,1/2+y,1/2+z
1/2+x,1/2-y,1/2+z
loop_
_atom_site_type_symbol
_atom_site_label
_atom_site_fract_x
_atom_site_fract_y
_atom_site_fract_z
Si Si1 0.486339 0.374403 0.255930
Si Si2 0.349853 0.722008 0.832536
Si Si3 0.250802 0.343500 0.072213
Si Si4 0.038575 0.360507 0.520804
Si Si5 0.362477 0.239444 0.653230
Si Si6 0.000000 0.000000 0.428679
O O1 0.500000 0.500000 0.315377
O O2 0.388408 0.265811 0.317170
O O3 0.327290 0.405822 0.169995
O O4 0.708313 0.342506 0.213234
O O5 0.477260 0.711134 0.732470
O O6 0.351280 0.587378 0.869095
O O7 0.442109 0.814029 0.910729
O O8 0.343905 0.209557 0.066578
O O9 0.999525 0.336057 0.075434
O O10 0.331574 0.423298 0.985454
O O11 0.000000 0.500000 0.519698
O O12 0.239533 0.336281 0.589056
#
# Coordination Sequence:
#
# PCOD8171948 Si02
#       6
#     4   4   4   4   4   2
#     4  10  21  40  63  95 129 166 225 271 332 408
#     4  10  24  40  65  98 131 175 222 278 339 401
#     4   9  20  41  66  93 123 169 221 274 333 392
#     4  10  23  42  63  96 134 173 224 271 331 415
#     4  10  23  42  66  95 128 178 216 273 345 392
#     4  10  20  44  66  96 138 166 230 282 332 420
#
# _framework density 21.929444
#
# number of rings (size 3 to 8) (size 9 to 14) (size 15 to 20)
#    0.000    2.182    0.909    0.000    2.545   10.182 
#    0.000    5.455    0.000    0.000    0.000    0.000 
#    0.000    0.000    0.000    0.000    0.000    0.000 
#
# Total GULP energy -272570.162217 kJ/mol
# GULP energy per Si atom -12389.552828 kJ/mol
# Density = 2.187953 g / cm^3
# Si number density = 21.929444 Si / 1000 Ang^3
#
#
#
# Elastic Constant Matrix: (Units=GPa)
#
#
# Indices 1 2 3 4 5 6 
#
# 1 146.9674 66.2836 35.1717 0.0000 0.0000 0.0000
# 2 66.2836 178.0163 43.8455 0.0000 0.0000 0.0000
# 3 35.1717 43.8455 88.6770 0.0000 0.0000 0.0000
# 4 0.0000 0.0000 0.0000 21.8590 0.0000 0.0000
# 5 0.0000 0.0000 0.0000 0.0000 22.1293 0.0000
# 6 0.0000 0.0000 0.0000 0.0000 0.0000 21.0442
#
#
#
# Elastic Compliance Matrix: (Units=1/GPa)
#
#
# Indices 1 2 3 4 5 6 
#
# 1 0.008494 -0.002657 -0.002056 0.000000 0.000000 0.000000
# 2 -0.002657 0.007227 -0.002520 0.000000 0.000000 0.000000
# 3 -0.002056 -0.002520 0.013338 0.000000 0.000000 0.000000
# 4 0.000000 0.000000 0.000000 0.045748 0.000000 0.000000
# 5 0.000000 0.000000 0.000000 0.000000 0.045189 0.000000
# 6 0.000000 0.000000 0.000000 0.000000 0.000000 0.047519
#
#
# Mechanical properties :
#
#
# Convention : Reuss Voigt Hill
#
# Bulk Modulus (GPa) = 68.51280 78.25137 73.38209
# Shear Modulus (GPa) = 26.76023 30.89716 28.82870
#
# Velocity S-wave (km/s) = 3.49705 3.75765 3.62969
# Velocity P-wave (km/s) = 6.90044 7.38832 7.14854
#
# Compressibility (1/GPa) = 0.01459581
#
# Stress axis : x y z
#
# Youngs Moduli (GPa) = 117.72644 138.36561 74.97345
#
# Poissons Ratio (x) = 0.36757 0.15411
# Poissons Ratio (y) = 0.31274 0.18892
# Poissons Ratio (z) = 0.24199 0.34865
#
# Static dielectric constant tensor:
#      x y z
#    x 4.248690 0.000000 0.000000 
#    y 0.000000 3.905010 0.000000 
#    z 0.000000 0.000000 4.112890 
# 
# 
# High freq. dielectric constant tensor:
#      x y z
#    x 1.861830 0.000000 0.000000 
#    y 0.000000 1.856550 0.000000 
#    z 0.000000 0.000000 1.860510 
# 
# From -- ./inp_files/6045.got.cif
#   From: 2010.03.12/outbox.cif.g09.slc.cpg/sg34_4_cif.got.tgz:6045.got - 2010.04.14 01:56:33.
