data_PCOD8171613
_publ_section_title
;
Structure prediction by ZEFSAII (Michael W. Deem and Ramdas Pophale) SiO2 
 PCOD8171613
Probable space group: P N A 21
;
_chemical_formula_sum "Si O2"
_cell_formula_units_Z 24
_cell_length_a 9.052075
_cell_length_b 10.922824
_cell_length_c 8.268981
_cell_angle_alpha 90.000000
_cell_angle_beta 90.000000
_cell_angle_gamma 90.000000
_cell_volume 817.589064
_symmetry_space_group_name_H-M "P N A 21"
_symmetry_group_IT_number 33
_symmetry_cell_setting 'orthorhombic'
loop_
_space_group_symop_operation_xyz
x,y,z
-x,-y,1/2+z
1/2-x,1/2+y,1/2+z
1/2+x,1/2-y,z
loop_
_atom_site_type_symbol
_atom_site_label
_atom_site_fract_x
_atom_site_fract_y
_atom_site_fract_z
Si Si1 0.914280 0.708591 0.886830
Si Si2 0.615469 0.768730 0.321197
Si Si3 0.850964 0.675355 0.536077
Si Si4 0.303774 0.507005 0.334693
Si Si5 0.283567 0.086014 0.461779
Si Si6 0.895010 0.010317 0.679487
O O1 0.918374 0.741704 0.694705
O O2 0.797836 0.600035 0.902985
O O3 0.858762 0.825116 0.993138
O O4 0.070531 0.668684 0.957206
O O5 0.696262 0.734077 0.487602
O O6 0.457784 0.820901 0.379736
O O7 0.712703 0.881135 0.243858
O O8 0.599198 0.659756 0.191742
O O9 0.810408 0.531844 0.582403
O O10 0.443475 0.460260 0.232326
O O11 0.375685 0.552973 0.504119
O O12 0.246370 0.027422 0.287285
#
# Coordination Sequence:
#
# PCOD8171613 Si02
#       6
#     4   4   4   4   4   4
#     4  12  25  44  74 104 156 197 248 319 377 459
#     4  11  23  47  77 105 148 202 248 318 386 463
#     4  11  23  44  75 105 147 198 250 301 393 454
#     4  12  26  48  76 109 156 203 257 323 389 460
#     4  11  26  45  71 109 145 196 254 310 383 456
#     4  11  27  48  75 112 150 200 265 317 392 468
#
# _framework density 29.354599
#
# number of rings (size 3 to 8) (size 9 to 14) (size 15 to 20)
#    0.000    0.667    3.333    4.000    4.667    1.333 
#    3.000    0.000    0.000    0.000    0.000    0.000 
#    0.000    0.000    0.000    0.000    0.000    0.000 
#
# Total GULP energy -297584.696002 kJ/mol
# GULP energy per Si atom -12399.362333 kJ/mol
# Density = 2.928779 g / cm^3
# Si number density = 29.354599 Si / 1000 Ang^3
#
#
#
# Elastic Constant Matrix: (Units=GPa)
#
#
# Indices 1 2 3 4 5 6 
#
# 1 150.1066 44.2045 14.6431 0.0000 0.0000 0.0000
# 2 44.2045 119.3471 4.7438 0.0000 0.0000 0.0000
# 3 14.6431 4.7438 55.6916 0.0000 0.0000 0.0000
# 4 0.0000 0.0000 0.0000 59.5821 0.0000 0.0000
# 5 0.0000 0.0000 0.0000 0.0000 50.8565 0.0000
# 6 0.0000 0.0000 0.0000 0.0000 0.0000 66.7877
#
#
#
# Elastic Compliance Matrix: (Units=1/GPa)
#
#
# Indices 1 2 3 4 5 6 
#
# 1 0.007649 -0.002762 -0.001776 0.000000 0.000000 0.000000
# 2 -0.002762 0.009405 -0.000075 0.000000 0.000000 0.000000
# 3 -0.001776 -0.000075 0.018429 0.000000 0.000000 0.000000
# 4 0.000000 0.000000 0.000000 0.016784 0.000000 0.000000
# 5 0.000000 0.000000 0.000000 0.000000 0.019663 0.000000
# 6 0.000000 0.000000 0.000000 0.000000 0.000000 0.014973
#
#
# Mechanical properties :
#
#
# Convention : Reuss Voigt Hill
#
# Bulk Modulus (GPa) = 38.08494 50.25867 44.17180
# Shear Modulus (GPa) = 47.67317 52.88219 50.27768
#
# Velocity S-wave (km/s) = 4.03432 4.24901 4.14305
# Velocity P-wave (km/s) = 5.89094 6.42110 6.16172
#
# Compressibility (1/GPa) = 0.02625710
#
# Stress axis : x y z
#
# Youngs Moduli (GPa) = 130.74220 106.32600 54.26141
#
# Poissons Ratio (x) = 0.29371 0.09636
# Poissons Ratio (y) = 0.36116 0.00406
# Poissons Ratio (z) = 0.23217 0.00795
#
# Static dielectric constant tensor:
#      x y z
#    x 5.259020 0.000000 0.000000 
#    y 0.000000 5.834340 0.000000 
#    z 0.000000 0.000000 5.479680 
# 
# 
# High freq. dielectric constant tensor:
#      x y z
#    x 2.201280 0.000000 0.000000 
#    y 0.000000 2.224520 0.000000 
#    z 0.000000 0.000000 2.210210 
# 
# From -- ./inp_files/3051.got.cif
#   From: 2010.03.12/outbox.cif.g09.slc.cpg/sg33_2_cif.got.tgz:3051.got - 2010.04.14 01:49:19.
