data_PCOD8171305
_publ_section_title
;
Structure prediction by ZEFSAII (Michael W. Deem and Ramdas Pophale) SiO2 
 PCOD8171305
Probable space group: P N A 21
;
_chemical_formula_sum "Si O2"
_cell_formula_units_Z 28
_cell_length_a 20.852732
_cell_length_b 12.892737
_cell_length_c 5.021045
_cell_angle_alpha 90.000000
_cell_angle_beta 90.000000
_cell_angle_gamma 90.000000
_cell_volume 1349.901870
_symmetry_space_group_name_H-M "P N A 21"
_symmetry_group_IT_number 33
_symmetry_cell_setting 'orthorhombic'
loop_
_space_group_symop_operation_xyz
x,y,z
-x,-y,1/2+z
1/2-x,1/2+y,1/2+z
1/2+x,1/2-y,z
loop_
_atom_site_type_symbol
_atom_site_label
_atom_site_fract_x
_atom_site_fract_y
_atom_site_fract_z
Si Si1 0.835706 0.719362 0.288440
Si Si2 0.741508 0.866124 0.545899
Si Si3 0.941685 0.318186 0.351625
Si Si4 0.829204 0.176668 0.294087
Si Si5 0.912806 0.673241 0.784384
Si Si6 0.722565 0.570914 0.305769
Si Si7 0.607385 0.933305 0.360411
O O1 0.792600 0.821241 0.335627
O O2 0.894658 0.715087 0.493959
O O3 0.794849 0.614000 0.329547
O O4 0.863283 0.724149 0.991532
O O5 0.716911 0.774121 0.734874
O O6 0.684087 0.918463 0.377993
O O7 0.775651 0.950410 0.733247
O O8 0.902732 0.213905 0.275200
O O9 0.920472 0.355814 0.641573
O O10 0.016037 0.288749 0.352428
O O11 0.926620 0.408888 0.140666
O O12 0.815483 0.137819 0.588869
O O13 0.815251 0.084629 0.084059
O O14 0.909702 0.549641 0.787212
#
# Coordination Sequence:
#
# PCOD8171305 Si02
#       7
#     4   4   4   4   4   4   4
#     4  11  23  38  56  93 120 161 200 245 313 362
#     4  10  23  38  64  89 127 153 201 256 305 365
#     4  11  22  39  59  87 121 163 202 250 296 369
#     4  10  23  38  60  90 117 158 206 240 307 363
#     4  12  23  38  59  87 128 158 201 248 305 367
#     4  11  22  40  61  88 125 157 198 255 303 364
#     4  11  22  37  61  88 120 160 202 246 315 366
#
# _framework density 20.742251
#
# number of rings (size 3 to 8) (size 9 to 14) (size 15 to 20)
#    0.000    1.143    1.429    6.857    2.000    4.571 
#    0.000    0.000    0.000    3.429    0.000    0.000 
#    0.000    0.000    0.000    0.000    0.000    0.000 
#
# Total GULP energy -347392.742397 kJ/mol
# GULP energy per Si atom -12406.883657 kJ/mol
# Density = 2.069504 g / cm^3
# Si number density = 20.742251 Si / 1000 Ang^3
#
#
#
# Elastic Constant Matrix: (Units=GPa)
#
#
# Indices 1 2 3 4 5 6 
#
# 1 97.1283 15.8802 9.6214 0.0000 0.0000 0.0000
# 2 15.8802 63.2094 -3.1919 0.0000 0.0000 0.0000
# 3 9.6214 -3.1919 71.2282 0.0000 0.0000 0.0000
# 4 0.0000 0.0000 0.0000 32.1835 0.0000 0.0000
# 5 0.0000 0.0000 0.0000 0.0000 23.2664 0.0000
# 6 0.0000 0.0000 0.0000 0.0000 0.0000 16.7844
#
#
#
# Elastic Compliance Matrix: (Units=1/GPa)
#
#
# Indices 1 2 3 4 5 6 
#
# 1 0.010916 -0.002823 -0.001601 0.000000 0.000000 0.000000
# 2 -0.002823 0.016587 0.001125 0.000000 0.000000 0.000000
# 3 -0.001601 0.001125 0.014306 0.000000 0.000000 0.000000
# 4 0.000000 0.000000 0.000000 0.031072 0.000000 0.000000
# 5 0.000000 0.000000 0.000000 0.000000 0.042980 0.000000
# 6 0.000000 0.000000 0.000000 0.000000 0.000000 0.059579
#
#
# Mechanical properties :
#
#
# Convention : Reuss Voigt Hill
#
# Bulk Modulus (GPa) = 28.40171 30.68726 29.54449
# Shear Modulus (GPa) = 25.80310 28.39730 27.10020
#
# Velocity S-wave (km/s) = 3.53085 3.70409 3.61851
# Velocity P-wave (km/s) = 5.50862 5.75503 5.63317
#
# Compressibility (1/GPa) = 0.03520914
#
# Stress axis : x y z
#
# Youngs Moduli (GPa) = 91.60998 60.28999 69.90056
#
# Poissons Ratio (x) = 0.17021 0.11191
# Poissons Ratio (y) = 0.25864 -0.07861
# Poissons Ratio (z) = 0.14667 -0.06780
#
# Static dielectric constant tensor:
#      x y z
#    x 3.848550 0.000000 0.000000 
#    y 0.000000 3.563260 0.000000 
#    z 0.000000 0.000000 3.897590 
# 
# 
# High freq. dielectric constant tensor:
#      x y z
#    x 1.802310 0.000000 0.000000 
#    y 0.000000 1.789080 0.000000 
#    z 0.000000 0.000000 1.829990 
# 
# From -- ./inp_files/1748.got.cif
#   From: 2010.03.12/outbox.cif.g09.slc.cpg/sg33_1_cif.got.tgz:1748.got - 2010.04.14 01:49:19.
