data_PCOD8171908
_publ_section_title
;
Structure prediction by ZEFSAII (Michael W. Deem and Ramdas Pophale) SiO2 
 PCOD8171908
Probable space group: P N N 2
;
_chemical_formula_sum "Si O2"
_cell_formula_units_Z 30
_cell_length_a 5.177065
_cell_length_b 9.468891
_cell_length_c 29.895656
_cell_angle_alpha 90.000000
_cell_angle_beta 90.000000
_cell_angle_gamma 90.000000
_cell_volume 1465.516872
_symmetry_space_group_name_H-M "P N N 2"
_symmetry_group_IT_number 34
_symmetry_cell_setting 'orthorhombic'
loop_
_space_group_symop_operation_xyz
x,y,z
-x,-y,z
1/2-x,1/2+y,1/2+z
1/2+x,1/2-y,1/2+z
loop_
_atom_site_type_symbol
_atom_site_label
_atom_site_fract_x
_atom_site_fract_y
_atom_site_fract_z
Si Si1 0.000000 0.500000 0.664790
Si Si2 0.007068 0.335751 0.309635
Si Si3 0.007867 0.663412 0.953102
Si Si4 0.899474 0.851452 0.225391
Si Si5 0.504201 0.154738 0.650775
Si Si6 0.499126 0.664662 0.364084
Si Si7 0.462486 0.749815 0.106120
Si Si8 0.510166 0.664562 0.009208
O O1 0.144884 0.607886 0.697807
O O2 0.139126 0.395955 0.629092
O O3 0.119109 0.249824 0.267625
O O4 0.215450 0.297839 0.347272
O O5 0.000000 0.500000 0.296439
O O6 0.722249 0.293042 0.327548
O O7 0.783754 0.701639 0.987685
O O8 0.000000 0.500000 0.939462
O O9 0.949378 0.751085 0.908941
O O10 0.282288 0.703731 0.974758
O O11 0.074888 0.768365 0.189274
O O12 0.000000 0.000000 0.243313
O O13 0.276472 0.144143 0.614241
O O14 0.773500 0.193049 0.627515
O O15 0.500000 0.000000 0.673501
O O16 0.500000 0.500000 0.375284
O O17 0.491450 0.763218 0.052870
O O18 0.500000 0.500000 0.023125
#
# Coordination Sequence:
#
# PCOD8171908 Si02
#       8
#     2   4   4   4   4   4   4   4
#     4  10  24  42  58  88 134 170 196 272 306 368
#     4  10  23  40  64  89 118 158 204 254 292 370
#     4  10  21  38  61  87 123 153 195 247 310 363
#     4  11  23  40  60  86 126 160 203 250 314 356
#     4  11  22  37  61  86 116 163 207 253 298 360
#     4  10  22  42  62  89 121 153 196 249 312 364
#     4  11  22  39  60  86 125 162 210 249 313 349
#     4  10  20  36  59  89 117 157 203 253 289 360
#
# _framework density 20.470593999999998
#
# number of rings (size 3 to 8) (size 9 to 14) (size 15 to 20)
#    0.000    1.600    1.333    3.200    1.867    2.133 
#    2.400    2.667    0.000    0.000    0.000    0.000 
#    0.000    0.000    0.000    0.000    0.000    0.000 
#
# Total GULP energy -371683.297172 kJ/mol
# GULP energy per Si atom -12389.443239 kJ/mol
# Density = 2.042400 g / cm^3
# Si number density = 20.470594 Si / 1000 Ang^3
#
#
#
# Elastic Constant Matrix: (Units=GPa)
#
#
# Indices 1 2 3 4 5 6 
#
# 1 107.7265 24.2634 33.8700 0.0000 0.0000 0.0000
# 2 24.2634 75.4123 72.4491 0.0000 0.0000 0.0000
# 3 33.8700 72.4491 113.1332 0.0000 0.0000 0.0000
# 4 0.0000 0.0000 0.0000 50.4830 0.0000 0.0000
# 5 0.0000 0.0000 0.0000 0.0000 26.5835 0.0000
# 6 0.0000 0.0000 0.0000 0.0000 0.0000 5.0570
#
#
#
# Elastic Compliance Matrix: (Units=1/GPa)
#
#
# Indices 1 2 3 4 5 6 
#
# 1 0.010271 -0.000911 -0.002492 0.000000 0.000000 0.000000
# 2 -0.000911 0.034544 -0.021849 0.000000 0.000000 0.000000
# 3 -0.002492 -0.021849 0.023577 0.000000 0.000000 0.000000
# 4 0.000000 0.000000 0.000000 0.019809 0.000000 0.000000
# 5 0.000000 0.000000 0.000000 0.000000 0.037617 0.000000
# 6 0.000000 0.000000 0.000000 0.000000 0.000000 0.197746
#
#
# Mechanical properties :
#
#
# Convention : Reuss Voigt Hill
#
# Bulk Modulus (GPa) = 55.89975 61.93745 58.91860
# Shear Modulus (GPa) = 13.15690 27.47065 20.31377
#
# Velocity S-wave (km/s) = 2.53795 3.66725 3.15356
# Velocity P-wave (km/s) = 5.99624 6.94652 6.48880
#
# Compressibility (1/GPa) = 0.01788917
#
# Stress axis : x y z
#
# Youngs Moduli (GPa) = 97.35818 28.94893 42.41482
#
# Poissons Ratio (x) = 0.02637 0.10568
# Poissons Ratio (y) = 0.08869 0.92670
# Poissons Ratio (z) = 0.24259 0.63249
#
# Static dielectric constant tensor:
#      x y z
#    x 3.723050 0.000000 0.000000 
#    y 0.000000 3.902900 0.000000 
#    z 0.000000 0.000000 3.569410 
# 
# 
# High freq. dielectric constant tensor:
#      x y z
#    x 1.807690 0.000000 0.000000 
#    y 0.000000 1.798090 0.000000 
#    z 0.000000 0.000000 1.798470 
# 
# From -- ./inp_files/8649.got.cif
#   From: 2010.03.12/outbox.cif.g09.slc.cpg/sg34_5_cif.got.tgz:8649.got - 2010.04.14 01:56:33.
