data_PCOD8171822
_publ_section_title
;
Structure prediction by ZEFSAII (Michael W. Deem and Ramdas Pophale) SiO2 
 PCOD8171822
Probable space group: P N N 2
;
_chemical_formula_sum "Si O2"
_cell_formula_units_Z 32
_cell_length_a 14.819073
_cell_length_b 9.407895
_cell_length_c 11.745442
_cell_angle_alpha 90.000000
_cell_angle_beta 90.000000
_cell_angle_gamma 90.000000
_cell_volume 1637.505863
_symmetry_space_group_name_H-M "P N N 2"
_symmetry_group_IT_number 34
_symmetry_cell_setting 'orthorhombic'
loop_
_space_group_symop_operation_xyz
x,y,z
-x,-y,z
1/2-x,1/2+y,1/2+z
1/2+x,1/2-y,1/2+z
loop_
_atom_site_type_symbol
_atom_site_label
_atom_site_fract_x
_atom_site_fract_y
_atom_site_fract_z
Si Si1 0.216513 0.965779 0.038870
Si Si2 0.746281 0.029775 0.699094
Si Si3 0.715180 0.209032 0.232597
Si Si4 0.583365 0.599719 0.352216
Si Si5 0.233655 0.789229 0.483189
Si Si6 0.048532 0.687306 0.478925
Si Si7 0.125395 0.393320 0.392511
Si Si8 0.008340 0.341097 0.732343
O O1 0.225638 0.913381 0.169253
O O2 0.119634 0.928980 0.980952
O O3 0.288160 0.866678 0.971911
O O4 0.238347 0.133252 0.030224
O O5 0.838417 0.071822 0.761105
O O6 0.740773 0.088438 0.571779
O O7 0.659463 0.099062 0.762568
O O8 0.739268 0.859309 0.700625
O O9 0.715162 0.178639 0.366969
O O10 0.609857 0.206486 0.202257
O O11 0.500000 0.500000 0.323463
O O12 0.542796 0.755990 0.332563
O O13 0.126547 0.802234 0.455346
O O14 0.082054 0.540775 0.427750
O O15 0.952593 0.725858 0.416900
O O16 0.044146 0.674600 0.614402
O O17 0.000000 0.500000 0.777637
#
# Coordination Sequence:
#
# PCOD8171822 Si02
#       8
#     4   4   4   4   4   4   4   4
#     4  10  21  40  62  85 126 172 204 255 326 378
#     4  11  22  37  64  93 127 166 207 262 327 377
#     4  12  23  41  61  96 131 164 209 272 321 379
#     4  11  21  39  62  88 127 173 205 260 330 376
#     4  11  22  41  62  92 128 167 208 267 322 383
#     4  10  16  33  62  86 115 159 212 252 305 368
#     4   9  17  35  59  88 115 159 202 251 312 369
#     4  12  21  34  64  97 118 163 226 266 304 383
#
# _framework density 19.541913999999998
#
# number of rings (size 3 to 8) (size 9 to 14) (size 15 to 20)
#    0.000    1.250    8.750    0.750    0.000    1.000 
#    2.250    2.500    2.750    0.750    0.000    0.000 
#    0.000    0.000    0.000    0.000    0.000    0.000 
#
# Total GULP energy -396555.796582 kJ/mol
# GULP energy per Si atom -12392.368643 kJ/mol
# Density = 1.949744 g / cm^3
# Si number density = 19.541914 Si / 1000 Ang^3
#
#
#
# Elastic Constant Matrix: (Units=GPa)
#
#
# Indices 1 2 3 4 5 6 
#
# 1 76.8771 20.3788 26.9410 0.0000 0.0000 0.0000
# 2 20.3788 63.5431 43.6216 0.0000 0.0000 0.0000
# 3 26.9410 43.6216 106.6866 0.0000 0.0000 0.0000
# 4 0.0000 0.0000 0.0000 31.9464 0.0000 0.0000
# 5 0.0000 0.0000 0.0000 0.0000 27.6152 0.0000
# 6 0.0000 0.0000 0.0000 0.0000 0.0000 22.7724
#
#
#
# Elastic Compliance Matrix: (Units=1/GPa)
#
#
# Indices 1 2 3 4 5 6 
#
# 1 0.014672 -0.003006 -0.002476 0.000000 0.000000 0.000000
# 2 -0.003006 0.022494 -0.008438 0.000000 0.000000 0.000000
# 3 -0.002476 -0.008438 0.013449 0.000000 0.000000 0.000000
# 4 0.000000 0.000000 0.000000 0.031302 0.000000 0.000000
# 5 0.000000 0.000000 0.000000 0.000000 0.036212 0.000000
# 6 0.000000 0.000000 0.000000 0.000000 0.000000 0.043913
#
#
# Mechanical properties :
#
#
# Convention : Reuss Voigt Hill
#
# Bulk Modulus (GPa) = 43.90801 47.66549 45.78675
# Shear Modulus (GPa) = 25.31977 26.87782 26.09879
#
# Velocity S-wave (km/s) = 3.60344 3.71265 3.65845
# Velocity P-wave (km/s) = 6.31114 6.54391 6.42858
#
# Compressibility (1/GPa) = 0.02277489
#
# Stress axis : x y z
#
# Youngs Moduli (GPa) = 68.15577 44.45616 74.35640
#
# Poissons Ratio (x) = 0.13362 0.18412
# Poissons Ratio (y) = 0.20485 0.62744
# Poissons Ratio (z) = 0.16876 0.37513
#
# Static dielectric constant tensor:
#      x y z
#    x 4.157990 0.000000 0.000000 
#    y 0.000000 3.413220 0.000000 
#    z 0.000000 0.000000 3.496750 
# 
# 
# High freq. dielectric constant tensor:
#      x y z
#    x 1.770080 0.000000 0.000000 
#    y 0.000000 1.733450 0.000000 
#    z 0.000000 0.000000 1.748190 
# 
# From -- ./inp_files/5677.got.cif
#   From: 2010.03.12/outbox.cif.g09.slc.cpg/sg34_3_cif.got.tgz:5677.got - 2010.04.14 01:56:33.
