data_PCOD8171684
_publ_section_title
;
Structure prediction by ZEFSAII (Michael W. Deem and Ramdas Pophale) SiO2 
 PCOD8171684
Probable space group: P N A 21
;
_chemical_formula_sum "Si O2"
_cell_formula_units_Z 32
_cell_length_a 13.801484
_cell_length_b 5.160375
_cell_length_c 18.582112
_cell_angle_alpha 90.000000
_cell_angle_beta 90.000000
_cell_angle_gamma 90.000000
_cell_volume 1323.433495
_symmetry_space_group_name_H-M "P N A 21"
_symmetry_group_IT_number 33
_symmetry_cell_setting 'orthorhombic'
loop_
_space_group_symop_operation_xyz
x,y,z
-x,-y,1/2+z
1/2-x,1/2+y,1/2+z
1/2+x,1/2-y,z
loop_
_atom_site_type_symbol
_atom_site_label
_atom_site_fract_x
_atom_site_fract_y
_atom_site_fract_z
Si Si1 0.747986 0.228649 0.692320
Si Si2 0.090279 0.542960 0.941454
Si Si3 0.999184 0.854778 0.815599
Si Si4 0.374058 0.134651 0.824744
Si Si5 0.645738 0.605000 0.055213
Si Si6 0.874229 0.223940 0.178213
Si Si7 0.545575 0.682734 0.526829
Si Si8 0.733637 0.750763 0.457718
O O1 0.793927 0.280690 0.768657
O O2 0.835519 0.150524 0.638850
O O3 0.697874 0.486119 0.660586
O O4 0.676264 0.988240 0.702694
O O5 0.177235 0.365869 0.910127
O O6 0.062400 0.766698 0.884995
O O7 0.154951 0.634306 0.009871
O O8 0.995174 0.398310 0.970857
O O9 0.921169 0.632434 0.798701
O O10 0.061519 0.882770 0.743810
O O11 0.953500 0.134740 0.834056
O O12 0.319938 0.069446 0.899169
O O13 0.533960 0.537090 0.038254
O O14 0.724779 0.403837 0.026225
O O15 0.935146 0.296552 0.106774
O O16 0.646048 0.573102 0.491825
#
# Coordination Sequence:
#
# PCOD8171684 Si02
#       8
#     4   4   4   4   4   4   4   4
#     4  12  27  48  74 112 147 201 248 310 378 447
#     4  11  26  42  75 105 148 192 256 303 376 447
#     4  12  27  48  74 111 148 201 247 310 379 446
#     4  12  27  47  76 106 154 192 252 309 375 448
#     4  11  26  42  75 104 148 194 252 308 369 454
#     4  12  27  47  76 105 155 194 249 309 377 448
#     4  11  24  46  70 109 145 195 247 313 374 444
#     4  11  24  46  70 108 145 197 245 314 372 444
#
# _framework density 24.179528000000001
#
# number of rings (size 3 to 8) (size 9 to 14) (size 15 to 20)
#    0.000    0.500    2.500    4.500   10.500    1.000 
#    0.000    0.000    0.000    0.000    0.000    0.000 
#    0.000    0.000    0.000    0.000    0.000    0.000 
#
# Total GULP energy -396603.892264 kJ/mol
# GULP energy per Si atom -12393.871633 kJ/mol
# Density = 2.412449 g / cm^3
# Si number density = 24.179528 Si / 1000 Ang^3
#
#
#
# Elastic Constant Matrix: (Units=GPa)
#
#
# Indices 1 2 3 4 5 6 
#
# 1 130.0929 16.7276 42.8324 0.0000 0.0000 0.0000
# 2 16.7276 63.8965 -13.4213 0.0000 0.0000 0.0000
# 3 42.8324 -13.4213 95.9209 0.0000 0.0000 0.0000
# 4 0.0000 0.0000 0.0000 34.3407 0.0000 0.0000
# 5 0.0000 0.0000 0.0000 0.0000 37.9634 0.0000
# 6 0.0000 0.0000 0.0000 0.0000 0.0000 22.5027
#
#
#
# Elastic Compliance Matrix: (Units=1/GPa)
#
#
# Indices 1 2 3 4 5 6 
#
# 1 0.009743 -0.003569 -0.004850 0.000000 0.000000 0.000000
# 2 -0.003569 0.017432 0.004033 0.000000 0.000000 0.000000
# 3 -0.004850 0.004033 0.013155 0.000000 0.000000 0.000000
# 4 0.000000 0.000000 0.000000 0.029120 0.000000 0.000000
# 5 0.000000 0.000000 0.000000 0.000000 0.026341 0.000000
# 6 0.000000 0.000000 0.000000 0.000000 0.000000 0.044439
#
#
# Mechanical properties :
#
#
# Convention : Reuss Voigt Hill
#
# Bulk Modulus (GPa) = 31.68856 42.46530 37.07693
# Shear Modulus (GPa) = 31.34380 35.21280 33.27830
#
# Velocity S-wave (km/s) = 3.60432 3.82030 3.71388
# Velocity P-wave (km/s) = 5.51864 6.08771 5.81015
#
# Compressibility (1/GPa) = 0.03155713
#
# Stress axis : x y z
#
# Youngs Moduli (GPa) = 102.64283 57.36647 76.01578
#
# Poissons Ratio (x) = 0.20475 0.36866
# Poissons Ratio (y) = 0.36635 -0.30656
# Poissons Ratio (z) = 0.49780 -0.23135
#
# Static dielectric constant tensor:
#      x y z
#    x 4.554230 0.000000 0.000000 
#    y 0.000000 4.175860 0.000000 
#    z 0.000000 0.000000 4.370270 
# 
# 
# High freq. dielectric constant tensor:
#      x y z
#    x 1.978650 0.000000 0.000000 
#    y 0.000000 1.944950 0.000000 
#    z 0.000000 0.000000 1.976760 
# 
# From -- ./inp_files/8803.got.cif
#   From: 2010.03.12/outbox.cif.g09.slc.cpg/sg33_5_cif.got.tgz:8803.got - 2010.04.14 01:49:19.
