data_PCOD8171854
_publ_section_title
;
Structure prediction by ZEFSAII (Michael W. Deem and Ramdas Pophale) SiO2 
 PCOD8171854
Probable space group: P N N 2
;
_chemical_formula_sum "Si O2"
_cell_formula_units_Z 22
_cell_length_a 8.972418
_cell_length_b 8.085274
_cell_length_c 15.913567
_cell_angle_alpha 90.000000
_cell_angle_beta 90.000000
_cell_angle_gamma 90.000000
_cell_volume 1154.441092
_symmetry_space_group_name_H-M "P N N 2"
_symmetry_group_IT_number 34
_symmetry_cell_setting 'orthorhombic'
loop_
_space_group_symop_operation_xyz
x,y,z
-x,-y,z
1/2-x,1/2+y,1/2+z
1/2+x,1/2-y,1/2+z
loop_
_atom_site_type_symbol
_atom_site_label
_atom_site_fract_x
_atom_site_fract_y
_atom_site_fract_z
Si Si1 0.500000 0.000000 0.154280
Si Si2 0.258407 0.224179 0.948068
Si Si3 0.338304 0.971347 0.314251
Si Si4 0.237073 0.824354 0.790854
Si Si5 0.500000 0.000000 0.878493
Si Si6 0.386980 0.345362 0.107609
Si Si7 0.000000 0.000000 0.902074
O O1 0.366181 0.933425 0.215127
O O2 0.537935 0.837416 0.100242
O O3 0.245146 0.323706 0.860737
O O4 0.410910 0.121692 0.939800
O O5 0.274637 0.348205 0.027481
O O6 0.113902 0.105500 0.960214
O O7 0.500000 0.000000 0.358663
O O8 0.236694 0.134458 0.316142
O O9 0.207093 0.856533 0.692696
O O10 0.091955 0.880416 0.841658
O O11 0.386094 0.915197 0.815303
O O12 0.500000 0.500000 0.100620
#
# Coordination Sequence:
#
# PCOD8171854 Si02
#       7
#     2   4   4   4   2   4   2
#     4   8  19  40  59  90 110 170 202 236 295 370
#     4  11  22  38  59  94 119 156 198 260 305 351
#     4   9  18  36  65  84 109 157 212 236 281 371
#     4  10  20  40  61  87 115 163 202 242 299 367
#     4  10  25  36  61  90 126 154 200 254 303 358
#     4  11  22  37  64  91 124 158 201 253 310 360
#     4  10  18  40  64  76 120 162 204 228 298 378
#
# _framework density 19.056839
#
# number of rings (size 3 to 8) (size 9 to 14) (size 15 to 20)
#    0.545    1.455    2.727    0.545    5.091    0.000 
#    1.636    3.636    0.000    0.000    0.000    0.000 
#    0.000    0.000    0.000    0.000    0.000    0.000 
#
# Total GULP energy -272582.295947 kJ/mol
# GULP energy per Si atom -12390.104361 kJ/mol
# Density = 1.901347 g / cm^3
# Si number density = 19.056839 Si / 1000 Ang^3
#
#
#
# Elastic Constant Matrix: (Units=GPa)
#
#
# Indices 1 2 3 4 5 6 
#
# 1 91.0776 32.7434 44.7087 0.0000 0.0000 0.0000
# 2 32.7434 87.1534 39.8308 0.0000 0.0000 0.0000
# 3 44.7087 39.8308 92.4964 0.0000 0.0000 0.0000
# 4 0.0000 0.0000 0.0000 24.9053 0.0000 0.0000
# 5 0.0000 0.0000 0.0000 0.0000 11.3322 0.0000
# 6 0.0000 0.0000 0.0000 0.0000 0.0000 18.7270
#
#
#
# Elastic Compliance Matrix: (Units=1/GPa)
#
#
# Indices 1 2 3 4 5 6 
#
# 1 0.014955 -0.002882 -0.005987 0.000000 0.000000 0.000000
# 2 -0.002882 0.014841 -0.004998 0.000000 0.000000 0.000000
# 3 -0.005987 -0.004998 0.015857 0.000000 0.000000 0.000000
# 4 0.000000 0.000000 0.000000 0.040152 0.000000 0.000000
# 5 0.000000 0.000000 0.000000 0.000000 0.088244 0.000000
# 6 0.000000 0.000000 0.000000 0.000000 0.000000 0.053399
#
#
# Mechanical properties :
#
#
# Convention : Reuss Voigt Hill
#
# Bulk Modulus (GPa) = 55.80775 56.14371 55.97573
# Shear Modulus (GPa) = 19.14564 21.22252 20.18408
#
# Velocity S-wave (km/s) = 3.17308 3.34075 3.25799
# Velocity P-wave (km/s) = 6.54011 6.66378 6.60223
#
# Compressibility (1/GPa) = 0.01791866
#
# Stress axis : x y z
#
# Youngs Moduli (GPa) = 66.86734 67.38141 63.06197
#
# Poissons Ratio (x) = 0.19421 0.37758
# Poissons Ratio (y) = 0.19272 0.31516
# Poissons Ratio (z) = 0.40037 0.33675
#
# Static dielectric constant tensor:
#      x y z
#    x 3.333870 0.000000 0.000000 
#    y 0.000000 3.574460 0.000000 
#    z 0.000000 0.000000 3.287380 
# 
# 
# High freq. dielectric constant tensor:
#      x y z
#    x 1.721050 0.000000 0.000000 
#    y 0.000000 1.751500 0.000000 
#    z 0.000000 0.000000 1.732700 
# 
# From -- ./inp_files/6355.got.cif
#   From: 2010.03.12/outbox.cif.g09.slc.cpg/sg34_4_cif.got.tgz:6355.got - 2010.04.14 01:56:33.
