data_PCOD8171896
_publ_section_title
;
Structure prediction by ZEFSAII (Michael W. Deem and Ramdas Pophale) SiO2 
 PCOD8171896
Probable space group: P N N 2
;
_chemical_formula_sum "Si O2"
_cell_formula_units_Z 24
_cell_length_a 5.045497
_cell_length_b 19.689279
_cell_length_c 12.955466
_cell_angle_alpha 90.000000
_cell_angle_beta 90.000000
_cell_angle_gamma 90.000000
_cell_volume 1287.024470
_symmetry_space_group_name_H-M "P N N 2"
_symmetry_group_IT_number 34
_symmetry_cell_setting 'orthorhombic'
loop_
_space_group_symop_operation_xyz
x,y,z
-x,-y,z
1/2-x,1/2+y,1/2+z
1/2+x,1/2-y,1/2+z
loop_
_atom_site_type_symbol
_atom_site_label
_atom_site_fract_x
_atom_site_fract_y
_atom_site_fract_z
Si Si1 0.882620 0.786332 0.170240
Si Si2 0.152678 0.246955 0.403692
Si Si3 0.500000 0.000000 0.128015
Si Si4 0.135166 0.352830 0.575394
Si Si5 0.864827 0.685623 0.998554
Si Si6 0.234050 0.958625 0.455897
Si Si7 0.500000 0.500000 0.761672
O O1 0.890233 0.751415 0.281955
O O2 0.602289 0.817252 0.137294
O O3 0.107369 0.843487 0.149169
O O4 0.958014 0.720761 0.103056
O O5 0.191125 0.320600 0.460937
O O6 0.403229 0.197301 0.416155
O O7 0.902697 0.216230 0.458076
O O8 0.585063 0.066043 0.060618
O O9 0.247977 0.025618 0.194597
O O10 0.812854 0.606939 0.020558
O O11 0.111099 0.941115 0.340843
O O12 0.500000 0.000000 0.439085
O O13 0.000000 0.000000 0.516605
#
# Coordination Sequence:
#
# PCOD8171896 Si02
#       7
#     4   4   2   4   4   4   2
#     4  10  21  36  57  79 106 142 189 221 272 320
#     4  10  21  36  57  76 109 144 179 230 260 323
#     4  12  22  34  52  78 120 136 180 224 270 350
#     4  10  23  36  53  87 107 143 184 221 278 323
#     4  10  21  34  53  81 105 140 178 227 267 315
#     4  10  20  32  48  76 110 135 175 211 276 333
#     4  10  22  30  48  82 102 150 162 212 282 332
#
# _framework density 18.647663000000001
#
# number of rings (size 3 to 8) (size 9 to 14) (size 15 to 20)
#    0.500    1.333    0.833    3.000    7.000    0.000 
#    0.000    0.000    1.833    0.000    2.167    0.000 
#    0.000    0.000    0.000    0.000    0.000    0.000 
#
# Total GULP energy -297317.224887 kJ/mol
# GULP energy per Si atom -12388.217704 kJ/mol
# Density = 1.860522 g / cm^3
# Si number density = 18.647663 Si / 1000 Ang^3
#
#
#
# Elastic Constant Matrix: (Units=GPa)
#
#
# Indices 1 2 3 4 5 6 
#
# 1 124.2282 25.6324 18.5058 0.0000 0.0000 0.0000
# 2 25.6324 124.4536 31.3541 0.0000 0.0000 0.0000
# 3 18.5058 31.3541 88.8106 0.0000 0.0000 0.0000
# 4 0.0000 0.0000 0.0000 11.4121 0.0000 0.0000
# 5 0.0000 0.0000 0.0000 0.0000 16.2283 0.0000
# 6 0.0000 0.0000 0.0000 0.0000 0.0000 30.7587
#
#
#
# Elastic Compliance Matrix: (Units=1/GPa)
#
#
# Indices 1 2 3 4 5 6 
#
# 1 0.008536 -0.001438 -0.001271 0.000000 0.000000 0.000000
# 2 -0.001438 0.009062 -0.002900 0.000000 0.000000 0.000000
# 3 -0.001271 -0.002900 0.012548 0.000000 0.000000 0.000000
# 4 0.000000 0.000000 0.000000 0.087626 0.000000 0.000000
# 5 0.000000 0.000000 0.000000 0.000000 0.061621 0.000000
# 6 0.000000 0.000000 0.000000 0.000000 0.000000 0.032511
#
#
# Mechanical properties :
#
#
# Convention : Reuss Voigt Hill
#
# Bulk Modulus (GPa) = 52.82874 54.27522 53.55198
# Shear Modulus (GPa) = 21.79306 29.14648 25.46977
#
# Velocity S-wave (km/s) = 3.42230 3.95778 3.69974
# Velocity P-wave (km/s) = 6.63382 7.07490 6.85791
#
# Compressibility (1/GPa) = 0.01892909
#
# Stress axis : x y z
#
# Youngs Moduli (GPa) = 117.15491 110.35383 79.69106
#
# Poissons Ratio (x) = 0.15867 0.10129
# Poissons Ratio (y) = 0.16845 0.23107
# Poissons Ratio (z) = 0.14891 0.31998
#
# Static dielectric constant tensor:
#      x y z
#    x 3.755890 0.000000 0.000000 
#    y 0.000000 3.675050 0.000000 
#    z 0.000000 0.000000 3.340950 
# 
# 
# High freq. dielectric constant tensor:
#      x y z
#    x 1.756790 0.000000 0.000000 
#    y 0.000000 1.711160 0.000000 
#    z 0.000000 0.000000 1.686670 
# 
# From -- ./inp_files/4455.got.cif
#   From: 2010.03.12/outbox.cif.g09.slc.cpg/sg34_3_cif.got.tgz:4455.got - 2010.04.14 01:56:33.
