data_PCOD8171533
_publ_section_title
;
Structure prediction by ZEFSAII (Michael W. Deem and Ramdas Pophale) SiO2 
 PCOD8171533
Probable space group: P N A 21
;
_chemical_formula_sum "Si O2"
_cell_formula_units_Z 20
_cell_length_a 7.229570
_cell_length_b 12.954559
_cell_length_c 8.015798
_cell_angle_alpha 90.000000
_cell_angle_beta 90.000000
_cell_angle_gamma 90.000000
_cell_volume 750.726705
_symmetry_space_group_name_H-M "P N A 21"
_symmetry_group_IT_number 33
_symmetry_cell_setting 'orthorhombic'
loop_
_space_group_symop_operation_xyz
x,y,z
-x,-y,1/2+z
1/2-x,1/2+y,1/2+z
1/2+x,1/2-y,z
loop_
_atom_site_type_symbol
_atom_site_label
_atom_site_fract_x
_atom_site_fract_y
_atom_site_fract_z
Si Si1 0.359736 0.033350 0.674120
Si Si2 0.071300 0.157724 0.486288
Si Si3 0.690759 0.324894 0.941388
Si Si4 0.358007 0.337381 0.147142
Si Si5 0.793474 0.655574 0.159784
O O1 0.300321 0.083402 0.851539
O O2 0.580073 0.052594 0.659376
O O3 0.248053 0.085254 0.520566
O O4 0.319668 0.911972 0.664969
O O5 0.984581 0.145979 0.307067
O O6 0.139933 0.275688 0.501865
O O7 0.921529 0.128145 0.631753
O O8 0.671384 0.223741 0.824221
O O9 0.488987 0.369060 0.990258
O O10 0.787678 0.279860 0.111506
#
# Coordination Sequence:
#
# PCOD8171533 Si02
#       5
#     4   4   4   4   4
#     4  11  24  45  69  99 138 187 233 274 360 424
#     4  11  22  41  67  98 134 184 226 284 347 408
#     4  11  22  45  69  97 143 181 226 295 347 406
#     4  12  25  42  69 104 137 177 236 297 338 413
#     4  11  21  43  70  90 138 187 221 282 358 405
#
# _framework density 26.640854999999998
#
# number of rings (size 3 to 8) (size 9 to 14) (size 15 to 20)
#    0.000    0.800    6.000    3.600    0.000    1.600 
#    3.600    0.000    0.000    0.000    0.000    0.000 
#    0.000    0.000    0.000    0.000    0.000    0.000 
#
# Total GULP energy -247943.264370 kJ/mol
# GULP energy per Si atom -12397.163218 kJ/mol
# Density = 2.658022 g / cm^3
# Si number density = 26.640855 Si / 1000 Ang^3
#
#
#
# Elastic Constant Matrix: (Units=GPa)
#
#
# Indices 1 2 3 4 5 6 
#
# 1 67.6926 -8.1156 -28.2322 0.0000 0.0000 0.0000
# 2 -8.1156 50.3754 12.0936 0.0000 0.0000 0.0000
# 3 -28.2322 12.0936 65.4214 0.0000 0.0000 0.0000
# 4 0.0000 0.0000 0.0000 26.1909 0.0000 0.0000
# 5 0.0000 0.0000 0.0000 0.0000 30.3984 0.0000
# 6 0.0000 0.0000 0.0000 0.0000 0.0000 28.3855
#
#
#
# Elastic Compliance Matrix: (Units=1/GPa)
#
#
# Indices 1 2 3 4 5 6 
#
# 1 0.018072 0.001087 0.007598 0.000000 0.000000 0.000000
# 2 0.001087 0.020838 -0.003383 0.000000 0.000000 0.000000
# 3 0.007598 -0.003383 0.019190 0.000000 0.000000 0.000000
# 4 0.000000 0.000000 0.000000 0.038181 0.000000 0.000000
# 5 0.000000 0.000000 0.000000 0.000000 0.032896 0.000000
# 6 0.000000 0.000000 0.000000 0.000000 0.000000 0.035229
#
#
# Mechanical properties :
#
#
# Convention : Reuss Voigt Hill
#
# Bulk Modulus (GPa) = 14.55512 14.99789 14.77650
# Shear Modulus (GPa) = 28.29604 30.84456 29.57030
#
# Velocity S-wave (km/s) = 3.26257 3.40632 3.33522
# Velocity P-wave (km/s) = 4.43484 4.59485 4.51555
#
# Compressibility (1/GPa) = 0.06870435
#
# Stress axis : x y z
#
# Youngs Moduli (GPa) = 55.33487 47.98871 52.11151
#
# Poissons Ratio (x) = -0.05218 -0.39593
# Poissons Ratio (y) = -0.06017 0.17628
# Poissons Ratio (z) = -0.42042 0.16234
#
# Static dielectric constant tensor:
#      x y z
#    x 5.019280 0.000000 0.000000 
#    y 0.000000 4.461560 0.000000 
#    z 0.000000 0.000000 4.918870 
# 
# 
# High freq. dielectric constant tensor:
#      x y z
#    x 2.079610 0.000000 0.000000 
#    y 0.000000 2.033580 0.000000 
#    z 0.000000 0.000000 2.073970 
# 
# From -- ./inp_files/3002.got.cif
#   From: 2010.03.12/outbox.cif.g09.slc.cpg/sg33_2_cif.got.tgz:3002.got - 2010.04.14 01:49:19.
