data_PCOD8171176
_publ_section_title
;
Structure prediction by ZEFSAII (Michael W. Deem and Ramdas Pophale) SiO2 
 PCOD8171176
Probable space group: P N A 21
;
_chemical_formula_sum "Si O2"
_cell_formula_units_Z 32
_cell_length_a 5.532439
_cell_length_b 19.899790
_cell_length_c 11.630562
_cell_angle_alpha 90.000000
_cell_angle_beta 90.000000
_cell_angle_gamma 90.000000
_cell_volume 1280.459446
_symmetry_space_group_name_H-M "P N A 21"
_symmetry_group_IT_number 33
_symmetry_cell_setting 'orthorhombic'
loop_
_space_group_symop_operation_xyz
x,y,z
-x,-y,1/2+z
1/2-x,1/2+y,1/2+z
1/2+x,1/2-y,z
loop_
_atom_site_type_symbol
_atom_site_label
_atom_site_fract_x
_atom_site_fract_y
_atom_site_fract_z
Si Si1 0.124104 0.264206 0.362180
Si Si2 0.044543 0.498199 0.773391
Si Si3 0.286745 0.615782 0.282092
Si Si4 0.676186 0.597742 0.860358
Si Si5 0.283972 0.208467 0.992106
Si Si6 0.419546 0.478976 0.948427
Si Si7 0.623545 0.406383 0.150261
Si Si8 0.423217 0.716437 0.110979
O O1 0.366933 0.239803 0.292603
O O2 0.165739 0.340241 0.409064
O O3 0.079470 0.214265 0.471398
O O4 0.149208 0.492610 0.904233
O O5 0.231189 0.525644 0.679704
O O6 0.949028 0.424628 0.737536
O O7 0.834838 0.552513 0.776760
O O8 0.212338 0.677489 0.364643
O O9 0.458242 0.563807 0.346677
O O10 0.421149 0.642839 0.167979
O O11 0.557115 0.551443 0.959698
O O12 0.477930 0.626540 0.768291
O O13 0.533913 0.249525 0.009434
O O14 0.285958 0.149035 0.086466
O O15 0.416348 0.435411 0.064389
O O16 0.672155 0.749881 0.154633
#
# Coordination Sequence:
#
# PCOD8171176 Si02
#       8
#     4   4   4   4   4   4   4   4
#     4  10  24  43  64  95 134 179 222 275 339 413
#     4  10  23  43  70  99 136 188 230 303 355 426
#     4  10  22  40  70  97 138 177 235 293 355 422
#     4  10  23  43  65  97 134 183 231 287 350 423
#     4  11  26  43  70 105 140 192 235 303 357 428
#     4   9  22  43  65  98 132 178 229 297 353 413
#     4  10  24  43  69 101 139 179 249 289 363 431
#     4  10  22  40  63  98 137 176 221 275 342 418
#
# _framework density 24.991032000000001
#
# number of rings (size 3 to 8) (size 9 to 14) (size 15 to 20)
#    0.000    2.000    0.000    0.750   10.500    5.000 
#   11.250    0.000    0.000    0.000    0.000    0.000 
#    0.000    0.000    0.000    0.000    0.000    0.000 
#
# Total GULP energy -396466.170541 kJ/mol
# GULP energy per Si atom -12389.567829 kJ/mol
# Density = 2.493415 g / cm^3
# Si number density = 24.991032 Si / 1000 Ang^3
#
#
#
# Elastic Constant Matrix: (Units=GPa)
#
#
# Indices 1 2 3 4 5 6 
#
# 1 144.8583 33.7516 5.7327 0.0000 0.0000 0.0000
# 2 33.7516 63.9782 11.1721 0.0000 0.0000 0.0000
# 3 5.7327 11.1721 70.3323 0.0000 0.0000 0.0000
# 4 0.0000 0.0000 0.0000 35.3834 0.0000 0.0000
# 5 0.0000 0.0000 0.0000 0.0000 15.9713 0.0000
# 6 0.0000 0.0000 0.0000 0.0000 0.0000 32.9992
#
#
#
# Elastic Compliance Matrix: (Units=1/GPa)
#
#
# Indices 1 2 3 4 5 6 
#
# 1 0.007871 -0.004155 0.000019 0.000000 0.000000 0.000000
# 2 -0.004155 0.018270 -0.002563 0.000000 0.000000 0.000000
# 3 0.000019 -0.002563 0.014624 0.000000 0.000000 0.000000
# 4 0.000000 0.000000 0.000000 0.028262 0.000000 0.000000
# 5 0.000000 0.000000 0.000000 0.000000 0.062612 0.000000
# 6 0.000000 0.000000 0.000000 0.000000 0.000000 0.030304
#
#
# Mechanical properties :
#
#
# Convention : Reuss Voigt Hill
#
# Bulk Modulus (GPa) = 36.54422 42.27574 39.40998
# Shear Modulus (GPa) = 27.10543 32.10493 29.60518
#
# Velocity S-wave (km/s) = 3.29691 3.58810 3.44558
# Velocity P-wave (km/s) = 5.39884 5.84115 5.62435
#
# Compressibility (1/GPa) = 0.02736411
#
# Stress axis : x y z
#
# Youngs Moduli (GPa) = 127.05226 54.73405 68.38115
#
# Poissons Ratio (x) = 0.22744 -0.00127
# Poissons Ratio (y) = 0.52796 0.17529
# Poissons Ratio (z) = -0.00236 0.14031
#
# Static dielectric constant tensor:
#      x y z
#    x 4.758510 0.000000 0.000000 
#    y 0.000000 4.649100 0.000000 
#    z 0.000000 0.000000 4.144440 
# 
# 
# High freq. dielectric constant tensor:
#      x y z
#    x 2.002090 0.000000 0.000000 
#    y 0.000000 2.006350 0.000000 
#    z 0.000000 0.000000 1.969780 
# 
# From -- ./inp_files/5563.got.cif
#   From: 2010.03.12/outbox.cif.g09.slc.cpg/sg33_3_cif.got.tgz:5563.got - 2010.04.14 01:49:19.
