data_PCOD8171338
_publ_section_title
;
Structure prediction by ZEFSAII (Michael W. Deem and Ramdas Pophale) SiO2 
 PCOD8171338
Probable space group: P N A 21
;
_chemical_formula_sum "Si O2"
_cell_formula_units_Z 24
_cell_length_a 9.353854
_cell_length_b 20.506852
_cell_length_c 5.070128
_cell_angle_alpha 90.000000
_cell_angle_beta 90.000000
_cell_angle_gamma 90.000000
_cell_volume 972.542318
_symmetry_space_group_name_H-M "P N A 21"
_symmetry_group_IT_number 33
_symmetry_cell_setting 'orthorhombic'
loop_
_space_group_symop_operation_xyz
x,y,z
-x,-y,1/2+z
1/2-x,1/2+y,1/2+z
1/2+x,1/2-y,z
loop_
_atom_site_type_symbol
_atom_site_label
_atom_site_fract_x
_atom_site_fract_y
_atom_site_fract_z
Si Si1 0.461818 0.464983 0.844430
Si Si2 0.994692 0.179871 0.727170
Si Si3 0.010000 0.712777 0.840489
Si Si4 0.662220 0.038608 0.113909
Si Si5 0.014411 0.414551 0.619502
Si Si6 0.743467 0.243987 0.018477
O O1 0.432445 0.505933 0.573432
O O2 0.523299 0.396884 0.733912
O O3 0.323837 0.456485 0.025974
O O4 0.985211 0.211353 0.436056
O O5 0.131325 0.214599 0.852422
O O6 0.839659 0.193390 0.855603
O O7 0.031641 0.660474 0.074348
O O8 0.853831 0.700348 0.714458
O O9 0.147183 0.704725 0.652286
O O10 0.567423 0.082906 0.918983
O O11 0.619344 0.962675 0.081729
O O12 0.638228 0.064172 0.411429
#
# Coordination Sequence:
#
# PCOD8171338 Si02
#       6
#     4   4   4   4   4   4
#     4  12  29  46  73 101 150 194 234 295 363 442
#     4  11  26  46  71 107 142 190 244 297 370 430
#     4  11  24  41  71 101 143 186 236 308 355 430
#     4  10  23  45  67 104 136 186 236 291 346 435
#     4  10  23  41  73  98 136 182 241 291 354 411
#     4  10  25  43  69 103 139 184 237 304 358 432
#
# _framework density 24.677589000000001
#
# number of rings (size 3 to 8) (size 9 to 14) (size 15 to 20)
#    0.000    1.333    0.000    3.000   16.333    1.333 
#    0.000    0.000    0.000    0.000    0.000    0.000 
#    0.000    0.000    0.000    0.000    0.000    0.000 
#
# Total GULP energy -297482.155174 kJ/mol
# GULP energy per Si atom -12395.089799 kJ/mol
# Density = 2.462142 g / cm^3
# Si number density = 24.677589 Si / 1000 Ang^3
#
#
#
# Elastic Constant Matrix: (Units=GPa)
#
#
# Indices 1 2 3 4 5 6 
#
# 1 109.6620 7.3923 2.7383 0.0000 0.0000 0.0000
# 2 7.3923 107.0442 11.3317 0.0000 0.0000 0.0000
# 3 2.7383 11.3317 70.4537 0.0000 0.0000 0.0000
# 4 0.0000 0.0000 0.0000 34.5808 0.0000 0.0000
# 5 0.0000 0.0000 0.0000 0.0000 19.1702 0.0000
# 6 0.0000 0.0000 0.0000 0.0000 0.0000 19.1628
#
#
#
# Elastic Compliance Matrix: (Units=1/GPa)
#
#
# Indices 1 2 3 4 5 6 
#
# 1 0.009166 -0.000606 -0.000259 0.000000 0.000000 0.000000
# 2 -0.000606 0.009544 -0.001511 0.000000 0.000000 0.000000
# 3 -0.000259 -0.001511 0.014447 0.000000 0.000000 0.000000
# 4 0.000000 0.000000 0.000000 0.028918 0.000000 0.000000
# 5 0.000000 0.000000 0.000000 0.000000 0.052164 0.000000
# 6 0.000000 0.000000 0.000000 0.000000 0.000000 0.052185
#
#
# Mechanical properties :
#
#
# Convention : Reuss Voigt Hill
#
# Bulk Modulus (GPa) = 35.20508 36.67607 35.94058
# Shear Modulus (GPa) = 27.67880 32.29593 29.98736
#
# Velocity S-wave (km/s) = 3.35269 3.62154 3.48970
# Velocity P-wave (km/s) = 5.41150 5.69050 5.55275
#
# Compressibility (1/GPa) = 0.02840499
#
# Stress axis : x y z
#
# Youngs Moduli (GPa) = 109.09632 104.78052 69.21913
#
# Poissons Ratio (x) = 0.06345 0.01792
# Poissons Ratio (y) = 0.06607 0.10462
# Poissons Ratio (z) = 0.02824 0.15837
#
# Static dielectric constant tensor:
#      x y z
#    x 4.514480 0.000000 0.000000 
#    y 0.000000 4.407870 0.000000 
#    z 0.000000 0.000000 4.660330 
# 
# 
# High freq. dielectric constant tensor:
#      x y z
#    x 1.981890 0.000000 0.000000 
#    y 0.000000 1.978080 0.000000 
#    z 0.000000 0.000000 1.989070 
# 
# From -- ./inp_files/401.got.cif
#   From: 2010.03.12/outbox.cif.g09.slc.cpg/sg33_1_cif.got.tgz:401.got - 2010.04.14 01:49:19.
