data_PCOD8171919
_publ_section_title
;
Structure prediction by ZEFSAII (Michael W. Deem and Ramdas Pophale) SiO2 
 PCOD8171919
Probable space group: P N N 2
;
_chemical_formula_sum "Si O2"
_cell_formula_units_Z 26
_cell_length_a 9.515673
_cell_length_b 14.794499
_cell_length_c 9.339060
_cell_angle_alpha 90.000000
_cell_angle_beta 90.000000
_cell_angle_gamma 90.000000
_cell_volume 1314.749268
_symmetry_space_group_name_H-M "P N N 2"
_symmetry_group_IT_number 34
_symmetry_cell_setting 'orthorhombic'
loop_
_space_group_symop_operation_xyz
x,y,z
-x,-y,z
1/2-x,1/2+y,1/2+z
1/2+x,1/2-y,1/2+z
loop_
_atom_site_type_symbol
_atom_site_label
_atom_site_fract_x
_atom_site_fract_y
_atom_site_fract_z
Si Si1 0.107844 0.669645 0.629700
Si Si2 0.927413 0.813034 0.786166
Si Si3 0.208301 0.944260 0.421051
Si Si4 0.000000 0.000000 0.196769
Si Si5 0.865604 0.257566 0.331995
Si Si6 0.072062 0.187035 0.109831
Si Si7 0.500000 0.000000 0.305756
Si Si8 0.500000 0.500000 0.162896
O O1 0.091106 0.671401 0.456704
O O2 0.270662 0.680322 0.668528
O O3 0.029017 0.757048 0.686598
O O4 0.045105 0.579666 0.698563
O O5 0.765838 0.795804 0.741543
O O6 0.963408 0.917829 0.767802
O O7 0.940267 0.776203 0.949081
O O8 0.174033 0.838530 0.403217
O O9 0.374905 0.965763 0.410684
O O10 0.138879 0.978199 0.568838
O O11 0.139189 0.001662 0.293655
O O12 0.000490 0.088706 0.100185
O O13 0.992715 0.251878 0.220407
#
# Coordination Sequence:
#
# PCOD8171919 Si02
#       8
#     4   4   4   2   4   4   2   2
#     4  11  23  40  62  92 129 162 214 265 317 383
#     4  11  23  40  65  92 128 166 216 264 315 386
#     4  10  20  37  65  90 128 165 211 253 321 380
#     4   9  17  36  58  88 114 164 200 250 304 382
#     4  10  22  43  63  90 124 171 213 263 321 383
#     4  10  22  39  62  89 126 162 209 262 322 374
#     4  12  22  38  64 100 126 176 212 266 320 390
#     4  11  23  42  64  98 130 172 210 270 322 382
#
# _framework density 19.775635000000001
#
# number of rings (size 3 to 8) (size 9 to 14) (size 15 to 20)
#    0.000    1.538    4.615    0.462    0.000    2.462 
#    0.000    0.000    0.000    0.000    0.000    0.000 
#    0.000    0.000    0.000    0.000    0.000    0.000 
#
# Total GULP energy -322358.867642 kJ/mol
# GULP energy per Si atom -12398.417986 kJ/mol
# Density = 1.973062 g / cm^3
# Si number density = 19.775635 Si / 1000 Ang^3
#
#
#
# Elastic Constant Matrix: (Units=GPa)
#
#
# Indices 1 2 3 4 5 6 
#
# 1 144.6117 34.5436 60.0149 0.0000 0.0000 0.0000
# 2 34.5436 80.3092 25.7622 0.0000 0.0000 0.0000
# 3 60.0149 25.7622 75.1627 0.0000 0.0000 0.0000
# 4 0.0000 0.0000 0.0000 24.2247 0.0000 0.0000
# 5 0.0000 0.0000 0.0000 0.0000 26.5067 0.0000
# 6 0.0000 0.0000 0.0000 0.0000 0.0000 25.4599
#
#
#
# Elastic Compliance Matrix: (Units=1/GPa)
#
#
# Indices 1 2 3 4 5 6 
#
# 1 0.010643 -0.002081 -0.007785 0.000000 0.000000 0.000000
# 2 -0.002081 0.014397 -0.003273 0.000000 0.000000 0.000000
# 3 -0.007785 -0.003273 0.020642 0.000000 0.000000 0.000000
# 4 0.000000 0.000000 0.000000 0.041280 0.000000 0.000000
# 5 0.000000 0.000000 0.000000 0.000000 0.037726 0.000000
# 6 0.000000 0.000000 0.000000 0.000000 0.000000 0.039277
#
#
# Mechanical properties :
#
#
# Convention : Reuss Voigt Hill
#
# Bulk Modulus (GPa) = 51.53412 60.08058 55.80735
# Shear Modulus (GPa) = 25.41794 27.22245 26.32020
#
# Velocity S-wave (km/s) = 3.58902 3.71423 3.65216
# Velocity P-wave (km/s) = 6.57957 6.98864 6.78719
#
# Compressibility (1/GPa) = 0.01940462
#
# Stress axis : x y z
#
# Youngs Moduli (GPa) = 93.96012 69.45980 48.44411
#
# Poissons Ratio (x) = 0.14451 0.37713
# Poissons Ratio (y) = 0.19549 0.15857
# Poissons Ratio (z) = 0.73146 0.22736
#
# Static dielectric constant tensor:
#      x y z
#    x 3.772570 0.000000 0.000000 
#    y 0.000000 3.628730 0.000000 
#    z 0.000000 0.000000 3.429190 
# 
# 
# High freq. dielectric constant tensor:
#      x y z
#    x 1.778610 0.000000 0.000000 
#    y 0.000000 1.772240 0.000000 
#    z 0.000000 0.000000 1.759740 
# 
# From -- ./inp_files/2744.got.cif
#   From: 2010.03.12/outbox.cif.g09.slc.cpg/sg34_2_cif.got.tgz:2744.got - 2010.04.14 01:56:33.
