data_PCOD8171859
_publ_section_title
;
Structure prediction by ZEFSAII (Michael W. Deem and Ramdas Pophale) SiO2 
 PCOD8171859
Probable space group: P N N 2
;
_chemical_formula_sum "Si O2"
_cell_formula_units_Z 24
_cell_length_a 8.593073
_cell_length_b 7.870531
_cell_length_c 17.352511
_cell_angle_alpha 90.000000
_cell_angle_beta 90.000000
_cell_angle_gamma 90.000000
_cell_volume 1173.585847
_symmetry_space_group_name_H-M "P N N 2"
_symmetry_group_IT_number 34
_symmetry_cell_setting 'orthorhombic'
loop_
_space_group_symop_operation_xyz
x,y,z
-x,-y,z
1/2-x,1/2+y,1/2+z
1/2+x,1/2-y,1/2+z
loop_
_atom_site_type_symbol
_atom_site_label
_atom_site_fract_x
_atom_site_fract_y
_atom_site_fract_z
Si Si1 0.180059 0.481111 0.063280
Si Si2 0.399958 0.657336 0.945488
Si Si3 0.832492 0.929461 0.717331
Si Si4 0.815926 0.107121 0.871008
Si Si5 0.285852 0.201842 0.962513
Si Si6 0.903116 0.671731 0.830916
O O1 0.206428 0.532938 0.151820
O O2 0.000000 0.500000 0.040815
O O3 0.291396 0.610688 0.017753
O O4 0.223375 0.284795 0.042621
O O5 0.500000 0.500000 0.914957
O O6 0.289536 0.724935 0.877882
O O7 0.526400 0.803174 0.967884
O O8 0.847482 0.730402 0.744872
O O9 0.762272 0.021426 0.792191
O O10 0.000000 0.000000 0.689773
O O11 0.995161 0.167488 0.864466
O O12 0.782150 0.985794 0.945452
O O13 0.234239 0.337801 0.894122
O O14 0.000000 0.500000 0.824456
#
# Coordination Sequence:
#
# PCOD8171859 Si02
#       6
#     4   4   4   4   4   4
#     4  11  22  37  57  81 115 155 194 239 299 355
#     4  10  20  34  56  83 113 147 189 239 289 345
#     4   9  20  37  57  82 117 156 192 236 293 349
#     4  10  20  36  59  87 114 149 196 240 289 350
#     4  10  19  33  57  83 113 149 191 241 288 345
#     4  10  19  35  60  86 116 154 196 243 289 348
#
# _framework density 20.450146
#
# number of rings (size 3 to 8) (size 9 to 14) (size 15 to 20)
#    0.000    2.000    0.000    7.000    0.000    2.667 
#    0.000    5.000    0.000    2.000    0.000    0.000 
#    0.000    0.000    0.000    0.000    0.000    0.000 
#
# Total GULP energy -297383.388015 kJ/mol
# GULP energy per Si atom -12390.974501 kJ/mol
# Density = 2.040360 g / cm^3
# Si number density = 20.450146 Si / 1000 Ang^3
#
#
#
# Elastic Constant Matrix: (Units=GPa)
#
#
# Indices 1 2 3 4 5 6 
#
# 1 99.1920 14.8707 36.8558 0.0000 0.0000 0.0000
# 2 14.8707 77.9404 41.5633 0.0000 0.0000 0.0000
# 3 36.8558 41.5633 84.9055 0.0000 0.0000 0.0000
# 4 0.0000 0.0000 0.0000 27.6809 0.0000 0.0000
# 5 0.0000 0.0000 0.0000 0.0000 29.9314 0.0000
# 6 0.0000 0.0000 0.0000 0.0000 0.0000 30.7264
#
#
#
# Elastic Compliance Matrix: (Units=1/GPa)
#
#
# Indices 1 2 3 4 5 6 
#
# 1 0.012045 0.000663 -0.005553 0.000000 0.000000 0.000000
# 2 0.000663 0.017399 -0.008805 0.000000 0.000000 0.000000
# 3 -0.005553 -0.008805 0.018499 0.000000 0.000000 0.000000
# 4 0.000000 0.000000 0.000000 0.036126 0.000000 0.000000
# 5 0.000000 0.000000 0.000000 0.000000 0.033410 0.000000
# 6 0.000000 0.000000 0.000000 0.000000 0.000000 0.032545
#
#
# Mechanical properties :
#
#
# Convention : Reuss Voigt Hill
#
# Bulk Modulus (GPa) = 48.65529 49.84639 49.25084
# Shear Modulus (GPa) = 27.13461 28.91761 28.02611
#
# Velocity S-wave (km/s) = 3.64657 3.76447 3.70599
# Velocity P-wave (km/s) = 6.44777 6.58198 6.51522
#
# Compressibility (1/GPa) = 0.02055275
#
# Stress axis : x y z
#
# Youngs Moduli (GPa) = 83.01899 57.47330 54.05750
#
# Poissons Ratio (x) = -0.03812 0.30020
# Poissons Ratio (y) = -0.05506 0.47599
# Poissons Ratio (z) = 0.46103 0.50607
#
# Static dielectric constant tensor:
#      x y z
#    x 3.920420 0.000000 0.000000 
#    y 0.000000 3.845360 0.000000 
#    z 0.000000 0.000000 3.390510 
# 
# 
# High freq. dielectric constant tensor:
#      x y z
#    x 1.813630 0.000000 0.000000 
#    y 0.000000 1.800310 0.000000 
#    z 0.000000 0.000000 1.761260 
# 
# From -- ./inp_files/6414.got.cif
#   From: 2010.03.12/outbox.cif.g09.slc.cpg/sg34_4_cif.got.tgz:6414.got - 2010.04.14 01:56:33.
