data_PCOD8171631
_publ_section_title
;
Structure prediction by ZEFSAII (Michael W. Deem and Ramdas Pophale) SiO2 
 PCOD8171631
Probable space group: P N A 21
;
_chemical_formula_sum "Si O2"
_cell_formula_units_Z 24
_cell_length_a 10.827688
_cell_length_b 11.710793
_cell_length_c 7.927914
_cell_angle_alpha 90.000000
_cell_angle_beta 90.000000
_cell_angle_gamma 90.000000
_cell_volume 1005.265939
_symmetry_space_group_name_H-M "P N A 21"
_symmetry_group_IT_number 33
_symmetry_cell_setting 'orthorhombic'
loop_
_space_group_symop_operation_xyz
x,y,z
-x,-y,1/2+z
1/2-x,1/2+y,1/2+z
1/2+x,1/2-y,z
loop_
_atom_site_type_symbol
_atom_site_label
_atom_site_fract_x
_atom_site_fract_y
_atom_site_fract_z
Si Si1 0.972038 0.075195 0.860330
Si Si2 0.342304 0.682005 0.130983
Si Si3 0.858804 0.499110 0.610210
Si Si4 0.384400 0.913611 0.986358
Si Si5 0.251596 0.286638 0.970057
Si Si6 0.320686 0.561238 0.624379
O O1 0.890230 0.161877 0.974141
O O2 0.023247 0.138499 0.692454
O O3 0.893340 0.964142 0.799582
O O4 0.088187 0.034959 0.968482
O O5 0.260996 0.576572 0.064372
O O6 0.359280 0.777356 0.985293
O O7 0.269051 0.736578 0.286620
O O8 0.849653 0.616352 0.506413
O O9 0.977991 0.431198 0.552126
O O10 0.863119 0.528365 0.807165
O O11 0.291846 0.972457 0.118917
O O12 0.234710 0.189168 0.113676
#
# Coordination Sequence:
#
# PCOD8171631 Si02
#       6
#     4   4   4   4   4   4
#     4  11  23  46  74 104 149 187 241 297 361 433
#     4  11  24  49  74 104 146 192 236 304 365 429
#     4  12  27  49  74 109 148 192 243 297 369 429
#     4  12  26  48  73 108 145 192 244 295 360 440
#     4  11  24  44  75 106 142 190 234 300 361 429
#     4  11  26  44  76 105 144 191 242 293 370 424
#
# _framework density 23.874278
#
# number of rings (size 3 to 8) (size 9 to 14) (size 15 to 20)
#    0.000    0.667    5.000    3.000    4.667    2.667 
#    0.000    0.000    0.000    0.000    0.000    0.000 
#    0.000    0.000    0.000    0.000    0.000    0.000 
#
# Total GULP energy -297669.969373 kJ/mol
# GULP energy per Si atom -12402.915391 kJ/mol
# Density = 2.381994 g / cm^3
# Si number density = 23.874278 Si / 1000 Ang^3
#
#
#
# Elastic Constant Matrix: (Units=GPa)
#
#
# Indices 1 2 3 4 5 6 
#
# 1 122.2253 52.7415 26.7084 0.0000 0.0000 0.0000
# 2 52.7415 160.1469 28.7565 0.0000 0.0000 0.0000
# 3 26.7084 28.7565 37.5257 0.0000 0.0000 0.0000
# 4 0.0000 0.0000 0.0000 31.1148 0.0000 0.0000
# 5 0.0000 0.0000 0.0000 0.0000 39.0233 0.0000
# 6 0.0000 0.0000 0.0000 0.0000 0.0000 37.2370
#
#
#
# Elastic Compliance Matrix: (Units=1/GPa)
#
#
# Indices 1 2 3 4 5 6 
#
# 1 0.010452 -0.002443 -0.005567 0.000000 0.000000 0.000000
# 2 -0.002443 0.007811 -0.004248 0.000000 0.000000 0.000000
# 3 -0.005567 -0.004248 0.033866 0.000000 0.000000 0.000000
# 4 0.000000 0.000000 0.000000 0.032139 0.000000 0.000000
# 5 0.000000 0.000000 0.000000 0.000000 0.025626 0.000000
# 6 0.000000 0.000000 0.000000 0.000000 0.000000 0.026855
#
#
# Mechanical properties :
#
#
# Convention : Reuss Voigt Hill
#
# Bulk Modulus (GPa) = 36.21295 59.59007 47.90151
# Shear Modulus (GPa) = 29.33086 35.58780 32.45933
#
# Velocity S-wave (km/s) = 3.50888 3.86506 3.69127
# Velocity P-wave (km/s) = 5.62294 6.70316 6.18667
#
# Compressibility (1/GPa) = 0.02761443
#
# Stress axis : x y z
#
# Youngs Moduli (GPa) = 95.67384 128.01858 29.52826
#
# Poissons Ratio (x) = 0.31269 0.16440
# Poissons Ratio (y) = 0.23369 0.12542
# Poissons Ratio (z) = 0.53266 0.54376
#
# Static dielectric constant tensor:
#      x y z
#    x 4.396810 0.000000 0.000000 
#    y 0.000000 4.585590 0.000000 
#    z 0.000000 0.000000 4.112590 
# 
# 
# High freq. dielectric constant tensor:
#      x y z
#    x 1.953640 0.000000 0.000000 
#    y 0.000000 1.956620 0.000000 
#    z 0.000000 0.000000 1.937280 
# 
# From -- ./inp_files/3046.got.cif
#   From: 2010.03.12/outbox.cif.g09.slc.cpg/sg33_2_cif.got.tgz:3046.got - 2010.04.14 01:49:19.
