data_PCOD8171951
_publ_section_title
;
Structure prediction by ZEFSAII (Michael W. Deem and Ramdas Pophale) SiO2 
 PCOD8171951
Probable space group: P N N 2
;
_chemical_formula_sum "Si O2"
_cell_formula_units_Z 32
_cell_length_a 11.342243
_cell_length_b 8.714341
_cell_length_c 15.540203
_cell_angle_alpha 90.000000
_cell_angle_beta 90.000000
_cell_angle_gamma 90.000000
_cell_volume 1535.996356
_symmetry_space_group_name_H-M "P N N 2"
_symmetry_group_IT_number 34
_symmetry_cell_setting 'orthorhombic'
loop_
_space_group_symop_operation_xyz
x,y,z
-x,-y,z
1/2-x,1/2+y,1/2+z
1/2+x,1/2-y,1/2+z
loop_
_atom_site_type_symbol
_atom_site_label
_atom_site_fract_x
_atom_site_fract_y
_atom_site_fract_z
Si Si1 0.439813 0.165590 0.756760
Si Si2 0.421076 0.744385 0.907466
Si Si3 0.545094 0.826877 0.567648
Si Si4 0.382557 0.412470 0.174193
Si Si5 0.260705 0.524530 0.002003
Si Si6 0.324773 0.692694 0.483191
Si Si7 0.753461 0.006519 0.840996
Si Si8 0.918621 0.358612 0.558765
O O1 0.519397 0.280695 0.814257
O O2 0.424134 0.237403 0.662324
O O3 0.314729 0.139388 0.801337
O O4 0.500000 0.000000 0.752261
O O5 0.329309 0.885758 0.900266
O O6 0.360478 0.587491 0.938189
O O7 0.524392 0.780876 0.974929
O O8 0.661513 0.840821 0.508196
O O9 0.449968 0.706690 0.531189
O O10 0.500000 0.000000 0.576162
O O11 0.500000 0.500000 0.198010
O O12 0.307499 0.494945 0.098906
O O13 0.309110 0.396525 0.262659
O O14 0.422376 0.245825 0.143244
O O15 0.213928 0.367197 0.960191
O O16 0.347899 0.581593 0.401645
O O17 0.220225 0.611323 0.539001
O O18 0.000000 0.500000 0.585126
#
# Coordination Sequence:
#
# PCOD8171951 Si02
#       8
#     4   4   4   4   4   4   4   4
#     4   9  17  32  57  88 119 155 208 266 309 374
#     4  11  20  35  62  91 125 164 212 267 323 384
#     4   9  18  36  61  89 121 164 208 262 320 387
#     4  11  23  38  63  93 128 171 212 267 329 396
#     4  10  21  38  61  91 126 169 218 261 327 391
#     4  10  21  35  64  91 123 168 213 263 322 388
#     4  11  21  38  61  94 124 163 218 266 322 381
#     4  11  20  38  61  95 123 169 215 267 324 386
#
# _framework density 20.833383999999999
#
# number of rings (size 3 to 8) (size 9 to 14) (size 15 to 20)
#    0.000    1.750    5.000    0.375    5.250    1.000 
#    0.000    1.250    2.750    1.500    0.000    0.000 
#    0.000    0.000    0.000    0.000    0.000    0.000 
#
# Total GULP energy -396553.578623 kJ/mol
# GULP energy per Si atom -12392.299332 kJ/mol
# Density = 2.078597 g / cm^3
# Si number density = 20.833384 Si / 1000 Ang^3
#
#
#
# Elastic Constant Matrix: (Units=GPa)
#
#
# Indices 1 2 3 4 5 6 
#
# 1 74.3958 25.6658 14.7631 0.0000 0.0000 0.0000
# 2 25.6658 57.7137 38.6144 0.0000 0.0000 0.0000
# 3 14.7631 38.6144 96.7411 0.0000 0.0000 0.0000
# 4 0.0000 0.0000 0.0000 22.4394 0.0000 0.0000
# 5 0.0000 0.0000 0.0000 0.0000 2.5671 0.0000
# 6 0.0000 0.0000 0.0000 0.0000 0.0000 37.5939
#
#
#
# Elastic Compliance Matrix: (Units=1/GPa)
#
#
# Indices 1 2 3 4 5 6 
#
# 1 0.015898 -0.007431 0.000540 0.000000 0.000000 0.000000
# 2 -0.007431 0.027114 -0.009689 0.000000 0.000000 0.000000
# 3 0.000540 -0.009689 0.014122 0.000000 0.000000 0.000000
# 4 0.000000 0.000000 0.000000 0.044565 0.000000 0.000000
# 5 0.000000 0.000000 0.000000 0.000000 0.389549 0.000000
# 6 0.000000 0.000000 0.000000 0.000000 0.000000 0.026600
#
#
# Mechanical properties :
#
#
# Convention : Reuss Voigt Hill
#
# Bulk Modulus (GPa) = 41.71157 42.99302 42.35229
# Shear Modulus (GPa) = 8.94457 22.50722 15.72590
#
# Velocity S-wave (km/s) = 2.07430 3.29042 2.75042
# Velocity P-wave (km/s) = 5.07956 5.92598 5.51902
#
# Compressibility (1/GPa) = 0.02397416
#
# Stress axis : x y z
#
# Youngs Moduli (GPa) = 62.90021 36.88127 70.81333
#
# Poissons Ratio (x) = 0.27408 -0.03825
# Poissons Ratio (y) = 0.46744 0.68608
# Poissons Ratio (z) = -0.03397 0.35733
#
# Static dielectric constant tensor:
#      x y z
#    x 4.005470 0.000000 0.000000 
#    y 0.000000 3.464350 0.000000 
#    z 0.000000 0.000000 3.762150 
# 
# 
# High freq. dielectric constant tensor:
#      x y z
#    x 1.822110 0.000000 0.000000 
#    y 0.000000 1.782350 0.000000 
#    z 0.000000 0.000000 1.805340 
# 
# From -- ./inp_files/6828.got.cif
#   From: 2010.03.12/outbox.cif.g09.slc.cpg/sg34_4_cif.got.tgz:6828.got - 2010.04.14 01:56:33.
