data_PCOD8171196
_publ_section_title
;
Structure prediction by ZEFSAII (Michael W. Deem and Ramdas Pophale) SiO2 
 PCOD8171196
Probable space group: P N A 21
;
_chemical_formula_sum "Si O2"
_cell_formula_units_Z 28
_cell_length_a 16.902959
_cell_length_b 8.625982
_cell_length_c 8.941295
_cell_angle_alpha 90.000000
_cell_angle_beta 90.000000
_cell_angle_gamma 90.000000
_cell_volume 1303.682121
_symmetry_space_group_name_H-M "P N A 21"
_symmetry_group_IT_number 33
_symmetry_cell_setting 'orthorhombic'
loop_
_space_group_symop_operation_xyz
x,y,z
-x,-y,1/2+z
1/2-x,1/2+y,1/2+z
1/2+x,1/2-y,z
loop_
_atom_site_type_symbol
_atom_site_label
_atom_site_fract_x
_atom_site_fract_y
_atom_site_fract_z
Si Si1 0.372810 0.768553 0.019020
Si Si2 0.226427 0.722841 0.216146
Si Si3 0.514526 0.333914 0.776352
Si Si4 0.529788 0.001353 0.343176
Si Si5 0.136185 0.016118 0.268439
Si Si6 0.391209 0.994210 0.546689
Si Si7 0.837837 0.833654 0.463670
O O1 0.294400 0.799273 0.114078
O O2 0.445411 0.711564 0.120223
O O3 0.398792 0.929793 0.942636
O O4 0.351355 0.638028 0.898984
O O5 0.181367 0.857853 0.304386
O O6 0.166050 0.625204 0.113906
O O7 0.267948 0.621442 0.347009
O O8 0.456637 0.478368 0.748881
O O9 0.579177 0.390030 0.895216
O O10 0.466989 0.185736 0.843198
O O11 0.545562 0.062112 0.173772
O O12 0.443846 0.057443 0.406277
O O13 0.175556 0.079497 0.117598
O O14 0.338563 0.851819 0.489821
#
# Coordination Sequence:
#
# PCOD8171196 Si02
#       7
#     4   4   4   4   4   4   4
#     4  11  23  40  60  91 124 163 202 258 312 370
#     4  11  25  42  58  90 133 162 202 255 317 374
#     4  10  22  41  62  91 123 156 206 261 309 363
#     4  11  20  40  67  88 119 165 210 258 297 381
#     4  12  22  38  64  88 118 162 203 256 308 366
#     4  11  22  43  66  90 123 168 212 251 312 373
#     4  10  24  40  63  90 126 162 203 257 311 371
#
# _framework density 21.477630000000001
#
# number of rings (size 3 to 8) (size 9 to 14) (size 15 to 20)
#    0.000    1.143    4.286    1.714    2.000    0.000 
#    0.000    0.000    0.000    0.000    0.000    0.000 
#    0.000    0.000    0.000    0.000    0.000    0.000 
#
# Total GULP energy -347139.020283 kJ/mol
# GULP energy per Si atom -12397.822153 kJ/mol
# Density = 2.142875 g / cm^3
# Si number density = 21.477630 Si / 1000 Ang^3
#
#
#
# Elastic Constant Matrix: (Units=GPa)
#
#
# Indices 1 2 3 4 5 6 
#
# 1 97.8184 32.8003 37.0043 0.0000 0.0000 0.0000
# 2 32.8003 48.9170 17.7072 0.0000 0.0000 0.0000
# 3 37.0043 17.7072 98.6497 0.0000 0.0000 0.0000
# 4 0.0000 0.0000 0.0000 25.2706 0.0000 0.0000
# 5 0.0000 0.0000 0.0000 0.0000 39.3759 0.0000
# 6 0.0000 0.0000 0.0000 0.0000 0.0000 23.4385
#
#
#
# Elastic Compliance Matrix: (Units=1/GPa)
#
#
# Indices 1 2 3 4 5 6 
#
# 1 0.014497 -0.008291 -0.003950 0.000000 0.000000 0.000000
# 2 -0.008291 0.026605 -0.001665 0.000000 0.000000 0.000000
# 3 -0.003950 -0.001665 0.011917 0.000000 0.000000 0.000000
# 4 0.000000 0.000000 0.000000 0.039572 0.000000 0.000000
# 5 0.000000 0.000000 0.000000 0.000000 0.025396 0.000000
# 6 0.000000 0.000000 0.000000 0.000000 0.000000 0.042665
#
#
# Mechanical properties :
#
#
# Convention : Reuss Voigt Hill
#
# Bulk Modulus (GPa) = 39.67142 46.71209 43.19175
# Shear Modulus (GPa) = 25.39772 28.14188 26.76980
#
# Velocity S-wave (km/s) = 3.44251 3.62372 3.53427
# Velocity P-wave (km/s) = 5.85767 6.26936 6.06701
#
# Compressibility (1/GPa) = 0.02520706
#
# Stress axis : x y z
#
# Youngs Moduli (GPa) = 68.97774 37.58676 83.91062
#
# Poissons Ratio (x) = 0.31164 0.33144
# Poissons Ratio (y) = 0.57191 0.13975
# Poissons Ratio (z) = 0.27245 0.06260
#
# Static dielectric constant tensor:
#      x y z
#    x 3.980590 0.000000 0.000000 
#    y 0.000000 3.586310 0.000000 
#    z 0.000000 0.000000 4.064790 
# 
# 
# High freq. dielectric constant tensor:
#      x y z
#    x 1.848500 0.000000 0.000000 
#    y 0.000000 1.820470 0.000000 
#    z 0.000000 0.000000 1.853290 
# 
# From -- ./inp_files/4774.got.cif
#   From: 2010.03.12/outbox.cif.g09.slc.cpg/sg33_3_cif.got.tgz:4774.got - 2010.04.14 01:49:19.
