data_PCOD8171419
_publ_section_title
;
Structure prediction by ZEFSAII (Michael W. Deem and Ramdas Pophale) SiO2 
 PCOD8171419
Probable space group: P N A 21
;
_chemical_formula_sum "Si O2"
_cell_formula_units_Z 32
_cell_length_a 13.691950
_cell_length_b 9.490412
_cell_length_c 11.162704
_cell_angle_alpha 90.000000
_cell_angle_beta 90.000000
_cell_angle_gamma 90.000000
_cell_volume 1450.506836
_symmetry_space_group_name_H-M "P N A 21"
_symmetry_group_IT_number 33
_symmetry_cell_setting 'orthorhombic'
loop_
_space_group_symop_operation_xyz
x,y,z
-x,-y,1/2+z
1/2-x,1/2+y,1/2+z
1/2+x,1/2-y,z
loop_
_atom_site_type_symbol
_atom_site_label
_atom_site_fract_x
_atom_site_fract_y
_atom_site_fract_z
Si Si1 0.825248 0.882193 0.961880
Si Si2 0.331968 0.907564 0.834894
Si Si3 0.668450 0.382922 0.741804
Si Si4 0.283318 0.361823 0.838060
Si Si5 0.149808 0.636044 0.513819
Si Si6 0.850838 0.973150 0.609199
Si Si7 0.039844 0.936067 0.883767
Si Si8 0.009010 0.268511 0.196903
O O1 0.799516 0.744201 0.885961
O O2 0.929289 0.951597 0.927816
O O3 0.749508 0.004031 0.918956
O O4 0.824784 0.853769 0.101741
O O5 0.413453 0.888141 0.733062
O O6 0.242467 0.991955 0.777520
O O7 0.377858 0.992739 0.945461
O O8 0.690198 0.233868 0.804679
O O9 0.563658 0.435646 0.790165
O O10 0.353195 0.263960 0.919196
O O11 0.335566 0.416857 0.717075
O O12 0.254105 0.617514 0.579759
O O13 0.066947 0.659986 0.610069
O O14 0.936975 0.864741 0.638009
O O15 0.882653 0.063218 0.492744
O O16 0.049235 0.787210 0.814163
#
# Coordination Sequence:
#
# PCOD8171419 Si02
#       8
#     4   4   4   4   4   4   4   4
#     4  11  24  43  71 103 138 183 240 288 353 429
#     4  10  23  49  65 104 143 180 238 284 357 421
#     4  11  24  42  71 103 138 180 233 297 350 419
#     4  11  23  43  69 102 130 182 235 284 346 423
#     4  11  25  48  70 104 148 179 234 301 346 416
#     4  12  23  44  75 103 140 187 235 285 355 423
#     4  11  22  43  70  99 138 182 232 288 348 418
#     4  11  26  44  73 104 139 191 233 293 351 429
#
# _framework density 22.061254999999999
#
# number of rings (size 3 to 8) (size 9 to 14) (size 15 to 20)
#    0.000    1.000    5.000    3.000    3.500    0.000 
#   11.250    1.250    0.000    0.000    0.000    0.000 
#    0.000    0.000    0.000    0.000    0.000    0.000 
#
# Total GULP energy -396709.674773 kJ/mol
# GULP energy per Si atom -12397.177337 kJ/mol
# Density = 2.201104 g / cm^3
# Si number density = 22.061255 Si / 1000 Ang^3
#
#
#
# Elastic Constant Matrix: (Units=GPa)
#
#
# Indices 1 2 3 4 5 6 
#
# 1 84.6273 43.6426 35.6634 0.0000 0.0000 0.0000
# 2 43.6426 126.6864 31.0988 0.0000 0.0000 0.0000
# 3 35.6634 31.0988 113.1518 0.0000 0.0000 0.0000
# 4 0.0000 0.0000 0.0000 39.3641 0.0000 0.0000
# 5 0.0000 0.0000 0.0000 0.0000 47.4174 0.0000
# 6 0.0000 0.0000 0.0000 0.0000 0.0000 27.2913
#
#
#
# Elastic Compliance Matrix: (Units=1/GPa)
#
#
# Indices 1 2 3 4 5 6 
#
# 1 0.015700 -0.004497 -0.003712 0.000000 0.000000 0.000000
# 2 -0.004497 0.009753 -0.001263 0.000000 0.000000 0.000000
# 3 -0.003712 -0.001263 0.010355 0.000000 0.000000 0.000000
# 4 0.000000 0.000000 0.000000 0.025404 0.000000 0.000000
# 5 0.000000 0.000000 0.000000 0.000000 0.021089 0.000000
# 6 0.000000 0.000000 0.000000 0.000000 0.000000 0.036642
#
#
# Mechanical properties :
#
#
# Convention : Reuss Voigt Hill
#
# Bulk Modulus (GPa) = 59.30297 60.58611 59.94454
# Shear Modulus (GPa) = 34.84099 37.08527 35.96313
#
# Velocity S-wave (km/s) = 3.97833 4.10446 4.04189
# Velocity P-wave (km/s) = 6.93125 7.06997 7.00095
#
# Compressibility (1/GPa) = 0.01686256
#
# Stress axis : x y z
#
# Youngs Moduli (GPa) = 63.69321 102.53418 96.57272
#
# Poissons Ratio (x) = 0.46113 0.35852
# Poissons Ratio (y) = 0.28645 0.12197
# Poissons Ratio (z) = 0.23645 0.12950
#
# Static dielectric constant tensor:
#      x y z
#    x 3.863610 0.000000 0.000000 
#    y 0.000000 4.144320 0.000000 
#    z 0.000000 0.000000 4.398310 
# 
# 
# High freq. dielectric constant tensor:
#      x y z
#    x 1.847890 0.000000 0.000000 
#    y 0.000000 1.870300 0.000000 
#    z 0.000000 0.000000 1.892060 
# 
# From -- ./inp_files/6763.got.cif
#   From: 2010.03.12/outbox.cif.g09.slc.cpg/sg33_4_cif.got.tgz:6763.got - 2010.04.14 01:49:19.
