data_PCOD8171018
_publ_section_title
;
Structure prediction by ZEFSAII (Michael W. Deem and Ramdas Pophale) SiO2 
 PCOD8171018
Probable space group: P N A 21
;
_chemical_formula_sum "Si O2"
_cell_formula_units_Z 28
_cell_length_a 16.809115
_cell_length_b 15.451201
_cell_length_c 5.044629
_cell_angle_alpha 90.000000
_cell_angle_beta 90.000000
_cell_angle_gamma 90.000000
_cell_volume 1310.196162
_symmetry_space_group_name_H-M "P N A 21"
_symmetry_group_IT_number 33
_symmetry_cell_setting 'orthorhombic'
loop_
_space_group_symop_operation_xyz
x,y,z
-x,-y,1/2+z
1/2-x,1/2+y,1/2+z
1/2+x,1/2-y,z
loop_
_atom_site_type_symbol
_atom_site_label
_atom_site_fract_x
_atom_site_fract_y
_atom_site_fract_z
Si Si1 0.761536 0.184003 0.656190
Si Si2 0.004959 0.753903 0.637998
Si Si3 0.709895 0.487755 0.194349
Si Si4 0.094627 0.694375 0.142604
Si Si5 0.186679 0.527170 0.196311
Si Si6 0.661001 0.169595 0.157988
Si Si7 0.969904 0.950781 0.678339
O O1 0.826378 0.254980 0.727794
O O2 0.727946 0.201200 0.363475
O O3 0.803067 0.090571 0.673558
O O4 0.689315 0.191920 0.862815
O O5 0.025036 0.715833 0.349626
O O6 0.919138 0.719867 0.724275
O O7 0.007961 0.857401 0.627317
O O8 0.069255 0.720957 0.848658
O O9 0.744296 0.461838 0.478972
O O10 0.625096 0.442658 0.152359
O O11 0.772190 0.454047 0.977262
O O12 0.114109 0.592673 0.149362
O O13 0.146671 0.432857 0.188799
O O14 0.006666 0.018090 0.470749
#
# Coordination Sequence:
#
# PCOD8171018 Si02
#       7
#     4   4   4   4   4   4   4
#     4  10  21  39  65  87 127 162 211 263 309 371
#     4  12  26  41  63  96 131 169 209 265 326 379
#     4  10  21  40  62  91 121 165 215 260 308 381
#     4  12  25  41  65  94 130 167 215 258 327 378
#     4  10  23  40  65  93 120 169 217 259 311 369
#     4  10  23  42  63  93 125 166 212 264 315 372
#     4  12  25  41  65  94 134 168 209 263 330 390
#
# _framework density 21.370844999999999
#
# number of rings (size 3 to 8) (size 9 to 14) (size 15 to 20)
#    0.000    1.143    0.000    6.000    4.000    3.429 
#    0.000    0.000    0.000    0.000    0.000    0.000 
#    0.000    0.000    0.000    0.000    0.000    0.000 
#
# Total GULP energy -347472.261857 kJ/mol
# GULP energy per Si atom -12409.723638 kJ/mol
# Density = 2.132220 g / cm^3
# Si number density = 21.370845 Si / 1000 Ang^3
#
#
#
# Elastic Constant Matrix: (Units=GPa)
#
#
# Indices 1 2 3 4 5 6 
#
# 1 70.0774 29.2310 6.0094 0.0000 0.0000 0.0000
# 2 29.2310 57.4216 19.0261 0.0000 0.0000 0.0000
# 3 6.0094 19.0261 88.8865 0.0000 0.0000 0.0000
# 4 0.0000 0.0000 0.0000 28.0050 0.0000 0.0000
# 5 0.0000 0.0000 0.0000 0.0000 23.1475 0.0000
# 6 0.0000 0.0000 0.0000 0.0000 0.0000 33.1636
#
#
#
# Elastic Compliance Matrix: (Units=1/GPa)
#
#
# Indices 1 2 3 4 5 6 
#
# 1 0.018171 -0.009518 0.000809 0.000000 0.000000 0.000000
# 2 -0.009518 0.023730 -0.004436 0.000000 0.000000 0.000000
# 3 0.000809 -0.004436 0.012145 0.000000 0.000000 0.000000
# 4 0.000000 0.000000 0.000000 0.035708 0.000000 0.000000
# 5 0.000000 0.000000 0.000000 0.000000 0.043201 0.000000
# 6 0.000000 0.000000 0.000000 0.000000 0.000000 0.030154
#
#
# Mechanical properties :
#
#
# Convention : Reuss Voigt Hill
#
# Bulk Modulus (GPa) = 36.02850 36.10206 36.06528
# Shear Modulus (GPa) = 25.16980 27.67116 26.42048
#
# Velocity S-wave (km/s) = 3.43558 3.60225 3.51990
# Velocity P-wave (km/s) = 5.71252 5.85076 5.78206
#
# Compressibility (1/GPa) = 0.02775581
#
# Stress axis : x y z
#
# Youngs Moduli (GPa) = 55.03344 42.14056 82.33758
#
# Poissons Ratio (x) = 0.40109 -0.06660
# Poissons Ratio (y) = 0.52381 0.36524
# Poissons Ratio (z) = -0.04451 0.18693
#
# Static dielectric constant tensor:
#      x y z
#    x 3.618290 0.000000 0.000000 
#    y 0.000000 3.915130 0.000000 
#    z 0.000000 0.000000 3.921650 
# 
# 
# High freq. dielectric constant tensor:
#      x y z
#    x 1.833480 0.000000 0.000000 
#    y 0.000000 1.842110 0.000000 
#    z 0.000000 0.000000 1.854610 
# 
# From -- ./inp_files/1408.got.cif
#   From: 2010.03.12/outbox.cif.g09.slc.cpg/sg33_1_cif.got.tgz:1408.got - 2010.04.14 01:49:19.
