data_PCOD8171921
_publ_section_title
;
Structure prediction by ZEFSAII (Michael W. Deem and Ramdas Pophale) SiO2 
 PCOD8171921
Probable space group: P N N 2
;
_chemical_formula_sum "Si O2"
_cell_formula_units_Z 32
_cell_length_a 14.879579
_cell_length_b 11.763180
_cell_length_c 8.453874
_cell_angle_alpha 90.000000
_cell_angle_beta 90.000000
_cell_angle_gamma 90.000000
_cell_volume 1479.691424
_symmetry_space_group_name_H-M "P N N 2"
_symmetry_group_IT_number 34
_symmetry_cell_setting 'orthorhombic'
loop_
_space_group_symop_operation_xyz
x,y,z
-x,-y,z
1/2-x,1/2+y,1/2+z
1/2+x,1/2-y,1/2+z
loop_
_atom_site_type_symbol
_atom_site_label
_atom_site_fract_x
_atom_site_fract_y
_atom_site_fract_z
Si Si1 0.525629 0.881646 0.326300
Si Si2 0.561707 0.901461 0.688842
Si Si3 0.253102 0.603760 0.113484
Si Si4 0.051904 0.846897 0.298317
Si Si5 0.214569 0.694925 0.793135
Si Si6 0.366143 0.710035 0.371132
Si Si7 0.789270 0.143708 0.524762
Si Si8 0.878610 0.936668 0.174332
O O1 0.553670 0.914432 0.502409
O O2 0.613850 0.835696 0.240378
O O3 0.447443 0.789351 0.318366
O O4 0.500000 0.000000 0.239833
O O5 0.667462 0.915337 0.729782
O O6 0.528981 0.778062 0.737209
O O7 0.500000 0.000000 0.770075
O O8 0.338459 0.637004 0.218069
O O9 0.271491 0.489712 0.015151
O O10 0.231144 0.702214 0.982410
O O11 0.108774 0.837133 0.460925
O O12 0.950781 0.897893 0.310394
O O13 0.109892 0.925235 0.172683
O O14 0.227856 0.816077 0.706112
O O15 0.278884 0.598028 0.721720
O O16 0.281780 0.788319 0.417753
O O17 0.400309 0.622008 0.505590
#
# Coordination Sequence:
#
# PCOD8171921 Si02
#       8
#     4   4   4   4   4   4   4   4
#     4  10  21  39  66  93 126 173 217 283 344 400
#     4  10  20  37  66  95 125 169 229 273 334 412
#     4  11  23  41  67 101 131 182 220 287 356 405
#     4  11  21  41  68  92 131 180 227 280 341 412
#     4  10  23  42  64  96 133 171 227 280 343 410
#     4  11  22  41  68 100 133 174 238 281 343 428
#     4  11  23  43  66  96 136 178 225 284 343 416
#     4  10  23  40  67  94 132 181 224 279 345 410
#
# _framework density 21.626131000000001
#
# number of rings (size 3 to 8) (size 9 to 14) (size 15 to 20)
#    0.000    1.500    3.750    2.250    1.750    3.000 
#    0.000    0.625    0.000    0.000    0.000    0.000 
#    0.000    0.000    0.000    0.000    0.000    0.000 
#
# Total GULP energy -396548.265586 kJ/mol
# GULP energy per Si atom -12392.133300 kJ/mol
# Density = 2.157691 g / cm^3
# Si number density = 21.626131 Si / 1000 Ang^3
#
#
#
# Elastic Constant Matrix: (Units=GPa)
#
#
# Indices 1 2 3 4 5 6 
#
# 1 123.3948 37.5230 29.1580 0.0000 0.0000 0.0000
# 2 37.5230 125.4466 34.8642 0.0000 0.0000 0.0000
# 3 29.1580 34.8642 64.9756 0.0000 0.0000 0.0000
# 4 0.0000 0.0000 0.0000 22.9270 0.0000 0.0000
# 5 0.0000 0.0000 0.0000 0.0000 21.6674 0.0000
# 6 0.0000 0.0000 0.0000 0.0000 0.0000 37.2421
#
#
#
# Elastic Compliance Matrix: (Units=1/GPa)
#
#
# Indices 1 2 3 4 5 6 
#
# 1 0.009449 -0.001937 -0.003201 0.000000 0.000000 0.000000
# 2 -0.001937 0.009766 -0.004371 0.000000 0.000000 0.000000
# 3 -0.003201 -0.004371 0.019172 0.000000 0.000000 0.000000
# 4 0.000000 0.000000 0.000000 0.043617 0.000000 0.000000
# 5 0.000000 0.000000 0.000000 0.000000 0.046152 0.000000
# 6 0.000000 0.000000 0.000000 0.000000 0.000000 0.026851
#
#
# Mechanical properties :
#
#
# Convention : Reuss Voigt Hill
#
# Bulk Modulus (GPa) = 51.62738 57.43418 54.53078
# Shear Modulus (GPa) = 27.70364 30.51877 29.11120
#
# Velocity S-wave (km/s) = 3.58303 3.76067 3.67292
# Velocity P-wave (km/s) = 6.40640 6.74331 6.57701
#
# Compressibility (1/GPa) = 0.01936957
#
# Stress axis : x y z
#
# Youngs Moduli (GPa) = 105.82594 102.40044 52.15879
#
# Poissons Ratio (x) = 0.19833 0.16697
# Poissons Ratio (y) = 0.20496 0.22798
# Poissons Ratio (z) = 0.33878 0.44757
#
# Static dielectric constant tensor:
#      x y z
#    x 4.182330 0.000000 0.000000 
#    y 0.000000 4.054580 0.000000 
#    z 0.000000 0.000000 3.595390 
# 
# 
# High freq. dielectric constant tensor:
#      x y z
#    x 1.863850 0.000000 0.000000 
#    y 0.000000 1.854780 0.000000 
#    z 0.000000 0.000000 1.809560 
# 
# From -- ./inp_files/3673.got.cif
#   From: 2010.03.12/outbox.cif.g09.slc.cpg/sg34_2_cif.got.tgz:3673.got - 2010.04.14 01:56:33.
