data_PCOD8171662
_publ_section_title
;
Structure prediction by ZEFSAII (Michael W. Deem and Ramdas Pophale) SiO2 
 PCOD8171662
Probable space group: P N A 21
;
_chemical_formula_sum "Si O2"
_cell_formula_units_Z 28
_cell_length_a 13.604158
_cell_length_b 5.534910
_cell_length_c 16.419365
_cell_angle_alpha 90.000000
_cell_angle_beta 90.000000
_cell_angle_gamma 90.000000
_cell_volume 1236.341900
_symmetry_space_group_name_H-M "P N A 21"
_symmetry_group_IT_number 33
_symmetry_cell_setting 'orthorhombic'
loop_
_space_group_symop_operation_xyz
x,y,z
-x,-y,1/2+z
1/2-x,1/2+y,1/2+z
1/2+x,1/2-y,z
loop_
_atom_site_type_symbol
_atom_site_label
_atom_site_fract_x
_atom_site_fract_y
_atom_site_fract_z
Si Si1 0.604517 0.603001 0.946990
Si Si2 0.887831 0.393777 0.605123
Si Si3 0.269381 0.325114 0.737359
Si Si4 0.730621 0.174884 0.332004
Si Si5 0.749997 0.251193 0.034681
Si Si6 0.895479 0.603010 0.122371
Si Si7 0.387827 0.606218 0.964239
O O1 0.656276 0.684218 0.862987
O O2 0.492830 0.517847 0.928575
O O3 0.599783 0.823294 0.010451
O O4 0.667492 0.391754 0.985874
O O5 0.843817 0.175406 0.659704
O O6 0.805884 0.602322 0.605505
O O7 0.992835 0.482156 0.640784
O O8 0.290897 0.576879 0.783103
O O9 0.156278 0.315772 0.706375
O O10 0.290899 0.076879 0.786262
O O11 0.656190 0.175407 0.409662
O O12 0.832494 0.391778 0.083489
O O13 0.805884 0.102333 0.963858
O O14 0.900217 0.823304 0.058911
#
# Coordination Sequence:
#
# PCOD8171662 Si02
#       7
#     4   4   4   4   4   4   4
#     4  11  24  43  71 102 135 187 249 302 355 428
#     4  11  24  43  71 102 135 187 249 302 355 428
#     4  12  26  46  69 101 150 188 226 294 364 434
#     4  12  26  46  69 101 150 188 226 294 364 434
#     4  12  18  44  72 106 136 182 244 318 362 412
#     4  11  24  43  71 102 135 187 249 302 355 428
#     4  11  24  43  71 102 135 187 249 302 355 428
#
# _framework density 22.647456999999999
#
# number of rings (size 3 to 8) (size 9 to 14) (size 15 to 20)
#    0.000    0.571    5.714    2.571    0.000    2.286 
#    0.000    0.000    0.000    0.000    0.000    0.000 
#    0.000    0.000    0.000    0.000    0.000    0.000 
#
# Total GULP energy -347122.439554 kJ/mol
# GULP energy per Si atom -12397.229984 kJ/mol
# Density = 2.259591 g / cm^3
# Si number density = 22.647457 Si / 1000 Ang^3
#
#
#
# Elastic Constant Matrix: (Units=GPa)
#
#
# Indices 1 2 3 4 5 6 
#
# 1 166.4232 27.4657 9.6594 0.0000 0.0000 0.0000
# 2 27.4657 101.6707 17.6007 0.0000 0.0000 0.0000
# 3 9.6594 17.6007 52.6183 0.0000 0.0000 0.0000
# 4 0.0000 0.0000 0.0000 34.5555 0.0000 0.0000
# 5 0.0000 0.0000 0.0000 0.0000 28.2620 0.0000
# 6 0.0000 0.0000 0.0000 0.0000 0.0000 21.0493
#
#
#
# Elastic Compliance Matrix: (Units=1/GPa)
#
#
# Indices 1 2 3 4 5 6 
#
# 1 0.006308 -0.001596 -0.000624 0.000000 0.000000 0.000000
# 2 -0.001596 0.010844 -0.003334 0.000000 0.000000 0.000000
# 3 -0.000624 -0.003334 0.020235 0.000000 0.000000 0.000000
# 4 0.000000 0.000000 0.000000 0.028939 0.000000 0.000000
# 5 0.000000 0.000000 0.000000 0.000000 0.035383 0.000000
# 6 0.000000 0.000000 0.000000 0.000000 0.000000 0.047507
#
#
# Mechanical properties :
#
#
# Convention : Reuss Voigt Hill
#
# Bulk Modulus (GPa) = 38.05465 47.79596 42.92530
# Shear Modulus (GPa) = 29.57087 34.50580 32.03833
#
# Velocity S-wave (km/s) = 3.61737 3.90757 3.76527
# Velocity P-wave (km/s) = 5.85549 6.44275 6.15612
#
# Compressibility (1/GPa) = 0.02627800
#
# Stress axis : x y z
#
# Youngs Moduli (GPa) = 158.51823 92.21629 49.42006
#
# Poissons Ratio (x) = 0.14719 0.03085
# Poissons Ratio (y) = 0.25301 0.16478
# Poissons Ratio (z) = 0.09894 0.30748
#
# Static dielectric constant tensor:
#      x y z
#    x 4.431390 0.000000 0.000000 
#    y 0.000000 3.922830 0.000000 
#    z 0.000000 0.000000 4.327300 
# 
# 
# High freq. dielectric constant tensor:
#      x y z
#    x 1.905270 0.000000 0.000000 
#    y 0.000000 1.885760 0.000000 
#    z 0.000000 0.000000 1.883940 
# 
# From -- ./inp_files/8104.got.cif
#   From: 2010.03.12/outbox.cif.g09.slc.cpg/sg33_5_cif.got.tgz:8104.got - 2010.04.14 01:49:19.
