data_PCOD8171724
_publ_section_title
;
Structure prediction by ZEFSAII (Michael W. Deem and Ramdas Pophale) SiO2 
 PCOD8171724
Probable space group: P N A 21
;
_chemical_formula_sum "Si O2"
_cell_formula_units_Z 28
_cell_length_a 12.882714
_cell_length_b 6.686509
_cell_length_c 15.761850
_cell_angle_alpha 90.000000
_cell_angle_beta 90.000000
_cell_angle_gamma 90.000000
_cell_volume 1357.731797
_symmetry_space_group_name_H-M "P N A 21"
_symmetry_group_IT_number 33
_symmetry_cell_setting 'orthorhombic'
loop_
_space_group_symop_operation_xyz
x,y,z
-x,-y,1/2+z
1/2-x,1/2+y,1/2+z
1/2+x,1/2-y,z
loop_
_atom_site_type_symbol
_atom_site_label
_atom_site_fract_x
_atom_site_fract_y
_atom_site_fract_z
Si Si1 0.682055 0.250199 0.248680
Si Si2 0.693401 0.799253 0.471086
Si Si3 0.327008 0.481394 0.122301
Si Si4 0.193422 0.798903 0.026083
Si Si5 0.551846 0.591922 0.174287
Si Si6 0.172975 0.518089 0.874967
Si Si7 0.051862 0.591952 0.322799
O O1 0.750886 0.101894 0.193412
O O2 0.609520 0.382992 0.189181
O O3 0.750495 0.398967 0.304066
O O4 0.609557 0.117022 0.308061
O O5 0.648954 0.690446 0.554111
O O6 0.778666 0.671915 0.421359
O O7 0.592876 0.827487 0.412456
O O8 0.749738 0.000465 0.498543
O O9 0.278302 0.671211 0.076054
O O10 0.430074 0.552361 0.169334
O O11 0.092835 0.828031 0.084544
O O12 0.148923 0.690062 0.943091
O O13 0.575142 0.750183 0.248466
O O14 0.069926 0.447590 0.827769
#
# Coordination Sequence:
#
# PCOD8171724 Si02
#       7
#     4   4   4   4   4   4   4
#     4  12  24  48  66 104 138 180 232 290 340 416
#     4  11  25  47  69  99 142 179 231 289 344 415
#     4  11  27  44  70 101 137 182 231 287 343 413
#     4  11  25  47  69  99 142 179 231 289 344 415
#     4  12  27  44  73 101 139 185 232 283 356 411
#     4  11  27  44  70 101 137 182 231 287 343 413
#     4  12  27  44  73 101 139 185 232 283 356 411
#
# _framework density 20.622627999999999
#
# number of rings (size 3 to 8) (size 9 to 14) (size 15 to 20)
#    0.000    0.571    5.714    0.857    8.000    2.286 
#    0.000    0.000    0.000    0.000    0.000    0.000 
#    0.000    0.000    0.000    0.000    0.000    0.000 
#
# Total GULP energy -347402.889219 kJ/mol
# GULP energy per Si atom -12407.246044 kJ/mol
# Density = 2.057569 g / cm^3
# Si number density = 20.622628 Si / 1000 Ang^3
#
#
#
# Elastic Constant Matrix: (Units=GPa)
#
#
# Indices 1 2 3 4 5 6 
#
# 1 97.0405 28.3834 18.9761 0.0000 0.0000 0.0000
# 2 28.3834 110.8010 28.3851 0.0000 0.0000 0.0000
# 3 18.9761 28.3851 83.9787 0.0000 0.0000 0.0000
# 4 0.0000 0.0000 0.0000 43.8657 0.0000 0.0000
# 5 0.0000 0.0000 0.0000 0.0000 39.5486 0.0000
# 6 0.0000 0.0000 0.0000 0.0000 0.0000 36.3321
#
#
#
# Elastic Compliance Matrix: (Units=1/GPa)
#
#
# Indices 1 2 3 4 5 6 
#
# 1 0.011366 -0.002467 -0.001734 0.000000 0.000000 0.000000
# 2 -0.002467 0.010416 -0.002963 0.000000 0.000000 0.000000
# 3 -0.001734 -0.002963 0.013301 0.000000 0.000000 0.000000
# 4 0.000000 0.000000 0.000000 0.022797 0.000000 0.000000
# 5 0.000000 0.000000 0.000000 0.000000 0.025285 0.000000
# 6 0.000000 0.000000 0.000000 0.000000 0.000000 0.027524
#
#
# Mechanical properties :
#
#
# Convention : Reuss Voigt Hill
#
# Bulk Modulus (GPa) = 48.18402 49.25662 48.72032
# Shear Modulus (GPa) = 37.89691 38.35433 38.12562
#
# Velocity S-wave (km/s) = 4.29142 4.31724 4.30435
# Velocity P-wave (km/s) = 6.92607 6.98484 6.95551
#
# Compressibility (1/GPa) = 0.02075377
#
# Stress axis : x y z
#
# Youngs Moduli (GPa) = 87.98361 96.00301 75.18084
#
# Poissons Ratio (x) = 0.23686 0.13039
# Poissons Ratio (y) = 0.21707 0.22278
# Poissons Ratio (z) = 0.15259 0.28448
#
# Static dielectric constant tensor:
#      x y z
#    x 3.585490 0.000000 0.000000 
#    y 0.000000 3.929300 0.000000 
#    z 0.000000 0.000000 4.178070 
# 
# 
# High freq. dielectric constant tensor:
#      x y z
#    x 1.808180 0.000000 0.000000 
#    y 0.000000 1.825580 0.000000 
#    z 0.000000 0.000000 1.823280 
# 
# From -- ./inp_files/936.got.cif
#   From: 2010.03.12/outbox.cif.g09.slc.cpg/sg33_1_cif.got.tgz:936.got - 2010.04.14 01:49:19.
