data_PCOD8171212
_publ_section_title
;
Structure prediction by ZEFSAII (Michael W. Deem and Ramdas Pophale) SiO2 
 PCOD8171212
Probable space group: P N A 21
;
_chemical_formula_sum "Si O2"
_cell_formula_units_Z 32
_cell_length_a 13.034505
_cell_length_b 5.237242
_cell_length_c 19.923075
_cell_angle_alpha 90.000000
_cell_angle_beta 90.000000
_cell_angle_gamma 90.000000
_cell_volume 1360.045867
_symmetry_space_group_name_H-M "P N A 21"
_symmetry_group_IT_number 33
_symmetry_cell_setting 'orthorhombic'
loop_
_space_group_symop_operation_xyz
x,y,z
-x,-y,1/2+z
1/2-x,1/2+y,1/2+z
1/2+x,1/2-y,z
loop_
_atom_site_type_symbol
_atom_site_label
_atom_site_fract_x
_atom_site_fract_y
_atom_site_fract_z
Si Si1 0.026254 0.529912 0.634980
Si Si2 0.248071 0.402979 0.295022
Si Si3 0.789940 0.379144 0.039227
Si Si4 0.614323 0.862877 0.901767
Si Si5 0.289813 0.270776 0.896688
Si Si6 0.064207 0.118950 0.333156
Si Si7 0.565133 0.475566 0.715862
Si Si8 0.662808 0.864054 0.050566
O O1 0.100661 0.603764 0.574519
O O2 0.011398 0.789499 0.677329
O O3 0.917356 0.437925 0.607673
O O4 0.069234 0.295501 0.679035
O O5 0.314409 0.332325 0.361032
O O6 0.194244 0.658812 0.321886
O O7 0.154146 0.211376 0.282004
O O8 0.315926 0.440217 0.228458
O O9 0.719018 0.600429 0.070913
O O10 0.744686 0.093653 0.046555
O O11 0.808000 0.420120 0.959406
O O12 0.501928 0.851015 0.866912
O O13 0.671127 0.134835 0.898333
O O14 0.605717 0.798595 0.980687
O O15 0.380908 0.482242 0.896885
O O16 0.990916 0.939958 0.287640
#
# Coordination Sequence:
#
# PCOD8171212 Si02
#       8
#     4   4   4   4   4   4   4   4
#     4  12  28  48  70 101 141 195 242 284 348 420
#     4  10  22  42  68  99 137 181 226 291 360 409
#     4  11  25  47  73 105 144 178 234 298 354 425
#     4   9  21  40  64 102 142 163 227 292 356 416
#     4  10  22  41  70 105 134 180 228 296 372 418
#     4  10  24  40  70 103 134 187 229 287 356 428
#     4  11  28  47  66  99 146 185 241 289 333 420
#     4  11  24  45  73 102 138 183 229 291 355 420
#
# _framework density 23.52862
#
# number of rings (size 3 to 8) (size 9 to 14) (size 15 to 20)
#    0.000    1.500    1.250    1.500    8.750    6.000 
#    0.000    0.000    0.000    0.000    0.000    0.000 
#    0.000    0.000    0.000    0.000    0.000    0.000 
#
# Total GULP energy -396514.550730 kJ/mol
# GULP energy per Si atom -12391.079710 kJ/mol
# Density = 2.347507 g / cm^3
# Si number density = 23.528620 Si / 1000 Ang^3
#
#
#
# Elastic Constant Matrix: (Units=GPa)
#
#
# Indices 1 2 3 4 5 6 
#
# 1 103.7080 19.0401 22.1389 0.0000 0.0000 0.0000
# 2 19.0401 94.8314 19.1498 0.0000 0.0000 0.0000
# 3 22.1389 19.1498 61.5723 0.0000 0.0000 0.0000
# 4 0.0000 0.0000 0.0000 39.2391 0.0000 0.0000
# 5 0.0000 0.0000 0.0000 0.0000 34.3368 0.0000
# 6 0.0000 0.0000 0.0000 0.0000 0.0000 27.5435
#
#
#
# Elastic Compliance Matrix: (Units=1/GPa)
#
#
# Indices 1 2 3 4 5 6 
#
# 1 0.010629 -0.001454 -0.003370 0.000000 0.000000 0.000000
# 2 -0.001454 0.011450 -0.003039 0.000000 0.000000 0.000000
# 3 -0.003370 -0.003039 0.018398 0.000000 0.000000 0.000000
# 4 0.000000 0.000000 0.000000 0.025485 0.000000 0.000000
# 5 0.000000 0.000000 0.000000 0.000000 0.029123 0.000000
# 6 0.000000 0.000000 0.000000 0.000000 0.000000 0.036306
#
#
# Mechanical properties :
#
#
# Convention : Reuss Voigt Hill
#
# Bulk Modulus (GPa) = 40.39859 42.30770 41.35314
# Shear Modulus (GPa) = 32.18214 33.54272 32.86243
#
# Velocity S-wave (km/s) = 3.70237 3.77983 3.74130
# Velocity P-wave (km/s) = 5.95685 6.08850 6.02303
#
# Compressibility (1/GPa) = 0.02475334
#
# Stress axis : x y z
#
# Youngs Moduli (GPa) = 94.08545 87.33258 54.35467
#
# Poissons Ratio (x) = 0.12694 0.18315
# Poissons Ratio (y) = 0.13676 0.16516
# Poissons Ratio (z) = 0.31703 0.26537
#
# Static dielectric constant tensor:
#      x y z
#    x 4.283560 0.000000 0.000000 
#    y 0.000000 4.124450 0.000000 
#    z 0.000000 0.000000 4.143740 
# 
# 
# High freq. dielectric constant tensor:
#      x y z
#    x 1.936940 0.000000 0.000000 
#    y 0.000000 1.929200 0.000000 
#    z 0.000000 0.000000 1.921290 
# 
# From -- ./inp_files/9122.got.cif
#   From: 2010.03.12/outbox.cif.g09.slc.cpg/sg33_5_cif.got.tgz:9122.got - 2010.04.14 01:49:19.
