data_PCOD8171958
_publ_section_title
;
Structure prediction by ZEFSAII (Michael W. Deem and Ramdas Pophale) SiO2 
 PCOD8171958
Probable space group: P N N 2
;
_chemical_formula_sum "Si O2"
_cell_formula_units_Z 32
_cell_length_a 16.003029
_cell_length_b 8.559070
_cell_length_c 11.293299
_cell_angle_alpha 90.000000
_cell_angle_beta 90.000000
_cell_angle_gamma 90.000000
_cell_volume 1546.854970
_symmetry_space_group_name_H-M "P N N 2"
_symmetry_group_IT_number 34
_symmetry_cell_setting 'orthorhombic'
loop_
_space_group_symop_operation_xyz
x,y,z
-x,-y,z
1/2-x,1/2+y,1/2+z
1/2+x,1/2-y,1/2+z
loop_
_atom_site_type_symbol
_atom_site_label
_atom_site_fract_x
_atom_site_fract_y
_atom_site_fract_z
Si Si1 0.509636 0.316244 0.091380
Si Si2 0.857373 0.778189 0.301688
Si Si3 0.823120 0.655060 0.546765
Si Si4 0.531604 0.820364 0.846733
Si Si5 0.746308 0.099877 0.635776
Si Si6 0.127244 0.644448 0.683257
Si Si7 0.711152 0.787966 0.733039
Si Si8 0.732831 0.019208 0.373020
O O1 0.500000 0.500000 0.113948
O O2 0.608223 0.284621 0.085727
O O3 0.469344 0.202464 0.193556
O O4 0.457462 0.254926 0.976405
O O5 0.819851 0.661693 0.404223
O O6 0.956737 0.781864 0.290490
O O7 0.824730 0.722878 0.174242
O O8 0.822794 0.950190 0.332778
O O9 0.855337 0.484135 0.582384
O O10 0.734074 0.697496 0.608598
O O11 0.612472 0.796932 0.763509
O O12 0.500000 0.000000 0.853602
O O13 0.832096 0.193320 0.637205
O O14 0.720999 0.017015 0.512939
O O15 0.748510 0.960985 0.731134
O O16 0.159598 0.582624 0.810492
O O17 0.764970 0.699108 0.833109
#
# Coordination Sequence:
#
# PCOD8171958 Si02
#       8
#     4   4   4   4   4   4   4   4
#     4  11  22  36  65  94 124 159 213 273 316 378
#     4  10  21  37  59  90 124 160 211 261 305 380
#     4  10  21  39  62  89 128 165 207 265 329 371
#     4  11  22  35  57  93 126 165 208 260 324 369
#     4  11  21  38  62  88 128 165 211 255 318 384
#     4  10  22  38  59  94 125 158 206 268 314 383
#     4  11  22  37  63  86 125 163 205 261 319 380
#     4  10  23  38  60  93 121 165 209 254 322 377
#
# _framework density 20.687135999999999
#
# number of rings (size 3 to 8) (size 9 to 14) (size 15 to 20)
#    0.000    1.500    2.500    3.375    7.000    0.000 
#    0.000    0.000   11.000    0.000    0.000    0.000 
#    0.000    0.000    0.000    0.000    0.000    0.000 
#
# Total GULP energy -396484.794492 kJ/mol
# GULP energy per Si atom -12390.149828 kJ/mol
# Density = 2.064005 g / cm^3
# Si number density = 20.687136 Si / 1000 Ang^3
#
#
#
# Elastic Constant Matrix: (Units=GPa)
#
#
# Indices 1 2 3 4 5 6 
#
# 1 86.4181 25.0214 35.4148 0.0000 0.0000 0.0000
# 2 25.0214 114.0114 32.8867 0.0000 0.0000 0.0000
# 3 35.4148 32.8867 66.0928 0.0000 0.0000 0.0000
# 4 0.0000 0.0000 0.0000 31.0109 0.0000 0.0000
# 5 0.0000 0.0000 0.0000 0.0000 30.0890 0.0000
# 6 0.0000 0.0000 0.0000 0.0000 0.0000 28.3565
#
#
#
# Elastic Compliance Matrix: (Units=1/GPa)
#
#
# Indices 1 2 3 4 5 6 
#
# 1 0.014952 -0.001133 -0.007448 0.000000 0.000000 0.000000
# 2 -0.001133 0.010327 -0.004531 0.000000 0.000000 0.000000
# 3 -0.007448 -0.004531 0.021376 0.000000 0.000000 0.000000
# 4 0.000000 0.000000 0.000000 0.032247 0.000000 0.000000
# 5 0.000000 0.000000 0.000000 0.000000 0.033235 0.000000
# 6 0.000000 0.000000 0.000000 0.000000 0.000000 0.035265
#
#
# Mechanical properties :
#
#
# Convention : Reuss Voigt Hill
#
# Bulk Modulus (GPa) = 48.94792 50.35202 49.64997
# Shear Modulus (GPa) = 27.71065 29.43790 28.57428
#
# Velocity S-wave (km/s) = 3.66390 3.77637 3.72056
# Velocity P-wave (km/s) = 6.45068 6.58841 6.51991
#
# Compressibility (1/GPa) = 0.02042988
#
# Stress axis : x y z
#
# Youngs Moduli (GPa) = 66.88089 96.83566 46.78176
#
# Poissons Ratio (x) = 0.10972 0.34843
# Poissons Ratio (y) = 0.07578 0.21198
# Poissons Ratio (z) = 0.49813 0.43879
#
# Static dielectric constant tensor:
#      x y z
#    x 3.794680 0.000000 0.000000 
#    y 0.000000 3.935720 0.000000 
#    z 0.000000 0.000000 3.649710 
# 
# 
# High freq. dielectric constant tensor:
#      x y z
#    x 1.796180 0.000000 0.000000 
#    y 0.000000 1.832500 0.000000 
#    z 0.000000 0.000000 1.781570 
# 
# From -- ./inp_files/5799.got.cif
#   From: 2010.03.12/outbox.cif.g09.slc.cpg/sg34_3_cif.got.tgz:5799.got - 2010.04.14 01:56:33.
