data_PCOD8171842
_publ_section_title
;
Structure prediction by ZEFSAII (Michael W. Deem and Ramdas Pophale) SiO2 
 PCOD8171842
Probable space group: P N N 2
;
_chemical_formula_sum "Si O2"
_cell_formula_units_Z 24
_cell_length_a 8.745768
_cell_length_b 9.830719
_cell_length_c 16.082638
_cell_angle_alpha 90.000000
_cell_angle_beta 90.000000
_cell_angle_gamma 90.000000
_cell_volume 1382.739985
_symmetry_space_group_name_H-M "P N N 2"
_symmetry_group_IT_number 34
_symmetry_cell_setting 'orthorhombic'
loop_
_space_group_symop_operation_xyz
x,y,z
-x,-y,z
1/2-x,1/2+y,1/2+z
1/2+x,1/2-y,1/2+z
loop_
_atom_site_type_symbol
_atom_site_label
_atom_site_fract_x
_atom_site_fract_y
_atom_site_fract_z
Si Si1 0.663114 0.753399 0.981480
Si Si2 0.145158 0.407937 0.689996
Si Si3 0.472460 0.647661 0.119433
Si Si4 0.822448 0.528101 0.874400
Si Si5 0.329591 0.715765 0.958221
Si Si6 0.821953 0.028315 0.025670
O O1 0.774354 0.648917 0.935273
O O2 0.500655 0.765425 0.932332
O O3 0.629252 0.702011 0.075966
O O4 0.738545 0.900149 0.985253
O O5 0.087153 0.251430 0.689158
O O6 0.217466 0.433486 0.779802
O O7 0.268802 0.439091 0.619258
O O8 0.000000 0.500000 0.670430
O O9 0.500000 0.500000 0.160651
O O10 0.343408 0.636634 0.046791
O O11 0.731655 0.388941 0.890402
O O12 0.000000 0.500000 0.887879
O O13 0.216027 0.843774 0.966385
O O14 0.000000 0.000000 0.027168
#
# Coordination Sequence:
#
# PCOD8171842 Si02
#       6
#     4   4   4   4   4   4
#     4  10  18  35  59  76 109 156 191 224 284 353
#     4  10  20  36  54  81 118 155 183 235 297 346
#     4   9  16  33  61  78  99 153 204 213 266 364
#     4  11  21  33  53  88 117 142 193 249 286 321
#     4   9  18  34  54  78 106 149 195 226 281 347
#     4  11  20  33  56  84 110 144 199 242 276 337
#
# _framework density 17.356840999999999
#
# number of rings (size 3 to 8) (size 9 to 14) (size 15 to 20)
#    1.000    1.000    3.333    2.000    0.000    1.333 
#    0.000    4.167    0.000    0.000    0.000    0.000 
#    0.000    0.000    0.000    0.000    0.000    0.000 
#
# Total GULP energy -297442.052051 kJ/mol
# GULP energy per Si atom -12393.418835 kJ/mol
# Density = 1.731734 g / cm^3
# Si number density = 17.356841 Si / 1000 Ang^3
#
#
#
# Elastic Constant Matrix: (Units=GPa)
#
#
# Indices 1 2 3 4 5 6 
#
# 1 97.4779 56.8480 36.0334 0.0000 0.0000 0.0000
# 2 56.8480 163.9836 59.9787 0.0000 0.0000 0.0000
# 3 36.0334 59.9787 86.8553 0.0000 0.0000 0.0000
# 4 0.0000 0.0000 0.0000 25.2548 0.0000 0.0000
# 5 0.0000 0.0000 0.0000 0.0000 16.7988 0.0000
# 6 0.0000 0.0000 0.0000 0.0000 0.0000 35.3896
#
#
#
# Elastic Compliance Matrix: (Units=1/GPa)
#
#
# Indices 1 2 3 4 5 6 
#
# 1 0.013478 -0.003515 -0.003164 0.000000 0.000000 0.000000
# 2 -0.003515 0.009076 -0.004809 0.000000 0.000000 0.000000
# 3 -0.003164 -0.004809 0.016147 0.000000 0.000000 0.000000
# 4 0.000000 0.000000 0.000000 0.039596 0.000000 0.000000
# 5 0.000000 0.000000 0.000000 0.000000 0.059528 0.000000
# 6 0.000000 0.000000 0.000000 0.000000 0.000000 0.028257
#
#
# Mechanical properties :
#
#
# Convention : Reuss Voigt Hill
#
# Bulk Modulus (GPa) = 63.59600 72.67077 68.13338
# Shear Modulus (GPa) = 25.73329 28.51910 27.12620
#
# Velocity S-wave (km/s) = 3.85463 4.05792 3.95758
# Velocity P-wave (km/s) = 7.51870 7.99470 7.76035
#
# Compressibility (1/GPa) = 0.01572426
#
# Stress axis : x y z
#
# Youngs Moduli (GPa) = 74.19240 110.18426 61.93078
#
# Poissons Ratio (x) = 0.38732 0.19597
# Poissons Ratio (y) = 0.26080 0.29782
# Poissons Ratio (z) = 0.23477 0.52987
#
# Static dielectric constant tensor:
#      x y z
#    x 3.178780 0.000000 0.000000 
#    y 0.000000 3.294980 0.000000 
#    z 0.000000 0.000000 2.952320 
# 
# 
# High freq. dielectric constant tensor:
#      x y z
#    x 1.663950 0.000000 0.000000 
#    y 0.000000 1.685070 0.000000 
#    z 0.000000 0.000000 1.637790 
# 
# From -- ./inp_files/7465.got.cif
#   From: 2010.03.12/outbox.cif.g09.slc.cpg/sg34_4_cif.got.tgz:7465.got - 2010.04.14 01:56:33.
