data_PCOD8171985
_publ_section_title
;
Structure prediction by ZEFSAII (Michael W. Deem and Ramdas Pophale) SiO2 
 PCOD8171985
Probable space group: P N N 2
;
_chemical_formula_sum "Si O2"
_cell_formula_units_Z 32
_cell_length_a 12.197321
_cell_length_b 8.540894
_cell_length_c 14.279239
_cell_angle_alpha 90.000000
_cell_angle_beta 90.000000
_cell_angle_gamma 90.000000
_cell_volume 1487.554370
_symmetry_space_group_name_H-M "P N N 2"
_symmetry_group_IT_number 34
_symmetry_cell_setting 'orthorhombic'
loop_
_space_group_symop_operation_xyz
x,y,z
-x,-y,z
1/2-x,1/2+y,1/2+z
1/2+x,1/2-y,1/2+z
loop_
_atom_site_type_symbol
_atom_site_label
_atom_site_fract_x
_atom_site_fract_y
_atom_site_fract_z
Si Si1 0.243635 0.401624 0.575480
Si Si2 0.902180 0.119487 0.914209
Si Si3 0.580903 0.258594 0.943524
Si Si4 0.199373 0.748108 0.626750
Si Si5 0.300055 0.919528 0.789079
Si Si6 0.506154 0.815083 0.261202
Si Si7 0.759671 0.750718 0.765476
Si Si8 0.845174 0.107321 0.443645
O O1 0.346247 0.343681 0.513435
O O2 0.132395 0.316351 0.538183
O O3 0.227821 0.587848 0.573374
O O4 0.274626 0.362667 0.681447
O O5 0.810166 0.045692 0.847873
O O6 0.942340 0.278127 0.863346
O O7 0.000000 0.000000 0.929759
O O8 0.604497 0.142132 0.856748
O O9 0.632896 0.427078 0.921343
O O10 0.451229 0.279227 0.950394
O O11 0.288385 0.794202 0.705504
O O12 0.080382 0.747875 0.675958
O O13 0.207051 0.881462 0.546929
O O14 0.316455 0.095256 0.750301
O O15 0.390541 0.725360 0.255112
O O16 0.500000 0.000000 0.250743
O O17 0.736260 0.668081 0.864156
#
# Coordination Sequence:
#
# PCOD8171985 Si02
#       8
#     4   4   4   4   4   4   4   4
#     4  11  23  40  66  94 129 171 219 269 329 403
#     4  10  21  41  64  95 125 170 212 272 332 394
#     4  10  23  43  62  88 127 169 215 269 329 398
#     4  11  23  39  64  99 124 167 212 270 326 390
#     4  10  22  41  65  90 128 166 219 269 323 395
#     4  11  23  40  67  97 132 166 220 273 330 396
#     4  12  23  40  64  96 128 172 217 273 330 392
#     4  11  24  40  64  92 128 170 212 271 333 387
#
# _framework density 21.51182
#
# number of rings (size 3 to 8) (size 9 to 14) (size 15 to 20)
#    0.000    1.250    2.500    3.750    3.500    2.500 
#    4.500    0.000    0.000    0.000    0.000    0.000 
#    0.000    0.000    0.000    0.000    0.000    0.000 
#
# Total GULP energy -396731.495711 kJ/mol
# GULP energy per Si atom -12397.859241 kJ/mol
# Density = 2.146286 g / cm^3
# Si number density = 21.511820 Si / 1000 Ang^3
#
#
#
# Elastic Constant Matrix: (Units=GPa)
#
#
# Indices 1 2 3 4 5 6 
#
# 1 29.2861 -4.2552 25.4947 0.0000 0.0000 0.0000
# 2 -4.2552 62.2381 8.3206 0.0000 0.0000 0.0000
# 3 25.4947 8.3206 132.5710 0.0000 0.0000 0.0000
# 4 0.0000 0.0000 0.0000 39.9763 0.0000 0.0000
# 5 0.0000 0.0000 0.0000 0.0000 25.5988 0.0000
# 6 0.0000 0.0000 0.0000 0.0000 0.0000 28.3217
#
#
#
# Elastic Compliance Matrix: (Units=1/GPa)
#
#
# Indices 1 2 3 4 5 6 
#
# 1 0.041968 0.003982 -0.008321 0.000000 0.000000 0.000000
# 2 0.003982 0.016581 -0.001806 0.000000 0.000000 0.000000
# 3 -0.008321 -0.001806 0.009257 0.000000 0.000000 0.000000
# 4 0.000000 0.000000 0.000000 0.025015 0.000000 0.000000
# 5 0.000000 0.000000 0.000000 0.000000 0.039064 0.000000
# 6 0.000000 0.000000 0.000000 0.000000 0.000000 0.035309
#
#
# Mechanical properties :
#
#
# Convention : Reuss Voigt Hill
#
# Bulk Modulus (GPa) = 18.01321 31.46838 24.74080
# Shear Modulus (GPa) = 25.25389 31.74835 28.50112
#
# Velocity S-wave (km/s) = 3.43002 3.84586 3.64387
# Velocity P-wave (km/s) = 4.90699 5.86353 5.40645
#
# Compressibility (1/GPa) = 0.05551480
#
# Stress axis : x y z
#
# Youngs Moduli (GPa) = 23.82772 60.30981 108.03032
#
# Poissons Ratio (x) = -0.24014 0.89889
# Poissons Ratio (y) = -0.09488 0.19515
# Poissons Ratio (z) = 0.19826 0.10894
#
# Static dielectric constant tensor:
#      x y z
#    x 3.795630 0.000000 0.000000 
#    y 0.000000 3.817420 0.000000 
#    z 0.000000 0.000000 3.984190 
# 
# 
# High freq. dielectric constant tensor:
#      x y z
#    x 1.822420 0.000000 0.000000 
#    y 0.000000 1.848900 0.000000 
#    z 0.000000 0.000000 1.854380 
# 
# From -- ./inp_files/6833.got.cif
#   From: 2010.03.12/outbox.cif.g09.slc.cpg/sg34_4_cif.got.tgz:6833.got - 2010.04.14 01:56:33.
