data_PCOD8171017
_publ_section_title
;
Structure prediction by ZEFSAII (Michael W. Deem and Ramdas Pophale) SiO2 
 PCOD8171017
Probable space group: P N A 21
;
_chemical_formula_sum "Si O2"
_cell_formula_units_Z 32
_cell_length_a 23.052084
_cell_length_b 9.049346
_cell_length_c 7.150312
_cell_angle_alpha 90.000000
_cell_angle_beta 90.000000
_cell_angle_gamma 90.000000
_cell_volume 1491.600017
_symmetry_space_group_name_H-M "P N A 21"
_symmetry_group_IT_number 33
_symmetry_cell_setting 'orthorhombic'
loop_
_space_group_symop_operation_xyz
x,y,z
-x,-y,1/2+z
1/2-x,1/2+y,1/2+z
1/2+x,1/2-y,z
loop_
_atom_site_type_symbol
_atom_site_label
_atom_site_fract_x
_atom_site_fract_y
_atom_site_fract_z
Si Si1 0.185935 0.101569 0.015380
Si Si2 0.395774 0.763618 0.237414
Si Si3 0.865701 0.710421 0.815392
Si Si4 0.629694 0.702680 0.105517
Si Si5 0.010478 0.215444 0.227405
Si Si6 0.400247 0.107327 0.248728
Si Si7 0.681684 0.897178 0.407580
Si Si8 0.005924 0.886908 0.143671
O O1 0.180426 0.179042 0.218694
O O2 0.156824 0.941724 0.012372
O O3 0.155740 0.206209 0.864893
O O4 0.252001 0.081926 0.959319
O O5 0.455818 0.675624 0.281750
O O6 0.407419 0.933898 0.279946
O O7 0.375399 0.734133 0.025547
O O8 0.925391 0.717537 0.692989
O O9 0.842658 0.544423 0.810850
O O10 0.674118 0.766054 0.258247
O O11 0.569930 0.660051 0.213438
O O12 0.618373 0.820009 0.942726
O O13 0.004439 0.186788 0.445776
O O14 0.961410 0.332277 0.168064
O O15 0.001034 0.062795 0.116982
O O16 0.351713 0.143363 0.096226
#
# Coordination Sequence:
#
# PCOD8171017 Si02
#       8
#     4   4   4   4   4   4   4   4
#     4  12  26  45  71  94 133 185 221 280 327 399
#     4  10  23  43  70 100 136 174 217 278 336 399
#     4  10  24  47  64 100 133 173 226 272 336 391
#     4  11  25  45  66 102 132 175 228 272 334 397
#     4  10  21  40  67  99 135 172 215 277 332 404
#     4  10  24  44  69 100 136 174 219 277 339 396
#     4  11  28  43  68  97 134 180 227 272 333 401
#     4  10  21  39  65 102 133 171 217 268 339 399
#
# _framework density 21.453472999999999
#
# number of rings (size 3 to 8) (size 9 to 14) (size 15 to 20)
#    0.000    1.500    1.250    2.250    8.750    1.000 
#    2.250    0.000    0.000    0.000    0.000    0.000 
#    0.000    0.000    0.000    0.000    0.000    0.000 
#
# Total GULP energy -396943.123987 kJ/mol
# GULP energy per Si atom -12404.472625 kJ/mol
# Density = 2.140464 g / cm^3
# Si number density = 21.453473 Si / 1000 Ang^3
#
#
#
# Elastic Constant Matrix: (Units=GPa)
#
#
# Indices 1 2 3 4 5 6 
#
# 1 143.1841 66.3438 34.8775 0.0000 0.0000 0.0000
# 2 66.3438 139.4482 44.8941 0.0000 0.0000 0.0000
# 3 34.8775 44.8941 52.6298 0.0000 0.0000 0.0000
# 4 0.0000 0.0000 0.0000 25.5545 0.0000 0.0000
# 5 0.0000 0.0000 0.0000 0.0000 31.8692 0.0000
# 6 0.0000 0.0000 0.0000 0.0000 0.0000 28.1435
#
#
#
# Elastic Compliance Matrix: (Units=1/GPa)
#
#
# Indices 1 2 3 4 5 6 
#
# 1 0.009360 -0.003386 -0.003315 0.000000 0.000000 0.000000
# 2 -0.003386 0.011111 -0.007234 0.000000 0.000000 0.000000
# 3 -0.003315 -0.007234 0.027368 0.000000 0.000000 0.000000
# 4 0.000000 0.000000 0.000000 0.039132 0.000000 0.000000
# 5 0.000000 0.000000 0.000000 0.000000 0.031378 0.000000
# 6 0.000000 0.000000 0.000000 0.000000 0.000000 0.035532
#
#
# Mechanical properties :
#
#
# Convention : Reuss Voigt Hill
#
# Bulk Modulus (GPa) = 50.07539 69.72146 59.89842
# Shear Modulus (GPa) = 26.53820 29.72321 28.13071
#
# Velocity S-wave (km/s) = 3.52093 3.72623 3.62504
# Velocity P-wave (km/s) = 6.31833 7.14721 6.74551
#
# Compressibility (1/GPa) = 0.01996989
#
# Stress axis : x y z
#
# Youngs Moduli (GPa) = 106.83330 90.00079 36.53926
#
# Poissons Ratio (x) = 0.30476 0.12111
# Poissons Ratio (y) = 0.36176 0.26432
# Poissons Ratio (z) = 0.35411 0.65105
#
# Static dielectric constant tensor:
#      x y z
#    x 4.080300 0.000000 0.000000 
#    y 0.000000 3.908770 0.000000 
#    z 0.000000 0.000000 3.805150 
# 
# 
# High freq. dielectric constant tensor:
#      x y z
#    x 1.845390 0.000000 0.000000 
#    y 0.000000 1.849270 0.000000 
#    z 0.000000 0.000000 1.846800 
# 
# From -- ./inp_files/5001.got.cif
#   From: 2010.03.12/outbox.cif.g09.slc.cpg/sg33_3_cif.got.tgz:5001.got - 2010.04.14 01:49:19.
