data_PCOD8171008
_publ_section_title
;
Structure prediction by ZEFSAII (Michael W. Deem and Ramdas Pophale) SiO2 
 PCOD8171008
Probable space group: P N A 21
;
_chemical_formula_sum "Si O2"
_cell_formula_units_Z 32
_cell_length_a 13.769375
_cell_length_b 6.690733
_cell_length_c 18.205705
_cell_angle_alpha 90.000000
_cell_angle_beta 90.000000
_cell_angle_gamma 90.000000
_cell_volume 1677.240839
_symmetry_space_group_name_H-M "P N A 21"
_symmetry_group_IT_number 33
_symmetry_cell_setting 'orthorhombic'
loop_
_space_group_symop_operation_xyz
x,y,z
-x,-y,1/2+z
1/2-x,1/2+y,1/2+z
1/2+x,1/2-y,z
loop_
_atom_site_type_symbol
_atom_site_label
_atom_site_fract_x
_atom_site_fract_y
_atom_site_fract_z
Si Si1 0.766746 0.860063 0.652570
Si Si2 0.397732 0.279100 0.643300
Si Si3 0.733254 0.639937 0.807541
Si Si4 0.254653 0.021591 0.564230
Si Si5 0.245347 0.478409 0.895882
Si Si6 0.102268 0.220900 0.816812
Si Si7 0.622398 0.797925 0.306780
Si Si8 0.377602 0.797925 0.153331
O O1 0.750000 0.750000 0.730056
O O2 0.781508 0.698469 0.589949
O O3 0.867611 0.987096 0.648222
O O4 0.674198 0.996902 0.627847
O O5 0.346406 0.168942 0.575089
O O6 0.357098 0.194284 0.719972
O O7 0.509903 0.226686 0.634842
O O8 0.718491 0.801531 0.870163
O O9 0.632389 0.512904 0.811890
O O10 0.825802 0.503098 0.832264
O O11 0.223951 0.000000 0.480056
O O12 0.167029 0.106183 0.613130
O O13 0.153594 0.331058 0.885023
O O14 0.332971 0.393817 0.846982
O O15 0.142902 0.305717 0.740139
O O16 0.990097 0.273314 0.825270
#
# Coordination Sequence:
#
# PCOD8171008 Si02
#       8
#     4   4   4   4   4   4   4   4
#     4  11  19  39  67  84 119 163 197 238 303 351
#     4  10  21  39  62  91 121 154 206 250 286 360
#     4  11  19  39  67  84 119 163 197 238 303 351
#     4  11  23  41  59  91 125 159 195 247 304 354
#     4  11  23  41  59  91 125 159 195 247 304 354
#     4  10  21  39  62  91 121 154 206 250 286 360
#     4  10  21  39  62  91 121 154 206 250 286 360
#     4  10  21  39  62  91 121 154 206 250 286 360
#
# _framework density 19.078952999999998
#
# number of rings (size 3 to 8) (size 9 to 14) (size 15 to 20)
#    0.000    1.500    5.000    1.500    0.000    6.000 
#    9.000    0.000    0.000    0.000    0.000    0.000 
#    0.000    0.000    0.000    0.000    0.000    0.000 
#
# Total GULP energy -396542.186124 kJ/mol
# GULP energy per Si atom -12391.943316 kJ/mol
# Density = 1.903553 g / cm^3
# Si number density = 19.078953 Si / 1000 Ang^3
#
#
#
# Elastic Constant Matrix: (Units=GPa)
#
#
# Indices 1 2 3 4 5 6 
#
# 1 106.3664 31.4804 21.0830 0.0000 0.0000 0.0000
# 2 31.4804 111.9588 10.9451 0.0000 0.0000 0.0000
# 3 21.0830 10.9451 52.9142 0.0000 0.0000 0.0000
# 4 0.0000 0.0000 0.0000 27.3089 0.0000 0.0000
# 5 0.0000 0.0000 0.0000 0.0000 8.9883 0.0000
# 6 0.0000 0.0000 0.0000 0.0000 0.0000 19.3860
#
#
#
# Elastic Compliance Matrix: (Units=1/GPa)
#
#
# Indices 1 2 3 4 5 6 
#
# 1 0.010958 -0.002709 -0.003806 0.000000 0.000000 0.000000
# 2 -0.002709 0.009786 -0.000945 0.000000 0.000000 0.000000
# 3 -0.003806 -0.000945 0.020610 0.000000 0.000000 0.000000
# 4 0.000000 0.000000 0.000000 0.036618 0.000000 0.000000
# 5 0.000000 0.000000 0.000000 0.000000 0.111256 0.000000
# 6 0.000000 0.000000 0.000000 0.000000 0.000000 0.051584
#
#
# Mechanical properties :
#
#
# Convention : Reuss Voigt Hill
#
# Bulk Modulus (GPa) = 37.82867 44.25070 41.03969
# Shear Modulus (GPa) = 18.90059 24.98536 21.94297
#
# Velocity S-wave (km/s) = 3.15088 3.62273 3.39501
# Velocity P-wave (km/s) = 5.75394 6.38300 6.07662
#
# Compressibility (1/GPa) = 0.02643497
#
# Stress axis : x y z
#
# Youngs Moduli (GPa) = 91.26146 102.18752 48.51965
#
# Poissons Ratio (x) = 0.27683 0.18464
# Poissons Ratio (y) = 0.24723 0.04584
# Poissons Ratio (z) = 0.34730 0.09655
#
# Static dielectric constant tensor:
#      x y z
#    x 3.443870 0.000000 0.000000 
#    y 0.000000 3.643360 0.000000 
#    z 0.000000 0.000000 3.396820 
# 
# 
# High freq. dielectric constant tensor:
#      x y z
#    x 1.738320 0.000000 0.000000 
#    y 0.000000 1.754380 0.000000 
#    z 0.000000 0.000000 1.723770 
# 
# From -- ./inp_files/8768.got.cif
#   From: 2010.03.12/outbox.cif.g09.slc.cpg/sg33_5_cif.got.tgz:8768.got - 2010.04.14 01:49:19.
