data_PCOD8171572
_publ_section_title
;
Structure prediction by ZEFSAII (Michael W. Deem and Ramdas Pophale) SiO2 
 PCOD8171572
Probable space group: P N A 21
;
_chemical_formula_sum "Si O2"
_cell_formula_units_Z 20
_cell_length_a 9.241478
_cell_length_b 8.713926
_cell_length_c 10.915267
_cell_angle_alpha 90.000000
_cell_angle_beta 90.000000
_cell_angle_gamma 90.000000
_cell_volume 879.001599
_symmetry_space_group_name_H-M "P N A 21"
_symmetry_group_IT_number 33
_symmetry_cell_setting 'orthorhombic'
loop_
_space_group_symop_operation_xyz
x,y,z
-x,-y,1/2+z
1/2-x,1/2+y,1/2+z
1/2+x,1/2-y,z
loop_
_atom_site_type_symbol
_atom_site_label
_atom_site_fract_x
_atom_site_fract_y
_atom_site_fract_z
Si Si1 0.523548 0.628784 0.992760
Si Si2 0.237325 0.081952 0.095368
Si Si3 0.712424 0.246170 0.340969
Si Si4 0.631716 0.217604 0.713390
Si Si5 0.627542 0.903563 0.351857
O O1 0.383405 0.619172 0.904401
O O2 0.641000 0.730197 0.918186
O O3 0.584851 0.458689 0.025785
O O4 0.479371 0.708518 0.118542
O O5 0.234092 0.209264 0.199719
O O6 0.284574 0.918357 0.147652
O O7 0.346318 0.145599 0.992666
O O8 0.625821 0.087087 0.340400
O O9 0.533012 0.154320 0.823081
O O10 0.747187 0.339114 0.763324
#
# Coordination Sequence:
#
# PCOD8171572 Si02
#       5
#     4   4   4   4   4
#     4  11  22  46  70  96 141 184 225 286 350 407
#     4  11  26  44  72 105 137 187 233 288 358 414
#     4  11  25  47  70 101 142 183 235 286 351 420
#     4  12  23  47  69  99 140 182 231 292 347 416
#     4  11  26  46  69 103 140 182 238 288 352 419
#
# _framework density 22.753087000000001
#
# number of rings (size 3 to 8) (size 9 to 14) (size 15 to 20)
#    0.000    0.800    6.000    1.200    5.600    3.200 
#    7.200    0.000    0.000    0.000    0.000    0.000 
#    0.000    0.000    0.000    0.000    0.000    0.000 
#
# Total GULP energy -247977.317210 kJ/mol
# GULP energy per Si atom -12398.865861 kJ/mol
# Density = 2.270130 g / cm^3
# Si number density = 22.753087 Si / 1000 Ang^3
#
#
#
# Elastic Constant Matrix: (Units=GPa)
#
#
# Indices 1 2 3 4 5 6 
#
# 1 60.8889 -2.5474 15.0602 0.0000 0.0000 0.0000
# 2 -2.5474 27.4751 12.7368 0.0000 0.0000 0.0000
# 3 15.0602 12.7368 130.5632 0.0000 0.0000 0.0000
# 4 0.0000 0.0000 0.0000 41.1468 0.0000 0.0000
# 5 0.0000 0.0000 0.0000 0.0000 27.5599 0.0000
# 6 0.0000 0.0000 0.0000 0.0000 0.0000 29.8089
#
#
#
# Elastic Compliance Matrix: (Units=1/GPa)
#
#
# Indices 1 2 3 4 5 6 
#
# 1 0.017083 0.002616 -0.002226 0.000000 0.000000 0.000000
# 2 0.002616 0.038521 -0.004060 0.000000 0.000000 0.000000
# 3 -0.002226 -0.004060 0.008312 0.000000 0.000000 0.000000
# 4 0.000000 0.000000 0.000000 0.024303 0.000000 0.000000
# 5 0.000000 0.000000 0.000000 0.000000 0.036285 0.000000
# 6 0.000000 0.000000 0.000000 0.000000 0.000000 0.033547
#
#
# Mechanical properties :
#
#
# Convention : Reuss Voigt Hill
#
# Bulk Modulus (GPa) = 17.67501 29.93628 23.80564
# Shear Modulus (GPa) = 27.13717 32.61496 29.87607
#
# Velocity S-wave (km/s) = 3.45727 3.79017 3.62754
# Velocity P-wave (km/s) = 4.87052 5.68678 5.29441
#
# Compressibility (1/GPa) = 0.05657705
#
# Stress axis : x y z
#
# Youngs Moduli (GPa) = 58.53672 25.95988 120.30981
#
# Poissons Ratio (x) = -0.06790 0.26777
# Poissons Ratio (y) = -0.15311 0.48840
# Poissons Ratio (z) = 0.13028 0.10539
#
# Static dielectric constant tensor:
#      x y z
#    x 4.175200 0.000000 0.000000 
#    y 0.000000 3.828610 0.000000 
#    z 0.000000 0.000000 4.598140 
# 
# 
# High freq. dielectric constant tensor:
#      x y z
#    x 1.906190 0.000000 0.000000 
#    y 0.000000 1.874310 0.000000 
#    z 0.000000 0.000000 1.919550 
# 
# From -- ./inp_files/2940.got.cif
#   From: 2010.03.12/outbox.cif.g09.slc.cpg/sg33_2_cif.got.tgz:2940.got - 2010.04.14 01:49:19.
