data_PCOD8171719
_publ_section_title
;
Structure prediction by ZEFSAII (Michael W. Deem and Ramdas Pophale) SiO2 
 PCOD8171719
Probable space group: P N A 21
;
_chemical_formula_sum "Si O2"
_cell_formula_units_Z 28
_cell_length_a 9.648712
_cell_length_b 14.046586
_cell_length_c 9.404191
_cell_angle_alpha 90.000000
_cell_angle_beta 90.000000
_cell_angle_gamma 90.000000
_cell_volume 1274.563764
_symmetry_space_group_name_H-M "P N A 21"
_symmetry_group_IT_number 33
_symmetry_cell_setting 'orthorhombic'
loop_
_space_group_symop_operation_xyz
x,y,z
-x,-y,1/2+z
1/2-x,1/2+y,1/2+z
1/2+x,1/2-y,z
loop_
_atom_site_type_symbol
_atom_site_label
_atom_site_fract_x
_atom_site_fract_y
_atom_site_fract_z
Si Si1 0.330656 0.499214 0.822560
Si Si2 0.023483 0.665783 0.459328
Si Si3 0.331084 0.976268 0.037536
Si Si4 0.222428 0.831798 0.538248
Si Si5 0.852705 0.027152 0.270728
Si Si6 0.290228 0.638675 0.070673
Si Si7 0.502815 0.200888 0.630485
O O1 0.227462 0.503206 0.690763
O O2 0.486650 0.502326 0.768439
O O3 0.310092 0.401819 0.907852
O O4 0.296817 0.591206 0.916552
O O5 0.064822 0.556866 0.482965
O O6 0.147462 0.732224 0.511533
O O7 0.984535 0.681857 0.296648
O O8 0.886059 0.688664 0.550177
O O9 0.419995 0.880466 0.041524
O O10 0.203207 0.962886 0.929998
O O11 0.170890 0.874570 0.687144
O O12 0.772166 0.941820 0.191495
O O13 0.429974 0.697791 0.094901
O O14 0.157100 0.707268 0.081888
#
# Coordination Sequence:
#
# PCOD8171719 Si02
#       7
#     4   4   4   4   4   4   4
#     4  11  25  46  73 103 140 181 235 291 350 412
#     4  12  26  45  73 103 142 187 234 284 354 419
#     4  12  26  44  72 102 142 188 228 294 352 414
#     4  11  26  46  73 101 140 184 237 285 346 423
#     4  11  25  46  73 103 140 181 235 291 350 412
#     4  11  26  46  73 101 140 184 237 285 346 423
#     4  12  26  45  73 103 142 187 234 284 354 419
#
# _framework density 21.968301
#
# number of rings (size 3 to 8) (size 9 to 14) (size 15 to 20)
#    0.000    0.571    2.857    5.143    8.000    1.143 
#    0.000    0.000    0.000    0.000    0.000    0.000 
#    0.000    0.000    0.000    0.000    0.000    0.000 
#
# Total GULP energy -347471.738864 kJ/mol
# GULP energy per Si atom -12409.704959 kJ/mol
# Density = 2.191830 g / cm^3
# Si number density = 21.968301 Si / 1000 Ang^3
#
#
#
# Elastic Constant Matrix: (Units=GPa)
#
#
# Indices 1 2 3 4 5 6 
#
# 1 95.4134 -4.0440 1.5375 0.0000 0.0000 0.0000
# 2 -4.0440 77.1305 16.8034 0.0000 0.0000 0.0000
# 3 1.5375 16.8034 103.6470 0.0000 0.0000 0.0000
# 4 0.0000 0.0000 0.0000 22.0796 0.0000 0.0000
# 5 0.0000 0.0000 0.0000 0.0000 -8.1572 0.0000
# 6 0.0000 0.0000 0.0000 0.0000 0.0000 39.3648
#
#
#
# Elastic Compliance Matrix: (Units=1/GPa)
#
#
# Indices 1 2 3 4 5 6 
#
# 1 0.010511 0.000606 -0.000254 0.000000 0.000000 0.000000
# 2 0.000606 0.013475 -0.002194 0.000000 0.000000 0.000000
# 3 -0.000254 -0.002194 0.010008 0.000000 0.000000 0.000000
# 4 0.000000 0.000000 0.000000 0.045291 0.000000 0.000000
# 5 0.000000 0.000000 0.000000 0.000000 -0.122592 0.000000
# 6 0.000000 0.000000 0.000000 0.000000 0.000000 0.025403
#
#
# Mechanical properties :
#
#
# Convention : Reuss Voigt Hill
#
# Bulk Modulus (GPa) = 32.99227 33.86496 33.42861
# Shear Modulus (GPa) = -1213.95506 28.11705 -592.91900
#
# Velocity S-wave (km/s) = -23.53282 3.58144 -16.44638
# Velocity P-wave (km/s) = 26.89499 5.70536 18.58480
#
# Compressibility (1/GPa) = 0.03031013
#
# Stress axis : x y z
#
# Youngs Moduli (GPa) = 95.14289 74.21313 99.92487
#
# Poissons Ratio (x) = -0.04501 0.02540
# Poissons Ratio (y) = -0.05770 0.21919
# Poissons Ratio (z) = 0.02419 0.16279
#
# Static dielectric constant tensor:
#      x y z
#    x 4.070050 0.000000 0.000000 
#    y 0.000000 3.926350 0.000000 
#    z 0.000000 0.000000 4.005240 
# 
# 
# High freq. dielectric constant tensor:
#      x y z
#    x 1.881180 0.000000 0.000000 
#    y 0.000000 1.867280 0.000000 
#    z 0.000000 0.000000 1.867040 
# 
# From -- ./inp_files/3209.got.cif
#   From: 2010.03.12/outbox.cif.g09.slc.cpg/sg33_2_cif.got.tgz:3209.got - 2010.04.14 01:49:19.
