data_PCOD8171553
_publ_section_title
;
Structure prediction by ZEFSAII (Michael W. Deem and Ramdas Pophale) SiO2 
 PCOD8171553
Probable space group: P N A 21
;
_chemical_formula_sum "Si O2"
_cell_formula_units_Z 32
_cell_length_a 11.846144
_cell_length_b 20.998154
_cell_length_c 5.658101
_cell_angle_alpha 90.000000
_cell_angle_beta 90.000000
_cell_angle_gamma 90.000000
_cell_volume 1407.436532
_symmetry_space_group_name_H-M "P N A 21"
_symmetry_group_IT_number 33
_symmetry_cell_setting 'orthorhombic'
loop_
_space_group_symop_operation_xyz
x,y,z
-x,-y,1/2+z
1/2-x,1/2+y,1/2+z
1/2+x,1/2-y,z
loop_
_atom_site_type_symbol
_atom_site_label
_atom_site_fract_x
_atom_site_fract_y
_atom_site_fract_z
Si Si1 0.712851 0.120548 0.314290
Si Si2 0.217288 0.623137 0.141087
Si Si3 0.895048 0.192472 0.609402
Si Si4 0.995594 0.087612 0.940122
Si Si5 0.012936 0.316712 0.569238
Si Si6 0.301066 0.790583 0.433327
Si Si7 0.326298 0.497260 0.207155
Si Si8 0.323883 0.664102 0.651410
O O1 0.813658 0.159722 0.426859
O O2 0.588265 0.141648 0.392859
O O3 0.738782 0.046086 0.359980
O O4 0.719184 0.138916 0.037912
O O5 0.262332 0.656630 0.901975
O O6 0.246579 0.549516 0.085761
O O7 0.268694 0.641843 0.398123
O O8 0.084418 0.635263 0.154248
O O9 0.813665 0.229140 0.797018
O O10 0.973900 0.138278 0.729377
O O11 0.964636 0.248422 0.474386
O O12 0.055322 0.127109 0.156088
O O13 0.077299 0.030211 0.861522
O O14 0.882150 0.052642 0.023419
O O15 0.086973 0.293030 0.783623
O O16 0.330897 0.740269 0.638724
#
# Coordination Sequence:
#
# PCOD8171553 Si02
#       8
#     4   4   4   4   4   4   4   4
#     4  11  26  42  68 105 144 186 243 305 362 439
#     4  11  26  47  71 103 150 191 248 292 363 442
#     4  11  22  43  70 105 141 181 242 310 373 438
#     4  11  22  42  73 103 143 185 246 309 377 425
#     4  11  25  44  70 106 144 196 239 305 378 442
#     4  11  23  42  67 103 146 178 244 301 370 435
#     4  11  24  45  66 108 138 196 243 302 357 451
#     4  11  24  43  73 111 138 187 239 310 366 438
#
# _framework density 22.736371999999999
#
# number of rings (size 3 to 8) (size 9 to 14) (size 15 to 20)
#    0.000    1.000    3.750    2.250    3.500    4.000 
#    2.250    0.000    0.000    0.000    0.000    0.000 
#    0.000    0.000    0.000    0.000    0.000    0.000 
#
# Total GULP energy -396423.069063 kJ/mol
# GULP energy per Si atom -12388.220908 kJ/mol
# Density = 2.268462 g / cm^3
# Si number density = 22.736372 Si / 1000 Ang^3
#
#
#
# Elastic Constant Matrix: (Units=GPa)
#
#
# Indices 1 2 3 4 5 6 
#
# 1 89.7103 34.6603 3.2867 0.0000 0.0000 0.0000
# 2 34.6603 116.4295 -1.9123 0.0000 0.0000 0.0000
# 3 3.2867 -1.9123 59.3525 0.0000 0.0000 0.0000
# 4 0.0000 0.0000 0.0000 25.6523 0.0000 0.0000
# 5 0.0000 0.0000 0.0000 0.0000 2.7720 0.0000
# 6 0.0000 0.0000 0.0000 0.0000 0.0000 38.1114
#
#
#
# Elastic Compliance Matrix: (Units=1/GPa)
#
#
# Indices 1 2 3 4 5 6 
#
# 1 0.012636 -0.003775 -0.000821 0.000000 0.000000 0.000000
# 2 -0.003775 0.009721 0.000522 0.000000 0.000000 0.000000
# 3 -0.000821 0.000522 0.016911 0.000000 0.000000 0.000000
# 4 0.000000 0.000000 0.000000 0.038983 0.000000 0.000000
# 5 0.000000 0.000000 0.000000 0.000000 0.360754 0.000000
# 6 0.000000 0.000000 0.000000 0.000000 0.000000 0.026239
#
#
# Mechanical properties :
#
#
# Convention : Reuss Voigt Hill
#
# Bulk Modulus (GPa) = 32.13424 37.50686 34.82055
# Shear Modulus (GPa) = 10.33561 28.60431 19.46996
#
# Velocity S-wave (km/s) = 2.13441 3.55080 2.92950
# Velocity P-wave (km/s) = 4.49871 5.77435 5.17598
#
# Compressibility (1/GPa) = 0.03111946
#
# Stress axis : x y z
#
# Youngs Moduli (GPa) = 79.14146 102.86727 59.13379
#
# Poissons Ratio (x) = 0.38833 0.04857
# Poissons Ratio (y) = 0.29876 -0.03088
# Poissons Ratio (z) = 0.06500 -0.05372
#
# Static dielectric constant tensor:
#      x y z
#    x 4.423370 0.000000 0.000000 
#    y 0.000000 4.413760 0.000000 
#    z 0.000000 0.000000 3.936970 
# 
# 
# High freq. dielectric constant tensor:
#      x y z
#    x 1.904340 0.000000 0.000000 
#    y 0.000000 1.909670 0.000000 
#    z 0.000000 0.000000 1.884780 
# 
# From -- ./inp_files/1022.got.cif
#   From: 2010.03.12/outbox.cif.g09.slc.cpg/sg33_1_cif.got.tgz:1022.got - 2010.04.14 01:49:19.
