data_PCOD8171980
_publ_section_title
;
Structure prediction by ZEFSAII (Michael W. Deem and Ramdas Pophale) SiO2 
 PCOD8171980
Probable space group: P N N 2
;
_chemical_formula_sum "Si O2"
_cell_formula_units_Z 18
_cell_length_a 24.268462
_cell_length_b 6.187182
_cell_length_c 4.907188
_cell_angle_alpha 90.000000
_cell_angle_beta 90.000000
_cell_angle_gamma 90.000000
_cell_volume 736.830920
_symmetry_space_group_name_H-M "P N N 2"
_symmetry_group_IT_number 34
_symmetry_cell_setting 'orthorhombic'
loop_
_space_group_symop_operation_xyz
x,y,z
-x,-y,z
1/2-x,1/2+y,1/2+z
1/2+x,1/2-y,1/2+z
loop_
_atom_site_type_symbol
_atom_site_label
_atom_site_fract_x
_atom_site_fract_y
_atom_site_fract_z
Si Si1 0.923843 0.851668 0.678610
Si Si2 0.695297 0.380061 0.286090
Si Si3 0.500000 0.000000 0.963662
Si Si4 0.194565 0.855798 0.281786
Si Si5 0.424580 0.341388 0.680052
O O1 0.862141 0.755238 0.727964
O O2 0.963846 0.644535 0.672497
O O3 0.928738 0.958976 0.384958
O O4 0.939410 0.044062 0.891824
O O5 0.750725 0.266365 0.187921
O O6 0.697593 0.422344 0.608319
O O7 0.692747 0.599607 0.104590
O O8 0.535072 0.852270 0.757276
O O9 0.137654 0.740361 0.186794
#
# Coordination Sequence:
#
# PCOD8171980 Si02
#       5
#     4   4   2   4   4
#     4  10  25  46  67 104 140 175 235 292 338 411
#     4  10  21  40  66  97 135 169 215 285 341 404
#     4  12  26  46  80  92 140 202 234 278 366 424
#     4  10  21  40  66  97 135 169 215 285 341 404
#     4  10  25  46  67 104 140 175 235 292 338 411
#
# _framework density 24.428941999999999
#
# number of rings (size 3 to 8) (size 9 to 14) (size 15 to 20)
#    0.000    1.778    0.000    2.000    3.111    7.111 
#    0.000    0.000    0.000    0.000    0.000    0.000 
#    0.000    0.000    0.000    0.000    0.000    0.000 
#
# Total GULP energy -223043.264832 kJ/mol
# GULP energy per Si atom -12391.292491 kJ/mol
# Density = 2.437334 g / cm^3
# Si number density = 24.428942 Si / 1000 Ang^3
#
#
#
# Elastic Constant Matrix: (Units=GPa)
#
#
# Indices 1 2 3 4 5 6 
#
# 1 226.0081 90.0622 31.3087 0.0000 0.0000 0.0000
# 2 90.0622 76.9540 13.9070 0.0000 0.0000 0.0000
# 3 31.3087 13.9070 95.6301 0.0000 0.0000 0.0000
# 4 0.0000 0.0000 0.0000 23.0318 0.0000 0.0000
# 5 0.0000 0.0000 0.0000 0.0000 29.6750 0.0000
# 6 0.0000 0.0000 0.0000 0.0000 0.0000 47.8517
#
#
#
# Elastic Compliance Matrix: (Units=1/GPa)
#
#
# Indices 1 2 3 4 5 6 
#
# 1 0.008462 -0.009656 -0.001366 0.000000 0.000000 0.000000
# 2 -0.009656 0.024365 -0.000382 0.000000 0.000000 0.000000
# 3 -0.001366 -0.000382 0.010960 0.000000 0.000000 0.000000
# 4 0.000000 0.000000 0.000000 0.043418 0.000000 0.000000
# 5 0.000000 0.000000 0.000000 0.000000 0.033698 0.000000
# 6 0.000000 0.000000 0.000000 0.000000 0.000000 0.020898
#
#
# Mechanical properties :
#
#
# Convention : Reuss Voigt Hill
#
# Bulk Modulus (GPa) = 47.66894 74.34977 61.00936
# Shear Modulus (GPa) = 29.13714 37.66598 33.40156
#
# Velocity S-wave (km/s) = 3.45734 3.93091 3.70171
# Velocity P-wave (km/s) = 5.95762 7.14870 6.58017
#
# Compressibility (1/GPa) = 0.02097802
#
# Stress axis : x y z
#
# Youngs Moduli (GPa) = 118.17783 41.04255 91.24304
#
# Poissons Ratio (x) = 0.39632 0.12465
# Poissons Ratio (y) = 1.14116 0.03484
# Poissons Ratio (z) = 0.16144 0.01567
#
# Static dielectric constant tensor:
#      x y z
#    x 5.176940 0.000000 0.000000 
#    y 0.000000 3.802980 0.000000 
#    z 0.000000 0.000000 4.316520 
# 
# 
# High freq. dielectric constant tensor:
#      x y z
#    x 2.006660 0.000000 0.000000 
#    y 0.000000 1.920480 0.000000 
#    z 0.000000 0.000000 1.985110 
# 
# From -- ./inp_files/136.got.cif
#   From: 2010.03.12/outbox.cif.g09.slc.cpg/sg34_1_cif.got.tgz:136.got - 2010.04.14 01:56:33.
