data_PCOD8171042
_publ_section_title
;
Structure prediction by ZEFSAII (Michael W. Deem and Ramdas Pophale) SiO2 
 PCOD8171042
Probable space group: P N A 21
;
_chemical_formula_sum "Si O2"
_cell_formula_units_Z 32
_cell_length_a 18.459165
_cell_length_b 9.512492
_cell_length_c 8.971647
_cell_angle_alpha 90.000000
_cell_angle_beta 90.000000
_cell_angle_gamma 90.000000
_cell_volume 1575.355356
_symmetry_space_group_name_H-M "P N A 21"
_symmetry_group_IT_number 33
_symmetry_cell_setting 'orthorhombic'
loop_
_space_group_symop_operation_xyz
x,y,z
-x,-y,1/2+z
1/2-x,1/2+y,1/2+z
1/2+x,1/2-y,z
loop_
_atom_site_type_symbol
_atom_site_label
_atom_site_fract_x
_atom_site_fract_y
_atom_site_fract_z
Si Si1 0.564389 0.632335 0.933990
Si Si2 0.168161 0.305754 0.314539
Si Si3 0.715093 0.518928 0.974557
Si Si4 0.310629 0.806651 0.468756
Si Si5 0.956289 0.644129 0.300758
Si Si6 0.532086 0.564119 0.261246
Si Si7 0.693050 0.512099 0.317375
Si Si8 0.475679 0.893056 0.962317
O O1 0.649026 0.607573 0.902720
O O2 0.516660 0.569575 0.801195
O O3 0.548460 0.798208 0.950499
O O4 0.542432 0.551235 0.084685
O O5 0.212292 0.426956 0.397845
O O6 0.086131 0.313066 0.370422
O O7 0.201199 0.153288 0.352634
O O8 0.167495 0.332758 0.138709
O O9 0.706644 0.355430 0.936423
O O10 0.719859 0.545896 0.150703
O O11 0.375731 0.856540 0.364542
O O12 0.240547 0.900543 0.433731
O O13 0.990460 0.797415 0.312194
O O14 0.008707 0.545121 0.396182
O O15 0.951580 0.588027 0.132666
O O16 0.610008 0.558621 0.340992
#
# Coordination Sequence:
#
# PCOD8171042 Si02
#       8
#     4   4   4   4   4   4   4   4
#     4  10  21  40  65  90 119 158 203 252 308 364
#     4  11  24  42  64  91 123 164 206 254 311 366
#     4  10  23  42  62  90 126 162 205 256 306 370
#     4  11  24  42  64  91 123 164 206 254 311 366
#     4  11  24  41  64  94 126 164 206 257 311 366
#     4  10  21  40  65  90 119 158 203 252 308 364
#     4  10  23  42  62  90 126 162 205 256 306 370
#     4  11  24  41  64  94 126 164 206 257 311 366
#
# _framework density 20.312878000000001
#
# number of rings (size 3 to 8) (size 9 to 14) (size 15 to 20)
#    0.000    1.500    2.500    1.500    3.500    4.000 
#    0.000    0.000    0.000    0.000    0.000    0.000 
#    0.000    0.000    0.000    0.000    0.000    0.000 
#
# Total GULP energy -397003.481273 kJ/mol
# GULP energy per Si atom -12406.358790 kJ/mol
# Density = 2.026665 g / cm^3
# Si number density = 20.312878 Si / 1000 Ang^3
#
#
#
# Elastic Constant Matrix: (Units=GPa)
#
#
# Indices 1 2 3 4 5 6 
#
# 1 72.6030 21.8545 21.2503 0.0000 0.0000 0.0000
# 2 21.8545 53.7589 22.1302 0.0000 0.0000 0.0000
# 3 21.2503 22.1302 66.9965 0.0000 0.0000 0.0000
# 4 0.0000 0.0000 0.0000 30.6360 0.0000 0.0000
# 5 0.0000 0.0000 0.0000 0.0000 34.9408 0.0000
# 6 0.0000 0.0000 0.0000 0.0000 0.0000 36.2756
#
#
#
# Elastic Compliance Matrix: (Units=1/GPa)
#
#
# Indices 1 2 3 4 5 6 
#
# 1 0.016360 -0.005225 -0.003463 0.000000 0.000000 0.000000
# 2 -0.005225 0.023198 -0.006005 0.000000 0.000000 0.000000
# 3 -0.003463 -0.006005 0.018008 0.000000 0.000000 0.000000
# 4 0.000000 0.000000 0.000000 0.032641 0.000000 0.000000
# 5 0.000000 0.000000 0.000000 0.000000 0.028620 0.000000
# 6 0.000000 0.000000 0.000000 0.000000 0.000000 0.027567
#
#
# Mechanical properties :
#
#
# Convention : Reuss Voigt Hill
#
# Bulk Modulus (GPa) = 35.48764 35.98092 35.73428
# Shear Modulus (GPa) = 27.00158 28.91206 27.95682
#
# Velocity S-wave (km/s) = 3.64989 3.77681 3.71389
# Velocity P-wave (km/s) = 5.93891 6.06390 6.00173
#
# Compressibility (1/GPa) = 0.02817882
#
# Stress axis : x y z
#
# Youngs Moduli (GPa) = 61.12461 43.10739 55.52993
#
# Poissons Ratio (x) = 0.22524 0.19231
# Poissons Ratio (y) = 0.31939 0.33348
# Poissons Ratio (z) = 0.21169 0.25887
#
# Static dielectric constant tensor:
#      x y z
#    x 3.666760 0.000000 0.000000 
#    y 0.000000 3.613730 0.000000 
#    z 0.000000 0.000000 3.655630 
# 
# 
# High freq. dielectric constant tensor:
#      x y z
#    x 1.799060 0.000000 0.000000 
#    y 0.000000 1.798100 0.000000 
#    z 0.000000 0.000000 1.794760 
# 
# From -- ./inp_files/4790.got.cif
#   From: 2010.03.12/outbox.cif.g09.slc.cpg/sg33_3_cif.got.tgz:4790.got - 2010.04.14 01:49:19.
