data_PCOD8171342
_publ_section_title
;
Structure prediction by ZEFSAII (Michael W. Deem and Ramdas Pophale) SiO2 
 PCOD8171342
Probable space group: P N A 21
;
_chemical_formula_sum "Si O2"
_cell_formula_units_Z 32
_cell_length_a 12.810014
_cell_length_b 14.777567
_cell_length_c 8.024766
_cell_angle_alpha 90.000000
_cell_angle_beta 90.000000
_cell_angle_gamma 90.000000
_cell_volume 1519.094946
_symmetry_space_group_name_H-M "P N A 21"
_symmetry_group_IT_number 33
_symmetry_cell_setting 'orthorhombic'
loop_
_space_group_symop_operation_xyz
x,y,z
-x,-y,1/2+z
1/2-x,1/2+y,1/2+z
1/2+x,1/2-y,z
loop_
_atom_site_type_symbol
_atom_site_label
_atom_site_fract_x
_atom_site_fract_y
_atom_site_fract_z
Si Si1 0.477533 0.165215 0.860630
Si Si2 0.215758 0.229037 0.282131
Si Si3 0.806804 0.103917 0.137958
Si Si4 0.826504 0.419732 0.085417
Si Si5 0.662948 0.428548 0.833614
Si Si6 0.529911 0.327182 0.072763
Si Si7 0.773194 0.275411 0.658053
Si Si8 0.809044 0.593510 0.291670
O O1 0.386068 0.193837 0.730459
O O2 0.568488 0.112798 0.765508
O O3 0.441804 0.101118 0.015848
O O4 0.539848 0.248682 0.937755
O O5 0.232538 0.337259 0.259946
O O6 0.282324 0.177474 0.141646
O O7 0.095516 0.198758 0.241423
O O8 0.259378 0.202533 0.462972
O O9 0.908718 0.164215 0.110633
O O10 0.856030 0.010744 0.207366
O O11 0.737333 0.086785 0.975953
O O12 0.804392 0.491561 0.227736
O O13 0.768704 0.457696 0.923327
O O14 0.680508 0.332540 0.742480
O O15 0.573320 0.416632 0.975420
O O16 0.757809 0.168214 0.690469
#
# Coordination Sequence:
#
# PCOD8171342 Si02
#       8
#     4   4   4   4   4   4   4   4
#     4  11  22  45  67  92 135 177 219 281 342 403
#     4  11  23  42  65  95 131 172 221 276 337 409
#     4  12  23  41  69  94 131 177 221 276 340 405
#     4  10  23  42  63  93 130 169 218 273 334 405
#     4  10  23  42  63  93 130 169 218 273 334 405
#     4  11  22  45  67  92 135 177 219 281 342 403
#     4  11  23  42  65  95 131 172 221 276 337 409
#     4  12  23  41  69  94 131 177 221 276 340 405
#
# _framework density 21.065173000000001
#
# number of rings (size 3 to 8) (size 9 to 14) (size 15 to 20)
#    0.000    1.000    5.000    2.250    0.000    7.000 
#    4.500    0.000    0.000    0.000    0.000    0.000 
#    0.000    0.000    0.000    0.000    0.000    0.000 
#
# Total GULP energy -396457.341089 kJ/mol
# GULP energy per Si atom -12389.291909 kJ/mol
# Density = 2.101723 g / cm^3
# Si number density = 21.065173 Si / 1000 Ang^3
#
#
#
# Elastic Constant Matrix: (Units=GPa)
#
#
# Indices 1 2 3 4 5 6 
#
# 1 94.1379 21.5748 34.1033 0.0000 0.0000 0.0000
# 2 21.5748 90.5932 22.1967 0.0000 0.0000 0.0000
# 3 34.1033 22.1967 103.8227 0.0000 0.0000 0.0000
# 4 0.0000 0.0000 0.0000 35.3778 0.0000 0.0000
# 5 0.0000 0.0000 0.0000 0.0000 27.2488 0.0000
# 6 0.0000 0.0000 0.0000 0.0000 0.0000 20.4372
#
#
#
# Elastic Compliance Matrix: (Units=1/GPa)
#
#
# Indices 1 2 3 4 5 6 
#
# 1 0.012413 -0.002065 -0.003636 0.000000 0.000000 0.000000
# 2 -0.002065 0.011992 -0.001885 0.000000 0.000000 0.000000
# 3 -0.003636 -0.001885 0.011229 0.000000 0.000000 0.000000
# 4 0.000000 0.000000 0.000000 0.028266 0.000000 0.000000
# 5 0.000000 0.000000 0.000000 0.000000 0.036699 0.000000
# 6 0.000000 0.000000 0.000000 0.000000 0.000000 0.048930
#
#
# Mechanical properties :
#
#
# Convention : Reuss Voigt Hill
#
# Bulk Modulus (GPa) = 48.87293 49.36706 49.12000
# Shear Modulus (GPa) = 29.15044 30.65802 29.90423
#
# Velocity S-wave (km/s) = 3.72401 3.81909 3.77185
# Velocity P-wave (km/s) = 6.46082 6.55237 6.50676
#
# Compressibility (1/GPa) = 0.02046123
#
# Stress axis : x y z
#
# Youngs Moduli (GPa) = 80.55914 83.38767 89.05350
#
# Poissons Ratio (x) = 0.17223 0.32379
# Poissons Ratio (y) = 0.16638 0.16790
# Poissons Ratio (z) = 0.29290 0.15722
#
# Static dielectric constant tensor:
#      x y z
#    x 3.721800 0.000000 0.000000 
#    y 0.000000 3.768490 0.000000 
#    z 0.000000 0.000000 3.728090 
# 
# 
# High freq. dielectric constant tensor:
#      x y z
#    x 1.823050 0.000000 0.000000 
#    y 0.000000 1.830500 0.000000 
#    z 0.000000 0.000000 1.819170 
# 
# From -- ./inp_files/3965.got.cif
#   From: 2010.03.12/outbox.cif.g09.slc.cpg/sg33_2_cif.got.tgz:3965.got - 2010.04.14 01:49:19.
