data_PCOD8171763
_publ_section_title
;
Structure prediction by ZEFSAII (Michael W. Deem and Ramdas Pophale) SiO2 
 PCOD8171763
Probable space group: P N A 21
;
_chemical_formula_sum "Si O2"
_cell_formula_units_Z 24
_cell_length_a 24.842830
_cell_length_b 6.631655
_cell_length_c 6.584371
_cell_angle_alpha 90.000000
_cell_angle_beta 90.000000
_cell_angle_gamma 90.000000
_cell_volume 1084.769050
_symmetry_space_group_name_H-M "P N A 21"
_symmetry_group_IT_number 33
_symmetry_cell_setting 'orthorhombic'
loop_
_space_group_symop_operation_xyz
x,y,z
-x,-y,1/2+z
1/2-x,1/2+y,1/2+z
1/2+x,1/2-y,z
loop_
_atom_site_type_symbol
_atom_site_label
_atom_site_fract_x
_atom_site_fract_y
_atom_site_fract_z
Si Si1 0.442182 0.872458 0.142570
Si Si2 0.372125 0.073533 0.847712
Si Si3 0.376500 0.556968 0.352074
Si Si4 0.442226 0.208855 0.497477
Si Si5 0.304880 0.867641 0.548416
Si Si6 0.304678 0.216798 0.205758
O O1 0.399094 0.693408 0.169981
O O2 0.502254 0.788358 0.119393
O O3 0.439746 0.034235 0.327059
O O4 0.424973 0.953951 0.922166
O O5 0.319052 0.958157 0.768694
O O6 0.392211 0.195543 0.652879
O O7 0.353270 0.189987 0.047218
O O8 0.429863 0.429562 0.408911
O O9 0.354755 0.715829 0.516618
O O10 0.323377 0.423849 0.309851
O O11 0.249548 0.747977 0.578515
O O12 0.299457 0.031305 0.364842
#
# Coordination Sequence:
#
# PCOD8171763 Si02
#       6
#     4   4   4   4   4   4
#     4  12  26  47  74 107 144 185 239 298 356 425
#     4  12  23  48  74  94 152 192 225 304 352 418
#     4  12  25  48  70 108 142 182 247 284 360 428
#     4  12  26  47  74 107 144 185 239 298 356 425
#     4  12  28  47  71 108 145 189 243 297 355 425
#     4  12  28  47  71 108 145 189 243 297 355 425
#
# _framework density 22.124524000000001
#
# number of rings (size 3 to 8) (size 9 to 14) (size 15 to 20)
#    0.000    0.000    8.333    1.000    4.667    6.667 
#    0.000    0.000    0.000    0.000    0.000    0.000 
#    0.000    0.000    0.000    0.000    0.000    0.000 
#
# Total GULP energy -297342.696521 kJ/mol
# GULP energy per Si atom -12389.279022 kJ/mol
# Density = 2.207417 g / cm^3
# Si number density = 22.124524 Si / 1000 Ang^3
#
#
#
# Elastic Constant Matrix: (Units=GPa)
#
#
# Indices 1 2 3 4 5 6 
#
# 1 113.4335 27.7644 25.4355 0.0000 0.0000 0.0000
# 2 27.7644 97.3203 24.9293 0.0000 0.0000 0.0000
# 3 25.4355 24.9293 88.3302 0.0000 0.0000 0.0000
# 4 0.0000 0.0000 0.0000 10.5903 0.0000 0.0000
# 5 0.0000 0.0000 0.0000 0.0000 53.0534 0.0000
# 6 0.0000 0.0000 0.0000 0.0000 0.0000 38.5511
#
#
#
# Elastic Compliance Matrix: (Units=1/GPa)
#
#
# Indices 1 2 3 4 5 6 
#
# 1 0.009860 -0.002248 -0.002205 0.000000 0.000000 0.000000
# 2 -0.002248 0.011589 -0.002623 0.000000 0.000000 0.000000
# 3 -0.002205 -0.002623 0.012696 0.000000 0.000000 0.000000
# 4 0.000000 0.000000 0.000000 0.094426 0.000000 0.000000
# 5 0.000000 0.000000 0.000000 0.000000 0.018849 0.000000
# 6 0.000000 0.000000 0.000000 0.000000 0.000000 0.025940
#
#
# Mechanical properties :
#
#
# Convention : Reuss Voigt Hill
#
# Bulk Modulus (GPa) = 50.01809 50.59361 50.30585
# Shear Modulus (GPa) = 25.74970 35.16929 30.45950
#
# Velocity S-wave (km/s) = 3.41523 3.99131 3.71446
# Velocity P-wave (km/s) = 6.18129 6.64515 6.41741
#
# Compressibility (1/GPa) = 0.01999277
#
# Stress axis : x y z
#
# Youngs Moduli (GPa) = 101.41538 86.29080 78.76234
#
# Poissons Ratio (x) = 0.19401 0.17366
# Poissons Ratio (y) = 0.22801 0.20661
# Poissons Ratio (z) = 0.22361 0.22636
#
# Static dielectric constant tensor:
#      x y z
#    x 4.100600 0.000000 0.000000 
#    y 0.000000 3.980380 0.000000 
#    z 0.000000 0.000000 3.924630 
# 
# 
# High freq. dielectric constant tensor:
#      x y z
#    x 1.889140 0.000000 0.000000 
#    y 0.000000 1.866300 0.000000 
#    z 0.000000 0.000000 1.876090 
# 
# From -- ./inp_files/2368.got.cif
#   From: 2010.03.12/outbox.cif.g09.slc.cpg/sg33_2_cif.got.tgz:2368.got - 2010.04.14 01:49:19.
