data_PCOD8171709
_publ_section_title
;
Structure prediction by ZEFSAII (Michael W. Deem and Ramdas Pophale) SiO2 
 PCOD8171709
Probable space group: P N A 21
;
_chemical_formula_sum "Si O2"
_cell_formula_units_Z 24
_cell_length_a 13.705064
_cell_length_b 7.026541
_cell_length_c 10.481851
_cell_angle_alpha 90.000000
_cell_angle_beta 90.000000
_cell_angle_gamma 90.000000
_cell_volume 1009.393804
_symmetry_space_group_name_H-M "P N A 21"
_symmetry_group_IT_number 33
_symmetry_cell_setting 'orthorhombic'
loop_
_space_group_symop_operation_xyz
x,y,z
-x,-y,1/2+z
1/2-x,1/2+y,1/2+z
1/2+x,1/2-y,z
loop_
_atom_site_type_symbol
_atom_site_label
_atom_site_fract_x
_atom_site_fract_y
_atom_site_fract_z
Si Si1 0.483230 0.161619 0.969740
Si Si2 0.894216 0.332428 0.559949
Si Si3 0.187493 0.538868 0.314365
Si Si4 0.738539 0.368969 0.344306
Si Si5 0.571681 0.434512 0.529178
Si Si6 0.353706 0.776559 0.272917
O O1 0.389058 0.035230 0.930586
O O2 0.541247 0.208464 0.838938
O O3 0.452448 0.343482 0.054024
O O4 0.550092 0.034178 0.059562
O O5 0.852468 0.322615 0.702442
O O6 0.804759 0.320343 0.464921
O O7 0.967226 0.166120 0.517808
O O8 0.215298 0.325843 0.267516
O O9 0.285512 0.644839 0.362658
O O10 0.633880 0.440883 0.397658
O O11 0.797774 0.519160 0.255852
O O12 0.634194 0.331732 0.638822
#
# Coordination Sequence:
#
# PCOD8171709 Si02
#       6
#     4   4   4   4   4   4
#     4  11  25  43  69 102 141 179 235 295 356 422
#     4  11  25  45  67 105 137 184 237 288 355 429
#     4  12  23  44  72 100 138 186 235 284 354 431
#     4  11  25  45  69 100 144 184 231 296 354 421
#     4  12  23  44  72  98 143 180 231 299 353 423
#     4  11  25  45  67 103 139 183 239 286 358 426
#
# _framework density 23.776646
#
# number of rings (size 3 to 8) (size 9 to 14) (size 15 to 20)
#    0.000    0.667    6.667    1.000    0.000    4.000 
#    6.000    0.000    0.000    0.000    0.000    0.000 
#    0.000    0.000    0.000    0.000    0.000    0.000 
#
# Total GULP energy -297527.948712 kJ/mol
# GULP energy per Si atom -12396.997863 kJ/mol
# Density = 2.372253 g / cm^3
# Si number density = 23.776646 Si / 1000 Ang^3
#
#
#
# Elastic Constant Matrix: (Units=GPa)
#
#
# Indices 1 2 3 4 5 6 
#
# 1 97.6802 46.6573 5.3361 0.0000 0.0000 0.0000
# 2 46.6573 134.7475 21.4313 0.0000 0.0000 0.0000
# 3 5.3361 21.4313 39.2953 0.0000 0.0000 0.0000
# 4 0.0000 0.0000 0.0000 33.3419 0.0000 0.0000
# 5 0.0000 0.0000 0.0000 0.0000 17.0727 0.0000
# 6 0.0000 0.0000 0.0000 0.0000 0.0000 49.3222
#
#
#
# Elastic Compliance Matrix: (Units=1/GPa)
#
#
# Indices 1 2 3 4 5 6 
#
# 1 0.012284 -0.004367 0.000714 0.000000 0.000000 0.000000
# 2 -0.004367 0.009679 -0.004686 0.000000 0.000000 0.000000
# 3 0.000714 -0.004686 0.027907 0.000000 0.000000 0.000000
# 4 0.000000 0.000000 0.000000 0.029992 0.000000 0.000000
# 5 0.000000 0.000000 0.000000 0.000000 0.058573 0.000000
# 6 0.000000 0.000000 0.000000 0.000000 0.000000 0.020275
#
#
# Mechanical properties :
#
#
# Convention : Reuss Voigt Hill
#
# Bulk Modulus (GPa) = 30.12790 46.50805 38.31797
# Shear Modulus (GPa) = 26.81651 33.16725 29.99188
#
# Velocity S-wave (km/s) = 3.36199 3.73896 3.55547
# Velocity P-wave (km/s) = 5.26967 6.18406 5.74508
#
# Compressibility (1/GPa) = 0.03319182
#
# Stress axis : x y z
#
# Youngs Moduli (GPa) = 81.40368 103.32006 35.83339
#
# Poissons Ratio (x) = 0.45121 -0.02557
# Poissons Ratio (y) = 0.35550 0.16790
# Poissons Ratio (z) = -0.05809 0.48412
#
# Static dielectric constant tensor:
#      x y z
#    x 4.673570 0.000000 0.000000 
#    y 0.000000 4.330300 0.000000 
#    z 0.000000 0.000000 3.645760 
# 
# 
# High freq. dielectric constant tensor:
#      x y z
#    x 1.975400 0.000000 0.000000 
#    y 0.000000 1.950260 0.000000 
#    z 0.000000 0.000000 1.900030 
# 
# From -- ./inp_files/6616.got.cif
#   From: 2010.03.12/outbox.cif.g09.slc.cpg/sg33_4_cif.got.tgz:6616.got - 2010.04.14 01:49:19.
