data_PCOD8171244
_publ_section_title
;
Structure prediction by ZEFSAII (Michael W. Deem and Ramdas Pophale) SiO2 
 PCOD8171244
Probable space group: P N A 21
;
_chemical_formula_sum "Si O2"
_cell_formula_units_Z 28
_cell_length_a 8.401956
_cell_length_b 25.384117
_cell_length_c 5.316211
_cell_angle_alpha 90.000000
_cell_angle_beta 90.000000
_cell_angle_gamma 90.000000
_cell_volume 1133.821462
_symmetry_space_group_name_H-M "P N A 21"
_symmetry_group_IT_number 33
_symmetry_cell_setting 'orthorhombic'
loop_
_space_group_symop_operation_xyz
x,y,z
-x,-y,1/2+z
1/2-x,1/2+y,1/2+z
1/2+x,1/2-y,z
loop_
_atom_site_type_symbol
_atom_site_label
_atom_site_fract_x
_atom_site_fract_y
_atom_site_fract_z
Si Si1 0.496626 0.288324 0.625000
Si Si2 0.872484 0.444191 0.057120
Si Si3 0.775925 0.272677 0.311355
Si Si4 0.049234 0.433503 0.556274
Si Si5 0.053838 0.297075 0.004970
Si Si6 0.515818 0.465830 0.040995
Si Si7 0.798995 0.122060 0.842421
O O1 0.672353 0.302867 0.522881
O O2 0.363885 0.280222 0.409853
O O3 0.441283 0.337128 0.791977
O O4 0.494957 0.228934 0.743986
O O5 0.959219 0.417904 0.299231
O O6 0.682579 0.435264 0.076552
O O7 0.906758 0.505789 0.059589
O O8 0.937979 0.419177 0.797829
O O9 0.903132 0.311897 0.181657
O O10 0.652406 0.252497 0.106293
O O11 0.216238 0.401592 0.589659
O O12 0.157757 0.349177 0.990742
O O13 0.474773 0.499366 0.287997
O O14 0.371215 0.424409 0.012780
#
# Coordination Sequence:
#
# PCOD8171244 Si02
#       7
#     4   4   4   4   4   4   4
#     4  11  22  46  71 106 151 193 252 316 383 468
#     4  10  22  48  72 104 153 197 241 326 379 446
#     4  10  22  42  76  99 152 201 242 317 384 447
#     4  10  23  44  77 105 143 197 258 302 385 462
#     4  11  22  46  69 110 149 195 251 316 379 473
#     4  12  27  50  80 116 160 202 265 339 394 479
#     4  12  26  46  79 110 152 205 261 322 408 467
#
# _framework density 24.695245
#
# number of rings (size 3 to 8) (size 9 to 14) (size 15 to 20)
#    0.000    1.143    4.286    0.857    4.000    2.286 
#    5.143    0.000    0.000    0.000    0.000    0.000 
#    0.000    0.000    0.000    0.000    0.000    0.000 
#
# Total GULP energy -347083.939445 kJ/mol
# GULP energy per Si atom -12395.854980 kJ/mol
# Density = 2.463904 g / cm^3
# Si number density = 24.695245 Si / 1000 Ang^3
#
#
#
# Elastic Constant Matrix: (Units=GPa)
#
#
# Indices 1 2 3 4 5 6 
#
# 1 161.8725 48.8546 50.0106 0.0000 0.0000 0.0000
# 2 48.8546 66.7709 34.2753 0.0000 0.0000 0.0000
# 3 50.0106 34.2753 125.2256 0.0000 0.0000 0.0000
# 4 0.0000 0.0000 0.0000 16.8900 0.0000 0.0000
# 5 0.0000 0.0000 0.0000 0.0000 48.2193 0.0000
# 6 0.0000 0.0000 0.0000 0.0000 0.0000 45.8530
#
#
#
# Elastic Compliance Matrix: (Units=1/GPa)
#
#
# Indices 1 2 3 4 5 6 
#
# 1 0.008309 -0.005091 -0.001925 0.000000 0.000000 0.000000
# 2 -0.005091 0.020545 -0.003590 0.000000 0.000000 0.000000
# 3 -0.001925 -0.003590 0.009737 0.000000 0.000000 0.000000
# 4 0.000000 0.000000 0.000000 0.059207 0.000000 0.000000
# 5 0.000000 0.000000 0.000000 0.000000 0.020739 0.000000
# 6 0.000000 0.000000 0.000000 0.000000 0.000000 0.021809
#
#
# Mechanical properties :
#
#
# Convention : Reuss Voigt Hill
#
# Bulk Modulus (GPa) = 57.54301 68.90556 63.22428
# Shear Modulus (GPa) = 29.87759 36.90769 33.39264
#
# Velocity S-wave (km/s) = 3.48207 3.87010 3.68120
# Velocity P-wave (km/s) = 6.28635 6.92338 6.61254
#
# Compressibility (1/GPa) = 0.01737831
#
# Stress axis : x y z
#
# Youngs Moduli (GPa) = 120.35143 48.67441 102.70270
#
# Poissons Ratio (x) = 0.24782 0.19768
# Poissons Ratio (y) = 0.61277 0.36869
# Poissons Ratio (z) = 0.23164 0.17474
#
# Static dielectric constant tensor:
#      x y z
#    x 4.751440 0.000000 0.000000 
#    y 0.000000 4.096130 0.000000 
#    z 0.000000 0.000000 4.605000 
# 
# 
# High freq. dielectric constant tensor:
#      x y z
#    x 2.003430 0.000000 0.000000 
#    y 0.000000 1.957940 0.000000 
#    z 0.000000 0.000000 1.985330 
# 
# From -- ./inp_files/545.got.cif
#   From: 2010.03.12/outbox.cif.g09.slc.cpg/sg33_1_cif.got.tgz:545.got - 2010.04.14 01:49:19.
