data_PCOD8171531
_publ_section_title
;
Structure prediction by ZEFSAII (Michael W. Deem and Ramdas Pophale) SiO2 
 PCOD8171531
Probable space group: P N A 21
;
_chemical_formula_sum "Si O2"
_cell_formula_units_Z 32
_cell_length_a 8.465943
_cell_length_b 15.044530
_cell_length_c 11.420837
_cell_angle_alpha 90.000000
_cell_angle_beta 90.000000
_cell_angle_gamma 90.000000
_cell_volume 1454.627849
_symmetry_space_group_name_H-M "P N A 21"
_symmetry_group_IT_number 33
_symmetry_cell_setting 'orthorhombic'
loop_
_space_group_symop_operation_xyz
x,y,z
-x,-y,1/2+z
1/2-x,1/2+y,1/2+z
1/2+x,1/2-y,z
loop_
_atom_site_type_symbol
_atom_site_label
_atom_site_fract_x
_atom_site_fract_y
_atom_site_fract_z
Si Si1 0.707621 0.623685 0.695990
Si Si2 0.394906 0.487505 0.002973
Si Si3 0.219926 0.657451 0.405522
Si Si4 0.304292 0.437475 0.632455
Si Si5 0.703923 0.920332 0.820882
Si Si6 0.860905 0.545168 0.907974
Si Si7 0.048158 0.829516 0.324787
Si Si8 0.136852 0.204407 0.155338
O O1 0.720263 0.539407 0.609565
O O2 0.721051 0.584354 0.826386
O O3 0.852552 0.688874 0.663053
O O4 0.540639 0.672396 0.676242
O O5 0.316843 0.568942 0.933876
O O6 0.403191 0.403010 0.918405
O O7 0.564744 0.511831 0.055126
O O8 0.135329 0.561980 0.403364
O O9 0.091362 0.732329 0.374470
O O10 0.358826 0.665674 0.308784
O O11 0.299025 0.670981 0.531646
O O12 0.231872 0.501197 0.729266
O O13 0.167155 0.415527 0.538593
O O14 0.372503 0.350179 0.698089
O O15 0.524426 0.916794 0.861334
O O16 0.748883 0.828353 0.759613
#
# Coordination Sequence:
#
# PCOD8171531 Si02
#       8
#     4   4   4   4   4   4   4   4
#     4  12  24  41  70 101 138 183 227 294 353 421
#     4  11  21  42  71  97 136 180 229 285 360 411
#     4  12  23  43  70 103 138 180 231 299 346 419
#     4  11  23  47  65 100 144 181 231 287 351 438
#     4  11  25  40  72 103 133 182 232 288 354 418
#     4  12  26  43  69 100 144 184 234 287 360 423
#     4  11  24  41  68 104 134 181 229 295 355 414
#     4  12  22  43  69 102 139 173 243 293 347 416
#
# _framework density 21.998754000000002
#
# number of rings (size 3 to 8) (size 9 to 14) (size 15 to 20)
#    0.000    0.500    6.250    2.250    5.250    1.000 
#    0.000    5.000    0.000    0.000    0.000    0.000 
#    0.000    0.000    0.000    0.000    0.000    0.000 
#
# Total GULP energy -396811.730761 kJ/mol
# GULP energy per Si atom -12400.366586 kJ/mol
# Density = 2.194868 g / cm^3
# Si number density = 21.998754 Si / 1000 Ang^3
#
#
#
# Elastic Constant Matrix: (Units=GPa)
#
#
# Indices 1 2 3 4 5 6 
#
# 1 74.5394 7.0760 38.3198 0.0000 0.0000 0.0000
# 2 7.0760 53.4559 18.3046 0.0000 0.0000 0.0000
# 3 38.3198 18.3046 118.9578 0.0000 0.0000 0.0000
# 4 0.0000 0.0000 0.0000 31.0885 0.0000 0.0000
# 5 0.0000 0.0000 0.0000 0.0000 39.1612 0.0000
# 6 0.0000 0.0000 0.0000 0.0000 0.0000 34.1675
#
#
#
# Elastic Compliance Matrix: (Units=1/GPa)
#
#
# Indices 1 2 3 4 5 6 
#
# 1 0.016085 -0.000375 -0.005124 0.000000 0.000000 0.000000
# 2 -0.000375 0.019756 -0.002919 0.000000 0.000000 0.000000
# 3 -0.005124 -0.002919 0.010506 0.000000 0.000000 0.000000
# 4 0.000000 0.000000 0.000000 0.032166 0.000000 0.000000
# 5 0.000000 0.000000 0.000000 0.000000 0.025535 0.000000
# 6 0.000000 0.000000 0.000000 0.000000 0.000000 0.029268
#
#
# Mechanical properties :
#
#
# Convention : Reuss Voigt Hill
#
# Bulk Modulus (GPa) = 33.88454 41.59488 37.73971
# Shear Modulus (GPa) = 31.25192 33.10030 32.17611
#
# Velocity S-wave (km/s) = 3.77320 3.88318 3.82859
# Velocity P-wave (km/s) = 5.86678 6.24935 6.06108
#
# Compressibility (1/GPa) = 0.02951198
#
# Stress axis : x y z
#
# Youngs Moduli (GPa) = 62.16799 50.61691 95.18267
#
# Poissons Ratio (x) = 0.01897 0.48771
# Poissons Ratio (y) = 0.02329 0.27787
# Poissons Ratio (z) = 0.31854 0.14777
#
# Static dielectric constant tensor:
#      x y z
#    x 3.973350 0.000000 0.000000 
#    y 0.000000 4.008480 0.000000 
#    z 0.000000 0.000000 4.416890 
# 
# 
# High freq. dielectric constant tensor:
#      x y z
#    x 1.864900 0.000000 0.000000 
#    y 0.000000 1.850600 0.000000 
#    z 0.000000 0.000000 1.873130 
# 
# From -- ./inp_files/5960.got.cif
#   From: 2010.03.12/outbox.cif.g09.slc.cpg/sg33_3_cif.got.tgz:5960.got - 2010.04.14 01:49:19.
