data_PCOD8171476
_publ_section_title
;
Structure prediction by ZEFSAII (Michael W. Deem and Ramdas Pophale) SiO2 
 PCOD8171476
Probable space group: P N A 21
;
_chemical_formula_sum "Si O2"
_cell_formula_units_Z 28
_cell_length_a 14.310750
_cell_length_b 15.464826
_cell_length_c 5.333645
_cell_angle_alpha 90.000000
_cell_angle_beta 90.000000
_cell_angle_gamma 90.000000
_cell_volume 1180.406356
_symmetry_space_group_name_H-M "P N A 21"
_symmetry_group_IT_number 33
_symmetry_cell_setting 'orthorhombic'
loop_
_space_group_symop_operation_xyz
x,y,z
-x,-y,1/2+z
1/2-x,1/2+y,1/2+z
1/2+x,1/2-y,z
loop_
_atom_site_type_symbol
_atom_site_label
_atom_site_fract_x
_atom_site_fract_y
_atom_site_fract_z
Si Si1 0.965143 0.961917 0.868250
Si Si2 0.936137 0.349863 0.058713
Si Si3 0.548438 0.708080 0.951564
Si Si4 0.837024 0.527782 0.031785
Si Si5 0.806429 0.211593 0.835111
Si Si6 0.097061 0.307754 0.726623
Si Si7 0.781042 0.038388 0.036099
O O1 0.001856 0.867265 0.783113
O O2 0.861098 0.967773 0.982925
O O3 0.969025 0.014575 0.607928
O O4 0.907035 0.449164 0.076527
O O5 0.860008 0.300887 0.886469
O O6 0.042501 0.350845 0.960339
O O7 0.931871 0.299183 0.318955
O O8 0.644742 0.675665 0.080974
O O9 0.465953 0.726667 0.150399
O O10 0.771724 0.512140 0.790420
O O11 0.893167 0.618685 0.006924
O O12 0.783704 0.540984 0.293078
O O13 0.697127 0.231393 0.804150
O O14 0.821815 0.137630 0.052341
#
# Coordination Sequence:
#
# PCOD8171476 Si02
#       7
#     4   4   4   4   4   4   4
#     4  12  25  44  74 108 152 190 251 312 377 460
#     4  11  27  45  76 105 150 193 255 310 374 452
#     4  11  26  44  72 110 142 201 241 317 381 446
#     4  11  28  46  75 105 148 198 256 306 378 450
#     4  10  24  48  68 104 145 189 245 311 379 447
#     4  10  27  44  72 102 142 196 243 310 371 450
#     4  11  25  47  73 108 143 203 243 316 382 449
#
# _framework density 23.720645000000001
#
# number of rings (size 3 to 8) (size 9 to 14) (size 15 to 20)
#    0.000    1.143    1.429    1.714   20.000    1.143 
#    0.000    0.000    0.000    0.000    0.000    0.000 
#    0.000    0.000    0.000    0.000    0.000    0.000 
#
# Total GULP energy -346974.162099 kJ/mol
# GULP energy per Si atom -12391.934361 kJ/mol
# Density = 2.366666 g / cm^3
# Si number density = 23.720645 Si / 1000 Ang^3
#
#
#
# Elastic Constant Matrix: (Units=GPa)
#
#
# Indices 1 2 3 4 5 6 
#
# 1 134.9793 28.6448 20.5806 0.0000 0.0000 0.0000
# 2 28.6448 63.1435 5.8041 0.0000 0.0000 0.0000
# 3 20.5806 5.8041 91.1068 0.0000 0.0000 0.0000
# 4 0.0000 0.0000 0.0000 27.9530 0.0000 0.0000
# 5 0.0000 0.0000 0.0000 0.0000 25.0855 0.0000
# 6 0.0000 0.0000 0.0000 0.0000 0.0000 31.3662
#
#
#
# Elastic Compliance Matrix: (Units=1/GPa)
#
#
# Indices 1 2 3 4 5 6 
#
# 1 0.008444 -0.003677 -0.001673 0.000000 0.000000 0.000000
# 2 -0.003677 0.017531 -0.000286 0.000000 0.000000 0.000000
# 3 -0.001673 -0.000286 0.011372 0.000000 0.000000 0.000000
# 4 0.000000 0.000000 0.000000 0.035774 0.000000 0.000000
# 5 0.000000 0.000000 0.000000 0.000000 0.039864 0.000000
# 6 0.000000 0.000000 0.000000 0.000000 0.000000 0.031881
#
#
# Mechanical properties :
#
#
# Convention : Reuss Voigt Hill
#
# Bulk Modulus (GPa) = 38.35096 44.36538 41.35817
# Shear Modulus (GPa) = 30.33409 32.49428 31.41418
#
# Velocity S-wave (km/s) = 3.57992 3.70520 3.64310
# Velocity P-wave (km/s) = 5.76980 6.08675 5.93039
#
# Compressibility (1/GPa) = 0.02607497
#
# Stress axis : x y z
#
# Youngs Moduli (GPa) = 118.42830 57.04113 87.93269
#
# Poissons Ratio (x) = 0.20973 0.14713
# Poissons Ratio (y) = 0.43543 0.02517
# Poissons Ratio (z) = 0.19815 0.01633
#
# Static dielectric constant tensor:
#      x y z
#    x 4.389000 0.000000 0.000000 
#    y 0.000000 4.414300 0.000000 
#    z 0.000000 0.000000 4.147950 
# 
# 
# High freq. dielectric constant tensor:
#      x y z
#    x 1.952690 0.000000 0.000000 
#    y 0.000000 1.936920 0.000000 
#    z 0.000000 0.000000 1.936470 
# 
# From -- ./inp_files/1435.got.cif
#   From: 2010.03.12/outbox.cif.g09.slc.cpg/sg33_1_cif.got.tgz:1435.got - 2010.04.14 01:49:19.
