data_PCOD8171292
_publ_section_title
;
Structure prediction by ZEFSAII (Michael W. Deem and Ramdas Pophale) SiO2 
 PCOD8171292
Probable space group: P N A 21
;
_chemical_formula_sum "Si O2"
_cell_formula_units_Z 32
_cell_length_a 5.344146
_cell_length_b 26.153003
_cell_length_c 10.774363
_cell_angle_alpha 90.000000
_cell_angle_beta 90.000000
_cell_angle_gamma 90.000000
_cell_volume 1505.883870
_symmetry_space_group_name_H-M "P N A 21"
_symmetry_group_IT_number 33
_symmetry_cell_setting 'orthorhombic'
loop_
_space_group_symop_operation_xyz
x,y,z
-x,-y,1/2+z
1/2-x,1/2+y,1/2+z
1/2+x,1/2-y,z
loop_
_atom_site_type_symbol
_atom_site_label
_atom_site_fract_x
_atom_site_fract_y
_atom_site_fract_z
Si Si1 0.989772 0.063464 0.164210
Si Si2 0.860904 0.042826 0.561233
Si Si3 0.359655 0.718607 0.301931
Si Si4 0.417382 0.956327 0.831619
Si Si5 0.701822 0.389224 0.416779
Si Si6 0.907362 0.562311 0.288229
Si Si7 0.589463 0.391496 0.902570
Si Si8 0.633636 0.280726 0.514561
O O1 0.119540 0.087970 0.283638
O O2 0.692571 0.062750 0.198660
O O3 0.037620 0.003570 0.143336
O O4 0.080811 0.096931 0.048780
O O5 0.789820 0.020555 0.425871
O O6 0.633454 0.068981 0.639922
O O7 0.070064 0.086013 0.536992
O O8 0.596367 0.754426 0.333259
O O9 0.383566 0.669052 0.387513
O O10 0.358600 0.702168 0.157779
O O11 0.509914 0.907071 0.911716
O O12 0.617522 0.001447 0.815002
O O13 0.671175 0.328757 0.423861
O O14 0.678294 0.590669 0.353136
O O15 0.176728 0.582934 0.331114
O O16 0.363261 0.257023 0.483874
#
# Coordination Sequence:
#
# PCOD8171292 Si02
#       8
#     4   4   4   4   4   4   4   4
#     4  11  25  43  61 101 145 187 231 277 340 431
#     4  11  24  41  65  97 144 181 234 286 339 426
#     4  10  22  45  69  99 129 166 225 298 358 408
#     4  11  25  40  65  94 144 187 231 278 344 419
#     4  11  25  43  68  98 137 192 231 288 354 414
#     4  12  25  41  65 102 133 183 229 277 340 414
#     4  12  26  43  69  99 136 180 229 282 354 418
#     4  10  24  44  72  98 132 170 234 302 349 404
#
# _framework density 21.249977999999999
#
# number of rings (size 3 to 8) (size 9 to 14) (size 15 to 20)
#    0.000    1.000    2.500    3.000   12.250    1.000 
#    0.000    1.250    0.000    0.000    0.000    0.000 
#    0.000    0.000    0.000    0.000    0.000    0.000 
#
# Total GULP energy -396457.414538 kJ/mol
# GULP energy per Si atom -12389.294204 kJ/mol
# Density = 2.120161 g / cm^3
# Si number density = 21.249978 Si / 1000 Ang^3
#
#
#
# Elastic Constant Matrix: (Units=GPa)
#
#
# Indices 1 2 3 4 5 6 
#
# 1 111.7076 36.9877 34.4185 0.0000 0.0000 0.0000
# 2 36.9877 116.1550 52.9444 0.0000 0.0000 0.0000
# 3 34.4185 52.9444 112.1371 0.0000 0.0000 0.0000
# 4 0.0000 0.0000 0.0000 35.5825 0.0000 0.0000
# 5 0.0000 0.0000 0.0000 0.0000 31.5963 0.0000
# 6 0.0000 0.0000 0.0000 0.0000 0.0000 27.1037
#
#
#
# Elastic Compliance Matrix: (Units=1/GPa)
#
#
# Indices 1 2 3 4 5 6 
#
# 1 0.010371 -0.002359 -0.002069 0.000000 0.000000 0.000000
# 2 -0.002359 0.011507 -0.004709 0.000000 0.000000 0.000000
# 3 -0.002069 -0.004709 0.011776 0.000000 0.000000 0.000000
# 4 0.000000 0.000000 0.000000 0.028104 0.000000 0.000000
# 5 0.000000 0.000000 0.000000 0.000000 0.031649 0.000000
# 6 0.000000 0.000000 0.000000 0.000000 0.000000 0.036895
#
#
# Mechanical properties :
#
#
# Convention : Reuss Voigt Hill
#
# Bulk Modulus (GPa) = 65.02328 65.41121 65.21724
# Shear Modulus (GPa) = 32.53048 33.23311 32.88179
#
# Velocity S-wave (km/s) = 3.91685 3.95892 3.93794
# Velocity P-wave (km/s) = 7.14991 7.19347 7.17173
#
# Compressibility (1/GPa) = 0.01537911
#
# Stress axis : x y z
#
# Youngs Moduli (GPa) = 96.42597 86.90612 84.91923
#
# Poissons Ratio (x) = 0.20503 0.17572
# Poissons Ratio (y) = 0.22749 0.39985
# Poissons Ratio (z) = 0.19953 0.40921
#
# Static dielectric constant tensor:
#      x y z
#    x 4.376220 0.000000 0.000000 
#    y 0.000000 3.726160 0.000000 
#    z 0.000000 0.000000 3.923460 
# 
# 
# High freq. dielectric constant tensor:
#      x y z
#    x 1.852160 0.000000 0.000000 
#    y 0.000000 1.817380 0.000000 
#    z 0.000000 0.000000 1.832660 
# 
# From -- ./inp_files/5608.got.cif
#   From: 2010.03.12/outbox.cif.g09.slc.cpg/sg33_3_cif.got.tgz:5608.got - 2010.04.14 01:49:19.
