data_PCOD8171848
_publ_section_title
;
Structure prediction by ZEFSAII (Michael W. Deem and Ramdas Pophale) SiO2 
 PCOD8171848
Probable space group: P N N 2
;
_chemical_formula_sum "Si O2"
_cell_formula_units_Z 24
_cell_length_a 11.751628
_cell_length_b 8.898784
_cell_length_c 8.605050
_cell_angle_alpha 90.000000
_cell_angle_beta 90.000000
_cell_angle_gamma 90.000000
_cell_volume 899.874818
_symmetry_space_group_name_H-M "P N N 2"
_symmetry_group_IT_number 34
_symmetry_cell_setting 'orthorhombic'
loop_
_space_group_symop_operation_xyz
x,y,z
-x,-y,z
1/2-x,1/2+y,1/2+z
1/2+x,1/2-y,1/2+z
loop_
_atom_site_type_symbol
_atom_site_label
_atom_site_fract_x
_atom_site_fract_y
_atom_site_fract_z
Si Si1 0.369156 0.314974 0.160970
Si Si2 0.884405 0.422700 0.409047
Si Si3 0.474928 0.157260 0.582523
Si Si4 0.343967 0.663377 0.761176
Si Si5 0.205381 0.882500 0.071291
Si Si6 0.118575 0.153384 0.614377
O O1 0.357438 0.232636 0.995141
O O2 0.286224 0.223831 0.278834
O O3 0.332654 0.488127 0.147061
O O4 0.502888 0.311339 0.209407
O O5 0.897059 0.393535 0.227660
O O6 0.776065 0.534087 0.435498
O O7 0.000000 0.500000 0.477287
O O8 0.592694 0.227563 0.640599
O O9 0.398730 0.284129 0.494044
O O10 0.500000 0.000000 0.487831
O O11 0.348848 0.495055 0.695799
O O12 0.404183 0.668152 0.928341
O O13 0.288860 0.773833 0.169532
#
# Coordination Sequence:
#
# PCOD8171848 Si02
#       6
#     4   4   4   4   4   4
#     4  10  21  36  68  96 129 174 232 276 336 412
#     4  10  18  37  62  95 126 171 226 276 333 405
#     4  11  21  38  64  96 132 177 223 273 345 404
#     4  11  23  39  69  98 133 179 228 278 343 415
#     4  11  23  36  68  98 134 173 231 278 339 409
#     4  11  21  41  65  95 135 177 225 285 340 403
#
# _framework density 26.670375
#
# number of rings (size 3 to 8) (size 9 to 14) (size 15 to 20)
#    0.000    1.333    3.333    3.500    2.333    0.000 
#    0.000    0.000   29.333    0.000    0.000    0.000 
#    0.000    0.000    0.000    0.000    0.000    0.000 
#
# Total GULP energy -297483.698762 kJ/mol
# GULP energy per Si atom -12395.154115 kJ/mol
# Density = 2.660967 g / cm^3
# Si number density = 26.670375 Si / 1000 Ang^3
#
#
#
# Elastic Constant Matrix: (Units=GPa)
#
#
# Indices 1 2 3 4 5 6 
#
# 1 133.0775 56.1328 22.7908 0.0000 0.0000 0.0000
# 2 56.1328 171.1844 -6.6298 0.0000 0.0000 0.0000
# 3 22.7908 -6.6298 17.5047 0.0000 0.0000 0.0000
# 4 0.0000 0.0000 0.0000 25.7123 0.0000 0.0000
# 5 0.0000 0.0000 0.0000 0.0000 33.7672 0.0000
# 6 0.0000 0.0000 0.0000 0.0000 0.0000 70.1634
#
#
#
# Elastic Compliance Matrix: (Units=1/GPa)
#
#
# Indices 1 2 3 4 5 6 
#
# 1 0.012733 -0.004889 -0.018430 0.000000 0.000000 0.000000
# 2 -0.004889 0.007806 0.009322 0.000000 0.000000 0.000000
# 3 -0.018430 0.009322 0.084653 0.000000 0.000000 0.000000
# 4 0.000000 0.000000 0.000000 0.038892 0.000000 0.000000
# 5 0.000000 0.000000 0.000000 0.000000 0.029615 0.000000
# 6 0.000000 0.000000 0.000000 0.000000 0.000000 0.014252
#
#
# Mechanical properties :
#
#
# Convention : Reuss Voigt Hill
#
# Bulk Modulus (GPa) = 12.95365 51.81710 32.38538
# Shear Modulus (GPa) = 20.68874 42.56009 31.62441
#
# Velocity S-wave (km/s) = 2.78820 3.99906 3.44721
# Velocity P-wave (km/s) = 3.90293 6.38703 5.29278
#
# Compressibility (1/GPa) = 0.07719830
#
# Stress axis : x y z
#
# Youngs Moduli (GPa) = 78.53694 128.10968 11.81289
#
# Poissons Ratio (x) = 0.62632 0.21771
# Poissons Ratio (y) = 0.38396 -0.11012
# Poissons Ratio (z) = 1.44741 -1.19421
#
# Static dielectric constant tensor:
#      x y z
#    x 5.138820 0.000000 0.000000 
#    y 0.000000 5.536150 0.000000 
#    z 0.000000 0.000000 4.135760 
# 
# 
# High freq. dielectric constant tensor:
#      x y z
#    x 2.085480 0.000000 0.000000 
#    y 0.000000 2.100150 0.000000 
#    z 0.000000 0.000000 2.022620 
# 
# From -- ./inp_files/4923.got.cif
#   From: 2010.03.12/outbox.cif.g09.slc.cpg/sg34_3_cif.got.tgz:4923.got - 2010.04.14 01:56:33.
