data_PCOD8171029
_publ_section_title
;
Structure prediction by ZEFSAII (Michael W. Deem and Ramdas Pophale) SiO2 
 PCOD8171029
Probable space group: P N A 21
;
_chemical_formula_sum "Si O2"
_cell_formula_units_Z 28
_cell_length_a 12.461473
_cell_length_b 8.105906
_cell_length_c 12.992208
_cell_angle_alpha 90.000000
_cell_angle_beta 90.000000
_cell_angle_gamma 90.000000
_cell_volume 1312.362792
_symmetry_space_group_name_H-M "P N A 21"
_symmetry_group_IT_number 33
_symmetry_cell_setting 'orthorhombic'
loop_
_space_group_symop_operation_xyz
x,y,z
-x,-y,1/2+z
1/2-x,1/2+y,1/2+z
1/2+x,1/2-y,z
loop_
_atom_site_type_symbol
_atom_site_label
_atom_site_fract_x
_atom_site_fract_y
_atom_site_fract_z
Si Si1 0.120129 0.954941 0.509350
Si Si2 0.000000 0.661504 0.432940
Si Si3 0.379872 0.545059 0.356531
Si Si4 0.406079 0.417984 0.573670
Si Si5 0.349657 0.955239 0.792397
Si Si6 0.849657 0.455238 0.573483
Si Si7 0.906079 0.917983 0.792211
O O1 0.229020 0.972767 0.571754
O O2 0.143358 0.978823 0.387279
O O3 0.035609 0.087156 0.557645
O O4 0.063922 0.774128 0.517084
O O5 0.936078 0.774128 0.348797
O O6 0.915882 0.542222 0.485513
O O7 0.084119 0.542223 0.380367
O O8 0.356643 0.521179 0.478602
O O9 0.270980 0.527233 0.294127
O O10 0.464392 0.412844 0.308236
O O11 0.352470 0.240308 0.561626
O O12 0.374618 0.499999 0.682941
O O13 0.352471 0.759693 0.804253
O O14 0.400982 0.000001 0.682940
#
# Coordination Sequence:
#
# PCOD8171029 Si02
#       7
#     4   4   4   4   4   4   4
#     4  10  22  41  61  84 122 160 199 254 299 353
#     4  10  22  40  60  90 122 154 202 254 296 352
#     4  10  22  41  61  84 122 160 199 254 299 353
#     4  10  21  40  60  87 123 159 200 251 300 356
#     4  12  23  38  63  90 118 160 202 245 306 364
#     4  12  23  38  63  90 118 160 202 245 306 364
#     4  10  21  40  60  87 123 159 200 251 300 356
#
# _framework density 21.335563
#
# number of rings (size 3 to 8) (size 9 to 14) (size 15 to 20)
#    0.000    1.714    0.000    7.714    0.000    0.000 
#    0.000    2.857    0.000    0.000    0.000    0.000 
#    0.000    0.000    0.000    0.000    0.000    0.000 
#
# Total GULP energy -347116.877661 kJ/mol
# GULP energy per Si atom -12397.031345 kJ/mol
# Density = 2.128700 g / cm^3
# Si number density = 21.335563 Si / 1000 Ang^3
#
#
#
# Elastic Constant Matrix: (Units=GPa)
#
#
# Indices 1 2 3 4 5 6 
#
# 1 100.6198 36.3318 5.7229 0.0000 0.0000 0.0000
# 2 36.3318 111.7924 11.3158 0.0000 0.0000 0.0000
# 3 5.7229 11.3158 65.3611 0.0000 0.0000 0.0000
# 4 0.0000 0.0000 0.0000 20.7371 0.0000 0.0000
# 5 0.0000 0.0000 0.0000 0.0000 22.8418 0.0000
# 6 0.0000 0.0000 0.0000 0.0000 0.0000 35.7379
#
#
#
# Elastic Compliance Matrix: (Units=1/GPa)
#
#
# Indices 1 2 3 4 5 6 
#
# 1 0.011268 -0.003626 -0.000359 0.000000 0.000000 0.000000
# 2 -0.003626 0.010271 -0.001461 0.000000 0.000000 0.000000
# 3 -0.000359 -0.001461 0.015584 0.000000 0.000000 0.000000
# 4 0.000000 0.000000 0.000000 0.048223 0.000000 0.000000
# 5 0.000000 0.000000 0.000000 0.000000 0.043779 0.000000
# 6 0.000000 0.000000 0.000000 0.000000 0.000000 0.027981
#
#
# Mechanical properties :
#
#
# Convention : Reuss Voigt Hill
#
# Bulk Modulus (GPa) = 38.12064 42.72381 40.42222
# Shear Modulus (GPa) = 28.28986 30.82355 29.55671
#
# Velocity S-wave (km/s) = 3.64531 3.80505 3.72603
# Velocity P-wave (km/s) = 5.96856 6.27477 6.12358
#
# Compressibility (1/GPa) = 0.02623251
#
# Stress axis : x y z
#
# Youngs Moduli (GPa) = 88.74701 97.35825 64.16857
#
# Poissons Ratio (x) = 0.35299 0.02303
# Poissons Ratio (y) = 0.32177 0.09374
# Poissons Ratio (z) = 0.03185 0.14222
#
# Static dielectric constant tensor:
#      x y z
#    x 3.745650 0.000000 0.000000 
#    y 0.000000 3.867890 0.000000 
#    z 0.000000 0.000000 3.923920 
# 
# 
# High freq. dielectric constant tensor:
#      x y z
#    x 1.826950 0.000000 0.000000 
#    y 0.000000 1.833760 0.000000 
#    z 0.000000 0.000000 1.842920 
# 
# From -- ./inp_files/7922.got.cif
#   From: 2010.03.12/outbox.cif.g09.slc.cpg/sg33_4_cif.got.tgz:7922.got - 2010.04.14 01:49:19.
