data_PCOD8171307
_publ_section_title
;
Structure prediction by ZEFSAII (Michael W. Deem and Ramdas Pophale) SiO2 
 PCOD8171307
Probable space group: P N A 21
;
_chemical_formula_sum "Si O2"
_cell_formula_units_Z 32
_cell_length_a 5.510427
_cell_length_b 28.750490
_cell_length_c 8.982345
_cell_angle_alpha 90.000000
_cell_angle_beta 90.000000
_cell_angle_gamma 90.000000
_cell_volume 1423.050250
_symmetry_space_group_name_H-M "P N A 21"
_symmetry_group_IT_number 33
_symmetry_cell_setting 'orthorhombic'
loop_
_space_group_symop_operation_xyz
x,y,z
-x,-y,1/2+z
1/2-x,1/2+y,1/2+z
1/2+x,1/2-y,z
loop_
_atom_site_type_symbol
_atom_site_label
_atom_site_fract_x
_atom_site_fract_y
_atom_site_fract_z
Si Si1 0.319078 0.631517 0.185010
Si Si2 0.696330 0.446216 0.184941
Si Si3 0.696331 0.553784 0.177314
Si Si4 0.180923 0.868483 0.677244
Si Si5 0.500002 0.899882 0.431127
Si Si6 0.000001 0.400555 0.431127
Si Si7 0.006587 0.225992 0.254718
Si Si8 0.006590 0.774008 0.107533
O O1 0.446495 0.581615 0.185164
O O2 0.509674 0.673639 0.173161
O O3 0.175869 0.634757 0.340559
O O4 0.141026 0.634193 0.042371
O O5 0.627885 0.500000 0.181127
O O6 0.446493 0.418385 0.177095
O O7 0.823338 0.434247 0.340462
O O8 0.862693 0.433514 0.045079
O O9 0.862700 0.566485 0.317173
O O10 0.823334 0.565753 0.021790
O O11 0.324132 0.865244 0.521695
O O12 0.358975 0.865806 0.819883
O O13 0.990328 0.826361 0.689090
O O14 0.756674 0.250527 0.196745
O O15 0.999999 0.224785 0.431125
O O16 0.256677 0.750527 0.165505
#
# Coordination Sequence:
#
# PCOD8171307 Si02
#       8
#     4   4   4   4   4   4   4   4
#     4  11  24  42  65  94 133 173 217 276 336 402
#     4  11  23  41  65  94 129 172 219 271 333 400
#     4  11  23  41  65  94 129 172 219 271 333 400
#     4  11  24  42  65  94 133 173 217 276 336 402
#     4  10  25  42  64  90 140 172 220 268 341 398
#     4  10  23  38  64  94 128 164 220 272 331 394
#     4  10  23  40  69 102 134 174 229 288 343 401
#     4  10  23  40  69 102 134 174 229 288 343 401
#
# _framework density 22.486909000000001
#
# number of rings (size 3 to 8) (size 9 to 14) (size 15 to 20)
#    0.000    1.500    0.000    3.750   12.250    8.000 
#    0.000    1.250    0.000    0.000    0.000    0.000 
#    0.000    0.000    0.000    0.000    0.000    0.000 
#
# Total GULP energy -396916.465711 kJ/mol
# GULP energy per Si atom -12403.639553 kJ/mol
# Density = 2.243573 g / cm^3
# Si number density = 22.486909 Si / 1000 Ang^3
#
#
#
# Elastic Constant Matrix: (Units=GPa)
#
#
# Indices 1 2 3 4 5 6 
#
# 1 123.6603 40.3261 31.4322 0.0000 0.0000 0.0000
# 2 40.3261 122.8836 17.1039 0.0000 0.0000 0.0000
# 3 31.4322 17.1039 103.2142 0.0000 0.0000 0.0000
# 4 0.0000 0.0000 0.0000 15.2757 0.0000 0.0000
# 5 0.0000 0.0000 0.0000 0.0000 6.7408 0.0000
# 6 0.0000 0.0000 0.0000 0.0000 0.0000 38.9084
#
#
#
# Elastic Compliance Matrix: (Units=1/GPa)
#
#
# Indices 1 2 3 4 5 6 
#
# 1 0.009632 -0.002818 -0.002466 0.000000 0.000000 0.000000
# 2 -0.002818 0.009154 -0.000659 0.000000 0.000000 0.000000
# 3 -0.002466 -0.000659 0.010549 0.000000 0.000000 0.000000
# 4 0.000000 0.000000 0.000000 0.065464 0.000000 0.000000
# 5 0.000000 0.000000 0.000000 0.000000 0.148350 0.000000
# 6 0.000000 0.000000 0.000000 0.000000 0.000000 0.025701
#
#
# Mechanical properties :
#
#
# Convention : Reuss Voigt Hill
#
# Bulk Modulus (GPa) = 57.30861 58.60916 57.95888
# Shear Modulus (GPa) = 17.44879 29.57804 23.51342
#
# Velocity S-wave (km/s) = 2.78862 3.63070 3.23716
# Velocity P-wave (km/s) = 5.99242 6.61032 6.30894
#
# Compressibility (1/GPa) = 0.01744939
#
# Stress axis : x y z
#
# Youngs Moduli (GPa) = 103.81544 109.23978 94.79662
#
# Poissons Ratio (x) = 0.30781 0.23381
# Poissons Ratio (y) = 0.29253 0.06246
# Poissons Ratio (z) = 0.25606 0.07197
#
# Static dielectric constant tensor:
#      x y z
#    x 4.298010 0.000000 0.000000 
#    y 0.000000 3.782480 0.000000 
#    z 0.000000 0.000000 4.127580 
# 
# 
# High freq. dielectric constant tensor:
#      x y z
#    x 1.898040 0.000000 0.000000 
#    y 0.000000 1.874690 0.000000 
#    z 0.000000 0.000000 1.885200 
# 
# From -- ./inp_files/2872.got.cif
#   From: 2010.03.12/outbox.cif.g09.slc.cpg/sg33_2_cif.got.tgz:2872.got - 2010.04.14 01:49:19.
