data_PCOD8171970
_publ_section_title
;
Structure prediction by ZEFSAII (Michael W. Deem and Ramdas Pophale) SiO2 
 PCOD8171970
Probable space group: P N N 2
;
_chemical_formula_sum "Si O2"
_cell_formula_units_Z 32
_cell_length_a 8.499099
_cell_length_b 13.852898
_cell_length_c 12.510858
_cell_angle_alpha 90.000000
_cell_angle_beta 90.000000
_cell_angle_gamma 90.000000
_cell_volume 1472.992784
_symmetry_space_group_name_H-M "P N N 2"
_symmetry_group_IT_number 34
_symmetry_cell_setting 'orthorhombic'
loop_
_space_group_symop_operation_xyz
x,y,z
-x,-y,z
1/2-x,1/2+y,1/2+z
1/2+x,1/2-y,1/2+z
loop_
_atom_site_type_symbol
_atom_site_label
_atom_site_fract_x
_atom_site_fract_y
_atom_site_fract_z
Si Si1 0.977424 0.224277 0.644160
Si Si2 0.833100 0.731798 0.041268
Si Si3 0.915285 0.901624 0.455258
Si Si4 0.229061 0.125161 0.765072
Si Si5 0.371904 0.928431 0.158373
Si Si6 0.667440 0.676312 0.825533
Si Si7 0.393116 0.090177 0.553090
Si Si8 0.329503 0.545479 0.488299
O O1 0.788186 0.211147 0.639533
O O2 0.056767 0.179312 0.541785
O O3 0.052658 0.171607 0.748538
O O4 0.028066 0.334522 0.628954
O O5 0.845465 0.846396 0.032149
O O6 0.005176 0.688026 0.064181
O O7 0.767764 0.679918 0.934886
O O8 0.725377 0.909186 0.450777
O O9 0.990504 0.863740 0.344387
O O10 0.000000 0.000000 0.490693
O O11 0.346255 0.215964 0.779995
O O12 0.290692 0.069965 0.660255
O O13 0.229399 0.052056 0.864823
O O14 0.241359 0.901696 0.245472
O O15 0.500000 0.000000 0.209676
O O16 0.292154 0.979253 0.054651
O O17 0.500000 0.000000 0.532080
O O18 0.500000 0.500000 0.493442
#
# Coordination Sequence:
#
# PCOD8171970 Si02
#       8
#     4   4   4   4   4   4   4   4
#     4   9  19  41  70  90 129 176 216 275 334 401
#     4  10  21  42  65  98 131 174 224 283 340 406
#     4  10  21  39  65  92 123 168 215 274 334 392
#     4   9  22  43  62  94 132 172 225 273 332 405
#     4  11  22  41  69  98 132 180 219 275 341 401
#     4   9  21  41  63  91 132 167 222 272 330 411
#     4  11  23  40  67  95 127 169 222 285 340 404
#     4  11  25  40  64  96 143 180 224 280 338 418
#
# _framework density 21.724477
#
# number of rings (size 3 to 8) (size 9 to 14) (size 15 to 20)
#    0.000    2.000    1.250    1.500    5.250    5.500 
#    0.000    3.750    0.000    0.000    0.000    0.000 
#    0.000    0.000    0.000    0.000    0.000    0.000 
#
# Total GULP energy -396583.126226 kJ/mol
# GULP energy per Si atom -12393.222695 kJ/mol
# Density = 2.167503 g / cm^3
# Si number density = 21.724477 Si / 1000 Ang^3
#
#
#
# Elastic Constant Matrix: (Units=GPa)
#
#
# Indices 1 2 3 4 5 6 
#
# 1 154.6090 46.1088 45.1725 0.0000 0.0000 0.0000
# 2 46.1088 84.8200 26.6896 0.0000 0.0000 0.0000
# 3 45.1725 26.6896 85.2463 0.0000 0.0000 0.0000
# 4 0.0000 0.0000 0.0000 29.1103 0.0000 0.0000
# 5 0.0000 0.0000 0.0000 0.0000 32.5784 0.0000
# 6 0.0000 0.0000 0.0000 0.0000 0.0000 39.5030
#
#
#
# Elastic Compliance Matrix: (Units=1/GPa)
#
#
# Indices 1 2 3 4 5 6 
#
# 1 0.008525 -0.003564 -0.003401 0.000000 0.000000 0.000000
# 2 -0.003564 0.014568 -0.002673 0.000000 0.000000 0.000000
# 3 -0.003401 -0.002673 0.014370 0.000000 0.000000 0.000000
# 4 0.000000 0.000000 0.000000 0.034352 0.000000 0.000000
# 5 0.000000 0.000000 0.000000 0.000000 0.030695 0.000000
# 6 0.000000 0.000000 0.000000 0.000000 0.000000 0.025315
#
#
# Mechanical properties :
#
#
# Convention : Reuss Voigt Hill
#
# Bulk Modulus (GPa) = 54.98484 62.29082 58.63783
# Shear Modulus (GPa) = 32.64518 34.01863 33.33191
#
# Velocity S-wave (km/s) = 3.88066 3.96145 3.92127
# Velocity P-wave (km/s) = 6.74125 7.04695 6.89579
#
# Compressibility (1/GPa) = 0.01818683
#
# Stress axis : x y z
#
# Youngs Moduli (GPa) = 117.30845 68.64407 69.58980
#
# Poissons Ratio (x) = 0.24463 0.23671
# Poissons Ratio (y) = 0.41805 0.18599
# Poissons Ratio (z) = 0.39902 0.18346
#
# Static dielectric constant tensor:
#      x y z
#    x 4.489430 0.000000 0.000000 
#    y 0.000000 4.034110 0.000000 
#    z 0.000000 0.000000 3.930700 
# 
# 
# High freq. dielectric constant tensor:
#      x y z
#    x 1.856410 0.000000 0.000000 
#    y 0.000000 1.865170 0.000000 
#    z 0.000000 0.000000 1.834750 
# 
# From -- ./inp_files/5107.got.cif
#   From: 2010.03.12/outbox.cif.g09.slc.cpg/sg34_3_cif.got.tgz:5107.got - 2010.04.14 01:56:33.
