data_PCOD8171802
_publ_section_title
;
Structure prediction by ZEFSAII (Michael W. Deem and Ramdas Pophale) SiO2 
 PCOD8171802
Probable space group: P N A 21
;
_chemical_formula_sum "Si O2"
_cell_formula_units_Z 24
_cell_length_a 8.861014
_cell_length_b 7.316661
_cell_length_c 17.095804
_cell_angle_alpha 90.000000
_cell_angle_beta 90.000000
_cell_angle_gamma 90.000000
_cell_volume 1108.372869
_symmetry_space_group_name_H-M "P N A 21"
_symmetry_group_IT_number 33
_symmetry_cell_setting 'orthorhombic'
loop_
_space_group_symop_operation_xyz
x,y,z
-x,-y,1/2+z
1/2-x,1/2+y,1/2+z
1/2+x,1/2-y,z
loop_
_atom_site_type_symbol
_atom_site_label
_atom_site_fract_x
_atom_site_fract_y
_atom_site_fract_z
Si Si1 0.469375 0.590824 0.126720
Si Si2 0.321698 0.966726 0.134628
Si Si3 0.399923 0.780358 0.858769
Si Si4 0.151971 0.795625 0.747384
Si Si5 0.681529 0.534831 0.468876
Si Si6 0.469997 0.096243 0.977882
O O1 0.419175 0.789186 0.156577
O O2 0.648992 0.585892 0.117048
O O3 0.413024 0.441673 0.187756
O O4 0.393819 0.561449 0.043064
O O5 0.333503 0.097597 0.208754
O O6 0.391654 0.072358 0.061388
O O7 0.315814 0.852298 0.780235
O O8 0.560400 0.713169 0.828250
O O9 0.315545 0.607871 0.897819
O O10 0.413952 0.940265 0.920710
O O11 0.582288 0.709343 0.443506
O O12 0.850653 0.596249 0.489536
#
# Coordination Sequence:
#
# PCOD8171802 Si02
#       6
#     4   4   4   4   4   4
#     4  12  27  46  76 107 146 192 246 294 362 438
#     4  12  27  46  76 108 144 195 244 296 360 437
#     4  12  28  50  72 107 151 188 239 304 365 422
#     4  12  28  50  72 107 151 188 239 304 365 422
#     4  12  27  46  76 108 144 195 244 296 360 437
#     4  12  27  46  76 107 146 192 246 294 362 438
#
# _framework density 21.653362000000001
#
# number of rings (size 3 to 8) (size 9 to 14) (size 15 to 20)
#    0.000    0.000    6.667    2.000    9.333    2.667 
#    0.000    0.000    0.000    0.000    0.000    0.000 
#    0.000    0.000    0.000    0.000    0.000    0.000 
#
# Total GULP energy -297742.783539 kJ/mol
# GULP energy per Si atom -12405.949314 kJ/mol
# Density = 2.160408 g / cm^3
# Si number density = 21.653362 Si / 1000 Ang^3
#
#
#
# Elastic Constant Matrix: (Units=GPa)
#
#
# Indices 1 2 3 4 5 6 
#
# 1 118.8671 25.6905 35.3704 0.0000 0.0000 0.0000
# 2 25.6905 79.8975 23.1480 0.0000 0.0000 0.0000
# 3 35.3704 23.1480 85.3099 0.0000 0.0000 0.0000
# 4 0.0000 0.0000 0.0000 23.2963 0.0000 0.0000
# 5 0.0000 0.0000 0.0000 0.0000 40.3272 0.0000
# 6 0.0000 0.0000 0.0000 0.0000 0.0000 34.8733
#
#
#
# Elastic Compliance Matrix: (Units=1/GPa)
#
#
# Indices 1 2 3 4 5 6 
#
# 1 0.009932 -0.002171 -0.003529 0.000000 0.000000 0.000000
# 2 -0.002171 0.014059 -0.002914 0.000000 0.000000 0.000000
# 3 -0.003529 -0.002914 0.013976 0.000000 0.000000 0.000000
# 4 0.000000 0.000000 0.000000 0.042925 0.000000 0.000000
# 5 0.000000 0.000000 0.000000 0.000000 0.024797 0.000000
# 6 0.000000 0.000000 0.000000 0.000000 0.000000 0.028675
#
#
# Mechanical properties :
#
#
# Convention : Reuss Voigt Hill
#
# Bulk Modulus (GPa) = 48.22171 50.27693 49.24932
# Shear Modulus (GPa) = 31.54465 33.02375 32.28420
#
# Velocity S-wave (km/s) = 3.82095 3.90950 3.86548
# Velocity P-wave (km/s) = 6.46408 6.60669 6.53578
#
# Compressibility (1/GPa) = 0.02073755
#
# Stress axis : x y z
#
# Youngs Moduli (GPa) = 100.68405 71.13110 71.55198
#
# Poissons Ratio (x) = 0.15444 0.25249
# Poissons Ratio (y) = 0.21861 0.20853
# Poissons Ratio (z) = 0.35529 0.20731
#
# Static dielectric constant tensor:
#      x y z
#    x 4.163760 0.000000 0.000000 
#    y 0.000000 4.083750 0.000000 
#    z 0.000000 0.000000 3.890080 
# 
# 
# High freq. dielectric constant tensor:
#      x y z
#    x 1.872740 0.000000 0.000000 
#    y 0.000000 1.860720 0.000000 
#    z 0.000000 0.000000 1.855030 
# 
# From -- ./inp_files/8431.got.cif
#   From: 2010.03.12/outbox.cif.g09.slc.cpg/sg33_5_cif.got.tgz:8431.got - 2010.04.14 01:49:19.
