data_PCOD8171107
_publ_section_title
;
Structure prediction by ZEFSAII (Michael W. Deem and Ramdas Pophale) SiO2 
 PCOD8171107
Probable space group: P N A 21
;
_chemical_formula_sum "Si O2"
_cell_formula_units_Z 32
_cell_length_a 27.642594
_cell_length_b 6.385356
_cell_length_c 7.656823
_cell_angle_alpha 90.000000
_cell_angle_beta 90.000000
_cell_angle_gamma 90.000000
_cell_volume 1351.489009
_symmetry_space_group_name_H-M "P N A 21"
_symmetry_group_IT_number 33
_symmetry_cell_setting 'orthorhombic'
loop_
_space_group_symop_operation_xyz
x,y,z
-x,-y,1/2+z
1/2-x,1/2+y,1/2+z
1/2+x,1/2-y,z
loop_
_atom_site_type_symbol
_atom_site_label
_atom_site_fract_x
_atom_site_fract_y
_atom_site_fract_z
Si Si1 0.746590 0.308673 0.071900
Si Si2 0.892612 0.234248 0.858056
Si Si3 0.839152 0.562917 0.079493
Si Si4 0.075106 0.409196 0.151334
Si Si5 0.805730 0.955476 0.901712
Si Si6 0.049689 0.146755 0.844359
Si Si7 0.535846 0.378543 0.453496
Si Si8 0.351435 0.739893 0.423658
O O1 0.785556 0.485495 0.035541
O O2 0.727313 0.324241 0.269123
O O3 0.770013 0.081511 0.033104
O O4 0.701549 0.359225 0.942598
O O5 0.919824 0.342168 0.691602
O O6 0.843012 0.114663 0.803415
O O7 0.930397 0.082587 0.950297
O O8 0.880156 0.423128 0.990261
O O9 0.849287 0.566702 0.286300
O O10 0.840362 0.802564 0.012760
O O11 0.052884 0.294325 0.318029
O O12 0.043592 0.349237 0.977107
O O13 0.130462 0.329132 0.112819
O O14 0.018440 0.950337 0.907612
O O15 0.036073 0.218473 0.648439
O O16 0.106775 0.078136 0.855441
#
# Coordination Sequence:
#
# PCOD8171107 Si02
#       8
#     4   4   4   4   4   4   4   4
#     4  11  23  42  65 102 135 190 244 293 364 438
#     4  11  24  44  72 103 143 187 244 292 368 431
#     4  11  24  44  67 102 144 187 242 311 365 432
#     4  10  24  46  72 101 143 192 236 300 359 440
#     4  11  25  42  71  99 140 194 233 307 361 433
#     4  10  23  43  76 102 147 186 238 302 365 434
#     4  12  22  50  74 109 144 194 241 302 371 441
#     4  10  21  43  65 102 134 188 236 293 359 431
#
# _framework density 23.677586999999999
#
# number of rings (size 3 to 8) (size 9 to 14) (size 15 to 20)
#    0.750    0.500    2.500    3.750    1.750    1.000 
#    6.750    0.000    0.000    0.000    0.000    0.000 
#    0.000    0.000    0.000    0.000    0.000    0.000 
#
# Total GULP energy -396520.214158 kJ/mol
# GULP energy per Si atom -12391.256692 kJ/mol
# Density = 2.362370 g / cm^3
# Si number density = 23.677587 Si / 1000 Ang^3
#
#
#
# Elastic Constant Matrix: (Units=GPa)
#
#
# Indices 1 2 3 4 5 6 
#
# 1 100.6070 29.0701 13.5957 0.0000 0.0000 0.0000
# 2 29.0701 73.6707 30.8196 0.0000 0.0000 0.0000
# 3 13.5957 30.8196 127.9821 0.0000 0.0000 0.0000
# 4 0.0000 0.0000 0.0000 24.7824 0.0000 0.0000
# 5 0.0000 0.0000 0.0000 0.0000 40.3602 0.0000
# 6 0.0000 0.0000 0.0000 0.0000 0.0000 29.0372
#
#
#
# Elastic Compliance Matrix: (Units=1/GPa)
#
#
# Indices 1 2 3 4 5 6 
#
# 1 0.011221 -0.004369 -0.000140 0.000000 0.000000 0.000000
# 2 -0.004369 0.016796 -0.003580 0.000000 0.000000 0.000000
# 3 -0.000140 -0.003580 0.008691 0.000000 0.000000 0.000000
# 4 0.000000 0.000000 0.000000 0.040351 0.000000 0.000000
# 5 0.000000 0.000000 0.000000 0.000000 0.024777 0.000000
# 6 0.000000 0.000000 0.000000 0.000000 0.000000 0.034439
#
#
# Mechanical properties :
#
#
# Convention : Reuss Voigt Hill
#
# Bulk Modulus (GPa) = 48.71306 49.91452 49.31379
# Shear Modulus (GPa) = 31.38805 34.08760 32.73782
#
# Velocity S-wave (km/s) = 3.64489 3.79840 3.72243
# Velocity P-wave (km/s) = 6.19127 6.35325 6.27278
#
# Compressibility (1/GPa) = 0.02052837
#
# Stress axis : x y z
#
# Youngs Moduli (GPa) = 89.11815 59.53835 115.06590
#
# Poissons Ratio (x) = 0.26014 0.01609
# Poissons Ratio (y) = 0.38938 0.41199
# Poissons Ratio (z) = 0.01246 0.21318
#
# Static dielectric constant tensor:
#      x y z
#    x 4.446230 0.000000 0.000000 
#    y 0.000000 3.944010 0.000000 
#    z 0.000000 0.000000 4.261990 
# 
# 
# High freq. dielectric constant tensor:
#      x y z
#    x 1.953170 0.000000 0.000000 
#    y 0.000000 1.906920 0.000000 
#    z 0.000000 0.000000 1.938400 
# 
# From -- ./inp_files/5326.got.cif
#   From: 2010.03.12/outbox.cif.g09.slc.cpg/sg33_3_cif.got.tgz:5326.got - 2010.04.14 01:49:19.
