data_PCOD8171865
_publ_section_title
;
Structure prediction by ZEFSAII (Michael W. Deem and Ramdas Pophale) SiO2 
 PCOD8171865
Probable space group: P N N 2
;
_chemical_formula_sum "Si O2"
_cell_formula_units_Z 30
_cell_length_a 15.613513
_cell_length_b 6.082471
_cell_length_c 16.207857
_cell_angle_alpha 90.000000
_cell_angle_beta 90.000000
_cell_angle_gamma 90.000000
_cell_volume 1539.239758
_symmetry_space_group_name_H-M "P N N 2"
_symmetry_group_IT_number 34
_symmetry_cell_setting 'orthorhombic'
loop_
_space_group_symop_operation_xyz
x,y,z
-x,-y,z
1/2-x,1/2+y,1/2+z
1/2+x,1/2-y,1/2+z
loop_
_atom_site_type_symbol
_atom_site_label
_atom_site_fract_x
_atom_site_fract_y
_atom_site_fract_z
Si Si1 0.399456 0.045624 0.308340
Si Si2 0.290305 0.793418 0.174993
Si Si3 0.906979 0.099955 0.679515
Si Si4 0.129812 0.334402 0.405682
Si Si5 0.852261 0.287045 0.291570
Si Si6 0.756131 0.537789 0.926191
Si Si7 0.000000 0.000000 0.345077
Si Si8 0.173105 0.638014 0.545514
O O1 0.386490 0.290020 0.269081
O O2 0.500000 0.000000 0.317629
O O3 0.354605 0.881034 0.244975
O O4 0.354852 0.009057 0.398361
O O5 0.334615 0.567903 0.149291
O O6 0.194422 0.732748 0.204073
O O7 0.275032 0.956389 0.098186
O O8 0.901824 0.274093 0.605185
O O9 0.000000 0.000000 0.682676
O O10 0.133716 0.456657 0.316365
O O11 0.117928 0.526364 0.472600
O O12 0.052258 0.161274 0.405721
O O13 0.215960 0.205547 0.429677
O O14 0.789040 0.176974 0.356111
O O15 0.940066 0.148789 0.286925
O O16 0.741151 0.678490 0.010521
#
# Coordination Sequence:
#
# PCOD8171865 Si02
#       8
#     4   4   4   4   4   4   2   4
#     4  10  19  35  59  85 111 142 192 246 287 342
#     4  10  20  37  55  79 113 149 187 230 292 345
#     4  11  21  36  54  85 117 152 189 235 297 358
#     4  10  19  38  52  80 113 149 188 229 292 342
#     4   9  19  35  57  78 107 144 184 238 278 338
#     4   9  19  36  55  79 111 148 191 232 285 342
#     4  10  20  36  56  86 106 140 190 240 284 330
#     4  10  22  37  52  79 113 158 185 231 284 358
#
# _framework density 19.490141000000001
#
# number of rings (size 3 to 8) (size 9 to 14) (size 15 to 20)
#    0.000    2.133    1.333    2.000    0.000    1.067 
#   28.800    0.000    0.000    3.200    0.000    0.000 
#    0.000    0.000    0.000    0.000    0.000    0.000 
#
# Total GULP energy -371720.317444 kJ/mol
# GULP energy per Si atom -12390.677248 kJ/mol
# Density = 1.944578 g / cm^3
# Si number density = 19.490141 Si / 1000 Ang^3
#
#
#
# Elastic Constant Matrix: (Units=GPa)
#
#
# Indices 1 2 3 4 5 6 
#
# 1 110.4198 45.4704 46.8869 0.0000 0.0000 0.0000
# 2 45.4704 116.4884 39.6859 0.0000 0.0000 0.0000
# 3 46.8869 39.6859 67.7756 0.0000 0.0000 0.0000
# 4 0.0000 0.0000 0.0000 26.5678 0.0000 0.0000
# 5 0.0000 0.0000 0.0000 0.0000 13.2786 0.0000
# 6 0.0000 0.0000 0.0000 0.0000 0.0000 24.6933
#
#
#
# Elastic Compliance Matrix: (Units=1/GPa)
#
#
# Indices 1 2 3 4 5 6 
#
# 1 0.013422 -0.002593 -0.007767 0.000000 0.000000 0.000000
# 2 -0.002593 0.011225 -0.004779 0.000000 0.000000 0.000000
# 3 -0.007767 -0.004779 0.022926 0.000000 0.000000 0.000000
# 4 0.000000 0.000000 0.000000 0.037640 0.000000 0.000000
# 5 0.000000 0.000000 0.000000 0.000000 0.075309 0.000000
# 6 0.000000 0.000000 0.000000 0.000000 0.000000 0.040497
#
#
# Mechanical properties :
#
#
# Convention : Reuss Voigt Hill
#
# Bulk Modulus (GPa) = 57.81965 62.08556 59.95260
# Shear Modulus (GPa) = 21.09159 23.75066 22.42112
#
# Velocity S-wave (km/s) = 3.29320 3.49463 3.39541
# Velocity P-wave (km/s) = 6.64761 6.94314 6.79698
#
# Compressibility (1/GPa) = 0.01729516
#
# Stress axis : x y z
#
# Youngs Moduli (GPa) = 74.50302 89.08835 43.61872
#
# Poissons Ratio (x) = 0.23102 0.33879
# Poissons Ratio (y) = 0.19320 0.20844
# Poissons Ratio (z) = 0.57867 0.42573
#
# Static dielectric constant tensor:
#      x y z
#    x 3.526590 0.000000 0.000000 
#    y 0.000000 3.972130 0.000000 
#    z 0.000000 0.000000 3.503650 
# 
# 
# High freq. dielectric constant tensor:
#      x y z
#    x 1.736380 0.000000 0.000000 
#    y 0.000000 1.781070 0.000000 
#    z 0.000000 0.000000 1.727650 
# 
# From -- ./inp_files/6959.got.cif
#   From: 2010.03.12/outbox.cif.g09.slc.cpg/sg34_4_cif.got.tgz:6959.got - 2010.04.14 01:56:33.
