data_PCOD8171123
_publ_section_title
;
Structure prediction by ZEFSAII (Michael W. Deem and Ramdas Pophale) SiO2 
 PCOD8171123
Probable space group: P N A 21
;
_chemical_formula_sum "Si O2"
_cell_formula_units_Z 28
_cell_length_a 5.210282
_cell_length_b 23.670511
_cell_length_c 9.401375
_cell_angle_alpha 90.000000
_cell_angle_beta 90.000000
_cell_angle_gamma 90.000000
_cell_volume 1159.471930
_symmetry_space_group_name_H-M "P N A 21"
_symmetry_group_IT_number 33
_symmetry_cell_setting 'orthorhombic'
loop_
_space_group_symop_operation_xyz
x,y,z
-x,-y,1/2+z
1/2-x,1/2+y,1/2+z
1/2+x,1/2-y,z
loop_
_atom_site_type_symbol
_atom_site_label
_atom_site_fract_x
_atom_site_fract_y
_atom_site_fract_z
Si Si1 0.561234 0.021218 0.836250
Si Si2 0.950015 0.396709 0.315000
Si Si3 0.680707 0.499986 0.054428
Si Si4 0.196864 0.907738 0.563335
Si Si5 0.546343 0.716415 0.504080
Si Si6 0.453175 0.282483 0.667902
Si Si7 0.961853 0.119098 0.462425
O O1 0.604048 0.956999 0.889117
O O2 0.595035 0.021555 0.664965
O O3 0.282831 0.031815 0.910032
O O4 0.752298 0.067545 0.905223
O O5 0.685249 0.363547 0.347577
O O6 0.030814 0.405204 0.148939
O O7 0.191590 0.366124 0.388931
O O8 0.499543 0.453363 0.136062
O O9 0.516255 0.554020 0.009248
O O10 0.067485 0.846566 0.564579
O O11 0.284301 0.745354 0.558520
O O12 0.544783 0.711357 0.335864
O O13 0.683638 0.242580 0.615154
O O14 0.494969 0.344062 0.603247
#
# Coordination Sequence:
#
# PCOD8171123 Si02
#       7
#     4   4   4   4   4   4   4
#     4  11  23  42  66 103 145 191 232 299 364 449
#     4  11  24  42  63 103 144 182 235 295 350 451
#     4  11  25  42  70 106 147 191 246 293 384 443
#     4  12  25  44  73  99 151 194 241 302 385 433
#     4  10  25  46  70 103 138 183 250 309 359 437
#     4  10  21  44  71 101 134 182 243 301 359 431
#     4  11  23  44  65  99 143 181 233 299 359 428
#
# _framework density 24.148924000000001
#
# number of rings (size 3 to 8) (size 9 to 14) (size 15 to 20)
#    0.000    1.143    2.857    2.571    4.000    0.000 
#    7.714    4.286    0.000    0.000    0.000    0.000 
#    0.000    0.000    0.000    0.000    0.000    0.000 
#
# Total GULP energy -346900.893615 kJ/mol
# GULP energy per Si atom -12389.317629 kJ/mol
# Density = 2.409396 g / cm^3
# Si number density = 24.148924 Si / 1000 Ang^3
#
#
#
# Elastic Constant Matrix: (Units=GPa)
#
#
# Indices 1 2 3 4 5 6 
#
# 1 151.7478 45.1999 49.7488 0.0000 0.0000 0.0000
# 2 45.1999 107.1580 34.6511 0.0000 0.0000 0.0000
# 3 49.7488 34.6511 77.5304 0.0000 0.0000 0.0000
# 4 0.0000 0.0000 0.0000 32.8241 0.0000 0.0000
# 5 0.0000 0.0000 0.0000 0.0000 32.3077 0.0000
# 6 0.0000 0.0000 0.0000 0.0000 0.0000 26.6374
#
#
#
# Elastic Compliance Matrix: (Units=1/GPa)
#
#
# Indices 1 2 3 4 5 6 
#
# 1 0.008766 -0.002196 -0.004644 0.000000 0.000000 0.000000
# 2 -0.002196 0.011459 -0.003712 0.000000 0.000000 0.000000
# 3 -0.004644 -0.003712 0.017537 0.000000 0.000000 0.000000
# 4 0.000000 0.000000 0.000000 0.030465 0.000000 0.000000
# 5 0.000000 0.000000 0.000000 0.000000 0.030952 0.000000
# 6 0.000000 0.000000 0.000000 0.000000 0.000000 0.037541
#
#
# Mechanical properties :
#
#
# Convention : Reuss Voigt Hill
#
# Bulk Modulus (GPa) = 60.03008 66.18175 63.10592
# Shear Modulus (GPa) = 30.60398 32.14292 31.37345
#
# Velocity S-wave (km/s) = 3.56378 3.65229 3.60830
# Velocity P-wave (km/s) = 6.46887 6.72687 6.59913
#
# Compressibility (1/GPa) = 0.01665832
#
# Stress axis : x y z
#
# Youngs Moduli (GPa) = 114.07232 87.26974 57.02271
#
# Poissons Ratio (x) = 0.19166 0.26479
# Poissons Ratio (y) = 0.25052 0.21167
# Poissons Ratio (z) = 0.52970 0.32396
#
# Static dielectric constant tensor:
#      x y z
#    x 4.729310 0.000000 0.000000 
#    y 0.000000 4.093080 0.000000 
#    z 0.000000 0.000000 4.067640 
# 
# 
# High freq. dielectric constant tensor:
#      x y z
#    x 1.971950 0.000000 0.000000 
#    y 0.000000 1.936010 0.000000 
#    z 0.000000 0.000000 1.946060 
# 
# From -- ./inp_files/2750.got.cif
#   From: 2010.03.12/outbox.cif.g09.slc.cpg/sg33_2_cif.got.tgz:2750.got - 2010.04.14 01:49:19.
