data_PCOD8171135
_publ_section_title
;
Structure prediction by ZEFSAII (Michael W. Deem and Ramdas Pophale) SiO2 
 PCOD8171135
Probable space group: P N A 21
;
_chemical_formula_sum "Si O2"
_cell_formula_units_Z 28
_cell_length_a 18.933613
_cell_length_b 11.179655
_cell_length_c 6.215232
_cell_angle_alpha 90.000000
_cell_angle_beta 90.000000
_cell_angle_gamma 90.000000
_cell_volume 1315.585996
_symmetry_space_group_name_H-M "P N A 21"
_symmetry_group_IT_number 33
_symmetry_cell_setting 'orthorhombic'
loop_
_space_group_symop_operation_xyz
x,y,z
-x,-y,1/2+z
1/2-x,1/2+y,1/2+z
1/2+x,1/2-y,z
loop_
_atom_site_type_symbol
_atom_site_label
_atom_site_fract_x
_atom_site_fract_y
_atom_site_fract_z
Si Si1 0.422634 0.713524 0.815900
Si Si2 0.378614 0.500000 0.077150
Si Si3 0.666045 0.326485 0.931403
Si Si4 0.316285 0.861689 0.083296
Si Si5 0.077366 0.786476 0.838400
Si Si6 0.166045 0.826485 0.222897
Si Si7 0.816285 0.361689 0.071004
O O1 0.404578 0.670031 0.574712
O O2 0.500000 0.775391 0.827150
O O3 0.428453 0.598988 0.971064
O O4 0.360758 0.802651 0.890948
O O5 0.330299 0.564553 0.258914
O O6 0.428453 0.401012 0.183237
O O7 0.330299 0.435447 0.895387
O O8 0.664731 0.198304 0.812504
O O9 0.732065 0.340900 0.095901
O O10 0.232065 0.840900 0.058399
O O11 0.336649 1.000000 0.077150
O O12 0.139242 0.697349 0.763352
O O13 0.095422 0.829969 0.079588
O O14 0.164731 0.698304 0.341796
#
# Coordination Sequence:
#
# PCOD8171135 Si02
#       7
#     4   4   4   4   4   4   4
#     4  11  24  39  61  94 129 166 208 259 320 381
#     4  10  22  36  64  94 124 164 202 272 316 374
#     4  10  22  41  66  95 125 161 218 258 318 372
#     4  10  22  41  64  93 125 168 212 263 310 367
#     4  11  24  39  61  94 129 166 208 259 320 381
#     4  10  22  41  66  95 125 161 218 258 318 372
#     4  10  22  41  64  93 125 168 212 263 310 367
#
# _framework density 21.283290000000001
#
# number of rings (size 3 to 8) (size 9 to 14) (size 15 to 20)
#    0.000    1.714    0.000    3.429    4.000    9.143 
#    5.143    0.000    0.000    0.000    0.000    0.000 
#    0.000    0.000    0.000    0.000    0.000    0.000 
#
# Total GULP energy -347138.312971 kJ/mol
# GULP energy per Si atom -12397.796892 kJ/mol
# Density = 2.123485 g / cm^3
# Si number density = 21.283290 Si / 1000 Ang^3
#
#
#
# Elastic Constant Matrix: (Units=GPa)
#
#
# Indices 1 2 3 4 5 6 
#
# 1 136.6687 29.5053 61.9714 0.0000 0.0000 0.0000
# 2 29.5053 137.7439 44.1884 0.0000 0.0000 0.0000
# 3 61.9714 44.1884 96.1075 0.0000 0.0000 0.0000
# 4 0.0000 0.0000 0.0000 24.4065 0.0000 0.0000
# 5 0.0000 0.0000 0.0000 0.0000 25.5911 0.0000
# 6 0.0000 0.0000 0.0000 0.0000 0.0000 15.9741
#
#
#
# Elastic Compliance Matrix: (Units=1/GPa)
#
#
# Indices 1 2 3 4 5 6 
#
# 1 0.010341 -0.000089 -0.006627 0.000000 0.000000 0.000000
# 2 -0.000089 0.008517 -0.003858 0.000000 0.000000 0.000000
# 3 -0.006627 -0.003858 0.016452 0.000000 0.000000 0.000000
# 4 0.000000 0.000000 0.000000 0.040973 0.000000 0.000000
# 5 0.000000 0.000000 0.000000 0.000000 0.039076 0.000000
# 6 0.000000 0.000000 0.000000 0.000000 0.000000 0.062601
#
#
# Mechanical properties :
#
#
# Convention : Reuss Voigt Hill
#
# Bulk Modulus (GPa) = 70.61683 71.31669 70.96676
# Shear Modulus (GPa) = 24.53022 28.85133 26.69077
#
# Velocity S-wave (km/s) = 3.39862 3.68582 3.54513
# Velocity P-wave (km/s) = 6.97512 7.18991 7.08333
#
# Compressibility (1/GPa) = 0.01416093
#
# Stress axis : x y z
#
# Youngs Moduli (GPa) = 96.69993 117.41630 60.78167
#
# Poissons Ratio (x) = 0.01047 0.40281
# Poissons Ratio (y) = 0.00862 0.23452
# Poissons Ratio (z) = 0.64085 0.45303
#
# Static dielectric constant tensor:
#      x y z
#    x 3.580840 0.000000 0.000000 
#    y 0.000000 3.823140 0.000000 
#    z 0.000000 0.000000 3.907900 
# 
# 
# High freq. dielectric constant tensor:
#      x y z
#    x 1.818890 0.000000 0.000000 
#    y 0.000000 1.829980 0.000000 
#    z 0.000000 0.000000 1.839460 
# 
# From -- ./inp_files/1998.got.cif
#   From: 2010.03.12/outbox.cif.g09.slc.cpg/sg33_1_cif.got.tgz:1998.got - 2010.04.14 01:49:19.
