data_PCOD8171933
_publ_section_title
;
Structure prediction by ZEFSAII (Michael W. Deem and Ramdas Pophale) SiO2 
 PCOD8171933
Probable space group: P N N 2
;
_chemical_formula_sum "Si O2"
_cell_formula_units_Z 32
_cell_length_a 10.949199
_cell_length_b 9.125159
_cell_length_c 15.636704
_cell_angle_alpha 90.000000
_cell_angle_beta 90.000000
_cell_angle_gamma 90.000000
_cell_volume 1562.312849
_symmetry_space_group_name_H-M "P N N 2"
_symmetry_group_IT_number 34
_symmetry_cell_setting 'orthorhombic'
loop_
_space_group_symop_operation_xyz
x,y,z
-x,-y,z
1/2-x,1/2+y,1/2+z
1/2+x,1/2-y,1/2+z
loop_
_atom_site_type_symbol
_atom_site_label
_atom_site_fract_x
_atom_site_fract_y
_atom_site_fract_z
Si Si1 0.975529 0.834554 0.495240
Si Si2 0.505771 0.174050 0.827918
Si Si3 0.342197 0.310056 0.136938
Si Si4 0.892783 0.389688 0.901084
Si Si5 0.281589 0.277829 0.743614
Si Si6 0.702500 0.390560 0.756589
Si Si7 0.486159 0.658658 0.292045
Si Si8 0.271821 0.098008 0.581216
O O1 0.859448 0.838136 0.556474
O O2 0.949563 0.714732 0.422679
O O3 0.091700 0.774439 0.547639
O O4 0.000000 0.000000 0.458804
O O5 0.366103 0.223472 0.820719
O O6 0.592107 0.272722 0.765389
O O7 0.500000 0.000000 0.809743
O O8 0.284887 0.166208 0.178575
O O9 0.443578 0.363623 0.203119
O O10 0.240410 0.433950 0.118745
O O11 0.769482 0.417787 0.847590
O O12 0.000000 0.500000 0.876807
O O13 0.942577 0.236835 0.868155
O O14 0.864836 0.395893 0.001792
O O15 0.323052 0.444945 0.726714
O O16 0.143786 0.236591 0.772168
O O17 0.323511 0.197554 0.657000
O O18 0.500000 0.500000 0.333797
#
# Coordination Sequence:
#
# PCOD8171933 Si02
#       8
#     4   4   4   4   4   4   4   4
#     4  10  20  39  65  97 131 173 221 276 335 404
#     4  12  27  43  65  97 136 177 229 284 349 413
#     4  10  21  38  69  98 133 172 228 280 334 413
#     4  11  24  41  69 102 138 179 227 289 347 420
#     4  12  24  42  71  97 136 181 230 283 352 415
#     4  11  24  45  67  98 137 179 231 281 347 413
#     4  11  21  41  69 102 132 178 235 285 348 414
#     4  11  22  41  66 100 142 177 222 281 349 412
#
# _framework density 20.482453
#
# number of rings (size 3 to 8) (size 9 to 14) (size 15 to 20)
#    0.000    1.000    5.000    2.250    3.500    2.500 
#    0.000    2.500    0.000    0.000    0.000    0.000 
#    0.000    0.000    0.000    0.000    0.000    0.000 
#
# Total GULP energy -396449.589525 kJ/mol
# GULP energy per Si atom -12389.049673 kJ/mol
# Density = 2.043583 g / cm^3
# Si number density = 20.482453 Si / 1000 Ang^3
#
#
#
# Elastic Constant Matrix: (Units=GPa)
#
#
# Indices 1 2 3 4 5 6 
#
# 1 62.8866 26.9044 19.3111 0.0000 0.0000 0.0000
# 2 26.9044 122.1515 26.9307 0.0000 0.0000 0.0000
# 3 19.3111 26.9307 69.7455 0.0000 0.0000 0.0000
# 4 0.0000 0.0000 0.0000 71.8088 0.0000 0.0000
# 5 0.0000 0.0000 0.0000 0.0000 -12.2913 0.0000
# 6 0.0000 0.0000 0.0000 0.0000 0.0000 33.3803
#
#
#
# Elastic Compliance Matrix: (Units=1/GPa)
#
#
# Indices 1 2 3 4 5 6 
#
# 1 0.018465 -0.003213 -0.003872 0.000000 0.000000 0.000000
# 2 -0.003213 0.009508 -0.002781 0.000000 0.000000 0.000000
# 3 -0.003872 -0.002781 0.016484 0.000000 0.000000 0.000000
# 4 0.000000 0.000000 0.000000 0.013926 0.000000 0.000000
# 5 0.000000 0.000000 0.000000 0.000000 -0.081358 0.000000
# 6 0.000000 0.000000 0.000000 0.000000 0.000000 0.029958
#
#
# Mechanical properties :
#
#
# Convention : Reuss Voigt Hill
#
# Bulk Modulus (GPa) = 40.44757 44.56399 42.50578
# Shear Modulus (GPa) = 143.03420 30.68872 86.86146
#
# Velocity S-wave (km/s) = 8.36565 3.87498 6.51919
# Velocity P-wave (km/s) = 10.63497 6.46722 8.80135
#
# Compressibility (1/GPa) = 0.02472336
#
# Stress axis : x y z
#
# Youngs Moduli (GPa) = 54.15538 105.17968 60.66537
#
# Poissons Ratio (x) = 0.33799 0.23489
# Poissons Ratio (y) = 0.17403 0.16873
# Poissons Ratio (z) = 0.20968 0.29255
#
# Static dielectric constant tensor:
#      x y z
#    x 3.880210 0.000000 0.000000 
#    y 0.000000 3.793010 0.000000 
#    z 0.000000 0.000000 3.590920 
# 
# 
# High freq. dielectric constant tensor:
#      x y z
#    x 1.800400 0.000000 0.000000 
#    y 0.000000 1.803190 0.000000 
#    z 0.000000 0.000000 1.796530 
# 
# From -- ./inp_files/6586.got.cif
#   From: 2010.03.12/outbox.cif.g09.slc.cpg/sg34_4_cif.got.tgz:6586.got - 2010.04.14 01:56:33.
