data_PCOD8171672
_publ_section_title
;
Structure prediction by ZEFSAII (Michael W. Deem and Ramdas Pophale) SiO2 
 PCOD8171672
Probable space group: P N A 21
;
_chemical_formula_sum "Si O2"
_cell_formula_units_Z 28
_cell_length_a 18.384734
_cell_length_b 5.113682
_cell_length_c 12.881129
_cell_angle_alpha 90.000000
_cell_angle_beta 90.000000
_cell_angle_gamma 90.000000
_cell_volume 1211.002383
_symmetry_space_group_name_H-M "P N A 21"
_symmetry_group_IT_number 33
_symmetry_cell_setting 'orthorhombic'
loop_
_space_group_symop_operation_xyz
x,y,z
-x,-y,1/2+z
1/2-x,1/2+y,1/2+z
1/2+x,1/2-y,z
loop_
_atom_site_type_symbol
_atom_site_label
_atom_site_fract_x
_atom_site_fract_y
_atom_site_fract_z
Si Si1 0.426785 0.549368 0.367760
Si Si2 0.659697 0.416443 0.074508
Si Si3 0.285463 0.720969 0.856754
Si Si4 0.182039 0.561089 0.543253
Si Si5 0.355450 0.061182 0.703033
Si Si6 0.088391 0.844845 0.377847
Si Si7 0.363420 0.055279 0.273668
O O1 0.378352 0.501727 0.468699
O O2 0.511046 0.523891 0.401122
O O3 0.405655 0.330241 0.283710
O O4 0.413932 0.833912 0.321618
O O5 0.740592 0.292720 0.058147
O O6 0.667343 0.682501 0.139657
O O7 0.616543 0.177424 0.129925
O O8 0.355022 0.547361 0.827133
O O9 0.211384 0.562091 0.839505
O O10 0.286733 0.964738 0.774945
O O11 0.295888 0.805478 0.976249
O O12 0.122091 0.733696 0.484252
O O13 0.148851 0.483585 0.653721
O O14 0.419685 0.126670 0.786503
#
# Coordination Sequence:
#
# PCOD8171672 Si02
#       7
#     4   4   4   4   4   4   4
#     4  12  30  48  70 109 153 194 239 306 365 445
#     4  12  24  45  76 105 140 187 251 301 365 424
#     4  11  24  47  77 107 144 189 245 304 362 434
#     4  11  26  42  79 109 141 192 246 306 359 438
#     4  11  24  44  74 103 140 187 240 298 364 425
#     4  11  27  49  72 107 156 192 240 297 379 438
#     4  12  27  49  76 108 146 191 253 304 364 428
#
# _framework density 23.121343
#
# number of rings (size 3 to 8) (size 9 to 14) (size 15 to 20)
#    0.000    0.571    4.286    1.714   12.000    2.286 
#    0.000    0.000    0.000    0.000    0.000    0.000 
#    0.000    0.000    0.000    0.000    0.000    0.000 
#
# Total GULP energy -347147.011864 kJ/mol
# GULP energy per Si atom -12398.107567 kJ/mol
# Density = 2.306872 g / cm^3
# Si number density = 23.121343 Si / 1000 Ang^3
#
#
#
# Elastic Constant Matrix: (Units=GPa)
#
#
# Indices 1 2 3 4 5 6 
#
# 1 118.1736 34.1902 25.7615 0.0000 0.0000 0.0000
# 2 34.1902 118.1459 46.1939 0.0000 0.0000 0.0000
# 3 25.7615 46.1939 137.3222 0.0000 0.0000 0.0000
# 4 0.0000 0.0000 0.0000 23.3576 0.0000 0.0000
# 5 0.0000 0.0000 0.0000 0.0000 17.4293 0.0000
# 6 0.0000 0.0000 0.0000 0.0000 0.0000 26.7495
#
#
#
# Elastic Compliance Matrix: (Units=1/GPa)
#
#
# Indices 1 2 3 4 5 6 
#
# 1 0.009347 -0.002325 -0.000971 0.000000 0.000000 0.000000
# 2 -0.002325 0.010324 -0.003037 0.000000 0.000000 0.000000
# 3 -0.000971 -0.003037 0.008486 0.000000 0.000000 0.000000
# 4 0.000000 0.000000 0.000000 0.042813 0.000000 0.000000
# 5 0.000000 0.000000 0.000000 0.000000 0.057375 0.000000
# 6 0.000000 0.000000 0.000000 0.000000 0.000000 0.037384
#
#
# Mechanical properties :
#
#
# Convention : Reuss Voigt Hill
#
# Bulk Modulus (GPa) = 64.55570 65.10363 64.82966
# Shear Modulus (GPa) = 27.23936 31.34033 29.28984
#
# Velocity S-wave (km/s) = 3.43608 3.68567 3.56306
# Velocity P-wave (km/s) = 6.61235 6.80667 6.71021
#
# Compressibility (1/GPa) = 0.01549050
#
# Stress axis : x y z
#
# Youngs Moduli (GPa) = 106.99138 96.85861 117.84226
#
# Poissons Ratio (x) = 0.22520 0.11446
# Poissons Ratio (y) = 0.24876 0.35787
# Poissons Ratio (z) = 0.10392 0.29414
#
# Static dielectric constant tensor:
#      x y z
#    x 3.906860 0.000000 0.000000 
#    y 0.000000 4.241530 0.000000 
#    z 0.000000 0.000000 4.392260 
# 
# 
# High freq. dielectric constant tensor:
#      x y z
#    x 1.888960 0.000000 0.000000 
#    y 0.000000 1.918100 0.000000 
#    z 0.000000 0.000000 1.932280 
# 
# From -- ./inp_files/6947.got.cif
#   From: 2010.03.12/outbox.cif.g09.slc.cpg/sg33_4_cif.got.tgz:6947.got - 2010.04.14 01:49:19.
