data_PCOD8171162
_publ_section_title
;
Structure prediction by ZEFSAII (Michael W. Deem and Ramdas Pophale) SiO2 
 PCOD8171162
Probable space group: P N A 21
;
_chemical_formula_sum "Si O2"
_cell_formula_units_Z 32
_cell_length_a 9.105542
_cell_length_b 11.779769
_cell_length_c 14.833714
_cell_angle_alpha 90.000000
_cell_angle_beta 90.000000
_cell_angle_gamma 90.000000
_cell_volume 1591.081688
_symmetry_space_group_name_H-M "P N A 21"
_symmetry_group_IT_number 33
_symmetry_cell_setting 'orthorhombic'
loop_
_space_group_symop_operation_xyz
x,y,z
-x,-y,1/2+z
1/2-x,1/2+y,1/2+z
1/2+x,1/2-y,z
loop_
_atom_site_type_symbol
_atom_site_label
_atom_site_fract_x
_atom_site_fract_y
_atom_site_fract_z
Si Si1 0.135046 0.235639 0.875000
Si Si2 0.046060 0.460102 0.952979
Si Si3 0.011491 0.797267 0.928579
Si Si4 0.203813 0.014247 0.969415
Si Si5 0.385804 0.279924 0.747995
Si Si6 0.710681 0.873961 0.836889
Si Si7 0.972343 0.368588 0.595555
Si Si8 0.252393 0.491163 0.668434
O O1 0.078580 0.325890 0.950311
O O2 0.117269 0.113013 0.919101
O O3 0.299870 0.257203 0.841242
O O4 0.051810 0.238504 0.779712
O O5 0.143631 0.507941 0.871924
O O6 0.874154 0.489955 0.938949
O O7 0.100049 0.521390 0.046001
O O8 0.089637 0.723311 0.851020
O O9 0.859347 0.844109 0.890009
O O10 0.125356 0.896441 0.949865
O O11 0.980830 0.722483 0.018280
O O12 0.190695 0.041788 0.074997
O O13 0.358796 0.190443 0.665487
O O14 0.371179 0.408619 0.714174
O O15 0.731746 0.897359 0.730799
O O16 0.110273 0.412715 0.652433
#
# Coordination Sequence:
#
# PCOD8171162 Si02
#       8
#     4   4   4   4   4   4   4   4
#     4  12  24  41  64  94 132 171 214 262 325 385
#     4  10  22  40  64  93 125 171 209 258 332 368
#     4  11  23  41  68  97 127 170 213 257 327 382
#     4  11  24  43  65  92 130 170 213 264 320 387
#     4  12  21  39  65  95 123 165 220 260 306 380
#     4  11  22  41  67  94 128 165 212 267 314 381
#     4  10  22  39  68  93 124 164 217 268 311 382
#     4  11  22  42  63  94 127 166 214 268 313 371
#
# _framework density 20.112103000000001
#
# number of rings (size 3 to 8) (size 9 to 14) (size 15 to 20)
#    0.000    1.000    5.000    3.000    1.750    0.000 
#    4.500    0.000    0.000    0.000    0.000    0.000 
#    0.000    0.000    0.000    0.000    0.000    0.000 
#
# Total GULP energy -396666.240771 kJ/mol
# GULP energy per Si atom -12395.820024 kJ/mol
# Density = 2.006633 g / cm^3
# Si number density = 20.112103 Si / 1000 Ang^3
#
#
#
# Elastic Constant Matrix: (Units=GPa)
#
#
# Indices 1 2 3 4 5 6 
#
# 1 59.4423 39.1187 28.1912 0.0000 0.0000 0.0000
# 2 39.1187 95.3245 60.6417 0.0000 0.0000 0.0000
# 3 28.1912 60.6417 117.1663 0.0000 0.0000 0.0000
# 4 0.0000 0.0000 0.0000 46.1794 0.0000 0.0000
# 5 0.0000 0.0000 0.0000 0.0000 26.1664 0.0000
# 6 0.0000 0.0000 0.0000 0.0000 0.0000 21.5045
#
#
#
# Elastic Compliance Matrix: (Units=1/GPa)
#
#
# Indices 1 2 3 4 5 6 
#
# 1 0.023121 -0.008870 -0.000972 0.000000 0.000000 0.000000
# 2 -0.008870 0.019043 -0.007722 0.000000 0.000000 0.000000
# 3 -0.000972 -0.007722 0.012765 0.000000 0.000000 0.000000
# 4 0.000000 0.000000 0.000000 0.021655 0.000000 0.000000
# 5 0.000000 0.000000 0.000000 0.000000 0.038217 0.000000
# 6 0.000000 0.000000 0.000000 0.000000 0.000000 0.046502
#
#
# Mechanical properties :
#
#
# Convention : Reuss Voigt Hill
#
# Bulk Modulus (GPa) = 50.50134 58.64848 54.57491
# Shear Modulus (GPa) = 24.62671 28.36883 26.49777
#
# Velocity S-wave (km/s) = 3.50304 3.75978 3.63368
# Velocity P-wave (km/s) = 6.44408 6.93340 6.69321
#
# Compressibility (1/GPa) = 0.01980146
#
# Stress axis : x y z
#
# Youngs Moduli (GPa) = 43.24997 52.51363 78.33665
#
# Poissons Ratio (x) = 0.46578 0.07618
# Poissons Ratio (y) = 0.38362 0.60490
# Poissons Ratio (z) = 0.04206 0.40550
#
# Static dielectric constant tensor:
#      x y z
#    x 3.567960 0.000000 0.000000 
#    y 0.000000 3.686270 0.000000 
#    z 0.000000 0.000000 3.667030 
# 
# 
# High freq. dielectric constant tensor:
#      x y z
#    x 1.779490 0.000000 0.000000 
#    y 0.000000 1.788720 0.000000 
#    z 0.000000 0.000000 1.783930 
# 
# From -- ./inp_files/7639.got.cif
#   From: 2010.03.12/outbox.cif.g09.slc.cpg/sg33_4_cif.got.tgz:7639.got - 2010.04.14 01:49:19.
