data_PCOD8171214
_publ_section_title
;
Structure prediction by ZEFSAII (Michael W. Deem and Ramdas Pophale) SiO2 
 PCOD8171214
Probable space group: P N A 21
;
_chemical_formula_sum "Si O2"
_cell_formula_units_Z 24
_cell_length_a 13.916064
_cell_length_b 7.636811
_cell_length_c 11.014087
_cell_angle_alpha 90.000000
_cell_angle_beta 90.000000
_cell_angle_gamma 90.000000
_cell_volume 1170.514944
_symmetry_space_group_name_H-M "P N A 21"
_symmetry_group_IT_number 33
_symmetry_cell_setting 'orthorhombic'
loop_
_space_group_symop_operation_xyz
x,y,z
-x,-y,1/2+z
1/2-x,1/2+y,1/2+z
1/2+x,1/2-y,z
loop_
_atom_site_type_symbol
_atom_site_label
_atom_site_fract_x
_atom_site_fract_y
_atom_site_fract_z
Si Si1 0.185972 0.277562 0.273140
Si Si2 0.630691 0.204845 0.532112
Si Si3 0.486456 0.965265 0.848906
Si Si4 0.385312 0.368471 0.352697
Si Si5 0.496513 0.672276 0.235632
Si Si6 0.320479 0.440393 0.619769
O O1 0.172257 0.196063 0.411245
O O2 0.095729 0.408689 0.249807
O O3 0.288311 0.378417 0.271840
O O4 0.186478 0.137810 0.166569
O O5 0.565984 0.040421 0.481751
O O6 0.561866 0.329640 0.609210
O O7 0.714531 0.141818 0.621808
O O8 0.575360 0.829883 0.850213
O O9 0.526715 0.156625 0.816690
O O10 0.467848 0.495088 0.303062
O O11 0.362580 0.439598 0.485622
O O12 0.610196 0.668540 0.209130
#
# Coordination Sequence:
#
# PCOD8171214 Si02
#       6
#     4   4   4   4   4   4
#     4   9  21  43  62  93 134 161 212 271 311 378
#     4   9  22  39  61  97 128 161 217 270 305 390
#     4  10  22  42  59  94 132 157 214 268 309 382
#     4  11  23  44  64  96 131 169 216 265 318 387
#     4  12  23  40  71  91 127 175 214 256 338 381
#     4  11  21  42  69  91 132 173 211 264 329 378
#
# _framework density 20.503796999999999
#
# number of rings (size 3 to 8) (size 9 to 14) (size 15 to 20)
#    1.000    0.667    3.333    1.000    2.333    1.333 
#    3.000    1.667    0.000    0.000    0.000    0.000 
#    0.000    0.000    0.000    0.000    0.000    0.000 
#
# Total GULP energy -297390.356821 kJ/mol
# GULP energy per Si atom -12391.264868 kJ/mol
# Density = 2.045713 g / cm^3
# Si number density = 20.503797 Si / 1000 Ang^3
#
#
#
# Elastic Constant Matrix: (Units=GPa)
#
#
# Indices 1 2 3 4 5 6 
#
# 1 96.3024 16.7292 16.6281 0.0000 0.0000 0.0000
# 2 16.7292 84.6832 31.2100 0.0000 0.0000 0.0000
# 3 16.6281 31.2100 55.9444 0.0000 0.0000 0.0000
# 4 0.0000 0.0000 0.0000 28.6846 0.0000 0.0000
# 5 0.0000 0.0000 0.0000 0.0000 37.7826 0.0000
# 6 0.0000 0.0000 0.0000 0.0000 0.0000 23.1460
#
#
#
# Elastic Compliance Matrix: (Units=1/GPa)
#
#
# Indices 1 2 3 4 5 6 
#
# 1 0.011046 -0.001224 -0.002600 0.000000 0.000000 0.000000
# 2 -0.001224 0.015001 -0.008005 0.000000 0.000000 0.000000
# 3 -0.002600 -0.008005 0.023113 0.000000 0.000000 0.000000
# 4 0.000000 0.000000 0.000000 0.034862 0.000000 0.000000
# 5 0.000000 0.000000 0.000000 0.000000 0.026467 0.000000
# 6 0.000000 0.000000 0.000000 0.000000 0.000000 0.043204
#
#
# Mechanical properties :
#
#
# Convention : Reuss Voigt Hill
#
# Bulk Modulus (GPa) = 39.21262 40.67383 39.94323
# Shear Modulus (GPa) = 26.90326 29.41346 28.15836
#
# Velocity S-wave (km/s) = 3.62624 3.79164 3.70986
# Velocity P-wave (km/s) = 6.05796 6.24892 6.15418
#
# Compressibility (1/GPa) = 0.02550199
#
# Stress axis : x y z
#
# Youngs Moduli (GPa) = 90.53439 66.66395 43.26486
#
# Poissons Ratio (x) = 0.08158 0.11250
# Poissons Ratio (y) = 0.11079 0.34632
# Poissons Ratio (z) = 0.23542 0.53363
#
# Static dielectric constant tensor:
#      x y z
#    x 4.060910 0.000000 0.000000 
#    y 0.000000 3.233060 0.000000 
#    z 0.000000 0.000000 3.542090 
# 
# 
# High freq. dielectric constant tensor:
#      x y z
#    x 1.826170 0.000000 0.000000 
#    y 0.000000 1.764510 0.000000 
#    z 0.000000 0.000000 1.788630 
# 
# From -- ./inp_files/8072.got.cif
#   From: 2010.03.12/outbox.cif.g09.slc.cpg/sg33_5_cif.got.tgz:8072.got - 2010.04.14 01:49:19.
