data_PCOD8171697
_publ_section_title
;
Structure prediction by ZEFSAII (Michael W. Deem and Ramdas Pophale) SiO2 
 PCOD8171697
Probable space group: P N A 21
;
_chemical_formula_sum "Si O2"
_cell_formula_units_Z 24
_cell_length_a 10.540828
_cell_length_b 8.535985
_cell_length_c 11.483417
_cell_angle_alpha 90.000000
_cell_angle_beta 90.000000
_cell_angle_gamma 90.000000
_cell_volume 1033.235944
_symmetry_space_group_name_H-M "P N A 21"
_symmetry_group_IT_number 33
_symmetry_cell_setting 'orthorhombic'
loop_
_space_group_symop_operation_xyz
x,y,z
-x,-y,1/2+z
1/2-x,1/2+y,1/2+z
1/2+x,1/2-y,z
loop_
_atom_site_type_symbol
_atom_site_label
_atom_site_fract_x
_atom_site_fract_y
_atom_site_fract_z
Si Si1 0.819141 0.061932 0.549290
Si Si2 0.677603 0.768735 0.607707
Si Si3 0.931030 0.626781 0.722418
Si Si4 0.629860 0.261680 0.448204
Si Si5 0.954593 0.090761 0.915413
Si Si6 0.519778 0.765088 0.187218
O O1 0.704213 0.951890 0.588088
O O2 0.929271 0.954704 0.498228
O O3 0.772990 0.194197 0.456449
O O4 0.855902 0.161031 0.663049
O O5 0.793833 0.684033 0.674089
O O6 0.544394 0.762782 0.676275
O O7 0.651657 0.691235 0.482448
O O8 0.940405 0.640448 0.862247
O O9 0.947808 0.446412 0.690817
O O10 0.620834 0.430124 0.383305
O O11 0.575102 0.268845 0.579664
O O12 0.020889 0.190505 0.811392
#
# Coordination Sequence:
#
# PCOD8171697 Si02
#       6
#     4   4   4   4   4   4
#     4  11  24  48  73 112 146 198 257 316 381 457
#     4  12  25  49  76 111 149 202 254 315 387 455
#     4  12  27  48  78 108 156 200 257 318 385 462
#     4  11  26  46  75 109 152 200 259 311 390 458
#     4  11  26  47  77 109 154 201 259 320 385 455
#     4  11  26  48  73 111 153 203 258 316 386 469
#
# _framework density 23.227995
#
# number of rings (size 3 to 8) (size 9 to 14) (size 15 to 20)
#    0.000    0.667    3.333    3.000    7.000    2.667 
#    6.000    0.000    0.000    0.000    0.000    0.000 
#    0.000    0.000    0.000    0.000    0.000    0.000 
#
# Total GULP energy -297362.688939 kJ/mol
# GULP energy per Si atom -12390.112039 kJ/mol
# Density = 2.317513 g / cm^3
# Si number density = 23.227995 Si / 1000 Ang^3
#
#
#
# Elastic Constant Matrix: (Units=GPa)
#
#
# Indices 1 2 3 4 5 6 
#
# 1 104.4245 44.2997 34.9102 0.0000 0.0000 0.0000
# 2 44.2997 123.5589 47.6693 0.0000 0.0000 0.0000
# 3 34.9102 47.6693 98.4035 0.0000 0.0000 0.0000
# 4 0.0000 0.0000 0.0000 48.0273 0.0000 0.0000
# 5 0.0000 0.0000 0.0000 0.0000 33.4598 0.0000
# 6 0.0000 0.0000 0.0000 0.0000 0.0000 45.8629
#
#
#
# Elastic Compliance Matrix: (Units=1/GPa)
#
#
# Indices 1 2 3 4 5 6 
#
# 1 0.011824 -0.003223 -0.002633 0.000000 0.000000 0.000000
# 2 -0.003223 0.010832 -0.004104 0.000000 0.000000 0.000000
# 3 -0.002633 -0.004104 0.013084 0.000000 0.000000 0.000000
# 4 0.000000 0.000000 0.000000 0.020821 0.000000 0.000000
# 5 0.000000 0.000000 0.000000 0.000000 0.029887 0.000000
# 6 0.000000 0.000000 0.000000 0.000000 0.000000 0.021804
#
#
# Mechanical properties :
#
#
# Convention : Reuss Voigt Hill
#
# Bulk Modulus (GPa) = 63.21232 64.46061 63.83647
# Shear Modulus (GPa) = 37.46793 38.77050 38.11921
#
# Velocity S-wave (km/s) = 4.02064 4.08993 4.05543
# Velocity P-wave (km/s) = 6.98763 7.07919 7.03356
#
# Compressibility (1/GPa) = 0.01581970
#
# Stress axis : x y z
#
# Youngs Moduli (GPa) = 84.57321 92.31664 76.42637
#
# Poissons Ratio (x) = 0.29757 0.20125
# Poissons Ratio (y) = 0.27261 0.31365
# Poissons Ratio (z) = 0.22271 0.37886
#
# Static dielectric constant tensor:
#      x y z
#    x 4.178060 0.000000 0.000000 
#    y 0.000000 4.507490 0.000000 
#    z 0.000000 0.000000 4.181860 
# 
# 
# High freq. dielectric constant tensor:
#      x y z
#    x 1.912770 0.000000 0.000000 
#    y 0.000000 1.938960 0.000000 
#    z 0.000000 0.000000 1.920100 
# 
# From -- ./inp_files/6286.got.cif
#   From: 2010.03.12/outbox.cif.g09.slc.cpg/sg33_4_cif.got.tgz:6286.got - 2010.04.14 01:49:19.
