data_PCOD8171824
_publ_section_title
;
Structure prediction by ZEFSAII (Michael W. Deem and Ramdas Pophale) SiO2 
 PCOD8171824
Probable space group: P N N 2
;
_chemical_formula_sum "Si O2"
_cell_formula_units_Z 28
_cell_length_a 12.969270
_cell_length_b 4.951891
_cell_length_c 25.231623
_cell_angle_alpha 90.000000
_cell_angle_beta 90.000000
_cell_angle_gamma 90.000000
_cell_volume 1620.435672
_symmetry_space_group_name_H-M "P N N 2"
_symmetry_group_IT_number 34
_symmetry_cell_setting 'orthorhombic'
loop_
_space_group_symop_operation_xyz
x,y,z
-x,-y,z
1/2-x,1/2+y,1/2+z
1/2+x,1/2-y,1/2+z
loop_
_atom_site_type_symbol
_atom_site_label
_atom_site_fract_x
_atom_site_fract_y
_atom_site_fract_z
Si Si1 0.115001 0.968134 0.078350
Si Si2 0.182489 0.457993 0.016650
Si Si3 0.122866 0.513897 0.899408
Si Si4 0.429808 0.747900 0.230828
Si Si5 0.679865 0.996312 0.132254
Si Si6 0.614978 0.500320 0.071504
Si Si7 0.378692 0.519477 0.337684
O O1 0.133295 0.665741 0.058333
O O2 0.196091 0.035144 0.125838
O O3 0.128033 0.171390 0.028302
O O4 0.000000 0.000000 0.101785
O O5 0.304911 0.416324 0.025715
O O6 0.165732 0.566959 0.957778
O O7 0.168866 0.233832 0.878463
O O8 0.000000 0.500000 0.902079
O O9 0.165940 0.732766 0.856758
O O10 0.500000 0.500000 0.207815
O O11 0.352356 0.878726 0.188452
O O12 0.358728 0.616836 0.277224
O O13 0.500000 0.000000 0.252458
O O14 0.638856 0.194771 0.087230
O O15 0.626244 0.705363 0.121949
O O16 0.500000 0.500000 0.048249
O O17 0.500000 0.500000 0.344375
#
# Coordination Sequence:
#
# PCOD8171824 Si02
#       7
#     4   4   4   4   4   4   4
#     4  10  19  32  46  67  96 122 154 193 224 269
#     4  10  20  30  47  69  91 125 157 182 230 278
#     4  10  17  28  43  62  89 117 146 181 223 272
#     4  11  19  30  46  66  94 123 152 188 231 279
#     4  10  20  30  47  69  91 125 157 182 229 277
#     4  10  19  32  46  67  96 122 154 192 223 269
#     4   9  18  28  41  62  88 116 145 182 226 270
#
# _framework density 17.279304
#
# number of rings (size 3 to 8) (size 9 to 14) (size 15 to 20)
#    0.000    2.000    0.000    6.857    0.000    1.143 
#    0.000    0.000    0.000    0.000    0.000    1.000 
#    0.000    6.857    0.000    0.000    0.000    1.143 
#
# Total GULP energy -346978.295474 kJ/mol
# GULP energy per Si atom -12392.081981 kJ/mol
# Density = 1.723998 g / cm^3
# Si number density = 17.279304 Si / 1000 Ang^3
#
#
#
# Elastic Constant Matrix: (Units=GPa)
#
#
# Indices 1 2 3 4 5 6 
#
# 1 99.7714 22.0632 28.2511 0.0000 0.0000 0.0000
# 2 22.0632 80.7966 18.0767 0.0000 0.0000 0.0000
# 3 28.2511 18.0767 87.2976 0.0000 0.0000 0.0000
# 4 0.0000 0.0000 0.0000 29.9582 0.0000 0.0000
# 5 0.0000 0.0000 0.0000 0.0000 18.1458 0.0000
# 6 0.0000 0.0000 0.0000 0.0000 0.0000 16.6089
#
#
#
# Elastic Compliance Matrix: (Units=1/GPa)
#
#
# Indices 1 2 3 4 5 6 
#
# 1 0.011466 -0.002413 -0.003211 0.000000 0.000000 0.000000
# 2 -0.002413 0.013486 -0.002012 0.000000 0.000000 0.000000
# 3 -0.003211 -0.002012 0.012911 0.000000 0.000000 0.000000
# 4 0.000000 0.000000 0.000000 0.033380 0.000000 0.000000
# 5 0.000000 0.000000 0.000000 0.000000 0.055109 0.000000
# 6 0.000000 0.000000 0.000000 0.000000 0.000000 0.060209
#
#
# Mechanical properties :
#
#
# Convention : Reuss Voigt Hill
#
# Bulk Modulus (GPa) = 44.26419 44.96085 44.61252
# Shear Modulus (GPa) = 23.88224 26.24087 25.06156
#
# Velocity S-wave (km/s) = 3.72173 3.90119 3.81252
# Velocity P-wave (km/s) = 6.64386 6.80947 6.72718
#
# Compressibility (1/GPa) = 0.02259163
#
# Stress axis : x y z
#
# Youngs Moduli (GPa) = 87.21724 74.15291 77.45480
#
# Poissons Ratio (x) = 0.17890 0.24870
# Poissons Ratio (y) = 0.21042 0.15582
# Poissons Ratio (z) = 0.28005 0.14918
#
# Static dielectric constant tensor:
#      x y z
#    x 3.073200 0.000000 0.000000 
#    y 0.000000 3.702430 0.000000 
#    z 0.000000 0.000000 3.057870 
# 
# 
# High freq. dielectric constant tensor:
#      x y z
#    x 1.621530 0.000000 0.000000 
#    y 0.000000 1.700010 0.000000 
#    z 0.000000 0.000000 1.640890 
# 
# From -- ./inp_files/8458.got.cif
#   From: 2010.03.12/outbox.cif.g09.slc.cpg/sg34_5_cif.got.tgz:8458.got - 2010.04.14 01:56:33.
