data_PCOD8171299
_publ_section_title
;
Structure prediction by ZEFSAII (Michael W. Deem and Ramdas Pophale) SiO2 
 PCOD8171299
Probable space group: P N A 21
;
_chemical_formula_sum "Si O2"
_cell_formula_units_Z 28
_cell_length_a 16.822517
_cell_length_b 7.226525
_cell_length_c 10.117278
_cell_angle_alpha 90.000000
_cell_angle_beta 90.000000
_cell_angle_gamma 90.000000
_cell_volume 1229.940688
_symmetry_space_group_name_H-M "P N A 21"
_symmetry_group_IT_number 33
_symmetry_cell_setting 'orthorhombic'
loop_
_space_group_symop_operation_xyz
x,y,z
-x,-y,1/2+z
1/2-x,1/2+y,1/2+z
1/2+x,1/2-y,z
loop_
_atom_site_type_symbol
_atom_site_label
_atom_site_fract_x
_atom_site_fract_y
_atom_site_fract_z
Si Si1 0.191190 0.005126 0.915160
Si Si2 0.703583 0.251439 0.561821
Si Si3 0.941338 0.263000 0.388799
Si Si4 0.601732 0.175335 0.818679
Si Si5 0.687752 0.009260 0.195613
Si Si6 0.108930 0.163317 0.297138
Si Si7 0.557887 0.714777 0.191148
O O1 0.144586 0.200580 0.932927
O O2 0.131023 0.865156 0.837868
O O3 0.269142 0.041901 0.831074
O O4 0.226206 0.903054 0.044590
O O5 0.654566 0.175646 0.686121
O O6 0.751902 0.444733 0.580987
O O7 0.645564 0.297104 0.441297
O O8 0.910891 0.474335 0.381892
O O9 0.963367 0.191318 0.536440
O O10 0.017941 0.236342 0.296289
O O11 0.519006 0.271409 0.782861
O O12 0.662974 0.225102 0.190691
O O13 0.605241 0.903028 0.202435
O O14 0.110755 0.953327 0.248091
#
# Coordination Sequence:
#
# PCOD8171299 Si02
#       7
#     4   4   4   4   4   4   4
#     4  10  23  45  67 102 137 181 233 290 357 413
#     4  10  22  46  70 100 142 182 240 290 354 430
#     4  12  24  45  69 103 142 182 235 293 354 428
#     4  11  24  44  73 101 141 183 237 295 351 426
#     4  10  23  45  67 102 137 181 233 290 357 413
#     4  11  24  44  73 101 141 183 237 295 351 426
#     4  12  24  45  69 103 142 182 235 293 354 428
#
# _framework density 22.765325000000001
#
# number of rings (size 3 to 8) (size 9 to 14) (size 15 to 20)
#    0.000    1.143    5.714    0.000    0.000    5.714 
#    5.143   10.000    0.000    0.000    0.000    0.000 
#    0.000    0.000    0.000    0.000    0.000    0.000 
#
# Total GULP energy -346978.510403 kJ/mol
# GULP energy per Si atom -12392.089657 kJ/mol
# Density = 2.271351 g / cm^3
# Si number density = 22.765325 Si / 1000 Ang^3
#
#
#
# Elastic Constant Matrix: (Units=GPa)
#
#
# Indices 1 2 3 4 5 6 
#
# 1 92.5860 6.5908 15.3704 0.0000 0.0000 0.0000
# 2 6.5908 92.5539 22.3001 0.0000 0.0000 0.0000
# 3 15.3704 22.3001 70.3581 0.0000 0.0000 0.0000
# 4 0.0000 0.0000 0.0000 34.3882 0.0000 0.0000
# 5 0.0000 0.0000 0.0000 0.0000 24.1781 0.0000
# 6 0.0000 0.0000 0.0000 0.0000 0.0000 25.6386
#
#
#
# Elastic Compliance Matrix: (Units=1/GPa)
#
#
# Indices 1 2 3 4 5 6 
#
# 1 0.011212 -0.000225 -0.002378 0.000000 0.000000 0.000000
# 2 -0.000225 0.011702 -0.003660 0.000000 0.000000 0.000000
# 3 -0.002378 -0.003660 0.015892 0.000000 0.000000 0.000000
# 4 0.000000 0.000000 0.000000 0.029080 0.000000 0.000000
# 5 0.000000 0.000000 0.000000 0.000000 0.041360 0.000000
# 6 0.000000 0.000000 0.000000 0.000000 0.000000 0.039004
#
#
# Mechanical properties :
#
#
# Convention : Reuss Voigt Hill
#
# Bulk Modulus (GPa) = 38.05150 38.22452 38.13801
# Shear Modulus (GPa) = 29.49226 30.92340 30.20783
#
# Velocity S-wave (km/s) = 3.60320 3.68959 3.64665
# Velocity P-wave (km/s) = 5.83624 5.91421 5.87535
#
# Compressibility (1/GPa) = 0.02628017
#
# Stress axis : x y z
#
# Youngs Moduli (GPa) = 89.19357 85.45270 62.92290
#
# Poissons Ratio (x) = 0.01927 0.14962
# Poissons Ratio (y) = 0.02011 0.23029
# Poissons Ratio (z) = 0.21209 0.31274
#
# Static dielectric constant tensor:
#      x y z
#    x 4.403630 0.000000 0.000000 
#    y 0.000000 4.228610 0.000000 
#    z 0.000000 0.000000 3.999060 
# 
# 
# High freq. dielectric constant tensor:
#      x y z
#    x 1.922750 0.000000 0.000000 
#    y 0.000000 1.901450 0.000000 
#    z 0.000000 0.000000 1.879360 
# 
# From -- ./inp_files/6978.got.cif
#   From: 2010.03.12/outbox.cif.g09.slc.cpg/sg33_4_cif.got.tgz:6978.got - 2010.04.14 01:49:19.
