data_PCOD8171031
_publ_section_title
;
Structure prediction by ZEFSAII (Michael W. Deem and Ramdas Pophale) SiO2 
 PCOD8171031
Probable space group: P N A 21
;
_chemical_formula_sum "Si O2"
_cell_formula_units_Z 32
_cell_length_a 20.141024
_cell_length_b 9.155204
_cell_length_c 8.720057
_cell_angle_alpha 90.000000
_cell_angle_beta 90.000000
_cell_angle_gamma 90.000000
_cell_volume 1607.936511
_symmetry_space_group_name_H-M "P N A 21"
_symmetry_group_IT_number 33
_symmetry_cell_setting 'orthorhombic'
loop_
_space_group_symop_operation_xyz
x,y,z
-x,-y,1/2+z
1/2-x,1/2+y,1/2+z
1/2+x,1/2-y,z
loop_
_atom_site_type_symbol
_atom_site_label
_atom_site_fract_x
_atom_site_fract_y
_atom_site_fract_z
Si Si1 0.813713 0.926832 0.273950
Si Si2 0.557272 0.612259 0.786403
Si Si3 0.311966 0.090530 0.970048
Si Si4 0.802650 0.076267 0.966865
Si Si5 0.824332 0.586583 0.273898
Si Si6 0.441374 0.074839 0.425855
Si Si7 0.943419 0.390541 0.786934
Si Si8 0.949814 0.084936 0.929019
O O1 0.757929 0.960319 0.400341
O O2 0.833299 0.758692 0.259305
O O3 0.878717 0.014825 0.322146
O O4 0.784866 0.975609 0.110473
O O5 0.573218 0.773465 0.842839
O O6 0.539793 0.617888 0.607786
O O7 0.495356 0.549037 0.879517
O O8 0.305155 0.256963 0.027570
O O9 0.368329 0.080830 0.840393
O O10 0.332978 0.987595 0.109300
O O11 0.748597 0.048342 0.836364
O O12 0.874190 0.035087 0.895980
O O13 0.880364 0.532252 0.390491
O O14 0.447599 0.096363 0.605875
O O15 0.510006 0.010575 0.364117
O O16 0.968368 0.229365 0.833709
#
# Coordination Sequence:
#
# PCOD8171031 Si02
#       8
#     4   4   4   4   4   4   4   4
#     4  10  22  39  60  88 121 157 197 243 295 357
#     4  11  23  39  62  90 124 161 201 248 300 356
#     4  10  22  39  61  88 120 155 198 249 297 357
#     4   9  21  40  58  85 121 156 197 245 294 351
#     4  11  22  38  62  90 120 155 198 245 298 358
#     4  12  24  40  62  87 119 159 200 250 305 359
#     4  11  23  41  62  86 119 156 202 251 303 360
#     4  10  21  40  61  88 122 157 201 249 298 356
#
# _framework density 19.901284
#
# number of rings (size 3 to 8) (size 9 to 14) (size 15 to 20)
#    0.000    1.500    0.000    6.000    0.000    9.000 
#    0.000    1.250    0.000    0.000    0.000    0.000 
#    0.000    0.000    0.000    0.000    0.000    0.000 
#
# Total GULP energy -396997.367802 kJ/mol
# GULP energy per Si atom -12406.167744 kJ/mol
# Density = 1.985599 g / cm^3
# Si number density = 19.901284 Si / 1000 Ang^3
#
#
#
# Elastic Constant Matrix: (Units=GPa)
#
#
# Indices 1 2 3 4 5 6 
#
# 1 99.2268 45.1357 40.0185 0.0000 0.0000 0.0000
# 2 45.1357 103.7624 44.2078 0.0000 0.0000 0.0000
# 3 40.0185 44.2078 124.6785 0.0000 0.0000 0.0000
# 4 0.0000 0.0000 0.0000 37.8998 0.0000 0.0000
# 5 0.0000 0.0000 0.0000 0.0000 40.7397 0.0000
# 6 0.0000 0.0000 0.0000 0.0000 0.0000 30.4975
#
#
#
# Elastic Compliance Matrix: (Units=1/GPa)
#
#
# Indices 1 2 3 4 5 6 
#
# 1 0.013243 -0.004653 -0.002601 0.000000 0.000000 0.000000
# 2 -0.004653 0.012987 -0.003111 0.000000 0.000000 0.000000
# 3 -0.002601 -0.003111 0.009959 0.000000 0.000000 0.000000
# 4 0.000000 0.000000 0.000000 0.026385 0.000000 0.000000
# 5 0.000000 0.000000 0.000000 0.000000 0.024546 0.000000
# 6 0.000000 0.000000 0.000000 0.000000 0.000000 0.032790
#
#
# Mechanical properties :
#
#
# Convention : Reuss Voigt Hill
#
# Bulk Modulus (GPa) = 64.68833 65.15463 64.92148
# Shear Modulus (GPa) = 34.29524 35.04779 34.67152
#
# Velocity S-wave (km/s) = 4.15573 4.20108 4.17846
# Velocity P-wave (km/s) = 7.45667 7.50613 7.48144
#
# Compressibility (1/GPa) = 0.01545874
#
# Stress axis : x y z
#
# Youngs Moduli (GPa) = 75.51020 77.00105 100.41427
#
# Poissons Ratio (x) = 0.35825 0.26118
# Poissons Ratio (y) = 0.35131 0.31244
# Poissons Ratio (z) = 0.19641 0.23959
#
# Static dielectric constant tensor:
#      x y z
#    x 3.759270 0.000000 0.000000 
#    y 0.000000 3.683110 0.000000 
#    z 0.000000 0.000000 3.564590 
# 
# 
# High freq. dielectric constant tensor:
#      x y z
#    x 1.791030 0.000000 0.000000 
#    y 0.000000 1.783160 0.000000 
#    z 0.000000 0.000000 1.779590 
# 
# From -- ./inp_files/5011.got.cif
#   From: 2010.03.12/outbox.cif.g09.slc.cpg/sg33_3_cif.got.tgz:5011.got - 2010.04.14 01:49:19.
