data_PCOD8171884
_publ_section_title
;
Structure prediction by ZEFSAII (Michael W. Deem and Ramdas Pophale) SiO2 
 PCOD8171884
Probable space group: P N N 2
;
_chemical_formula_sum "Si O2"
_cell_formula_units_Z 32
_cell_length_a 18.435440
_cell_length_b 8.619718
_cell_length_c 10.384370
_cell_angle_alpha 90.000000
_cell_angle_beta 90.000000
_cell_angle_gamma 90.000000
_cell_volume 1650.162521
_symmetry_space_group_name_H-M "P N N 2"
_symmetry_group_IT_number 34
_symmetry_cell_setting 'orthorhombic'
loop_
_space_group_symop_operation_xyz
x,y,z
-x,-y,z
1/2-x,1/2+y,1/2+z
1/2+x,1/2-y,1/2+z
loop_
_atom_site_type_symbol
_atom_site_label
_atom_site_fract_x
_atom_site_fract_y
_atom_site_fract_z
Si Si1 0.084930 0.519096 0.735950
Si Si2 0.175392 0.494327 0.496186
Si Si3 0.328620 0.814071 0.736018
Si Si4 0.585765 0.501905 0.736034
Si Si5 0.327729 0.362233 0.509882
Si Si6 0.175274 0.494323 0.975834
Si Si7 0.672390 0.637783 0.962063
Si Si8 0.337599 0.333199 0.235954
O O1 0.117301 0.444881 0.605074
O O2 0.102817 0.700190 0.735972
O O3 0.000000 0.500000 0.735818
O O4 0.117204 0.444871 0.866906
O O5 0.153694 0.414512 0.362402
O O6 0.252054 0.436612 0.552999
O O7 0.179185 0.677753 0.473969
O O8 0.381856 0.669147 0.736151
O O9 0.346386 0.914343 0.609571
O O10 0.244529 0.761206 0.735973
O O11 0.500000 0.500000 0.736228
O O12 0.610144 0.594127 0.609350
O O13 0.610290 0.594470 0.862453
O O14 0.347400 0.432344 0.367188
O O15 0.321034 0.177740 0.498144
O O16 0.251966 0.436798 0.919017
O O17 0.652618 0.567656 0.104713
#
# Coordination Sequence:
#
# PCOD8171884 Si02
#       8
#     4   4   4   4   4   4   4   4
#     4  10  20  33  52  82 116 146 177 222 284 350
#     4  10  20  37  64  88 111 145 191 246 296 350
#     4  10  21  38  57  84 113 148 199 246 285 339
#     4  12  25  38  54  82 124 164 197 238 288 347
#     4  10  19  38  61  86 111 145 192 244 297 344
#     4  10  20  37  64  88 111 145 191 246 296 350
#     4  10  19  38  61  86 111 145 192 244 297 344
#     4   8  18  35  57  80 107 138 185 246 288 334
#
# _framework density 19.392029000000001
#
# number of rings (size 3 to 8) (size 9 to 14) (size 15 to 20)
#    0.000    2.000    0.000    6.000    0.000    4.000 
#    0.000    6.250    0.000    0.000    0.000    0.000 
#    0.000    0.000    0.000    0.000    0.000    0.000 
#
# Total GULP energy -396685.346776 kJ/mol
# GULP energy per Si atom -12396.417087 kJ/mol
# Density = 1.934789 g / cm^3
# Si number density = 19.392029 Si / 1000 Ang^3
#
#
#
# Elastic Constant Matrix: (Units=GPa)
#
#
# Indices 1 2 3 4 5 6 
#
# 1 162.8401 45.6970 92.8087 0.0000 0.0000 0.0000
# 2 45.6970 90.3623 46.0688 0.0000 0.0000 0.0000
# 3 92.8087 46.0688 184.0172 0.0000 0.0000 0.0000
# 4 0.0000 0.0000 0.0000 24.4593 0.0000 0.0000
# 5 0.0000 0.0000 0.0000 0.0000 16.5482 0.0000
# 6 0.0000 0.0000 0.0000 0.0000 0.0000 22.6755
#
#
#
# Elastic Compliance Matrix: (Units=1/GPa)
#
#
# Indices 1 2 3 4 5 6 
#
# 1 0.009121 -0.002599 -0.003950 0.000000 0.000000 0.000000
# 2 -0.002599 0.013426 -0.002050 0.000000 0.000000 0.000000
# 3 -0.003950 -0.002050 0.007940 0.000000 0.000000 0.000000
# 4 0.000000 0.000000 0.000000 0.040884 0.000000 0.000000
# 5 0.000000 0.000000 0.000000 0.000000 0.060429 0.000000
# 6 0.000000 0.000000 0.000000 0.000000 0.000000 0.044100
#
#
# Mechanical properties :
#
#
# Convention : Reuss Voigt Hill
#
# Bulk Modulus (GPa) = 75.25084 89.59649 82.42367
# Shear Modulus (GPa) = 25.31266 29.57962 27.44614
#
# Velocity S-wave (km/s) = 3.61683 3.90981 3.76617
# Velocity P-wave (km/s) = 7.50541 8.16610 7.84272
#
# Compressibility (1/GPa) = 0.01328889
#
# Stress axis : x y z
#
# Youngs Moduli (GPa) = 109.63165 74.48061 125.95073
#
# Poissons Ratio (x) = 0.19359 0.49747
# Poissons Ratio (y) = 0.28495 0.25825
# Poissons Ratio (z) = 0.43301 0.15272
#
# Static dielectric constant tensor:
#      x y z
#    x 3.291060 0.000000 0.000000 
#    y 0.000000 3.345150 0.000000 
#    z 0.000000 0.000000 5.446690 
# 
# 
# High freq. dielectric constant tensor:
#      x y z
#    x 1.732670 0.000000 0.000000 
#    y 0.000000 1.738350 0.000000 
#    z 0.000000 0.000000 1.788260 
# 
# From -- ./inp_files/5802.got.cif
#   From: 2010.03.12/outbox.cif.g09.slc.cpg/sg34_3_cif.got.tgz:5802.got - 2010.04.14 01:56:33.
