data_PCOD8171794
_publ_section_title
;
Structure prediction by ZEFSAII (Michael W. Deem and Ramdas Pophale) SiO2 
 PCOD8171794
Probable space group: P N A 21
;
_chemical_formula_sum "Si O2"
_cell_formula_units_Z 32
_cell_length_a 9.606447
_cell_length_b 10.997576
_cell_length_c 13.276656
_cell_angle_alpha 90.000000
_cell_angle_beta 90.000000
_cell_angle_gamma 90.000000
_cell_volume 1402.647254
_symmetry_space_group_name_H-M "P N A 21"
_symmetry_group_IT_number 33
_symmetry_cell_setting 'orthorhombic'
loop_
_space_group_symop_operation_xyz
x,y,z
-x,-y,1/2+z
1/2-x,1/2+y,1/2+z
1/2+x,1/2-y,z
loop_
_atom_site_type_symbol
_atom_site_label
_atom_site_fract_x
_atom_site_fract_y
_atom_site_fract_z
Si Si1 0.988147 0.502110 0.757960
Si Si2 0.499701 0.427788 0.185043
Si Si3 0.977270 0.247750 0.361152
Si Si4 0.707541 0.974363 0.588737
Si Si5 0.609282 0.725119 0.505336
Si Si6 0.363873 0.805081 0.378216
Si Si7 0.273782 0.771384 0.996262
Si Si8 0.786803 0.867672 0.198407
O O1 0.081340 0.484123 0.659436
O O2 0.053776 0.426776 0.849767
O O3 0.978695 0.642327 0.788382
O O4 0.832744 0.458309 0.735125
O O5 0.490206 0.375628 0.297533
O O6 0.660413 0.436826 0.155354
O O7 0.430789 0.560626 0.182994
O O8 0.413098 0.340030 0.111330
O O9 0.071102 0.239826 0.460899
O O10 0.822205 0.265911 0.402255
O O11 0.658118 0.863375 0.519889
O O12 0.745596 0.085013 0.515343
O O13 0.466369 0.718579 0.442309
O O14 0.731045 0.655539 0.444842
O O15 0.310706 0.737533 0.279151
O O16 0.237996 0.694967 0.095410
#
# Coordination Sequence:
#
# PCOD8171794 Si02
#       8
#     4   4   4   4   4   4   4   4
#     4  12  26  48  76 105 151 194 246 305 379 438
#     4  12  29  47  76 107 153 189 248 308 370 443
#     4  12  27  47  75 108 145 191 243 302 370 439
#     4  12  26  49  75 107 152 195 245 308 370 442
#     4  12  27  47  75 108 145 196 248 304 371 444
#     4  12  27  48  74 107 145 194 250 302 372 441
#     4  12  27  48  74 109 145 192 246 298 372 435
#     4  12  29  48  75 109 150 195 244 313 366 450
#
# _framework density 22.814005999999999
#
# number of rings (size 3 to 8) (size 9 to 14) (size 15 to 20)
#    0.000    0.000    5.000    3.750   10.500    1.000 
#    0.000    0.000    0.000    0.000    0.000    0.000 
#    0.000    0.000    0.000    0.000    0.000    0.000 
#
# Total GULP energy -397152.554850 kJ/mol
# GULP energy per Si atom -12411.017339 kJ/mol
# Density = 2.276208 g / cm^3
# Si number density = 22.814006 Si / 1000 Ang^3
#
#
#
# Elastic Constant Matrix: (Units=GPa)
#
#
# Indices 1 2 3 4 5 6 
#
# 1 103.7825 1.6931 23.5216 0.0000 0.0000 0.0000
# 2 1.6931 71.9704 20.1163 0.0000 0.0000 0.0000
# 3 23.5216 20.1163 98.5062 0.0000 0.0000 0.0000
# 4 0.0000 0.0000 0.0000 33.9871 0.0000 0.0000
# 5 0.0000 0.0000 0.0000 0.0000 46.4463 0.0000
# 6 0.0000 0.0000 0.0000 0.0000 0.0000 31.3566
#
#
#
# Elastic Compliance Matrix: (Units=1/GPa)
#
#
# Indices 1 2 3 4 5 6 
#
# 1 0.010202 0.000468 -0.002531 0.000000 0.000000 0.000000
# 2 0.000468 0.014757 -0.003125 0.000000 0.000000 0.000000
# 3 -0.002531 -0.003125 0.011394 0.000000 0.000000 0.000000
# 4 0.000000 0.000000 0.000000 0.029423 0.000000 0.000000
# 5 0.000000 0.000000 0.000000 0.000000 0.021530 0.000000
# 6 0.000000 0.000000 0.000000 0.000000 0.000000 0.031891
#
#
# Mechanical properties :
#
#
# Convention : Reuss Voigt Hill
#
# Bulk Modulus (GPa) = 38.49882 40.54679 39.52281
# Shear Modulus (GPa) = 36.17051 37.61985 36.89518
#
# Velocity S-wave (km/s) = 3.98609 4.06517 4.02583
# Velocity P-wave (km/s) = 6.17227 6.31233 6.24269
#
# Compressibility (1/GPa) = 0.02597482
#
# Stress axis : x y z
#
# Youngs Moduli (GPa) = 98.02333 67.76377 87.76283
#
# Poissons Ratio (x) = -0.03168 0.22217
# Poissons Ratio (y) = -0.04583 0.27428
# Poissons Ratio (z) = 0.24814 0.21178
#
# Static dielectric constant tensor:
#      x y z
#    x 4.214960 0.000000 0.000000 
#    y 0.000000 4.025290 0.000000 
#    z 0.000000 0.000000 4.111030 
# 
# 
# High freq. dielectric constant tensor:
#      x y z
#    x 1.915650 0.000000 0.000000 
#    y 0.000000 1.898770 0.000000 
#    z 0.000000 0.000000 1.913070 
# 
# From -- ./inp_files/7654.got.cif
#   From: 2010.03.12/outbox.cif.g09.slc.cpg/sg33_4_cif.got.tgz:7654.got - 2010.04.14 01:49:19.
