data_PCOD8171083
_publ_section_title
;
Structure prediction by ZEFSAII (Michael W. Deem and Ramdas Pophale) SiO2 
 PCOD8171083
Probable space group: P N A 21
;
_chemical_formula_sum "Si O2"
_cell_formula_units_Z 24
_cell_length_a 16.783900
_cell_length_b 7.500073
_cell_length_c 8.882117
_cell_angle_alpha 90.000000
_cell_angle_beta 90.000000
_cell_angle_gamma 90.000000
_cell_volume 1118.085109
_symmetry_space_group_name_H-M "P N A 21"
_symmetry_group_IT_number 33
_symmetry_cell_setting 'orthorhombic'
loop_
_space_group_symop_operation_xyz
x,y,z
-x,-y,1/2+z
1/2-x,1/2+y,1/2+z
1/2+x,1/2-y,z
loop_
_atom_site_type_symbol
_atom_site_label
_atom_site_fract_x
_atom_site_fract_y
_atom_site_fract_z
Si Si1 0.931876 0.956317 0.989040
Si Si2 0.152933 0.687131 0.509572
Si Si3 0.595206 0.528862 0.147456
Si Si4 0.170090 0.284625 0.994116
Si Si5 0.093805 0.580312 0.203760
Si Si6 0.094448 0.374510 0.681171
O O1 0.899712 0.142913 0.052498
O O2 0.927591 0.945316 0.808803
O O3 0.022754 0.956302 0.034232
O O4 0.888414 0.785578 0.063519
O O5 0.235978 0.780902 0.463531
O O6 0.114415 0.562148 0.379721
O O7 0.150092 0.547839 0.648853
O O8 0.660242 0.407188 0.069828
O O9 0.630183 0.726752 0.162028
O O10 0.142067 0.436256 0.109103
O O11 0.118294 0.302998 0.844503
O O12 0.998647 0.568022 0.179521
#
# Coordination Sequence:
#
# PCOD8171083 Si02
#       6
#     4   4   4   4   4   4
#     4  10  22  42  70  97 132 172 227 270 331 407
#     4  11  26  41  66  98 137 170 221 283 340 396
#     4  10  21  41  69  98 129 176 222 274 327 407
#     4  12  26  40  68  99 138 172 222 284 344 392
#     4  10  23  46  68  94 133 178 226 270 331 422
#     4  11  24  44  71  96 131 184 224 273 339 416
#
# _framework density 21.46527
#
# number of rings (size 3 to 8) (size 9 to 14) (size 15 to 20)
#    0.000    1.333    0.000    6.000    7.000    5.333 
#    0.000    0.000    0.000    0.000    0.000    0.000 
#    0.000    0.000    0.000    0.000    0.000    0.000 
#
# Total GULP energy -297523.016506 kJ/mol
# GULP energy per Si atom -12396.792354 kJ/mol
# Density = 2.141641 g / cm^3
# Si number density = 21.465270 Si / 1000 Ang^3
#
#
#
# Elastic Constant Matrix: (Units=GPa)
#
#
# Indices 1 2 3 4 5 6 
#
# 1 47.7010 21.0814 27.3195 0.0000 0.0000 0.0000
# 2 21.0814 89.6087 40.3536 0.0000 0.0000 0.0000
# 3 27.3195 40.3536 60.7542 0.0000 0.0000 0.0000
# 4 0.0000 0.0000 0.0000 36.5436 0.0000 0.0000
# 5 0.0000 0.0000 0.0000 0.0000 27.9177 0.0000
# 6 0.0000 0.0000 0.0000 0.0000 0.0000 17.0692
#
#
#
# Elastic Compliance Matrix: (Units=1/GPa)
#
#
# Indices 1 2 3 4 5 6 
#
# 1 0.028346 -0.001325 -0.011866 0.000000 0.000000 0.000000
# 2 -0.001325 0.015984 -0.010021 0.000000 0.000000 0.000000
# 3 -0.011866 -0.010021 0.028452 0.000000 0.000000 0.000000
# 4 0.000000 0.000000 0.000000 0.027365 0.000000 0.000000
# 5 0.000000 0.000000 0.000000 0.000000 0.035820 0.000000
# 6 0.000000 0.000000 0.000000 0.000000 0.000000 0.058585
#
#
# Mechanical properties :
#
#
# Convention : Reuss Voigt Hill
#
# Bulk Modulus (GPa) = 37.94044 41.73034 39.83539
# Shear Modulus (GPa) = 20.01915 23.59338 21.80627
#
# Velocity S-wave (km/s) = 3.05721 3.31893 3.19075
# Velocity P-wave (km/s) = 5.49324 5.84552 5.67212
#
# Compressibility (1/GPa) = 0.02635710
#
# Stress axis : x y z
#
# Youngs Moduli (GPa) = 35.27895 62.56211 35.14717
#
# Poissons Ratio (x) = 0.08289 0.41706
# Poissons Ratio (y) = 0.04674 0.35221
# Poissons Ratio (z) = 0.41863 0.62694
#
# Static dielectric constant tensor:
#      x y z
#    x 3.708800 0.000000 0.000000 
#    y 0.000000 4.339850 0.000000 
#    z 0.000000 0.000000 3.999900 
# 
# 
# High freq. dielectric constant tensor:
#      x y z
#    x 1.830480 0.000000 0.000000 
#    y 0.000000 1.861840 0.000000 
#    z 0.000000 0.000000 1.848670 
# 
# From -- ./inp_files/4685.got.cif
#   From: 2010.03.12/outbox.cif.g09.slc.cpg/sg33_3_cif.got.tgz:4685.got - 2010.04.14 01:49:19.
