data_PCOD8171422
_publ_section_title
;
Structure prediction by ZEFSAII (Michael W. Deem and Ramdas Pophale) SiO2 
 PCOD8171422
Probable space group: P N A 21
;
_chemical_formula_sum "Si O2"
_cell_formula_units_Z 28
_cell_length_a 8.905727
_cell_length_b 9.079074
_cell_length_c 14.501754
_cell_angle_alpha 90.000000
_cell_angle_beta 90.000000
_cell_angle_gamma 90.000000
_cell_volume 1172.550261
_symmetry_space_group_name_H-M "P N A 21"
_symmetry_group_IT_number 33
_symmetry_cell_setting 'orthorhombic'
loop_
_space_group_symop_operation_xyz
x,y,z
-x,-y,1/2+z
1/2-x,1/2+y,1/2+z
1/2+x,1/2-y,z
loop_
_atom_site_type_symbol
_atom_site_label
_atom_site_fract_x
_atom_site_fract_y
_atom_site_fract_z
Si Si1 0.962942 0.545509 0.720280
Si Si2 0.712869 0.750000 0.667794
Si Si3 0.909038 0.658509 0.362796
Si Si4 0.909038 0.841491 0.972792
Si Si5 0.962942 0.954491 0.615308
Si Si6 0.083966 0.932292 0.317718
Si Si7 0.583966 0.932292 0.017870
O O1 0.815774 0.646827 0.732822
O O2 0.965922 0.466410 0.621299
O O3 0.110461 0.648142 0.733071
O O4 0.967984 0.423139 0.798718
O O5 0.815774 0.853173 0.602766
O O6 0.610461 0.648142 0.602517
O O7 0.744949 0.647896 0.317465
O O8 0.909198 0.587587 0.464287
O O9 0.960931 0.828049 0.367503
O O10 0.744949 0.852104 0.018123
O O11 0.960931 0.671951 0.968084
O O12 0.032016 0.923139 0.036870
O O13 0.909198 0.912413 0.871301
O O14 0.965922 0.033590 0.714289
#
# Coordination Sequence:
#
# PCOD8171422 Si02
#       7
#     4   4   4   4   4   4   4
#     4  11  23  44  68  98 136 176 216 276 328 398
#     4  10  24  38  74  98 132 172 226 266 340 382
#     4  11  27  45  68  99 135 175 223 274 332 394
#     4  11  27  45  68  99 135 175 223 274 332 394
#     4  11  23  44  68  98 136 176 216 276 328 398
#     4  11  27  45  68  99 135 175 223 274 332 394
#     4  11  27  45  68  99 135 175 223 274 332 394
#
# _framework density 23.879573000000001
#
# number of rings (size 3 to 8) (size 9 to 14) (size 15 to 20)
#    0.000    1.143    2.857    0.857   12.000    3.429 
#    0.000    0.000    0.000    0.000    0.000    0.000 
#    0.000    0.000    0.000    0.000    0.000    0.000 
#
# Total GULP energy -347367.487068 kJ/mol
# GULP energy per Si atom -12405.981681 kJ/mol
# Density = 2.382522 g / cm^3
# Si number density = 23.879573 Si / 1000 Ang^3
#
#
#
# Elastic Constant Matrix: (Units=GPa)
#
#
# Indices 1 2 3 4 5 6 
#
# 1 114.5222 35.5167 4.4656 0.0000 0.0000 0.0000
# 2 35.5167 88.6665 2.1071 0.0000 0.0000 0.0000
# 3 4.4656 2.1071 59.2803 0.0000 0.0000 0.0000
# 4 0.0000 0.0000 0.0000 32.9890 0.0000 0.0000
# 5 0.0000 0.0000 0.0000 0.0000 20.7574 0.0000
# 6 0.0000 0.0000 0.0000 0.0000 0.0000 32.3889
#
#
#
# Elastic Compliance Matrix: (Units=1/GPa)
#
#
# Indices 1 2 3 4 5 6 
#
# 1 0.009993 -0.003988 -0.000611 0.000000 0.000000 0.000000
# 2 -0.003988 0.012879 -0.000157 0.000000 0.000000 0.000000
# 3 -0.000611 -0.000157 0.016921 0.000000 0.000000 0.000000
# 4 0.000000 0.000000 0.000000 0.030313 0.000000 0.000000
# 5 0.000000 0.000000 0.000000 0.000000 0.048176 0.000000
# 6 0.000000 0.000000 0.000000 0.000000 0.000000 0.030875
#
#
# Mechanical properties :
#
#
# Convention : Reuss Voigt Hill
#
# Bulk Modulus (GPa) = 33.02547 38.51643 35.77095
# Shear Modulus (GPa) = 29.62742 31.91902 30.77322
#
# Velocity S-wave (km/s) = 3.52618 3.66001 3.59372
# Velocity P-wave (km/s) = 5.51712 5.83313 5.67732
#
# Compressibility (1/GPa) = 0.03027966
#
# Stress axis : x y z
#
# Youngs Moduli (GPa) = 100.07408 77.64294 59.09943
#
# Poissons Ratio (x) = 0.30965 0.03611
# Poissons Ratio (y) = 0.39911 0.00930
# Poissons Ratio (z) = 0.06114 0.01222
#
# Static dielectric constant tensor:
#      x y z
#    x 4.462010 0.000000 0.000000 
#    y 0.000000 4.481160 0.000000 
#    z 0.000000 0.000000 3.827250 
# 
# 
# High freq. dielectric constant tensor:
#      x y z
#    x 1.955840 0.000000 0.000000 
#    y 0.000000 1.955000 0.000000 
#    z 0.000000 0.000000 1.927820 
# 
# From -- ./inp_files/7575.got.cif
#   From: 2010.03.12/outbox.cif.g09.slc.cpg/sg33_4_cif.got.tgz:7575.got - 2010.04.14 01:49:19.
