data_PCOD8171521
_publ_section_title
;
Structure prediction by ZEFSAII (Michael W. Deem and Ramdas Pophale) SiO2 
 PCOD8171521
Probable space group: P N A 21
;
_chemical_formula_sum "Si O2"
_cell_formula_units_Z 32
_cell_length_a 15.799690
_cell_length_b 8.097910
_cell_length_c 11.953477
_cell_angle_alpha 90.000000
_cell_angle_beta 90.000000
_cell_angle_gamma 90.000000
_cell_volume 1529.381251
_symmetry_space_group_name_H-M "P N A 21"
_symmetry_group_IT_number 33
_symmetry_cell_setting 'orthorhombic'
loop_
_space_group_symop_operation_xyz
x,y,z
-x,-y,1/2+z
1/2-x,1/2+y,1/2+z
1/2+x,1/2-y,z
loop_
_atom_site_type_symbol
_atom_site_label
_atom_site_fract_x
_atom_site_fract_y
_atom_site_fract_z
Si Si1 0.559629 0.130566 0.220620
Si Si2 0.183700 0.614212 0.330139
Si Si3 0.806481 0.869053 0.720345
Si Si4 0.279257 0.330435 0.410254
Si Si5 0.026212 0.316402 0.641184
Si Si6 0.280195 0.816384 0.143042
Si Si7 0.569366 0.612943 0.330922
Si Si8 0.525176 0.672093 0.912407
O O1 0.627090 0.248541 0.152880
O O2 0.494537 0.237784 0.294953
O O3 0.618234 0.030543 0.305094
O O4 0.508223 0.005457 0.141156
O O5 0.257308 0.527117 0.401384
O O6 0.223381 0.699974 0.220683
O O7 0.126892 0.750852 0.396702
O O8 0.740992 0.764272 0.795444
O O9 0.754294 0.994220 0.642829
O O10 0.866444 0.967465 0.803739
O O11 0.228627 0.252940 0.515616
O O12 0.376867 0.312313 0.438743
O O13 0.122951 0.312486 0.683641
O O14 0.970707 0.199344 0.721138
O O15 0.024717 0.254121 0.514614
O O16 0.497977 0.524518 0.406265
#
# Coordination Sequence:
#
# PCOD8171521 Si02
#       8
#     4   4   4   4   4   4   4   4
#     4   9  19  37  57  82 112 146 186 234 281 334
#     4   9  19  37  57  81 113 145 185 234 280 334
#     4   9  19  37  57  81 113 145 185 234 280 334
#     4  11  21  37  58  84 113 149 188 232 283 338
#     4  11  21  37  60  85 115 152 190 234 285 338
#     4  11  21  37  58  84 113 149 188 232 283 338
#     4   9  19  37  57  82 112 146 186 234 281 334
#     4  11  21  37  60  85 115 152 190 234 285 338
#
# _framework density 20.923494000000002
#
# number of rings (size 3 to 8) (size 9 to 14) (size 15 to 20)
#    0.000    2.000    0.000    6.000    0.000    0.000 
#    0.000   23.750    0.000    0.000    0.000    0.000 
#    0.000    0.000    0.000    0.000    0.000    0.000 
#
# Total GULP energy -396478.299327 kJ/mol
# GULP energy per Si atom -12389.946854 kJ/mol
# Density = 2.087587 g / cm^3
# Si number density = 20.923494 Si / 1000 Ang^3
#
#
#
# Elastic Constant Matrix: (Units=GPa)
#
#
# Indices 1 2 3 4 5 6 
#
# 1 107.4657 32.8614 7.8392 0.0000 0.0000 0.0000
# 2 32.8614 91.2365 13.1212 0.0000 0.0000 0.0000
# 3 7.8392 13.1212 56.9095 0.0000 0.0000 0.0000
# 4 0.0000 0.0000 0.0000 25.8947 0.0000 0.0000
# 5 0.0000 0.0000 0.0000 0.0000 27.4727 0.0000
# 6 0.0000 0.0000 0.0000 0.0000 0.0000 45.0964
#
#
#
# Elastic Compliance Matrix: (Units=1/GPa)
#
#
# Indices 1 2 3 4 5 6 
#
# 1 0.010476 -0.003688 -0.000593 0.000000 0.000000 0.000000
# 2 -0.003688 0.012635 -0.002405 0.000000 0.000000 0.000000
# 3 -0.000593 -0.002405 0.018208 0.000000 0.000000 0.000000
# 4 0.000000 0.000000 0.000000 0.038618 0.000000 0.000000
# 5 0.000000 0.000000 0.000000 0.000000 0.036400 0.000000
# 6 0.000000 0.000000 0.000000 0.000000 0.000000 0.022175
#
#
# Mechanical properties :
#
#
# Convention : Reuss Voigt Hill
#
# Bulk Modulus (GPa) = 35.78178 40.36167 38.07173
# Shear Modulus (GPa) = 31.01757 33.14542 32.08149
#
# Velocity S-wave (km/s) = 3.85441 3.98442 3.91996
# Velocity P-wave (km/s) = 6.07840 6.36392 6.22280
#
# Compressibility (1/GPa) = 0.02794719
#
# Stress axis : x y z
#
# Youngs Moduli (GPa) = 95.45356 79.14665 54.92109
#
# Poissons Ratio (x) = 0.29190 0.03255
# Poissons Ratio (y) = 0.35204 0.13209
# Poissons Ratio (z) = 0.05658 0.19035
#
# Static dielectric constant tensor:
#      x y z
#    x 4.023810 0.000000 0.000000 
#    y 0.000000 4.334640 0.000000 
#    z 0.000000 0.000000 3.221580 
# 
# 
# High freq. dielectric constant tensor:
#      x y z
#    x 1.840020 0.000000 0.000000 
#    y 0.000000 1.832560 0.000000 
#    z 0.000000 0.000000 1.773050 
# 
# From -- ./inp_files/6854.got.cif
#   From: 2010.03.12/outbox.cif.g09.slc.cpg/sg33_4_cif.got.tgz:6854.got - 2010.04.14 01:49:19.
