data_PCOD8171812
_publ_section_title
;
Structure prediction by ZEFSAII (Michael W. Deem and Ramdas Pophale) SiO2 
 PCOD8171812
Probable space group: P N A 21
;
_chemical_formula_sum "Si O2"
_cell_formula_units_Z 20
_cell_length_a 9.802528
_cell_length_b 16.479753
_cell_length_c 4.970770
_cell_angle_alpha 90.000000
_cell_angle_beta 90.000000
_cell_angle_gamma 90.000000
_cell_volume 802.994292
_symmetry_space_group_name_H-M "P N A 21"
_symmetry_group_IT_number 33
_symmetry_cell_setting 'orthorhombic'
loop_
_space_group_symop_operation_xyz
x,y,z
-x,-y,1/2+z
1/2-x,1/2+y,1/2+z
1/2+x,1/2-y,z
loop_
_atom_site_type_symbol
_atom_site_label
_atom_site_fract_x
_atom_site_fract_y
_atom_site_fract_z
Si Si1 0.652595 0.198257 0.434520
Si Si2 0.397607 0.697213 0.440865
Si Si3 0.403176 0.391765 0.268447
Si Si4 0.176879 0.062076 0.575599
Si Si5 0.962982 0.448166 0.375106
O O1 0.597434 0.231410 0.719020
O O2 0.803238 0.159573 0.462232
O O3 0.545904 0.133733 0.315028
O O4 0.665560 0.271324 0.220654
O O5 0.549134 0.662331 0.511633
O O6 0.305799 0.623001 0.328350
O O7 0.319055 0.469549 0.172892
O O8 0.534837 0.419417 0.432276
O O9 0.302676 0.073669 0.373002
O O10 0.993153 0.518574 0.164771
#
# Coordination Sequence:
#
# PCOD8171812 Si02
#       5
#     4   4   4   4   4
#     4  12  30  51  79 117 162 207 266 331 405 468
#     4  12  29  49  79 116 162 204 264 333 398 469
#     4  12  28  52  83 118 157 215 270 330 393 493
#     4  12  28  50  84 113 159 209 275 321 401 470
#     4  12  29  52  79 116 158 211 261 329 397 482
#
# _framework density 24.906780000000001
#
# number of rings (size 3 to 8) (size 9 to 14) (size 15 to 20)
#    0.000    0.000    6.000    1.200   14.000    0.000 
#    0.000    0.000    0.000    0.000    0.000    0.000 
#    0.000    0.000    0.000    0.000    0.000    0.000 
#
# Total GULP energy -248084.929241 kJ/mol
# GULP energy per Si atom -12404.246462 kJ/mol
# Density = 2.485009 g / cm^3
# Si number density = 24.906780 Si / 1000 Ang^3
#
#
#
# Elastic Constant Matrix: (Units=GPa)
#
#
# Indices 1 2 3 4 5 6 
#
# 1 97.4159 34.5287 13.1583 0.0000 0.0000 0.0000
# 2 34.5287 116.1072 21.0543 0.0000 0.0000 0.0000
# 3 13.1583 21.0543 95.8342 0.0000 0.0000 0.0000
# 4 0.0000 0.0000 0.0000 41.3394 0.0000 0.0000
# 5 0.0000 0.0000 0.0000 0.0000 42.6047 0.0000
# 6 0.0000 0.0000 0.0000 0.0000 0.0000 24.3737
#
#
#
# Elastic Compliance Matrix: (Units=1/GPa)
#
#
# Indices 1 2 3 4 5 6 
#
# 1 0.011543 -0.003276 -0.000865 0.000000 0.000000 0.000000
# 2 -0.003276 0.009900 -0.001725 0.000000 0.000000 0.000000
# 3 -0.000865 -0.001725 0.010932 0.000000 0.000000 0.000000
# 4 0.000000 0.000000 0.000000 0.024190 0.000000 0.000000
# 5 0.000000 0.000000 0.000000 0.000000 0.023472 0.000000
# 6 0.000000 0.000000 0.000000 0.000000 0.000000 0.041028
#
#
# Mechanical properties :
#
#
# Convention : Reuss Voigt Hill
#
# Bulk Modulus (GPa) = 48.44264 49.64890 49.04577
# Shear Modulus (GPa) = 35.79646 37.70460 36.75053
#
# Velocity S-wave (km/s) = 3.79518 3.89502 3.84542
# Velocity P-wave (km/s) = 6.22064 6.34077 6.28099
#
# Compressibility (1/GPa) = 0.02064297
#
# Stress axis : x y z
#
# Youngs Moduli (GPa) = 86.63055 101.01237 91.47051
#
# Poissons Ratio (x) = 0.33091 0.07914
# Poissons Ratio (y) = 0.28379 0.15780
# Poissons Ratio (z) = 0.07495 0.17426
#
# Static dielectric constant tensor:
#      x y z
#    x 4.378180 0.000000 0.000000 
#    y 0.000000 4.997620 0.000000 
#    z 0.000000 0.000000 4.483170 
# 
# 
# High freq. dielectric constant tensor:
#      x y z
#    x 1.989260 0.000000 0.000000 
#    y 0.000000 2.014620 0.000000 
#    z 0.000000 0.000000 1.991180 
# 
# From -- ./inp_files/390.got.cif
#   From: 2010.03.12/outbox.cif.g09.slc.cpg/sg33_1_cif.got.tgz:390.got - 2010.04.14 01:49:19.
