data_PCOD8171975
_publ_section_title
;
Structure prediction by ZEFSAII (Michael W. Deem and Ramdas Pophale) SiO2 
 PCOD8171975
Probable space group: P N N 2
;
_chemical_formula_sum "Si O2"
_cell_formula_units_Z 32
_cell_length_a 14.693350
_cell_length_b 8.624254
_cell_length_c 11.789548
_cell_angle_alpha 90.000000
_cell_angle_beta 90.000000
_cell_angle_gamma 90.000000
_cell_volume 1493.961885
_symmetry_space_group_name_H-M "P N N 2"
_symmetry_group_IT_number 34
_symmetry_cell_setting 'orthorhombic'
loop_
_space_group_symop_operation_xyz
x,y,z
-x,-y,z
1/2-x,1/2+y,1/2+z
1/2+x,1/2-y,1/2+z
loop_
_atom_site_type_symbol
_atom_site_label
_atom_site_fract_x
_atom_site_fract_y
_atom_site_fract_z
Si Si1 0.940465 0.280409 0.268490
Si Si2 0.576000 0.627228 0.534636
Si Si3 0.468785 0.325025 0.294705
Si Si4 0.131291 0.377206 0.307874
Si Si5 0.700607 0.571914 0.166244
Si Si6 0.778618 0.535096 0.527574
Si Si7 0.339684 0.774862 0.239109
Si Si8 0.796053 0.199377 0.434763
O O1 0.916535 0.244348 0.138972
O O2 0.908552 0.452885 0.291936
O O3 0.882681 0.170480 0.352646
O O4 0.048224 0.256458 0.291782
O O5 0.500000 0.500000 0.562264
O O6 0.556512 0.730213 0.421964
O O7 0.670579 0.539975 0.514725
O O8 0.500000 0.500000 0.311327
O O9 0.384291 0.323497 0.208443
O O10 0.550667 0.220345 0.246199
O O11 0.208772 0.345832 0.214358
O O12 0.173907 0.356511 0.432733
O O13 0.696964 0.394913 0.206894
O O14 0.704125 0.565773 0.029770
O O15 0.810714 0.593692 0.650327
O O16 0.806651 0.358234 0.505887
O O17 0.296319 0.811957 0.361570
#
# Coordination Sequence:
#
# PCOD8171975 Si02
#       8
#     4   4   4   4   4   4   4   4
#     4  10  22  40  60  89 127 161 207 254 313 380
#     4  11  20  37  64  92 122 157 209 265 312 363
#     4   9  20  37  63  89 117 160 204 251 312 362
#     4  10  21  40  63  86 120 176 199 247 324 376
#     4  11  21  41  64  88 124 160 210 255 307 371
#     4  11  21  42  66  86 127 169 206 258 315 377
#     4  11  22  44  62  91 125 162 204 259 310 369
#     4  11  23  41  63  92 125 162 208 255 310 372
#
# _framework density 21.419556
#
# number of rings (size 3 to 8) (size 9 to 14) (size 15 to 20)
#    0.000    1.500    5.000    1.500    5.250    0.000 
#    4.500    0.000    0.000    0.000    0.000    0.000 
#    0.000    0.000    0.000    0.000    0.000    0.000 
#
# Total GULP energy -396818.780161 kJ/mol
# GULP energy per Si atom -12400.586880 kJ/mol
# Density = 2.137080 g / cm^3
# Si number density = 21.419556 Si / 1000 Ang^3
#
#
#
# Elastic Constant Matrix: (Units=GPa)
#
#
# Indices 1 2 3 4 5 6 
#
# 1 149.2957 12.1303 47.2067 0.0000 0.0000 0.0000
# 2 12.1303 18.0550 21.8278 0.0000 0.0000 0.0000
# 3 47.2067 21.8278 156.3601 0.0000 0.0000 0.0000
# 4 0.0000 0.0000 0.0000 33.5473 0.0000 0.0000
# 5 0.0000 0.0000 0.0000 0.0000 39.2547 0.0000
# 6 0.0000 0.0000 0.0000 0.0000 0.0000 16.8667
#
#
#
# Elastic Compliance Matrix: (Units=1/GPa)
#
#
# Indices 1 2 3 4 5 6 
#
# 1 0.007519 -0.002776 -0.001883 0.000000 0.000000 0.000000
# 2 -0.002776 0.067656 -0.008607 0.000000 0.000000 0.000000
# 3 -0.001883 -0.008607 0.008165 0.000000 0.000000 0.000000
# 4 0.000000 0.000000 0.000000 0.029809 0.000000 0.000000
# 5 0.000000 0.000000 0.000000 0.000000 0.025475 0.000000
# 6 0.000000 0.000000 0.000000 0.000000 0.000000 0.059288
#
#
# Mechanical properties :
#
#
# Convention : Reuss Voigt Hill
#
# Bulk Modulus (GPa) = 17.60236 54.00450 35.80343
# Shear Modulus (GPa) = 20.54410 34.10350 27.32380
#
# Velocity S-wave (km/s) = 3.10034 3.99452 3.57550
# Velocity P-wave (km/s) = 4.58823 6.82220 5.81353
#
# Compressibility (1/GPa) = 0.05681056
#
# Stress axis : x y z
#
# Youngs Moduli (GPa) = 132.99831 14.78060 122.46865
#
# Poissons Ratio (x) = 0.04103 0.23055
# Poissons Ratio (y) = 0.36916 1.05406
# Poissons Ratio (z) = 0.25038 0.12721
#
# Static dielectric constant tensor:
#      x y z
#    x 4.428430 0.000000 0.000000 
#    y 0.000000 3.315580 0.000000 
#    z 0.000000 0.000000 4.057110 
# 
# 
# High freq. dielectric constant tensor:
#      x y z
#    x 1.860240 0.000000 0.000000 
#    y 0.000000 1.793260 0.000000 
#    z 0.000000 0.000000 1.853990 
# 
# From -- ./inp_files/5103.got.cif
#   From: 2010.03.12/outbox.cif.g09.slc.cpg/sg34_3_cif.got.tgz:5103.got - 2010.04.14 01:56:33.
