data_PCOD8171602
_publ_section_title
;
Structure prediction by ZEFSAII (Michael W. Deem and Ramdas Pophale) SiO2 
 PCOD8171602
Probable space group: P N A 21
;
_chemical_formula_sum "Si O2"
_cell_formula_units_Z 28
_cell_length_a 23.401654
_cell_length_b 9.247898
_cell_length_c 5.206144
_cell_angle_alpha 90.000000
_cell_angle_beta 90.000000
_cell_angle_gamma 90.000000
_cell_volume 1126.693429
_symmetry_space_group_name_H-M "P N A 21"
_symmetry_group_IT_number 33
_symmetry_cell_setting 'orthorhombic'
loop_
_space_group_symop_operation_xyz
x,y,z
-x,-y,1/2+z
1/2-x,1/2+y,1/2+z
1/2+x,1/2-y,z
loop_
_atom_site_type_symbol
_atom_site_label
_atom_site_fract_x
_atom_site_fract_y
_atom_site_fract_z
Si Si1 0.347269 0.522130 0.548590
Si Si2 0.032639 0.966301 0.837585
Si Si3 0.178665 0.342034 0.057843
Si Si4 0.632926 0.905754 0.401823
Si Si5 0.067610 0.412433 0.776379
Si Si6 0.193151 0.866553 0.539253
Si Si7 0.459205 0.178806 0.558736
O O1 0.411875 0.547805 0.448501
O O2 0.321181 0.675161 0.644255
O O3 0.313058 0.446761 0.313352
O O4 0.345177 0.431803 0.811659
O O5 0.044450 0.793106 0.825921
O O6 0.982366 0.990554 0.047475
O O7 0.167265 0.459997 0.278554
O O8 0.241157 0.376894 0.945817
O O9 0.129336 0.346792 0.842627
O O10 0.675149 0.803606 0.569252
O O11 0.600557 0.796954 0.206159
O O12 0.580005 0.972106 0.555380
O O13 0.020236 0.290894 0.704432
O O14 0.039282 0.507543 0.001079
#
# Coordination Sequence:
#
# PCOD8171602 Si02
#       7
#     4   4   4   4   4   4   4
#     4  12  28  51  74 111 149 194 249 305 373 442
#     4  12  27  44  74 105 149 191 237 298 371 439
#     4  11  29  45  74 109 141 197 252 311 366 440
#     4  11  25  47  75 107 146 198 248 304 378 444
#     4  11  24  42  73 106 146 186 247 306 373 442
#     4  12  28  50  76 104 152 198 248 308 372 446
#     4  11  23  43  70 106 143 190 241 304 371 449
#
# _framework density 24.851479000000001
#
# number of rings (size 3 to 8) (size 9 to 14) (size 15 to 20)
#    0.000    0.571    2.857    3.429   12.000    0.000 
#    0.000    0.000    0.000    0.000    0.000    0.000 
#    0.000    0.000    0.000    0.000    0.000    0.000 
#
# Total GULP energy -346940.654908 kJ/mol
# GULP energy per Si atom -12390.737675 kJ/mol
# Density = 2.479492 g / cm^3
# Si number density = 24.851479 Si / 1000 Ang^3
#
#
#
# Elastic Constant Matrix: (Units=GPa)
#
#
# Indices 1 2 3 4 5 6 
#
# 1 118.2807 24.4294 0.8488 0.0000 0.0000 0.0000
# 2 24.4294 116.1955 18.8921 0.0000 0.0000 0.0000
# 3 0.8488 18.8921 66.8447 0.0000 0.0000 0.0000
# 4 0.0000 0.0000 0.0000 28.5657 0.0000 0.0000
# 5 0.0000 0.0000 0.0000 0.0000 32.8121 0.0000
# 6 0.0000 0.0000 0.0000 0.0000 0.0000 30.8196
#
#
#
# Elastic Compliance Matrix: (Units=1/GPa)
#
#
# Indices 1 2 3 4 5 6 
#
# 1 0.008850 -0.001931 0.000433 0.000000 0.000000 0.000000
# 2 -0.001931 0.009442 -0.002644 0.000000 0.000000 0.000000
# 3 0.000433 -0.002644 0.015702 0.000000 0.000000 0.000000
# 4 0.000000 0.000000 0.000000 0.035007 0.000000 0.000000
# 5 0.000000 0.000000 0.000000 0.000000 0.030477 0.000000
# 6 0.000000 0.000000 0.000000 0.000000 0.000000 0.032447
#
#
# Mechanical properties :
#
#
# Convention : Reuss Voigt Hill
#
# Bulk Modulus (GPa) = 38.89459 43.29570 41.09514
# Shear Modulus (GPa) = 33.60702 35.58285 34.59493
#
# Velocity S-wave (km/s) = 3.68137 3.78804 3.73509
# Velocity P-wave (km/s) = 5.80989 6.04913 5.93072
#
# Compressibility (1/GPa) = 0.02571052
#
# Stress axis : x y z
#
# Youngs Moduli (GPa) = 112.99157 105.90861 63.68685
#
# Poissons Ratio (x) = 0.20453 -0.02760
# Poissons Ratio (y) = 0.21821 0.16839
# Poissons Ratio (z) = -0.04897 0.28003
#
# Static dielectric constant tensor:
#      x y z
#    x 4.460120 0.000000 0.000000 
#    y 0.000000 4.530230 0.000000 
#    z 0.000000 0.000000 4.244790 
# 
# 
# High freq. dielectric constant tensor:
#      x y z
#    x 2.001450 0.000000 0.000000 
#    y 0.000000 2.004970 0.000000 
#    z 0.000000 0.000000 1.966760 
# 
# From -- ./inp_files/2244.got.cif
#   From: 2010.03.12/outbox.cif.g09.slc.cpg/sg33_2_cif.got.tgz:2244.got - 2010.04.14 01:49:19.
