data_PCOD8171324
_publ_section_title
;
Structure prediction by ZEFSAII (Michael W. Deem and Ramdas Pophale) SiO2 
 PCOD8171324
Probable space group: P N A 21
;
_chemical_formula_sum "Si O2"
_cell_formula_units_Z 32
_cell_length_a 22.331197
_cell_length_b 12.553190
_cell_length_c 5.112441
_cell_angle_alpha 90.000000
_cell_angle_beta 90.000000
_cell_angle_gamma 90.000000
_cell_volume 1433.159128
_symmetry_space_group_name_H-M "P N A 21"
_symmetry_group_IT_number 33
_symmetry_cell_setting 'orthorhombic'
loop_
_space_group_symop_operation_xyz
x,y,z
-x,-y,1/2+z
1/2-x,1/2+y,1/2+z
1/2+x,1/2-y,z
loop_
_atom_site_type_symbol
_atom_site_label
_atom_site_fract_x
_atom_site_fract_y
_atom_site_fract_z
Si Si1 0.807409 0.333648 0.967000
Si Si2 0.828821 0.098716 0.018747
Si Si3 0.933645 0.864850 0.651258
Si Si4 0.546461 0.593756 0.331331
Si Si5 0.812479 0.957230 0.518287
Si Si6 0.879890 0.397414 0.458130
Si Si7 0.029664 0.452364 0.836766
Si Si8 0.005172 0.733111 0.013126
O O1 0.854520 0.368547 0.743744
O O2 0.791972 0.207829 0.975745
O O3 0.745506 0.394492 0.925801
O O4 0.830566 0.366807 0.250073
O O5 0.897820 0.138074 0.996691
O O6 0.822407 0.049733 0.306115
O O7 0.807427 0.014095 0.800236
O O8 0.866781 0.870675 0.531305
O O9 0.981042 0.874383 0.423568
O O10 0.948963 0.759005 0.820209
O O11 0.943327 0.968582 0.830651
O O12 0.543636 0.657676 0.058136
O O13 0.901137 0.521395 0.427849
O O14 0.944149 0.342883 0.392317
O O15 0.015897 0.516454 0.567165
O O16 0.022918 0.325796 0.770576
#
# Coordination Sequence:
#
# PCOD8171324 Si02
#       8
#     4   4   4   4   4   4   4   4
#     4  12  24  46  75  97 133 189 241 279 338 416
#     4  11  24  44  73  99 132 178 233 286 337 408
#     4  11  23  38  64 101 142 177 216 286 353 418
#     4  11  21  37  65  99 130 174 224 272 342 411
#     4  11  27  46  66 101 142 175 226 290 342 405
#     4  11  23  43  72 102 131 185 240 284 329 419
#     4  10  23  41  63  99 143 173 220 290 348 400
#     4  11  23  39  66 104 137 181 220 285 355 413
#
# _framework density 22.328294
#
# number of rings (size 3 to 8) (size 9 to 14) (size 15 to 20)
#    0.000    1.000    2.500    4.500    8.750    0.000 
#    2.250    1.250    0.000    0.000    0.000    0.000 
#    0.000    0.000    0.000    0.000    0.000    0.000 
#
# Total GULP energy -396450.523975 kJ/mol
# GULP energy per Si atom -12389.078874 kJ/mol
# Density = 2.227747 g / cm^3
# Si number density = 22.328294 Si / 1000 Ang^3
#
#
#
# Elastic Constant Matrix: (Units=GPa)
#
#
# Indices 1 2 3 4 5 6 
#
# 1 107.6164 62.7466 25.9956 0.0000 0.0000 0.0000
# 2 62.7466 48.9345 13.9512 0.0000 0.0000 0.0000
# 3 25.9956 13.9512 93.2319 0.0000 0.0000 0.0000
# 4 0.0000 0.0000 0.0000 28.6983 0.0000 0.0000
# 5 0.0000 0.0000 0.0000 0.0000 25.7373 0.0000
# 6 0.0000 0.0000 0.0000 0.0000 0.0000 29.5670
#
#
#
# Elastic Compliance Matrix: (Units=1/GPa)
#
#
# Indices 1 2 3 4 5 6 
#
# 1 0.037846 -0.047548 -0.003437 0.000000 0.000000 0.000000
# 2 -0.047548 0.081084 0.001124 0.000000 0.000000 0.000000
# 3 -0.003437 0.001124 0.011516 0.000000 0.000000 0.000000
# 4 0.000000 0.000000 0.000000 0.034845 0.000000 0.000000
# 5 0.000000 0.000000 0.000000 0.000000 0.038854 0.000000
# 6 0.000000 0.000000 0.000000 0.000000 0.000000 0.033822
#
#
# Mechanical properties :
#
#
# Convention : Reuss Voigt Hill
#
# Bulk Modulus (GPa) = 32.54832 50.57439 41.56136
# Shear Modulus (GPa) = 14.37069 26.60647 20.48858
#
# Velocity S-wave (km/s) = 2.53970 3.45571 3.03249
# Velocity P-wave (km/s) = 4.81756 6.21467 5.56017
#
# Compressibility (1/GPa) = 0.03072355
#
# Stress axis : x y z
#
# Youngs Moduli (GPa) = 26.42293 12.33291 86.83473
#
# Poissons Ratio (x) = 0.58641 0.29849
# Poissons Ratio (y) = 1.25636 -0.09764
# Poissons Ratio (z) = 0.09083 -0.01387
#
# Static dielectric constant tensor:
#      x y z
#    x 4.043420 0.000000 0.000000 
#    y 0.000000 4.585230 0.000000 
#    z 0.000000 0.000000 3.951840 
# 
# 
# High freq. dielectric constant tensor:
#      x y z
#    x 1.859070 0.000000 0.000000 
#    y 0.000000 1.885100 0.000000 
#    z 0.000000 0.000000 1.888030 
# 
# From -- ./inp_files/2297.got.cif
#   From: 2010.03.12/outbox.cif.g09.slc.cpg/sg33_2_cif.got.tgz:2297.got - 2010.04.14 01:49:19.
