data_PCOD8171861
_publ_section_title
;
Structure prediction by ZEFSAII (Michael W. Deem and Ramdas Pophale) SiO2 
 PCOD8171861
Probable space group: P N N 2
;
_chemical_formula_sum "Si O2"
_cell_formula_units_Z 32
_cell_length_a 8.814440
_cell_length_b 10.678082
_cell_length_c 15.615244
_cell_angle_alpha 90.000000
_cell_angle_beta 90.000000
_cell_angle_gamma 90.000000
_cell_volume 1469.727270
_symmetry_space_group_name_H-M "P N N 2"
_symmetry_group_IT_number 34
_symmetry_cell_setting 'orthorhombic'
loop_
_space_group_symop_operation_xyz
x,y,z
-x,-y,z
1/2-x,1/2+y,1/2+z
1/2+x,1/2-y,1/2+z
loop_
_atom_site_type_symbol
_atom_site_label
_atom_site_fract_x
_atom_site_fract_y
_atom_site_fract_z
Si Si1 0.450891 0.768111 0.365180
Si Si2 0.801773 0.168400 0.247638
Si Si3 0.205425 0.898274 0.798716
Si Si4 0.450891 0.731889 0.871071
Si Si5 0.662765 0.558386 0.569718
Si Si6 0.301773 0.168398 0.488612
Si Si7 0.662765 0.941616 0.666532
Si Si8 0.294575 0.101727 0.937535
O O1 0.361996 0.847831 0.292707
O O2 0.538137 0.655105 0.316282
O O3 0.565251 0.856305 0.418994
O O4 0.326858 0.713986 0.431093
O O5 0.810973 0.068760 0.171289
O O6 0.823685 0.309231 0.213677
O O7 0.934749 0.143697 0.317255
O O8 0.326857 0.786015 0.805158
O O9 0.212779 0.961929 0.704761
O O10 0.250001 0.000003 0.868123
O O11 0.538137 0.844894 0.919970
O O12 0.361996 0.652167 0.943543
O O13 0.500000 0.500000 0.549280
O O14 0.676312 0.690770 0.522572
O O15 0.787221 0.461932 0.531489
O O16 0.310974 0.068758 0.564961
O O17 0.500000 0.000000 0.686971
#
# Coordination Sequence:
#
# PCOD8171861 Si02
#       8
#     4   4   4   4   4   4   4   4
#     4  10  19  34  59  88 111 156 196 245 294 353
#     4  10  22  34  60  84 123 151 199 245 297 353
#     4  11  17  30  60  86 114 147 194 243 298 341
#     4  10  19  34  59  88 111 156 196 245 294 353
#     4  11  20  35  57  90 119 154 196 248 298 347
#     4  10  22  34  60  84 123 151 199 245 297 353
#     4  11  20  35  57  90 119 154 196 248 298 347
#     4  11  17  30  60  86 114 147 194 243 298 341
#
# _framework density 21.772746999999999
#
# number of rings (size 3 to 8) (size 9 to 14) (size 15 to 20)
#    0.000    1.500    7.500    0.750    0.000    0.000 
#    0.000    1.250   33.000    0.000    0.000    0.000 
#    0.000    0.000    0.000    0.000    0.000    0.000 
#
# Total GULP energy -396739.768815 kJ/mol
# GULP energy per Si atom -12398.117775 kJ/mol
# Density = 2.172319 g / cm^3
# Si number density = 21.772747 Si / 1000 Ang^3
#
#
#
# Elastic Constant Matrix: (Units=GPa)
#
#
# Indices 1 2 3 4 5 6 
#
# 1 103.7665 8.8761 48.2005 0.0000 0.0000 0.0000
# 2 8.8761 22.3492 29.1791 0.0000 0.0000 0.0000
# 3 48.2005 29.1791 139.7173 0.0000 0.0000 0.0000
# 4 0.0000 0.0000 0.0000 49.2929 0.0000 0.0000
# 5 0.0000 0.0000 0.0000 0.0000 36.8124 0.0000
# 6 0.0000 0.0000 0.0000 0.0000 0.0000 9.9913
#
#
#
# Elastic Compliance Matrix: (Units=1/GPa)
#
#
# Indices 1 2 3 4 5 6 
#
# 1 0.011488 0.000841 -0.004139 0.000000 0.000000 0.000000
# 2 0.000841 0.061580 -0.013151 0.000000 0.000000 0.000000
# 3 -0.004139 -0.013151 0.011332 0.000000 0.000000 0.000000
# 4 0.000000 0.000000 0.000000 0.020287 0.000000 0.000000
# 5 0.000000 0.000000 0.000000 0.000000 0.027165 0.000000
# 6 0.000000 0.000000 0.000000 0.000000 0.000000 0.100087
#
#
# Mechanical properties :
#
#
# Convention : Reuss Voigt Hill
#
# Bulk Modulus (GPa) = 19.41654 48.70493 34.06074
# Shear Modulus (GPa) = 17.73037 31.19115 24.46076
#
# Velocity S-wave (km/s) = 2.85676 3.78905 3.35544
# Velocity P-wave (km/s) = 4.45181 6.44676 5.53983
#
# Compressibility (1/GPa) = 0.05150248
#
# Stress axis : x y z
#
# Youngs Moduli (GPa) = 87.05083 16.23901 88.24899
#
# Poissons Ratio (x) = -0.01366 0.36524
# Poissons Ratio (y) = -0.07322 1.16055
# Poissons Ratio (z) = 0.36028 0.21356
#
# Static dielectric constant tensor:
#      x y z
#    x 4.063520 0.000000 0.000000 
#    y 0.000000 3.596990 0.000000 
#    z 0.000000 0.000000 4.374540 
# 
# 
# High freq. dielectric constant tensor:
#      x y z
#    x 1.859630 0.000000 0.000000 
#    y 0.000000 1.819950 0.000000 
#    z 0.000000 0.000000 1.850020 
# 
# From -- ./inp_files/6634.got.cif
#   From: 2010.03.12/outbox.cif.g09.slc.cpg/sg34_4_cif.got.tgz:6634.got - 2010.04.14 01:56:33.
