data_PCOD8171113
_publ_section_title
;
Structure prediction by ZEFSAII (Michael W. Deem and Ramdas Pophale) SiO2 
 PCOD8171113
Probable space group: P N A 21
;
_chemical_formula_sum "Si O2"
_cell_formula_units_Z 28
_cell_length_a 9.700433
_cell_length_b 15.682645
_cell_length_c 8.612942
_cell_angle_alpha 90.000000
_cell_angle_beta 90.000000
_cell_angle_gamma 90.000000
_cell_volume 1310.273491
_symmetry_space_group_name_H-M "P N A 21"
_symmetry_group_IT_number 33
_symmetry_cell_setting 'orthorhombic'
loop_
_space_group_symop_operation_xyz
x,y,z
-x,-y,1/2+z
1/2-x,1/2+y,1/2+z
1/2+x,1/2-y,z
loop_
_atom_site_type_symbol
_atom_site_label
_atom_site_fract_x
_atom_site_fract_y
_atom_site_fract_z
Si Si1 0.054526 0.117821 0.299550
Si Si2 0.764483 0.525988 0.219283
Si Si3 0.022233 0.745479 0.556441
Si Si4 0.038173 0.611235 0.810093
Si Si5 0.240054 0.892564 0.909571
Si Si6 0.239397 0.703450 0.027083
Si Si7 0.770503 0.713676 0.346384
O O1 0.121833 0.162789 0.452184
O O2 0.057859 0.183548 0.157022
O O3 0.899432 0.084082 0.320953
O O4 0.136266 0.032567 0.262605
O O5 0.904376 0.483554 0.282699
O O6 0.745665 0.620115 0.281825
O O7 0.770544 0.534274 0.034413
O O8 0.079698 0.670181 0.665711
O O9 0.161676 0.779331 0.483062
O O10 0.923043 0.716720 0.417495
O O11 0.873689 0.607467 0.801427
O O12 0.104181 0.649572 0.970591
O O13 0.216008 0.798588 0.971917
O O14 0.253788 0.711420 0.214736
#
# Coordination Sequence:
#
# PCOD8171113 Si02
#       7
#     4   4   4   4   4   4   4
#     4  11  23  46  71  97 131 184 226 273 339 419
#     4  10  27  42  63 101 142 166 223 278 352 385
#     4  12  24  44  72 100 132 176 234 282 330 400
#     4  11  23  46  71  97 131 184 226 273 339 419
#     4  11  21  41  70  95 128 178 224 270 322 417
#     4  10  21  43  70  96 127 177 222 271 337 416
#     4  11  27  42  67 104 137 169 223 297 337 392
#
# _framework density 21.369584
#
# number of rings (size 3 to 8) (size 9 to 14) (size 15 to 20)
#    0.000    1.143    2.857    2.571   12.000    0.000 
#    0.000    0.000    0.000    0.000    0.000    0.000 
#    0.000    0.000    0.000    0.000    0.000    0.000 
#
# Total GULP energy -347143.014415 kJ/mol
# GULP energy per Si atom -12397.964801 kJ/mol
# Density = 2.132095 g / cm^3
# Si number density = 21.369584 Si / 1000 Ang^3
#
#
#
# Elastic Constant Matrix: (Units=GPa)
#
#
# Indices 1 2 3 4 5 6 
#
# 1 103.6197 16.5954 6.9901 0.0000 0.0000 0.0000
# 2 16.5954 89.0063 33.6061 0.0000 0.0000 0.0000
# 3 6.9901 33.6061 87.2395 0.0000 0.0000 0.0000
# 4 0.0000 0.0000 0.0000 35.7975 0.0000 0.0000
# 5 0.0000 0.0000 0.0000 0.0000 31.4684 0.0000
# 6 0.0000 0.0000 0.0000 0.0000 0.0000 15.0452
#
#
#
# Elastic Compliance Matrix: (Units=1/GPa)
#
#
# Indices 1 2 3 4 5 6 
#
# 1 0.009948 -0.001818 -0.000097 0.000000 0.000000 0.000000
# 2 -0.001818 0.013480 -0.005047 0.000000 0.000000 0.000000
# 3 -0.000097 -0.005047 0.013415 0.000000 0.000000 0.000000
# 4 0.000000 0.000000 0.000000 0.027935 0.000000 0.000000
# 5 0.000000 0.000000 0.000000 0.000000 0.031778 0.000000
# 6 0.000000 0.000000 0.000000 0.000000 0.000000 0.066466
#
#
# Mechanical properties :
#
#
# Convention : Reuss Voigt Hill
#
# Bulk Modulus (GPa) = 43.63222 43.80539 43.71881
# Shear Modulus (GPa) = 27.08773 31.30715 29.19744
#
# Velocity S-wave (km/s) = 3.56418 3.83173 3.70037
# Velocity P-wave (km/s) = 6.11556 6.33401 6.22574
#
# Compressibility (1/GPa) = 0.02291884
#
# Stress axis : x y z
#
# Youngs Moduli (GPa) = 100.51841 74.18524 74.54564
#
# Poissons Ratio (x) = 0.13490 0.00720
# Poissons Ratio (y) = 0.18278 0.37623
# Poissons Ratio (z) = 0.00971 0.37441
#
# Static dielectric constant tensor:
#      x y z
#    x 3.909410 0.000000 0.000000 
#    y 0.000000 3.905160 0.000000 
#    z 0.000000 0.000000 4.084130 
# 
# 
# High freq. dielectric constant tensor:
#      x y z
#    x 1.852310 0.000000 0.000000 
#    y 0.000000 1.834210 0.000000 
#    z 0.000000 0.000000 1.835170 
# 
# From -- ./inp_files/3353.got.cif
#   From: 2010.03.12/outbox.cif.g09.slc.cpg/sg33_2_cif.got.tgz:3353.got - 2010.04.14 01:49:19.
