data_PCOD8171016
_publ_section_title
;
Structure prediction by ZEFSAII (Michael W. Deem and Ramdas Pophale) SiO2 
 PCOD8171016
Probable space group: P N A 21
;
_chemical_formula_sum "Si O2"
_cell_formula_units_Z 28
_cell_length_a 9.949087
_cell_length_b 5.367024
_cell_length_c 19.084706
_cell_angle_alpha 90.000000
_cell_angle_beta 90.000000
_cell_angle_gamma 90.000000
_cell_volume 1019.065831
_symmetry_space_group_name_H-M "P N A 21"
_symmetry_group_IT_number 33
_symmetry_cell_setting 'orthorhombic'
loop_
_space_group_symop_operation_xyz
x,y,z
-x,-y,1/2+z
1/2-x,1/2+y,1/2+z
1/2+x,1/2-y,z
loop_
_atom_site_type_symbol
_atom_site_label
_atom_site_fract_x
_atom_site_fract_y
_atom_site_fract_z
Si Si1 0.019601 0.948500 0.355240
Si Si2 0.605614 0.044413 0.389006
Si Si3 0.562745 0.035771 0.021074
Si Si4 0.352242 0.741203 0.724089
Si Si5 0.720083 0.258699 0.761907
Si Si6 0.388923 0.079095 0.152647
Si Si7 0.354019 0.458271 0.483329
O O1 0.135000 0.729730 0.354098
O O2 0.888630 0.823658 0.321594
O O3 0.990285 0.014523 0.437153
O O4 0.063671 0.236248 0.331157
O O5 0.480631 0.991346 0.440165
O O6 0.734741 0.123028 0.432119
O O7 0.637042 0.772825 0.038722
O O8 0.659567 0.279920 0.026007
O O9 0.434090 0.049026 0.072485
O O10 0.503507 0.753245 0.695555
O O11 0.322811 0.485586 0.771216
O O12 0.252164 0.726913 0.656431
O O13 0.312139 0.997158 0.761575
O O14 0.633402 0.189900 0.691674
#
# Coordination Sequence:
#
# PCOD8171016 Si02
#       7
#     4   4   4   4   4   4   4
#     4  10  21  42  61  94 125 168 219 279 333 401
#     4  10  21  39  64  94 125 169 217 276 338 401
#     4  10  23  37  63  90 133 165 224 268 343 400
#     4  10  25  42  67  96 137 174 233 275 342 408
#     4  10  24  42  66  96 137 176 233 278 347 403
#     4  10  26  43  68 100 139 185 229 283 346 418
#     4  10  22  39  61  94 126 169 221 273 343 401
#
# _framework density 27.476147999999998
#
# number of rings (size 3 to 8) (size 9 to 14) (size 15 to 20)
#    0.857    1.143    0.000    1.714    6.000    2.286 
#    0.000    0.000    0.000    0.000    0.000    0.000 
#    0.000    0.000    0.000    0.000    0.000    0.000 
#
# Total GULP energy -346950.191340 kJ/mol
# GULP energy per Si atom -12391.078262 kJ/mol
# Density = 2.741361 g / cm^3
# Si number density = 27.476148 Si / 1000 Ang^3
#
#
#
# Elastic Constant Matrix: (Units=GPa)
#
#
# Indices 1 2 3 4 5 6 
#
# 1 77.5379 46.5439 3.2980 0.0000 0.0000 0.0000
# 2 46.5439 239.0480 49.7712 0.0000 0.0000 0.0000
# 3 3.2980 49.7712 85.4250 0.0000 0.0000 0.0000
# 4 0.0000 0.0000 0.0000 35.3893 0.0000 0.0000
# 5 0.0000 0.0000 0.0000 0.0000 48.2849 0.0000
# 6 0.0000 0.0000 0.0000 0.0000 0.0000 39.8951
#
#
#
# Elastic Compliance Matrix: (Units=1/GPa)
#
#
# Indices 1 2 3 4 5 6 
#
# 1 0.014721 -0.003127 0.001254 0.000000 0.000000 0.000000
# 2 -0.003127 0.005425 -0.003040 0.000000 0.000000 0.000000
# 3 0.001254 -0.003040 0.013429 0.000000 0.000000 0.000000
# 4 0.000000 0.000000 0.000000 0.028257 0.000000 0.000000
# 5 0.000000 0.000000 0.000000 0.000000 0.020710 0.000000
# 6 0.000000 0.000000 0.000000 0.000000 0.000000 0.025066
#
#
# Mechanical properties :
#
#
# Convention : Reuss Voigt Hill
#
# Bulk Modulus (GPa) = 42.10943 66.80412 54.45678
# Shear Modulus (GPa) = 39.88788 44.87373 42.38081
#
# Velocity S-wave (km/s) = 3.81429 4.04566 3.93167
# Velocity P-wave (km/s) = 5.89555 6.79628 6.36187
#
# Compressibility (1/GPa) = 0.02374765
#
# Stress axis : x y z
#
# Youngs Moduli (GPa) = 67.93109 184.32779 74.46555
#
# Poissons Ratio (x) = 0.57644 -0.09336
# Poissons Ratio (y) = 0.21244 0.22638
# Poissons Ratio (z) = -0.08517 0.56038
#
# Static dielectric constant tensor:
#      x y z
#    x 4.773980 0.000000 0.000000 
#    y 0.000000 5.791900 0.000000 
#    z 0.000000 0.000000 4.945750 
# 
# 
# High freq. dielectric constant tensor:
#      x y z
#    x 2.106830 0.000000 0.000000 
#    y 0.000000 2.145950 0.000000 
#    z 0.000000 0.000000 2.119540 
# 
# From -- ./inp_files/9045.got.cif
#   From: 2010.03.12/outbox.cif.g09.slc.cpg/sg33_5_cif.got.tgz:9045.got - 2010.04.14 01:49:19.
