data_PCOD8171547
_publ_section_title
;
Structure prediction by ZEFSAII (Michael W. Deem and Ramdas Pophale) SiO2 
 PCOD8171547
Probable space group: P N A 21
;
_chemical_formula_sum "Si O2"
_cell_formula_units_Z 20
_cell_length_a 9.178322
_cell_length_b 11.818549
_cell_length_c 8.350627
_cell_angle_alpha 90.000000
_cell_angle_beta 90.000000
_cell_angle_gamma 90.000000
_cell_volume 905.829657
_symmetry_space_group_name_H-M "P N A 21"
_symmetry_group_IT_number 33
_symmetry_cell_setting 'orthorhombic'
loop_
_space_group_symop_operation_xyz
x,y,z
-x,-y,1/2+z
1/2-x,1/2+y,1/2+z
1/2+x,1/2-y,z
loop_
_atom_site_type_symbol
_atom_site_label
_atom_site_fract_x
_atom_site_fract_y
_atom_site_fract_z
Si Si1 0.369478 0.676762 0.142480
Si Si2 0.658873 0.683315 0.330159
Si Si3 0.566109 0.836336 0.598422
Si Si4 0.215462 0.448532 0.115491
Si Si5 0.674151 0.270080 0.279025
O O1 0.528080 0.647372 0.212478
O O2 0.301571 0.786714 0.226907
O O3 0.263349 0.570884 0.173844
O O4 0.379485 0.703909 0.955713
O O5 0.620865 0.798368 0.425170
O O6 0.698034 0.582438 0.451897
O O7 0.461359 0.946867 0.583980
O O8 0.468805 0.730357 0.666103
O O9 0.704548 0.860502 0.716143
O O10 0.247927 0.355297 0.254960
#
# Coordination Sequence:
#
# PCOD8171547 Si02
#       5
#     4   4   4   4   4
#     4  12  23  40  67  95 125 165 217 266 306 377
#     4  11  22  41  63  94 130 159 213 264 311 376
#     4   9  18  42  59  82 130 163 196 259 319 372
#     4   9  23  41  63  89 126 170 204 248 338 365
#     4   9  20  38  60  88 123 159 210 257 310 374
#
# _framework density 22.079208000000001
#
# number of rings (size 3 to 8) (size 9 to 14) (size 15 to 20)
#    1.200    0.800    2.000    1.200    0.000    6.400 
#    0.000    2.000    0.000    0.000    0.000    0.000 
#    0.000    0.000    0.000    0.000    0.000    0.000 
#
# Total GULP energy -247782.507084 kJ/mol
# GULP energy per Si atom -12389.125354 kJ/mol
# Density = 2.202895 g / cm^3
# Si number density = 22.079208 Si / 1000 Ang^3
#
#
#
# Elastic Constant Matrix: (Units=GPa)
#
#
# Indices 1 2 3 4 5 6 
#
# 1 96.7416 -15.5725 32.1461 0.0000 0.0000 0.0000
# 2 -15.5725 32.4687 8.3062 0.0000 0.0000 0.0000
# 3 32.1461 8.3062 110.3628 0.0000 0.0000 0.0000
# 4 0.0000 0.0000 0.0000 17.2781 0.0000 0.0000
# 5 0.0000 0.0000 0.0000 0.0000 41.8422 0.0000
# 6 0.0000 0.0000 0.0000 0.0000 0.0000 22.0401
#
#
#
# Elastic Compliance Matrix: (Units=1/GPa)
#
#
# Indices 1 2 3 4 5 6 
#
# 1 0.012951 0.007318 -0.004323 0.000000 0.000000 0.000000
# 2 0.007318 0.035538 -0.004806 0.000000 0.000000 0.000000
# 3 -0.004323 -0.004806 0.010682 0.000000 0.000000 0.000000
# 4 0.000000 0.000000 0.000000 0.057877 0.000000 0.000000
# 5 0.000000 0.000000 0.000000 0.000000 0.023899 0.000000
# 6 0.000000 0.000000 0.000000 0.000000 0.000000 0.045372
#
#
# Mechanical properties :
#
#
# Convention : Reuss Voigt Hill
#
# Bulk Modulus (GPa) = 18.00248 32.14808 25.07528
# Shear Modulus (GPa) = 23.98558 30.54496 27.26527
#
# Velocity S-wave (km/s) = 3.29955 3.72348 3.51790
# Velocity P-wave (km/s) = 4.76312 5.75132 5.28039
#
# Compressibility (1/GPa) = 0.05554791
#
# Stress axis : x y z
#
# Youngs Moduli (GPa) = 77.21263 28.13885 93.61563
#
# Poissons Ratio (x) = -0.20591 0.40471
# Poissons Ratio (y) = -0.56501 0.44993
# Poissons Ratio (z) = 0.33380 0.13524
#
# Static dielectric constant tensor:
#      x y z
#    x 4.076370 0.000000 0.000000 
#    y 0.000000 3.470860 0.000000 
#    z 0.000000 0.000000 3.788880 
# 
# 
# High freq. dielectric constant tensor:
#      x y z
#    x 1.882620 0.000000 0.000000 
#    y 0.000000 1.818320 0.000000 
#    z 0.000000 0.000000 1.868080 
# 
# From -- ./inp_files/3041.got.cif
#   From: 2010.03.12/outbox.cif.g09.slc.cpg/sg33_2_cif.got.tgz:3041.got - 2010.04.14 01:49:19.
