data_PCOD8171334
_publ_section_title
;
Structure prediction by ZEFSAII (Michael W. Deem and Ramdas Pophale) SiO2 
 PCOD8171334
Probable space group: P N A 21
;
_chemical_formula_sum "Si O2"
_cell_formula_units_Z 20
_cell_length_a 16.732718
_cell_length_b 7.472955
_cell_length_c 6.906820
_cell_angle_alpha 90.000000
_cell_angle_beta 90.000000
_cell_angle_gamma 90.000000
_cell_volume 863.648448
_symmetry_space_group_name_H-M "P N A 21"
_symmetry_group_IT_number 33
_symmetry_cell_setting 'orthorhombic'
loop_
_space_group_symop_operation_xyz
x,y,z
-x,-y,1/2+z
1/2-x,1/2+y,1/2+z
1/2+x,1/2-y,z
loop_
_atom_site_type_symbol
_atom_site_label
_atom_site_fract_x
_atom_site_fract_y
_atom_site_fract_z
Si Si1 0.310172 0.873450 0.593620
Si Si2 0.976826 0.163343 0.819373
Si Si3 0.175552 0.648396 0.400128
Si Si4 0.083536 0.458224 0.732267
Si Si5 0.532090 0.260967 0.238190
O O1 0.236223 0.747678 0.542729
O O2 0.372731 0.769641 0.733383
O O3 0.280062 0.040333 0.726712
O O4 0.348128 0.936585 0.392794
O O5 0.883269 0.210225 0.791247
O O6 0.036179 0.272192 0.672477
O O7 0.991943 0.951788 0.827192
O O8 0.005065 0.245295 0.018229
O O9 0.124571 0.514906 0.533229
O O10 0.019849 0.598489 0.827628
#
# Coordination Sequence:
#
# PCOD8171334 Si02
#       5
#     4   4   4   4   4
#     4  11  26  45  69 103 145 191 231 297 371 421
#     4  10  23  41  72 103 130 182 239 287 349 426
#     4  11  26  45  69 103 145 191 231 297 371 421
#     4  10  24  48  70 100 142 182 238 298 346 430
#     4  10  23  41  72 103 130 182 239 287 349 426
#
# _framework density 23.157571000000001
#
# number of rings (size 3 to 8) (size 9 to 14) (size 15 to 20)
#    0.000    1.600    2.000    0.000    8.400    8.000 
#    0.000    0.000    0.000    0.000    0.000    0.000 
#    0.000    0.000    0.000    0.000    0.000    0.000 
#
# Total GULP energy -247897.039353 kJ/mol
# GULP energy per Si atom -12394.851968 kJ/mol
# Density = 2.310486 g / cm^3
# Si number density = 23.157571 Si / 1000 Ang^3
#
#
#
# Elastic Constant Matrix: (Units=GPa)
#
#
# Indices 1 2 3 4 5 6 
#
# 1 105.1234 37.2313 17.1215 0.0000 0.0000 0.0000
# 2 37.2313 143.0390 19.6735 0.0000 0.0000 0.0000
# 3 17.1215 19.6735 30.2665 0.0000 0.0000 0.0000
# 4 0.0000 0.0000 0.0000 41.0282 0.0000 0.0000
# 5 0.0000 0.0000 0.0000 0.0000 36.5258 0.0000
# 6 0.0000 0.0000 0.0000 0.0000 0.0000 28.0545
#
#
#
# Elastic Compliance Matrix: (Units=1/GPa)
#
#
# Indices 1 2 3 4 5 6 
#
# 1 0.011086 -0.002222 -0.004827 0.000000 0.000000 0.000000
# 2 -0.002222 0.008123 -0.004023 0.000000 0.000000 0.000000
# 3 -0.004827 -0.004023 0.038386 0.000000 0.000000 0.000000
# 4 0.000000 0.000000 0.000000 0.024373 0.000000 0.000000
# 5 0.000000 0.000000 0.000000 0.000000 0.027378 0.000000
# 6 0.000000 0.000000 0.000000 0.000000 0.000000 0.035645
#
#
# Mechanical properties :
#
#
# Convention : Reuss Voigt Hill
#
# Bulk Modulus (GPa) = 28.20836 47.38683 37.79760
# Shear Modulus (GPa) = 27.94072 34.74854 31.34463
#
# Velocity S-wave (km/s) = 3.47731 3.87787 3.68304
# Velocity P-wave (km/s) = 5.32257 6.36849 5.86887
#
# Compressibility (1/GPa) = 0.03545048
#
# Stress axis : x y z
#
# Youngs Moduli (GPa) = 90.20706 123.11210 26.05147
#
# Poissons Ratio (x) = 0.27350 0.12575
# Poissons Ratio (y) = 0.20040 0.10481
# Poissons Ratio (z) = 0.43543 0.49529
#
# Static dielectric constant tensor:
#      x y z
#    x 4.201310 0.000000 0.000000 
#    y 0.000000 4.364640 0.000000 
#    z 0.000000 0.000000 4.137040 
# 
# 
# High freq. dielectric constant tensor:
#      x y z
#    x 1.905120 0.000000 0.000000 
#    y 0.000000 1.918840 0.000000 
#    z 0.000000 0.000000 1.923810 
# 
# From -- ./inp_files/4592.got.cif
#   From: 2010.03.12/outbox.cif.g09.slc.cpg/sg33_3_cif.got.tgz:4592.got - 2010.04.14 01:49:19.
