data_PCOD8171049
_publ_section_title
;
Structure prediction by ZEFSAII (Michael W. Deem and Ramdas Pophale) SiO2 
 PCOD8171049
Probable space group: P N A 21
;
_chemical_formula_sum "Si O2"
_cell_formula_units_Z 28
_cell_length_a 13.053471
_cell_length_b 9.452097
_cell_length_c 10.345053
_cell_angle_alpha 90.000000
_cell_angle_beta 90.000000
_cell_angle_gamma 90.000000
_cell_volume 1276.400303
_symmetry_space_group_name_H-M "P N A 21"
_symmetry_group_IT_number 33
_symmetry_cell_setting 'orthorhombic'
loop_
_space_group_symop_operation_xyz
x,y,z
-x,-y,1/2+z
1/2-x,1/2+y,1/2+z
1/2+x,1/2-y,z
loop_
_atom_site_type_symbol
_atom_site_label
_atom_site_fract_x
_atom_site_fract_y
_atom_site_fract_z
Si Si1 0.469929 0.452310 0.710560
Si Si2 0.421888 0.144646 0.728948
Si Si3 0.701892 0.822452 0.473894
Si Si4 0.375075 0.980921 0.182590
Si Si5 0.889610 0.013259 0.440192
Si Si6 0.781887 0.015033 0.885186
Si Si7 0.252591 0.246249 0.542417
O O1 0.491119 0.285741 0.722011
O O2 0.551321 0.529196 0.803653
O O3 0.471070 0.503017 0.560237
O O4 0.353783 0.477272 0.758862
O O5 0.379794 0.115560 0.871854
O O6 0.500839 0.020946 0.687598
O O7 0.323025 0.154702 0.638179
O O8 0.815739 0.877358 0.439933
O O9 0.702273 0.652016 0.475770
O O10 0.662636 0.876998 0.611819
O O11 0.333678 0.987060 0.329688
O O12 0.331416 0.840335 0.113653
O O13 0.824260 0.156233 0.453182
O O14 0.808191 0.871143 0.960436
#
# Coordination Sequence:
#
# PCOD8171049 Si02
#       7
#     4   4   4   4   4   4   4
#     4  10  21  40  68  95 130 175 220 268 338 400
#     4  10  22  40  65  93 127 175 210 270 341 387
#     4  10  21  44  66  92 131 173 215 270 336 393
#     4  11  22  44  65  92 135 164 220 272 324 410
#     4  10  21  43  66  97 131 174 223 273 332 403
#     4  11  22  43  66  93 129 174 214 275 332 398
#     4  10  23  42  66  92 129 175 216 274 337 391
#
# _framework density 21.936691
#
# number of rings (size 3 to 8) (size 9 to 14) (size 15 to 20)
#    0.000    1.714    5.714    0.857    6.000    0.000 
#   10.286    0.000    0.000    0.000    0.000    0.000 
#    0.000    0.000    0.000    0.000    0.000    0.000 
#
# Total GULP energy -347176.543482 kJ/mol
# GULP energy per Si atom -12399.162267 kJ/mol
# Density = 2.188676 g / cm^3
# Si number density = 21.936691 Si / 1000 Ang^3
#
#
#
# Elastic Constant Matrix: (Units=GPa)
#
#
# Indices 1 2 3 4 5 6 
#
# 1 66.1928 7.4135 22.3407 0.0000 0.0000 0.0000
# 2 7.4135 83.9129 35.6978 0.0000 0.0000 0.0000
# 3 22.3407 35.6978 74.5228 0.0000 0.0000 0.0000
# 4 0.0000 0.0000 0.0000 30.8952 0.0000 0.0000
# 5 0.0000 0.0000 0.0000 0.0000 37.0024 0.0000
# 6 0.0000 0.0000 0.0000 0.0000 0.0000 19.7396
#
#
#
# Elastic Compliance Matrix: (Units=1/GPa)
#
#
# Indices 1 2 3 4 5 6 
#
# 1 0.016854 0.000829 -0.005450 0.000000 0.000000 0.000000
# 2 0.000829 0.015008 -0.007438 0.000000 0.000000 0.000000
# 3 -0.005450 -0.007438 0.018615 0.000000 0.000000 0.000000
# 4 0.000000 0.000000 0.000000 0.032368 0.000000 0.000000
# 5 0.000000 0.000000 0.000000 0.000000 0.027025 0.000000
# 6 0.000000 0.000000 0.000000 0.000000 0.000000 0.050660
#
#
# Mechanical properties :
#
#
# Convention : Reuss Voigt Hill
#
# Bulk Modulus (GPa) = 37.93505 39.50363 38.71934
# Shear Modulus (GPa) = 25.84878 28.13920 26.99399
#
# Velocity S-wave (km/s) = 3.43641 3.58543 3.51171
# Velocity P-wave (km/s) = 5.75115 5.93191 5.84223
#
# Compressibility (1/GPa) = 0.02636085
#
# Stress axis : x y z
#
# Youngs Moduli (GPa) = 59.33357 66.63131 53.71928
#
# Poissons Ratio (x) = -0.05527 0.29276
# Poissons Ratio (y) = -0.04921 0.39955
# Poissons Ratio (z) = 0.32336 0.49559
#
# Static dielectric constant tensor:
#      x y z
#    x 3.794910 0.000000 0.000000 
#    y 0.000000 3.750450 0.000000 
#    z 0.000000 0.000000 3.888500 
# 
# 
# High freq. dielectric constant tensor:
#      x y z
#    x 1.863420 0.000000 0.000000 
#    y 0.000000 1.844090 0.000000 
#    z 0.000000 0.000000 1.857300 
# 
# From -- ./inp_files/6344.got.cif
#   From: 2010.03.12/outbox.cif.g09.slc.cpg/sg33_4_cif.got.tgz:6344.got - 2010.04.14 01:49:19.
