data_PCOD8171512
_publ_section_title
;
Structure prediction by ZEFSAII (Michael W. Deem and Ramdas Pophale) SiO2 
 PCOD8171512
Probable space group: P N A 21
;
_chemical_formula_sum "Si O2"
_cell_formula_units_Z 32
_cell_length_a 8.925204
_cell_length_b 10.801469
_cell_length_c 16.403300
_cell_angle_alpha 90.000000
_cell_angle_beta 90.000000
_cell_angle_gamma 90.000000
_cell_volume 1581.365292
_symmetry_space_group_name_H-M "P N A 21"
_symmetry_group_IT_number 33
_symmetry_cell_setting 'orthorhombic'
loop_
_space_group_symop_operation_xyz
x,y,z
-x,-y,1/2+z
1/2-x,1/2+y,1/2+z
1/2+x,1/2-y,z
loop_
_atom_site_type_symbol
_atom_site_label
_atom_site_fract_x
_atom_site_fract_y
_atom_site_fract_z
Si Si1 0.850490 0.417167 0.714820
Si Si2 0.802660 0.006506 0.783823
Si Si3 0.652495 0.196043 0.899874
Si Si4 0.860031 0.380689 0.988662
Si Si5 0.309141 0.921821 0.869475
Si Si6 0.545960 0.312404 0.738403
Si Si7 0.938960 0.389222 0.171939
Si Si8 0.989124 0.214711 0.312352
O O1 0.831493 0.462003 0.808324
O O2 0.691914 0.357409 0.687113
O O3 0.978829 0.314063 0.703228
O O4 0.901485 0.537430 0.662368
O O5 0.751539 0.088795 0.859605
O O6 0.924751 0.079574 0.730724
O O7 0.662035 0.978444 0.727341
O O8 0.874561 0.880739 0.816431
O O9 0.753913 0.269831 0.962698
O O10 0.524089 0.132599 0.951893
O O11 0.589775 0.290902 0.832577
O O12 0.798246 0.515443 0.958930
O O13 0.862088 0.370229 0.085812
O O14 0.455544 0.833610 0.864227
O O15 0.159541 0.844564 0.850212
O O16 0.961265 0.257939 0.218396
#
# Coordination Sequence:
#
# PCOD8171512 Si02
#       8
#     4   4   4   4   4   4   4   4
#     4  11  20  37  64  92 124 165 216 263 311 385
#     4  12  21  39  68  94 122 172 220 260 309 398
#     4  12  21  41  68  97 122 166 219 267 316 384
#     4  12  26  41  65  98 138 162 208 282 335 369
#     4  11  21  40  63  89 123 171 217 260 304 393
#     4  12  18  36  70  97 116 159 230 266 299 366
#     4  11  26  43  60  97 138 167 208 271 334 379
#     4  11  23  39  66  90 125 172 222 249 314 392
#
# _framework density 20.235678
#
# number of rings (size 3 to 8) (size 9 to 14) (size 15 to 20)
#    0.000    0.500    8.750    0.750    1.750    0.000 
#    0.000    2.500    0.000    0.000    0.000    0.000 
#    0.000    0.000    0.000    0.000    0.000    0.000 
#
# Total GULP energy -396777.528435 kJ/mol
# GULP energy per Si atom -12399.297764 kJ/mol
# Density = 2.018962 g / cm^3
# Si number density = 20.235678 Si / 1000 Ang^3
#
#
#
# Elastic Constant Matrix: (Units=GPa)
#
#
# Indices 1 2 3 4 5 6 
#
# 1 105.9823 43.7477 6.6851 0.0000 0.0000 0.0000
# 2 43.7477 104.0272 15.3195 0.0000 0.0000 0.0000
# 3 6.6851 15.3195 38.1230 0.0000 0.0000 0.0000
# 4 0.0000 0.0000 0.0000 22.8326 0.0000 0.0000
# 5 0.0000 0.0000 0.0000 0.0000 15.9710 0.0000
# 6 0.0000 0.0000 0.0000 0.0000 0.0000 48.3983
#
#
#
# Elastic Compliance Matrix: (Units=1/GPa)
#
#
# Indices 1 2 3 4 5 6 
#
# 1 0.011418 -0.004790 -0.000077 0.000000 0.000000 0.000000
# 2 -0.004790 0.012227 -0.004073 0.000000 0.000000 0.000000
# 3 -0.000077 -0.004073 0.027881 0.000000 0.000000 0.000000
# 4 0.000000 0.000000 0.000000 0.043797 0.000000 0.000000
# 5 0.000000 0.000000 0.000000 0.000000 0.062613 0.000000
# 6 0.000000 0.000000 0.000000 0.000000 0.000000 0.020662
#
#
# Mechanical properties :
#
#
# Convention : Reuss Voigt Hill
#
# Bulk Modulus (GPa) = 29.72258 42.18190 35.95224
# Shear Modulus (GPa) = 24.07371 29.59906 26.83638
#
# Velocity S-wave (km/s) = 3.45290 3.82870 3.64564
# Velocity P-wave (km/s) = 5.53324 6.35891 5.96039
#
# Compressibility (1/GPa) = 0.03364445
#
# Stress axis : x y z
#
# Youngs Moduli (GPa) = 87.58297 81.78456 35.86627
#
# Poissons Ratio (x) = 0.39177 0.00277
# Poissons Ratio (y) = 0.41954 0.14610
# Poissons Ratio (z) = 0.00676 0.33315
#
# Static dielectric constant tensor:
#      x y z
#    x 4.006050 0.000000 0.000000 
#    y 0.000000 3.911110 0.000000 
#    z 0.000000 0.000000 3.228640 
# 
# 
# High freq. dielectric constant tensor:
#      x y z
#    x 1.813690 0.000000 0.000000 
#    y 0.000000 1.811730 0.000000 
#    z 0.000000 0.000000 1.729130 
# 
# From -- ./inp_files/8563.got.cif
#   From: 2010.03.12/outbox.cif.g09.slc.cpg/sg33_5_cif.got.tgz:8563.got - 2010.04.14 01:49:19.
