data_PCOD8171586
_publ_section_title
;
Structure prediction by ZEFSAII (Michael W. Deem and Ramdas Pophale) SiO2 
 PCOD8171586
Probable space group: P N A 21
;
_chemical_formula_sum "Si O2"
_cell_formula_units_Z 24
_cell_length_a 16.405889
_cell_length_b 4.887515
_cell_length_c 13.680120
_cell_angle_alpha 90.000000
_cell_angle_beta 90.000000
_cell_angle_gamma 90.000000
_cell_volume 1096.927133
_symmetry_space_group_name_H-M "P N A 21"
_symmetry_group_IT_number 33
_symmetry_cell_setting 'orthorhombic'
loop_
_space_group_symop_operation_xyz
x,y,z
-x,-y,1/2+z
1/2-x,1/2+y,1/2+z
1/2+x,1/2-y,z
loop_
_atom_site_type_symbol
_atom_site_label
_atom_site_fract_x
_atom_site_fract_y
_atom_site_fract_z
Si Si1 0.588862 0.613853 0.890540
Si Si2 0.343430 0.902139 0.492205
Si Si3 0.342523 0.377936 0.992467
Si Si4 0.945469 0.547077 0.675997
Si Si5 0.412111 0.861632 0.891850
Si Si6 0.056730 0.040001 0.675178
O O1 0.600288 0.345942 0.956164
O O2 0.501536 0.745243 0.915824
O O3 0.598786 0.527464 0.778386
O O4 0.655253 0.846342 0.915557
O O5 0.251574 0.795990 0.504436
O O6 0.377706 0.017823 0.594906
O O7 0.349989 0.611516 0.909403
O O8 0.394277 0.110922 0.964803
O O9 0.374895 0.502482 0.093576
O O10 0.902816 0.527277 0.781890
O O11 0.978022 0.851990 0.658884
O O12 0.023665 0.348682 0.672193
#
# Coordination Sequence:
#
# PCOD8171586 Si02
#       6
#     4   4   4   4   4   4
#     4  11  23  43  66  90 123 168 216 259 306 371
#     4  12  25  40  63  95 131 165 202 261 325 375
#     4  12  25  40  63  95 131 165 202 261 325 375
#     4  11  23  41  66  91 119 163 213 256 302 366
#     4  11  23  43  66  90 123 168 216 259 306 371
#     4  11  23  41  66  91 119 163 213 256 302 366
#
# _framework density 21.879303
#
# number of rings (size 3 to 8) (size 9 to 14) (size 15 to 20)
#    0.000    0.667    0.000   11.000    0.000    2.667 
#    0.000    0.000    0.000    0.000    0.000    0.000 
#    0.000    0.000    0.000    0.000    0.000    0.000 
#
# Total GULP energy -297761.138412 kJ/mol
# GULP energy per Si atom -12406.714101 kJ/mol
# Density = 2.182950 g / cm^3
# Si number density = 21.879303 Si / 1000 Ang^3
#
#
#
# Elastic Constant Matrix: (Units=GPa)
#
#
# Indices 1 2 3 4 5 6 
#
# 1 92.9423 23.3144 69.6072 0.0000 0.0000 0.0000
# 2 23.3144 118.3182 46.6355 0.0000 0.0000 0.0000
# 3 69.6072 46.6355 137.3269 0.0000 0.0000 0.0000
# 4 0.0000 0.0000 0.0000 35.3179 0.0000 0.0000
# 5 0.0000 0.0000 0.0000 0.0000 19.3095 0.0000
# 6 0.0000 0.0000 0.0000 0.0000 0.0000 31.6924
#
#
#
# Elastic Compliance Matrix: (Units=1/GPa)
#
#
# Indices 1 2 3 4 5 6 
#
# 1 0.017343 0.000055 -0.008809 0.000000 0.000000 0.000000
# 2 0.000055 0.009758 -0.003342 0.000000 0.000000 0.000000
# 3 -0.008809 -0.003342 0.012882 0.000000 0.000000 0.000000
# 4 0.000000 0.000000 0.000000 0.028314 0.000000 0.000000
# 5 0.000000 0.000000 0.000000 0.000000 0.051788 0.000000
# 6 0.000000 0.000000 0.000000 0.000000 0.000000 0.031553
#
#
# Mechanical properties :
#
#
# Convention : Reuss Voigt Hill
#
# Bulk Modulus (GPa) = 63.32773 69.74462 66.53617
# Shear Modulus (GPa) = 27.60985 31.19931 29.40458
#
# Velocity S-wave (km/s) = 3.55620 3.78030 3.66996
# Velocity P-wave (km/s) = 6.77267 7.14146 6.95951
#
# Compressibility (1/GPa) = 0.01579087
#
# Stress axis : x y z
#
# Youngs Moduli (GPa) = 57.65935 102.47920 77.62821
#
# Poissons Ratio (x) = -0.00562 0.68386
# Poissons Ratio (y) = -0.00316 0.25940
# Poissons Ratio (z) = 0.50795 0.34244
#
# Static dielectric constant tensor:
#      x y z
#    x 3.626340 0.000000 0.000000 
#    y 0.000000 4.077700 0.000000 
#    z 0.000000 0.000000 4.118550 
# 
# 
# High freq. dielectric constant tensor:
#      x y z
#    x 1.836200 0.000000 0.000000 
#    y 0.000000 1.879460 0.000000 
#    z 0.000000 0.000000 1.871710 
# 
# From -- ./inp_files/6667.got.cif
#   From: 2010.03.12/outbox.cif.g09.slc.cpg/sg33_4_cif.got.tgz:6667.got - 2010.04.14 01:49:19.
