data_PCOD8171057
_publ_section_title
;
Structure prediction by ZEFSAII (Michael W. Deem and Ramdas Pophale) SiO2 
 PCOD8171057
Probable space group: P N A 21
;
_chemical_formula_sum "Si O2"
_cell_formula_units_Z 28
_cell_length_a 5.679922
_cell_length_b 26.318864
_cell_length_c 7.877267
_cell_angle_alpha 90.000000
_cell_angle_beta 90.000000
_cell_angle_gamma 90.000000
_cell_volume 1177.565512
_symmetry_space_group_name_H-M "P N A 21"
_symmetry_group_IT_number 33
_symmetry_cell_setting 'orthorhombic'
loop_
_space_group_symop_operation_xyz
x,y,z
-x,-y,1/2+z
1/2-x,1/2+y,1/2+z
1/2+x,1/2-y,z
loop_
_atom_site_type_symbol
_atom_site_label
_atom_site_fract_x
_atom_site_fract_y
_atom_site_fract_z
Si Si1 0.274323 0.984222 0.345190
Si Si2 0.096645 0.954316 0.009869
Si Si3 0.162390 0.273816 0.931734
Si Si4 0.614662 0.263084 0.561691
Si Si5 0.009874 0.409368 0.351341
Si Si6 0.770238 0.872046 0.148971
Si Si7 0.518706 0.118143 0.981306
O O1 0.287766 0.975598 0.143029
O O2 0.346058 0.933641 0.443391
O O3 0.432957 0.032619 0.385018
O O4 0.013131 0.998260 0.410247
O O5 0.918762 0.922912 0.127280
O O6 0.207421 0.915217 0.870847
O O7 0.405921 0.247549 0.001857
O O8 0.143668 0.271620 0.728580
O O9 0.189731 0.332987 0.982446
O O10 0.369868 0.246200 0.463821
O O11 0.580352 0.321280 0.618421
O O12 0.931302 0.372677 0.504509
O O13 0.918481 0.387234 0.173140
O O14 0.683068 0.871683 0.343055
#
# Coordination Sequence:
#
# PCOD8171057 Si02
#       7
#     4   4   4   4   4   4   4
#     4  11  25  41  69 100 144 184 235 296 358 438
#     4  11  25  43  69 103 141 185 244 292 363 443
#     4  10  22  43  69 106 137 180 248 297 357 444
#     4  10  21  40  72 103 139 181 243 297 358 435
#     4  11  26  47  62 107 143 178 245 292 357 451
#     4  11  25  44  71  98 136 191 231 298 361 434
#     4  12  24  44  76  95 140 193 228 302 370 421
#
# _framework density 23.777871000000001
#
# number of rings (size 3 to 8) (size 9 to 14) (size 15 to 20)
#    0.000    1.143    4.286    1.714   12.000    0.000 
#    5.143    1.429    0.000    0.000    0.000    0.000 
#    0.000    0.000    0.000    0.000    0.000    0.000 
#
# Total GULP energy -346875.642994 kJ/mol
# GULP energy per Si atom -12388.415821 kJ/mol
# Density = 2.372375 g / cm^3
# Si number density = 23.777871 Si / 1000 Ang^3
#
#
#
# Elastic Constant Matrix: (Units=GPa)
#
#
# Indices 1 2 3 4 5 6 
#
# 1 114.1931 19.0482 16.9438 0.0000 0.0000 0.0000
# 2 19.0482 117.7578 18.8722 0.0000 0.0000 0.0000
# 3 16.9438 18.8722 105.4154 0.0000 0.0000 0.0000
# 4 0.0000 0.0000 0.0000 15.5400 0.0000 0.0000
# 5 0.0000 0.0000 0.0000 0.0000 20.3380 0.0000
# 6 0.0000 0.0000 0.0000 0.0000 0.0000 19.7484
#
#
#
# Elastic Compliance Matrix: (Units=1/GPa)
#
#
# Indices 1 2 3 4 5 6 
#
# 1 0.009155 -0.001282 -0.001242 0.000000 0.000000 0.000000
# 2 -0.001282 0.008922 -0.001391 0.000000 0.000000 0.000000
# 3 -0.001242 -0.001391 0.009935 0.000000 0.000000 0.000000
# 4 0.000000 0.000000 0.000000 0.064350 0.000000 0.000000
# 5 0.000000 0.000000 0.000000 0.000000 0.049169 0.000000
# 6 0.000000 0.000000 0.000000 0.000000 0.000000 0.050637
#
#
# Mechanical properties :
#
#
# Convention : Reuss Voigt Hill
#
# Bulk Modulus (GPa) = 49.54886 49.67718 49.61302
# Shear Modulus (GPa) = 24.18657 29.95876 27.07266
#
# Velocity S-wave (km/s) = 3.19280 3.55342 3.37792
# Velocity P-wave (km/s) = 5.87158 6.14599 6.01035
#
# Compressibility (1/GPa) = 0.02018210
#
# Stress axis : x y z
#
# Youngs Moduli (GPa) = 109.22734 112.07833 100.65420
#
# Poissons Ratio (x) = 0.14367 0.12502
# Poissons Ratio (y) = 0.14002 0.14004
# Poissons Ratio (z) = 0.13567 0.15593
#
# Static dielectric constant tensor:
#      x y z
#    x 4.803350 0.000000 0.000000 
#    y 0.000000 4.328210 0.000000 
#    z 0.000000 0.000000 4.082020 
# 
# 
# High freq. dielectric constant tensor:
#      x y z
#    x 1.940280 0.000000 0.000000 
#    y 0.000000 1.955550 0.000000 
#    z 0.000000 0.000000 1.912620 
# 
# From -- ./inp_files/2729.got.cif
#   From: 2010.03.12/outbox.cif.g09.slc.cpg/sg33_2_cif.got.tgz:2729.got - 2010.04.14 01:49:19.
