data_PCOD8171478
_publ_section_title
;
Structure prediction by ZEFSAII (Michael W. Deem and Ramdas Pophale) SiO2 
 PCOD8171478
Probable space group: P N A 21
;
_chemical_formula_sum "Si O2"
_cell_formula_units_Z 24
_cell_length_a 18.473639
_cell_length_b 5.722291
_cell_length_c 9.583946
_cell_angle_alpha 90.000000
_cell_angle_beta 90.000000
_cell_angle_gamma 90.000000
_cell_volume 1013.133674
_symmetry_space_group_name_H-M "P N A 21"
_symmetry_group_IT_number 33
_symmetry_cell_setting 'orthorhombic'
loop_
_space_group_symop_operation_xyz
x,y,z
-x,-y,1/2+z
1/2-x,1/2+y,1/2+z
1/2+x,1/2-y,z
loop_
_atom_site_type_symbol
_atom_site_label
_atom_site_fract_x
_atom_site_fract_y
_atom_site_fract_z
Si Si1 0.308161 0.872553 0.315490
Si Si2 0.471777 0.048679 0.935628
Si Si3 0.902754 0.870909 0.526918
Si Si4 0.897942 0.850470 0.089513
Si Si5 0.639559 0.589971 0.317525
Si Si6 0.581730 0.739120 0.793490
O O1 0.336169 0.787410 0.468039
O O2 0.334643 0.692039 0.199114
O O3 0.223047 0.851026 0.301604
O O4 0.341504 0.125677 0.275584
O O5 0.405616 0.177709 0.855970
O O6 0.515249 0.917911 0.813068
O O7 0.522751 0.232406 0.012693
O O8 0.446719 0.879342 0.063164
O O9 0.889933 0.953655 0.683745
O O10 0.912465 0.102070 0.437156
O O11 0.938444 0.075103 0.159608
O O12 0.864786 0.904836 0.940793
#
# Coordination Sequence:
#
# PCOD8171478 Si02
#       6
#     4   4   4   4   4   4
#     4  10  26  48  72 103 152 197 243 311 365 442
#     4  11  26  47  74 113 150 197 250 313 364 451
#     4  10  26  48  73 110 150 193 249 305 372 438
#     4  11  26  45  74 104 150 195 249 304 374 433
#     4  12  28  44  79 110 145 199 254 300 380 438
#     4  10  24  48  74 102 155 193 245 305 371 434
#
# _framework density 23.688877000000002
#
# number of rings (size 3 to 8) (size 9 to 14) (size 15 to 20)
#    0.000    1.333    0.000    2.000    7.000   21.333 
#    0.000    0.000    0.000    0.000    0.000    0.000 
#    0.000    0.000    0.000    0.000    0.000    0.000 
#
# Total GULP energy -297551.276416 kJ/mol
# GULP energy per Si atom -12397.969851 kJ/mol
# Density = 2.363496 g / cm^3
# Si number density = 23.688877 Si / 1000 Ang^3
#
#
#
# Elastic Constant Matrix: (Units=GPa)
#
#
# Indices 1 2 3 4 5 6 
#
# 1 187.0771 77.6630 53.3817 0.0000 0.0000 0.0000
# 2 77.6630 140.5378 60.8027 0.0000 0.0000 0.0000
# 3 53.3817 60.8027 176.4184 0.0000 0.0000 0.0000
# 4 0.0000 0.0000 0.0000 59.0150 0.0000 0.0000
# 5 0.0000 0.0000 0.0000 0.0000 26.1543 0.0000
# 6 0.0000 0.0000 0.0000 0.0000 0.0000 20.4303
#
#
#
# Elastic Compliance Matrix: (Units=1/GPa)
#
#
# Indices 1 2 3 4 5 6 
#
# 1 0.007064 -0.003501 -0.000931 0.000000 0.000000 0.000000
# 2 -0.003501 0.010098 -0.002421 0.000000 0.000000 0.000000
# 3 -0.000931 -0.002421 0.006784 0.000000 0.000000 0.000000
# 4 0.000000 0.000000 0.000000 0.016945 0.000000 0.000000
# 5 0.000000 0.000000 0.000000 0.000000 0.038235 0.000000
# 6 0.000000 0.000000 0.000000 0.000000 0.000000 0.048947
#
#
# Mechanical properties :
#
#
# Convention : Reuss Voigt Hill
#
# Bulk Modulus (GPa) = 97.64898 98.63647 98.14273
# Shear Modulus (GPa) = 34.43712 41.93232 38.18472
#
# Velocity S-wave (km/s) = 3.81691 4.21185 4.01924
# Velocity P-wave (km/s) = 7.79333 8.08589 7.94096
#
# Compressibility (1/GPa) = 0.01024076
#
# Stress axis : x y z
#
# Youngs Moduli (GPa) = 141.55285 99.03311 147.39820
#
# Poissons Ratio (x) = 0.34673 0.13722
# Poissons Ratio (y) = 0.49560 0.35681
# Poissons Ratio (z) = 0.13178 0.23973
#
# Static dielectric constant tensor:
#      x y z
#    x 4.145160 0.000000 0.000000 
#    y 0.000000 4.806450 0.000000 
#    z 0.000000 0.000000 4.378710 
# 
# 
# High freq. dielectric constant tensor:
#      x y z
#    x 1.928840 0.000000 0.000000 
#    y 0.000000 1.957120 0.000000 
#    z 0.000000 0.000000 1.957420 
# 
# From -- ./inp_files/4630.got.cif
#   From: 2010.03.12/outbox.cif.g09.slc.cpg/sg33_3_cif.got.tgz:4630.got - 2010.04.14 01:49:19.
