data_PCOD8171986
_publ_section_title
;
Structure prediction by ZEFSAII (Michael W. Deem and Ramdas Pophale) SiO2 
 PCOD8171986
Probable space group: P N N 2
;
_chemical_formula_sum "Si O2"
_cell_formula_units_Z 32
_cell_length_a 8.156560
_cell_length_b 26.088601
_cell_length_c 6.900364
_cell_angle_alpha 90.000000
_cell_angle_beta 90.000000
_cell_angle_gamma 90.000000
_cell_volume 1468.350808
_symmetry_space_group_name_H-M "P N N 2"
_symmetry_group_IT_number 34
_symmetry_cell_setting 'orthorhombic'
loop_
_space_group_symop_operation_xyz
x,y,z
-x,-y,z
1/2-x,1/2+y,1/2+z
1/2+x,1/2-y,1/2+z
loop_
_atom_site_type_symbol
_atom_site_label
_atom_site_fract_x
_atom_site_fract_y
_atom_site_fract_z
Si Si1 0.336217 0.524894 0.888050
Si Si2 0.676271 0.075833 0.478565
Si Si3 0.589061 0.294578 0.655780
Si Si4 0.299830 0.693097 0.254665
Si Si5 0.015752 0.125700 0.481779
Si Si6 0.768438 0.720095 0.475983
Si Si7 0.441169 0.054650 0.124932
Si Si8 0.989715 0.634670 0.318374
O O1 0.500000 0.500000 0.799702
O O2 0.382613 0.573648 0.018814
O O3 0.238675 0.545551 0.705988
O O4 0.236910 0.482810 0.014456
O O5 0.562237 0.076097 0.290734
O O6 0.585690 0.095358 0.666588
O O7 0.825238 0.115243 0.447956
O O8 0.717210 0.305730 0.485960
O O9 0.571732 0.343865 0.790952
O O10 0.425255 0.282477 0.526877
O O11 0.674690 0.249663 0.779965
O O12 0.335619 0.748998 0.162898
O O13 0.118198 0.671113 0.201545
O O14 0.448616 0.657977 0.175816
O O15 0.850900 0.664708 0.444116
O O16 0.500000 0.000000 0.039489
O O17 0.416290 0.097537 0.964518
#
# Coordination Sequence:
#
# PCOD8171986 Si02
#       8
#     4   4   4   4   4   4   4   4
#     4   9  19  40  67  95 134 176 216 276 344 398
#     4  10  22  40  67  95 134 175 216 282 336 409
#     4  11  24  42  67  91 133 177 228 283 342 409
#     4  11  25  41  64  94 130 175 228 287 339 404
#     4  10  21  41  64  97 131 174 225 275 340 409
#     4  11  25  44  61  98 129 178 231 282 346 405
#     4  10  22  39  64  98 130 170 222 274 338 412
#     4  12  24  41  67  98 129 179 226 284 343 409
#
# _framework density 21.793156
#
# number of rings (size 3 to 8) (size 9 to 14) (size 15 to 20)
#    0.000    1.500    1.250    3.000    1.750    5.500 
#    0.000    1.250    0.000    5.250    0.000    0.000 
#    0.000    0.000    0.000    0.000    0.000    0.000 
#
# Total GULP energy -396506.603042 kJ/mol
# GULP energy per Si atom -12390.831345 kJ/mol
# Density = 2.174355 g / cm^3
# Si number density = 21.793156 Si / 1000 Ang^3
#
#
#
# Elastic Constant Matrix: (Units=GPa)
#
#
# Indices 1 2 3 4 5 6 
#
# 1 81.4076 29.9887 24.5644 0.0000 0.0000 0.0000
# 2 29.9887 97.8578 52.1474 0.0000 0.0000 0.0000
# 3 24.5644 52.1474 117.8771 0.0000 0.0000 0.0000
# 4 0.0000 0.0000 0.0000 28.0048 0.0000 0.0000
# 5 0.0000 0.0000 0.0000 0.0000 26.7413 0.0000
# 6 0.0000 0.0000 0.0000 0.0000 0.0000 31.3642
#
#
#
# Elastic Compliance Matrix: (Units=1/GPa)
#
#
# Indices 1 2 3 4 5 6 
#
# 1 0.014006 -0.003581 -0.001334 0.000000 0.000000 0.000000
# 2 -0.003581 0.014287 -0.005574 0.000000 0.000000 0.000000
# 3 -0.001334 -0.005574 0.011227 0.000000 0.000000 0.000000
# 4 0.000000 0.000000 0.000000 0.035708 0.000000 0.000000
# 5 0.000000 0.000000 0.000000 0.000000 0.037395 0.000000
# 6 0.000000 0.000000 0.000000 0.000000 0.000000 0.031883
#
#
# Mechanical properties :
#
#
# Convention : Reuss Voigt Hill
#
# Bulk Modulus (GPa) = 53.93500 56.72706 55.33103
# Shear Modulus (GPa) = 29.12638 29.91820 29.52229
#
# Velocity S-wave (km/s) = 3.65977 3.70919 3.68456
# Velocity P-wave (km/s) = 6.53153 6.66561 6.59891
#
# Compressibility (1/GPa) = 0.01854084
#
# Stress axis : x y z
#
# Youngs Moduli (GPa) = 71.39966 69.99558 89.06806
#
# Poissons Ratio (x) = 0.25065 0.11886
# Poissons Ratio (y) = 0.25568 0.49646
# Poissons Ratio (z) = 0.09528 0.39015
#
# Static dielectric constant tensor:
#      x y z
#    x 4.456440 0.000000 0.000000 
#    y 0.000000 4.296940 0.000000 
#    z 0.000000 0.000000 3.701150 
# 
# 
# High freq. dielectric constant tensor:
#      x y z
#    x 1.865280 0.000000 0.000000 
#    y 0.000000 1.873540 0.000000 
#    z 0.000000 0.000000 1.837760 
# 
# From -- ./inp_files/671.got.cif
#   From: 2010.03.12/outbox.cif.g09.slc.cpg/sg34_1_cif.got.tgz:671.got - 2010.04.14 01:56:33.
