data_PCOD8171706
_publ_section_title
;
Structure prediction by ZEFSAII (Michael W. Deem and Ramdas Pophale) SiO2 
 PCOD8171706
Probable space group: P N A 21
;
_chemical_formula_sum "Si O2"
_cell_formula_units_Z 32
_cell_length_a 12.904368
_cell_length_b 8.368613
_cell_length_c 12.949438
_cell_angle_alpha 90.000000
_cell_angle_beta 90.000000
_cell_angle_gamma 90.000000
_cell_volume 1398.431329
_symmetry_space_group_name_H-M "P N A 21"
_symmetry_group_IT_number 33
_symmetry_cell_setting 'orthorhombic'
loop_
_space_group_symop_operation_xyz
x,y,z
-x,-y,1/2+z
1/2-x,1/2+y,1/2+z
1/2+x,1/2-y,z
loop_
_atom_site_type_symbol
_atom_site_label
_atom_site_fract_x
_atom_site_fract_y
_atom_site_fract_z
Si Si1 0.967086 0.528799 0.802720
Si Si2 0.144840 0.969211 0.680547
Si Si3 0.938185 0.791677 0.652651
Si Si4 0.806056 0.627370 0.503950
Si Si5 0.762699 0.403028 0.880112
Si Si6 0.900702 0.676544 0.160823
Si Si7 0.440728 0.162635 0.493203
Si Si8 0.190513 0.936981 0.085216
O O1 0.907902 0.635582 0.718461
O O2 0.882759 0.409351 0.850050
O O3 0.059375 0.411214 0.764649
O O4 0.006679 0.665804 0.881395
O O5 0.194222 0.005083 0.793590
O O6 0.085597 0.132770 0.651455
O O7 0.224065 0.897033 0.597029
O O8 0.056797 0.832321 0.679185
O O9 0.907916 0.732786 0.536819
O O10 0.862683 0.944041 0.668403
O O11 0.762548 0.714678 0.400059
O O12 0.842136 0.450744 0.477573
O O13 0.750118 0.479658 0.992185
O O14 0.777025 0.656125 0.150262
O O15 0.972000 0.597334 0.072156
O O16 0.399192 0.329647 0.535229
#
# Coordination Sequence:
#
# PCOD8171706 Si02
#       8
#     4   4   4   4   4   4   4   4
#     4  12  26  44  74 107 146 192 245 299 369 445
#     4  12  24  47  71 105 147 191 247 303 364 441
#     4  11  25  41  72 104 138 197 236 300 365 430
#     4  11  25  44  75 102 147 190 243 304 377 433
#     4  11  25  46  70 110 142 185 249 300 362 458
#     4  12  25  46  72 102 148 191 238 308 366 442
#     4  12  23  48  69 104 141 190 241 303 366 437
#     4  11  25  46  71 102 145 188 245 301 373 432
#
# _framework density 22.882784000000001
#
# number of rings (size 3 to 8) (size 9 to 14) (size 15 to 20)
#    0.000    0.500    6.250    1.500    5.250    1.000 
#    0.000    1.250    0.000    0.000    0.000    0.000 
#    0.000    0.000    0.000    0.000    0.000    0.000 
#
# Total GULP energy -396432.697820 kJ/mol
# GULP energy per Si atom -12388.521807 kJ/mol
# Density = 2.283070 g / cm^3
# Si number density = 22.882784 Si / 1000 Ang^3
#
#
#
# Elastic Constant Matrix: (Units=GPa)
#
#
# Indices 1 2 3 4 5 6 
#
# 1 102.7536 27.3769 41.1009 0.0000 0.0000 0.0000
# 2 27.3769 90.8523 15.1637 0.0000 0.0000 0.0000
# 3 41.1009 15.1637 72.0476 0.0000 0.0000 0.0000
# 4 0.0000 0.0000 0.0000 36.8991 0.0000 0.0000
# 5 0.0000 0.0000 0.0000 0.0000 34.3290 0.0000
# 6 0.0000 0.0000 0.0000 0.0000 0.0000 38.9039
#
#
#
# Elastic Compliance Matrix: (Units=1/GPa)
#
#
# Indices 1 2 3 4 5 6 
#
# 1 0.013279 -0.002837 -0.006978 0.000000 0.000000 0.000000
# 2 -0.002837 0.012014 -0.000910 0.000000 0.000000 0.000000
# 3 -0.006978 -0.000910 0.018052 0.000000 0.000000 0.000000
# 4 0.000000 0.000000 0.000000 0.027101 0.000000 0.000000
# 5 0.000000 0.000000 0.000000 0.000000 0.029130 0.000000
# 6 0.000000 0.000000 0.000000 0.000000 0.000000 0.025704
#
#
# Mechanical properties :
#
#
# Convention : Reuss Voigt Hill
#
# Bulk Modulus (GPa) = 45.67370 48.10406 46.88888
# Shear Modulus (GPa) = 32.46150 34.16052 33.31101
#
# Velocity S-wave (km/s) = 3.77052 3.86793 3.81953
# Velocity P-wave (km/s) = 6.24171 6.40433 6.32354
#
# Compressibility (1/GPa) = 0.02189444
#
# Stress axis : x y z
#
# Youngs Moduli (GPa) = 75.30644 83.23904 55.39502
#
# Poissons Ratio (x) = 0.23613 0.38656
# Poissons Ratio (y) = 0.21362 0.05042
# Poissons Ratio (z) = 0.52551 0.07577
#
# Static dielectric constant tensor:
#      x y z
#    x 4.099340 0.000000 0.000000 
#    y 0.000000 4.177770 0.000000 
#    z 0.000000 0.000000 4.107130 
# 
# 
# High freq. dielectric constant tensor:
#      x y z
#    x 1.911570 0.000000 0.000000 
#    y 0.000000 1.907720 0.000000 
#    z 0.000000 0.000000 1.895770 
# 
# From -- ./inp_files/7990.got.cif
#   From: 2010.03.12/outbox.cif.g09.slc.cpg/sg33_4_cif.got.tgz:7990.got - 2010.04.14 01:49:19.
