data_PCOD8171573
_publ_section_title
;
Structure prediction by ZEFSAII (Michael W. Deem and Ramdas Pophale) SiO2 
 PCOD8171573
Probable space group: P N A 21
;
_chemical_formula_sum "Si O2"
_cell_formula_units_Z 32
_cell_length_a 19.523938
_cell_length_b 5.361908
_cell_length_c 11.103601
_cell_angle_alpha 90.000000
_cell_angle_beta 90.000000
_cell_angle_gamma 90.000000
_cell_volume 1162.386682
_symmetry_space_group_name_H-M "P N A 21"
_symmetry_group_IT_number 33
_symmetry_cell_setting 'orthorhombic'
loop_
_space_group_symop_operation_xyz
x,y,z
-x,-y,1/2+z
1/2-x,1/2+y,1/2+z
1/2+x,1/2-y,z
loop_
_atom_site_type_symbol
_atom_site_label
_atom_site_fract_x
_atom_site_fract_y
_atom_site_fract_z
Si Si1 0.758817 0.814192 0.457060
Si Si2 0.398204 0.869071 0.483059
Si Si3 0.804905 0.126449 0.245434
Si Si4 0.331162 0.808784 0.062511
Si Si5 0.029798 0.088365 0.272164
Si Si6 0.069417 0.505100 0.731602
Si Si7 0.319188 0.575595 0.814747
Si Si8 0.471686 0.384267 0.535529
O O1 0.815638 0.612938 0.502155
O O2 0.802440 0.010038 0.378901
O O3 0.703886 0.688766 0.368318
O O4 0.718885 0.945956 0.569829
O O5 0.418434 0.819314 0.343039
O O6 0.431154 0.128314 0.525011
O O7 0.424553 0.628890 0.554715
O O8 0.800361 0.921717 0.137969
O O9 0.876165 0.269550 0.248022
O O10 0.739243 0.308272 0.230132
O O11 0.408864 0.874850 0.105287
O O12 0.336432 0.762662 0.922797
O O13 0.109997 0.048460 0.244149
O O14 0.005067 0.366486 0.232434
O O15 0.017350 0.054707 0.416639
O O16 0.993950 0.888699 0.174329
#
# Coordination Sequence:
#
# PCOD8171573 Si02
#       8
#     4   4   4   4   4   4   4   4
#     4  11  23  44  72 114 158 200 268 336 417 478
#     4  11  24  50  79 117 152 216 264 338 395 496
#     4  11  22  47  75 111 153 214 264 336 403 499
#     4  11  25  40  79 110 154 209 264 337 414 490
#     4  11  29  53  77 119 157 215 266 340 404 490
#     4  11  24  47  77 106 154 208 277 314 412 491
#     4  11  26  48  73 116 157 196 276 340 410 478
#     4  11  29  51  84 115 167 212 279 329 413 488
#
# _framework density 27.529563
#
# number of rings (size 3 to 8) (size 9 to 14) (size 15 to 20)
#    0.000    1.000    2.500    2.250    5.250    7.000 
#   11.250    0.000    0.000    0.000    0.000    0.000 
#    0.000    0.000    0.000    0.000    0.000    0.000 
#
# Total GULP energy -396562.083754 kJ/mol
# GULP energy per Si atom -12392.565117 kJ/mol
# Density = 2.746690 g / cm^3
# Si number density = 27.529563 Si / 1000 Ang^3
#
#
#
# Elastic Constant Matrix: (Units=GPa)
#
#
# Indices 1 2 3 4 5 6 
#
# 1 80.5551 15.1702 -2.1837 0.0000 0.0000 0.0000
# 2 15.1702 83.0308 8.9845 0.0000 0.0000 0.0000
# 3 -2.1837 8.9845 142.3808 0.0000 0.0000 0.0000
# 4 0.0000 0.0000 0.0000 49.9456 0.0000 0.0000
# 5 0.0000 0.0000 0.0000 0.0000 35.3922 0.0000
# 6 0.0000 0.0000 0.0000 0.0000 0.0000 29.9043
#
#
#
# Elastic Compliance Matrix: (Units=1/GPa)
#
#
# Indices 1 2 3 4 5 6 
#
# 1 0.012873 -0.002390 0.000348 0.000000 0.000000 0.000000
# 2 -0.002390 0.012570 -0.000830 0.000000 0.000000 0.000000
# 3 0.000348 -0.000830 0.007081 0.000000 0.000000 0.000000
# 4 0.000000 0.000000 0.000000 0.020022 0.000000 0.000000
# 5 0.000000 0.000000 0.000000 0.000000 0.028255 0.000000
# 6 0.000000 0.000000 0.000000 0.000000 0.000000 0.033440
#
#
# Mechanical properties :
#
#
# Convention : Reuss Voigt Hill
#
# Bulk Modulus (GPa) = 37.33861 38.87876 38.10868
# Shear Modulus (GPa) = 38.78641 41.98148 40.38394
#
# Velocity S-wave (km/s) = 3.75760 3.90931 3.83421
# Velocity P-wave (km/s) = 5.69374 5.87624 5.78571
#
# Compressibility (1/GPa) = 0.02678193
#
# Stress axis : x y z
#
# Youngs Moduli (GPa) = 77.67999 79.55368 141.22046
#
# Poissons Ratio (x) = 0.19011 -0.04918
# Poissons Ratio (y) = 0.18563 0.11719
# Poissons Ratio (z) = -0.02705 0.06602
#
# Static dielectric constant tensor:
#      x y z
#    x 5.105410 0.000000 0.000000 
#    y 0.000000 5.214610 0.000000 
#    z 0.000000 0.000000 5.378810 
# 
# 
# High freq. dielectric constant tensor:
#      x y z
#    x 2.106090 0.000000 0.000000 
#    y 0.000000 2.115990 0.000000 
#    z 0.000000 0.000000 2.141740 
# 
# From -- ./inp_files/7193.got.cif
#   From: 2010.03.12/outbox.cif.g09.slc.cpg/sg33_4_cif.got.tgz:7193.got - 2010.04.14 01:49:19.
