data_PCOD8171213
_publ_section_title
;
Structure prediction by ZEFSAII (Michael W. Deem and Ramdas Pophale) SiO2 
 PCOD8171213
Probable space group: P N A 21
;
_chemical_formula_sum "Si O2"
_cell_formula_units_Z 32
_cell_length_a 11.431141
_cell_length_b 14.717517
_cell_length_c 8.466903
_cell_angle_alpha 90.000000
_cell_angle_beta 90.000000
_cell_angle_gamma 90.000000
_cell_volume 1424.454928
_symmetry_space_group_name_H-M "P N A 21"
_symmetry_group_IT_number 33
_symmetry_cell_setting 'orthorhombic'
loop_
_space_group_symop_operation_xyz
x,y,z
-x,-y,1/2+z
1/2-x,1/2+y,1/2+z
1/2+x,1/2-y,z
loop_
_atom_site_type_symbol
_atom_site_label
_atom_site_fract_x
_atom_site_fract_y
_atom_site_fract_z
Si Si1 0.431224 0.414557 0.787080
Si Si2 0.274007 0.820005 0.444309
Si Si3 0.029662 0.117571 0.263561
Si Si4 0.143389 0.496394 0.456080
Si Si5 0.843060 0.869694 0.456967
Si Si6 0.940210 0.224385 0.521544
Si Si7 0.274661 0.342960 0.291791
Si Si8 0.521879 0.103357 0.727238
O O1 0.348609 0.369020 0.917236
O O2 0.404129 0.521599 0.785650
O O3 0.567635 0.401392 0.823123
O O4 0.403247 0.364308 0.623206
O O5 0.271019 0.715558 0.385880
O O6 0.291233 0.812284 0.633132
O O7 0.377824 0.870193 0.351280
O O8 0.048461 0.189499 0.409401
O O9 0.890222 0.097784 0.246046
O O10 0.081462 0.163551 0.107293
O O11 0.258282 0.549769 0.510851
O O12 0.177844 0.400011 0.384120
O O13 0.064694 0.475164 0.608563
O O14 0.081504 0.559441 0.326884
O O15 0.825933 0.239552 0.405356
O O16 0.973536 0.310501 0.627398
#
# Coordination Sequence:
#
# PCOD8171213 Si02
#       8
#     4   4   4   4   4   4   4   4
#     4  12  20  45  71 104 144 187 253 305 369 435
#     4  12  26  42  74 104 150 195 239 310 375 451
#     4  10  22  41  71 105 137 187 244 313 353 442
#     4  12  27  48  73 107 151 198 246 311 379 462
#     4  12  24  43  71 107 140 192 249 305 373 439
#     4  10  23  43  71 104 145 191 249 305 365 450
#     4  10  23  43  70 104 143 191 245 304 365 436
#     4  12  27  49  73 107 156 201 249 307 393 465
#
# _framework density 22.464734
#
# number of rings (size 3 to 8) (size 9 to 14) (size 15 to 20)
#    0.750    0.000    3.750    4.500    1.750    1.000 
#    0.000    1.250    0.000    0.000    0.000    0.000 
#    0.000    0.000    0.000    0.000    0.000    0.000 
#
# Total GULP energy -396508.150084 kJ/mol
# GULP energy per Si atom -12390.879690 kJ/mol
# Density = 2.241360 g / cm^3
# Si number density = 22.464734 Si / 1000 Ang^3
#
#
#
# Elastic Constant Matrix: (Units=GPa)
#
#
# Indices 1 2 3 4 5 6 
#
# 1 75.4370 31.2855 36.8022 0.0000 0.0000 0.0000
# 2 31.2855 85.0703 23.3885 0.0000 0.0000 0.0000
# 3 36.8022 23.3885 129.0920 0.0000 0.0000 0.0000
# 4 0.0000 0.0000 0.0000 35.5476 0.0000 0.0000
# 5 0.0000 0.0000 0.0000 0.0000 43.8419 0.0000
# 6 0.0000 0.0000 0.0000 0.0000 0.0000 29.7685
#
#
#
# Elastic Compliance Matrix: (Units=1/GPa)
#
#
# Indices 1 2 3 4 5 6 
#
# 1 0.017407 -0.005301 -0.004002 0.000000 0.000000 0.000000
# 2 -0.005301 0.013986 -0.001023 0.000000 0.000000 0.000000
# 3 -0.004002 -0.001023 0.009073 0.000000 0.000000 0.000000
# 4 0.000000 0.000000 0.000000 0.028131 0.000000 0.000000
# 5 0.000000 0.000000 0.000000 0.000000 0.022809 0.000000
# 6 0.000000 0.000000 0.000000 0.000000 0.000000 0.033593
#
#
# Mechanical properties :
#
#
# Convention : Reuss Voigt Hill
#
# Bulk Modulus (GPa) = 50.47047 52.50574 51.48811
# Shear Modulus (GPa) = 32.83965 35.03979 33.93972
#
# Velocity S-wave (km/s) = 3.82754 3.95368 3.89112
# Velocity P-wave (km/s) = 6.48450 6.65322 6.56940
#
# Compressibility (1/GPa) = 0.01981356
#
# Stress axis : x y z
#
# Youngs Moduli (GPa) = 57.44782 71.50140 110.22203
#
# Poissons Ratio (x) = 0.37905 0.44111
# Poissons Ratio (y) = 0.30455 0.11271
# Poissons Ratio (z) = 0.22991 0.07311
#
# Static dielectric constant tensor:
#      x y z
#    x 3.903860 0.000000 0.000000 
#    y 0.000000 3.813640 0.000000 
#    z 0.000000 0.000000 4.141470 
# 
# 
# High freq. dielectric constant tensor:
#      x y z
#    x 1.878590 0.000000 0.000000 
#    y 0.000000 1.875090 0.000000 
#    z 0.000000 0.000000 1.898460 
# 
# From -- ./inp_files/3937.got.cif
#   From: 2010.03.12/outbox.cif.g09.slc.cpg/sg33_2_cif.got.tgz:3937.got - 2010.04.14 01:49:19.
