data_PCOD8171080
_publ_section_title
;
Structure prediction by ZEFSAII (Michael W. Deem and Ramdas Pophale) SiO2 
 PCOD8171080
Probable space group: P N A 21
;
_chemical_formula_sum "Si O2"
_cell_formula_units_Z 32
_cell_length_a 13.957931
_cell_length_b 12.164915
_cell_length_c 8.712039
_cell_angle_alpha 90.000000
_cell_angle_beta 90.000000
_cell_angle_gamma 90.000000
_cell_volume 1479.278471
_symmetry_space_group_name_H-M "P N A 21"
_symmetry_group_IT_number 33
_symmetry_cell_setting 'orthorhombic'
loop_
_space_group_symop_operation_xyz
x,y,z
-x,-y,1/2+z
1/2-x,1/2+y,1/2+z
1/2+x,1/2-y,z
loop_
_atom_site_type_symbol
_atom_site_label
_atom_site_fract_x
_atom_site_fract_y
_atom_site_fract_z
Si Si1 0.827896 0.224855 0.812780
Si Si2 0.012683 0.145420 0.661252
Si Si3 0.708179 0.605024 0.885248
Si Si4 0.947591 0.958068 0.480815
Si Si5 0.340241 0.839339 0.142012
Si Si6 0.036465 0.539826 0.578196
Si Si7 0.369597 0.034997 0.760462
Si Si8 0.572671 0.712572 0.634604
O O1 0.721638 0.174022 0.797072
O O2 0.814778 0.350548 0.763100
O O3 0.902272 0.175171 0.690453
O O4 0.859040 0.202588 0.986660
O O5 0.072925 0.253998 0.628570
O O6 0.048445 0.079765 0.807393
O O7 0.018586 0.061570 0.517258
O O8 0.788130 0.556737 0.771542
O O9 0.627798 0.670753 0.786872
O O10 0.660610 0.506927 0.989712
O O11 0.767024 0.683705 0.000710
O O12 0.975962 0.859624 0.599231
O O13 0.380188 0.962591 0.146148
O O14 0.050522 0.540808 0.395716
O O15 0.043181 0.660487 0.655918
O O16 0.931145 0.489939 0.608428
#
# Coordination Sequence:
#
# PCOD8171080 Si02
#       8
#     4   4   4   4   4   4   4   4
#     4  10  21  41  67  92 132 172 224 271 334 411
#     4  11  22  42  68  96 130 182 223 277 343 395
#     4  11  23  42  63 101 133 170 227 277 327 410
#     4  11  22  43  68  94 137 171 229 279 335 395
#     4  11  23  42  70  96 133 182 218 279 343 400
#     4  10  23  44  64  93 132 171 220 270 338 393
#     4  10  22  42  64  94 131 168 216 275 328 400
#     4  10  24  44  64 102 132 176 223 278 336 398
#
# _framework density 21.632168
#
# number of rings (size 3 to 8) (size 9 to 14) (size 15 to 20)
#    0.000    1.500    3.750    0.750    0.000    4.000 
#   11.250    0.000    0.000    0.000    0.000    0.000 
#    0.000    0.000    0.000    0.000    0.000    0.000 
#
# Total GULP energy -396554.845018 kJ/mol
# GULP energy per Si atom -12392.338907 kJ/mol
# Density = 2.158293 g / cm^3
# Si number density = 21.632168 Si / 1000 Ang^3
#
#
#
# Elastic Constant Matrix: (Units=GPa)
#
#
# Indices 1 2 3 4 5 6 
#
# 1 78.2946 23.5557 14.8952 0.0000 0.0000 0.0000
# 2 23.5557 105.1224 31.6890 0.0000 0.0000 0.0000
# 3 14.8952 31.6890 47.9116 0.0000 0.0000 0.0000
# 4 0.0000 0.0000 0.0000 30.1096 0.0000 0.0000
# 5 0.0000 0.0000 0.0000 0.0000 36.0860 0.0000
# 6 0.0000 0.0000 0.0000 0.0000 0.0000 22.4987
#
#
#
# Elastic Compliance Matrix: (Units=1/GPa)
#
#
# Indices 1 2 3 4 5 6 
#
# 1 0.013999 -0.002279 -0.002845 0.000000 0.000000 0.000000
# 2 -0.002279 0.012253 -0.007395 0.000000 0.000000 0.000000
# 3 -0.002845 -0.007395 0.026648 0.000000 0.000000 0.000000
# 4 0.000000 0.000000 0.000000 0.033212 0.000000 0.000000
# 5 0.000000 0.000000 0.000000 0.000000 0.027712 0.000000
# 6 0.000000 0.000000 0.000000 0.000000 0.000000 0.044447
#
#
# Mechanical properties :
#
#
# Convention : Reuss Voigt Hill
#
# Bulk Modulus (GPa) = 35.89287 41.28980 38.59133
# Shear Modulus (GPa) = 25.96106 28.48476 27.22291
#
# Velocity S-wave (km/s) = 3.46802 3.63268 3.55131
# Velocity P-wave (km/s) = 5.71530 6.06002 5.89018
#
# Compressibility (1/GPa) = 0.02786069
#
# Stress axis : x y z
#
# Youngs Moduli (GPa) = 71.43245 81.61366 37.52694
#
# Poissons Ratio (x) = 0.18603 0.10675
# Poissons Ratio (y) = 0.16283 0.27753
# Poissons Ratio (z) = 0.20319 0.60357
#
# Static dielectric constant tensor:
#      x y z
#    x 3.976530 0.000000 0.000000 
#    y 0.000000 4.083860 0.000000 
#    z 0.000000 0.000000 3.770450 
# 
# 
# High freq. dielectric constant tensor:
#      x y z
#    x 1.848810 0.000000 0.000000 
#    y 0.000000 1.856600 0.000000 
#    z 0.000000 0.000000 1.835070 
# 
# From -- ./inp_files/4372.got.cif
#   From: 2010.03.12/outbox.cif.g09.slc.cpg/sg33_3_cif.got.tgz:4372.got - 2010.04.14 01:49:19.
