data_PCOD8171280
_publ_section_title
;
Structure prediction by ZEFSAII (Michael W. Deem and Ramdas Pophale) SiO2 
 PCOD8171280
Probable space group: P N A 21
;
_chemical_formula_sum "Si O2"
_cell_formula_units_Z 16
_cell_length_a 13.374989
_cell_length_b 5.703964
_cell_length_c 8.981225
_cell_angle_alpha 90.000000
_cell_angle_beta 90.000000
_cell_angle_gamma 90.000000
_cell_volume 685.181749
_symmetry_space_group_name_H-M "P N A 21"
_symmetry_group_IT_number 33
_symmetry_cell_setting 'orthorhombic'
loop_
_space_group_symop_operation_xyz
x,y,z
-x,-y,1/2+z
1/2-x,1/2+y,1/2+z
1/2+x,1/2-y,z
loop_
_atom_site_type_symbol
_atom_site_label
_atom_site_fract_x
_atom_site_fract_y
_atom_site_fract_z
Si Si1 0.321827 0.615652 0.906210
Si Si2 0.992097 0.818804 0.521119
Si Si3 0.541247 0.016937 0.283150
Si Si4 0.333740 0.343245 0.619928
O O1 0.360943 0.870523 0.858699
O O2 0.280013 0.472111 0.761751
O O3 0.411375 0.467888 0.978810
O O4 0.238805 0.671188 0.029464
O O5 0.972206 0.600007 0.409629
O O6 0.014727 0.718359 0.687658
O O7 0.888100 0.962828 0.516287
O O8 0.574062 0.810662 0.174512
#
# Coordination Sequence:
#
# PCOD8171280 Si02
#       4
#     4   4   4   4
#     4  10  23  46  68 105 136 181 232 284 351 413
#     4  10  22  44  72  98 138 180 228 278 344 412
#     4  10  22  46  64 102 138 176 230 280 340 408
#     4  10  23  46  68 105 136 181 232 284 351 413
#
# _framework density 23.351469000000002
#
# number of rings (size 3 to 8) (size 9 to 14) (size 15 to 20)
#    0.000    2.000    0.000    1.500    0.000    8.000 
#   58.500    0.000    0.000    0.000    0.000    0.000 
#    0.000    0.000    0.000    0.000    0.000    0.000 
#
# Total GULP energy -198318.242725 kJ/mol
# GULP energy per Si atom -12394.890170 kJ/mol
# Density = 2.329832 g / cm^3
# Si number density = 23.351469 Si / 1000 Ang^3
#
#
#
# Elastic Constant Matrix: (Units=GPa)
#
#
# Indices 1 2 3 4 5 6 
#
# 1 64.8289 22.7034 52.9478 0.0000 0.0000 0.0000
# 2 22.7034 88.0887 33.2533 0.0000 0.0000 0.0000
# 3 52.9478 33.2533 104.0787 0.0000 0.0000 0.0000
# 4 0.0000 0.0000 0.0000 59.6630 0.0000 0.0000
# 5 0.0000 0.0000 0.0000 0.0000 38.3307 0.0000
# 6 0.0000 0.0000 0.0000 0.0000 0.0000 29.7811
#
#
#
# Elastic Compliance Matrix: (Units=1/GPa)
#
#
# Indices 1 2 3 4 5 6 
#
# 1 0.026695 -0.001994 -0.012943 0.000000 0.000000 0.000000
# 2 -0.001994 0.013058 -0.003158 0.000000 0.000000 0.000000
# 3 -0.012943 -0.003158 0.017202 0.000000 0.000000 0.000000
# 4 0.000000 0.000000 0.000000 0.016761 0.000000 0.000000
# 5 0.000000 0.000000 0.000000 0.000000 0.026089 0.000000
# 6 0.000000 0.000000 0.000000 0.000000 0.000000 0.033578
#
#
# Mechanical properties :
#
#
# Convention : Reuss Voigt Hill
#
# Bulk Modulus (GPa) = 48.15916 52.75615 50.45765
# Shear Modulus (GPa) = 28.32960 35.42776 31.87868
#
# Velocity S-wave (km/s) = 3.48686 3.89929 3.69883
# Velocity P-wave (km/s) = 6.07283 6.55087 6.31637
#
# Compressibility (1/GPa) = 0.02076448
#
# Stress axis : x y z
#
# Youngs Moduli (GPa) = 37.46056 76.58061 58.13408
#
# Poissons Ratio (x) = 0.15271 0.75245
# Poissons Ratio (y) = 0.07470 0.18357
# Poissons Ratio (z) = 0.48486 0.24181
#
# Static dielectric constant tensor:
#      x y z
#    x 3.558760 0.000000 0.000000 
#    y 0.000000 4.532330 0.000000 
#    z 0.000000 0.000000 4.622650 
# 
# 
# High freq. dielectric constant tensor:
#      x y z
#    x 1.876990 0.000000 0.000000 
#    y 0.000000 1.951170 0.000000 
#    z 0.000000 0.000000 1.939920 
# 
# From -- ./inp_files/3609.got.cif
#   From: 2010.03.12/outbox.cif.g09.slc.cpg/sg33_2_cif.got.tgz:3609.got - 2010.04.14 01:49:19.
