data_PCOD8171681
_publ_section_title
;
Structure prediction by ZEFSAII (Michael W. Deem and Ramdas Pophale) SiO2 
 PCOD8171681
Probable space group: P N A 21
;
_chemical_formula_sum "Si O2"
_cell_formula_units_Z 32
_cell_length_a 7.824801
_cell_length_b 15.145176
_cell_length_c 11.117084
_cell_angle_alpha 90.000000
_cell_angle_beta 90.000000
_cell_angle_gamma 90.000000
_cell_volume 1317.463261
_symmetry_space_group_name_H-M "P N A 21"
_symmetry_group_IT_number 33
_symmetry_cell_setting 'orthorhombic'
loop_
_space_group_symop_operation_xyz
x,y,z
-x,-y,1/2+z
1/2-x,1/2+y,1/2+z
1/2+x,1/2-y,z
loop_
_atom_site_type_symbol
_atom_site_label
_atom_site_fract_x
_atom_site_fract_y
_atom_site_fract_z
Si Si1 0.795339 0.120471 0.220550
Si Si2 0.093940 0.018809 0.891588
Si Si3 0.897049 0.459667 0.633076
Si Si4 0.953251 0.658270 0.323520
Si Si5 0.616055 0.380070 0.495590
Si Si6 0.428894 0.343462 0.729244
Si Si7 0.128508 0.596318 0.547008
Si Si8 0.847295 0.806416 0.733398
O O1 0.661590 0.200827 0.224042
O O2 0.978999 0.156055 0.173975
O O3 0.810414 0.071720 0.350119
O O4 0.717441 0.048006 0.132478
O O5 0.029905 0.069821 0.772987
O O6 0.202628 0.087921 0.967259
O O7 0.936471 0.981788 0.969579
O O8 0.805154 0.384807 0.553843
O O9 0.923854 0.415563 0.763437
O O10 0.075827 0.495500 0.579792
O O11 0.767719 0.642634 0.265580
O O12 0.008705 0.757033 0.296964
O O13 0.978514 0.644651 0.467589
O O14 0.475407 0.335914 0.586917
O O15 0.643540 0.324160 0.375648
O O16 0.182218 0.650415 0.667095
#
# Coordination Sequence:
#
# PCOD8171681 Si02
#       8
#     4   4   4   4   4   4   4   4
#     4  11  24  48  69 106 148 191 249 301 378 460
#     4  11  24  45  76 100 148 193 251 310 383 452
#     4  12  25  44  74 105 148 191 253 310 381 458
#     4  12  28  47  76 109 147 200 257 319 382 461
#     4  11  25  46  74 112 149 202 246 321 383 464
#     4  12  26  51  74 108 150 195 263 313 388 453
#     4  12  26  45  74 114 149 198 251 319 385 464
#     4  11  28  44  75 108 153 198 246 315 390 460
#
# _framework density 24.289102
#
# number of rings (size 3 to 8) (size 9 to 14) (size 15 to 20)
#    0.000    0.500    2.500    4.500    7.000   11.000 
#    0.000    0.000    0.000    0.000    0.000    0.000 
#    0.000    0.000    0.000    0.000    0.000    0.000 
#
# Total GULP energy -396614.815635 kJ/mol
# GULP energy per Si atom -12394.212989 kJ/mol
# Density = 2.423382 g / cm^3
# Si number density = 24.289102 Si / 1000 Ang^3
#
#
#
# Elastic Constant Matrix: (Units=GPa)
#
#
# Indices 1 2 3 4 5 6 
#
# 1 94.6813 28.4942 36.0767 0.0000 0.0000 0.0000
# 2 28.4942 104.8300 15.9112 0.0000 0.0000 0.0000
# 3 36.0767 15.9112 113.2025 0.0000 0.0000 0.0000
# 4 0.0000 0.0000 0.0000 31.9035 0.0000 0.0000
# 5 0.0000 0.0000 0.0000 0.0000 38.8567 0.0000
# 6 0.0000 0.0000 0.0000 0.0000 0.0000 39.9402
#
#
#
# Elastic Compliance Matrix: (Units=1/GPa)
#
#
# Indices 1 2 3 4 5 6 
#
# 1 0.012848 -0.002933 -0.003682 0.000000 0.000000 0.000000
# 2 -0.002933 0.010417 -0.000529 0.000000 0.000000 0.000000
# 3 -0.003682 -0.000529 0.010082 0.000000 0.000000 0.000000
# 4 0.000000 0.000000 0.000000 0.031344 0.000000 0.000000
# 5 0.000000 0.000000 0.000000 0.000000 0.025736 0.000000
# 6 0.000000 0.000000 0.000000 0.000000 0.000000 0.025037
#
#
# Mechanical properties :
#
#
# Convention : Reuss Voigt Hill
#
# Bulk Modulus (GPa) = 52.47533 52.63090 52.55311
# Shear Modulus (GPa) = 36.73631 37.62219 37.17925
#
# Velocity S-wave (km/s) = 3.89326 3.93992 3.91666
# Velocity P-wave (km/s) = 6.47003 6.51251 6.49131
#
# Compressibility (1/GPa) = 0.01905658
#
# Stress axis : x y z
#
# Youngs Moduli (GPa) = 77.83608 95.99784 99.19074
#
# Poissons Ratio (x) = 0.28159 0.36523
# Poissons Ratio (y) = 0.22831 0.05251
# Poissons Ratio (z) = 0.28660 0.05082
#
# Static dielectric constant tensor:
#      x y z
#    x 4.771870 0.000000 0.000000 
#    y 0.000000 4.270420 0.000000 
#    z 0.000000 0.000000 4.317350 
# 
# 
# High freq. dielectric constant tensor:
#      x y z
#    x 1.971350 0.000000 0.000000 
#    y 0.000000 1.966590 0.000000 
#    z 0.000000 0.000000 1.964890 
# 
# From -- ./inp_files/5955.got.cif
#   From: 2010.03.12/outbox.cif.g09.slc.cpg/sg33_3_cif.got.tgz:5955.got - 2010.04.14 01:49:19.
