data_PCOD8171445
_publ_section_title
;
Structure prediction by ZEFSAII (Michael W. Deem and Ramdas Pophale) SiO2 
 PCOD8171445
Probable space group: P N A 21
;
_chemical_formula_sum "Si O2"
_cell_formula_units_Z 28
_cell_length_a 9.238826
_cell_length_b 15.572650
_cell_length_c 8.908020
_cell_angle_alpha 90.000000
_cell_angle_beta 90.000000
_cell_angle_gamma 90.000000
_cell_volume 1281.623594
_symmetry_space_group_name_H-M "P N A 21"
_symmetry_group_IT_number 33
_symmetry_cell_setting 'orthorhombic'
loop_
_space_group_symop_operation_xyz
x,y,z
-x,-y,1/2+z
1/2-x,1/2+y,1/2+z
1/2+x,1/2-y,z
loop_
_atom_site_type_symbol
_atom_site_label
_atom_site_fract_x
_atom_site_fract_y
_atom_site_fract_z
Si Si1 0.229968 0.364454 0.481040
Si Si2 0.419598 0.394712 0.746534
Si Si3 0.186766 0.541666 0.776929
Si Si4 0.605285 0.670832 0.565902
Si Si5 0.815265 0.779383 0.733815
Si Si6 0.522503 0.968026 0.071501
Si Si7 0.197688 0.995489 0.731285
O O1 0.357339 0.342481 0.601427
O O2 0.192222 0.288107 0.368828
O O3 0.284770 0.449770 0.392637
O O4 0.078273 0.382776 0.566380
O O5 0.320789 0.478171 0.765948
O O6 0.581578 0.428512 0.726500
O O7 0.425695 0.330585 0.888599
O O8 0.243942 0.636525 0.804657
O O9 0.085942 0.543429 0.628280
O O10 0.083921 0.508396 0.909572
O O11 0.730050 0.740906 0.591958
O O12 0.474004 0.698556 0.674276
O O13 0.657143 0.575468 0.607554
O O14 0.653581 0.956920 0.187920
#
# Coordination Sequence:
#
# PCOD8171445 Si02
#       7
#     4   4   4   4   4   4   4
#     4  10  24  43  65 101 141 177 230 283 352 420
#     4  11  23  42  70 102 129 173 241 291 320 407
#     4  11  23  41  70  99 133 180 230 283 339 406
#     4  11  24  42  69  98 134 177 229 277 351 419
#     4  11  25  45  68  97 144 188 214 280 371 423
#     4  11  22  39  67 101 129 176 233 285 329 411
#     4  11  21  40  69 100 130 175 227 289 340 408
#
# _framework density 21.847289
#
# number of rings (size 3 to 8) (size 9 to 14) (size 15 to 20)
#    0.000    1.143    4.286    1.714    4.000    0.000 
#    0.000   10.000    0.000    0.000    0.000    0.000 
#    0.000    0.000    0.000    0.000    0.000    0.000 
#
# Total GULP energy -347099.667975 kJ/mol
# GULP energy per Si atom -12396.416713 kJ/mol
# Density = 2.179756 g / cm^3
# Si number density = 21.847289 Si / 1000 Ang^3
#
#
#
# Elastic Constant Matrix: (Units=GPa)
#
#
# Indices 1 2 3 4 5 6 
#
# 1 136.8997 41.2863 43.4154 0.0000 0.0000 0.0000
# 2 41.2863 63.7500 35.8273 0.0000 0.0000 0.0000
# 3 43.4154 35.8273 125.8089 0.0000 0.0000 0.0000
# 4 0.0000 0.0000 0.0000 21.0963 0.0000 0.0000
# 5 0.0000 0.0000 0.0000 0.0000 40.9229 0.0000
# 6 0.0000 0.0000 0.0000 0.0000 0.0000 20.0123
#
#
#
# Elastic Compliance Matrix: (Units=1/GPa)
#
#
# Indices 1 2 3 4 5 6 
#
# 1 0.009408 -0.005081 -0.001799 0.000000 0.000000 0.000000
# 2 -0.005081 0.021420 -0.004346 0.000000 0.000000 0.000000
# 3 -0.001799 -0.004346 0.009807 0.000000 0.000000 0.000000
# 4 0.000000 0.000000 0.000000 0.047402 0.000000 0.000000
# 5 0.000000 0.000000 0.000000 0.000000 0.024436 0.000000
# 6 0.000000 0.000000 0.000000 0.000000 0.000000 0.049969
#
#
# Mechanical properties :
#
#
# Convention : Reuss Voigt Hill
#
# Bulk Modulus (GPa) = 55.00421 63.05742 59.03081
# Shear Modulus (GPa) = 26.18400 30.13494 28.15947
#
# Velocity S-wave (km/s) = 3.46569 3.71798 3.59405
# Velocity P-wave (km/s) = 6.42231 6.88162 6.65593
#
# Compressibility (1/GPa) = 0.01818043
#
# Stress axis : x y z
#
# Youngs Moduli (GPa) = 106.29534 46.68586 101.96539
#
# Poissons Ratio (x) = 0.23723 0.18348
# Poissons Ratio (y) = 0.54013 0.44317
# Poissons Ratio (z) = 0.19127 0.20291
#
# Static dielectric constant tensor:
#      x y z
#    x 4.231030 0.000000 0.000000 
#    y 0.000000 3.635240 0.000000 
#    z 0.000000 0.000000 4.120460 
# 
# 
# High freq. dielectric constant tensor:
#      x y z
#    x 1.880890 0.000000 0.000000 
#    y 0.000000 1.826270 0.000000 
#    z 0.000000 0.000000 1.866270 
# 
# From -- ./inp_files/3308.got.cif
#   From: 2010.03.12/outbox.cif.g09.slc.cpg/sg33_2_cif.got.tgz:3308.got - 2010.04.14 01:49:19.
