data_PCOD8171680
_publ_section_title
;
Structure prediction by ZEFSAII (Michael W. Deem and Ramdas Pophale) SiO2 
 PCOD8171680
Probable space group: P N A 21
;
_chemical_formula_sum "Si O2"
_cell_formula_units_Z 20
_cell_length_a 17.486957
_cell_length_b 7.518024
_cell_length_c 6.570461
_cell_angle_alpha 90.000000
_cell_angle_beta 90.000000
_cell_angle_gamma 90.000000
_cell_volume 863.801178
_symmetry_space_group_name_H-M "P N A 21"
_symmetry_group_IT_number 33
_symmetry_cell_setting 'orthorhombic'
loop_
_space_group_symop_operation_xyz
x,y,z
-x,-y,1/2+z
1/2-x,1/2+y,1/2+z
1/2+x,1/2-y,z
loop_
_atom_site_type_symbol
_atom_site_label
_atom_site_fract_x
_atom_site_fract_y
_atom_site_fract_z
Si Si1 0.116536 0.462258 0.132180
Si Si2 0.743890 0.504861 0.369595
Si Si3 0.904561 0.138597 0.690332
Si Si4 0.335143 0.821351 0.034522
Si Si5 0.565036 0.344215 0.875814
O O1 0.091385 0.664906 0.094615
O O2 0.110778 0.418532 0.371381
O O3 0.203196 0.424201 0.053915
O O4 0.058514 0.336498 0.008351
O O5 0.666578 0.620889 0.346214
O O6 0.725582 0.298939 0.411303
O O7 0.792136 0.525722 0.161085
O O8 0.980701 0.092917 0.815603
O O9 0.894407 0.998180 0.507248
O O10 0.384766 0.690293 0.175321
#
# Coordination Sequence:
#
# PCOD8171680 Si02
#       5
#     4   4   4   4   4
#     4  11  27  47  75 108 145 198 245 308 365 443
#     4  11  24  45  73 109 143 188 247 299 367 434
#     4  12  26  48  76 105 149 196 241 312 373 432
#     4  11  25  47  72 107 147 189 249 300 368 441
#     4  11  28  49  70 111 148 193 250 303 373 450
#
# _framework density 23.153475
#
# number of rings (size 3 to 8) (size 9 to 14) (size 15 to 20)
#    0.000    0.800    4.000    1.200    8.400    0.000 
#    7.200    0.000    0.000    0.000    0.000    0.000 
#    0.000    0.000    0.000    0.000    0.000    0.000 
#
# Total GULP energy -248074.974849 kJ/mol
# GULP energy per Si atom -12403.748742 kJ/mol
# Density = 2.310078 g / cm^3
# Si number density = 23.153475 Si / 1000 Ang^3
#
#
#
# Elastic Constant Matrix: (Units=GPa)
#
#
# Indices 1 2 3 4 5 6 
#
# 1 86.5910 3.0623 28.6774 0.0000 0.0000 0.0000
# 2 3.0623 128.7674 55.1482 0.0000 0.0000 0.0000
# 3 28.6774 55.1482 112.9040 0.0000 0.0000 0.0000
# 4 0.0000 0.0000 0.0000 37.7750 0.0000 0.0000
# 5 0.0000 0.0000 0.0000 0.0000 30.7749 0.0000
# 6 0.0000 0.0000 0.0000 0.0000 0.0000 28.5649
#
#
#
# Elastic Compliance Matrix: (Units=1/GPa)
#
#
# Indices 1 2 3 4 5 6 
#
# 1 0.012799 0.001376 -0.003923 0.000000 0.000000 0.000000
# 2 0.001376 0.009968 -0.005218 0.000000 0.000000 0.000000
# 3 -0.003923 -0.005218 0.012402 0.000000 0.000000 0.000000
# 4 0.000000 0.000000 0.000000 0.026473 0.000000 0.000000
# 5 0.000000 0.000000 0.000000 0.000000 0.032494 0.000000
# 6 0.000000 0.000000 0.000000 0.000000 0.000000 0.035008
#
#
# Mechanical properties :
#
#
# Convention : Reuss Voigt Hill
#
# Bulk Modulus (GPa) = 50.92043 55.78203 53.35123
# Shear Modulus (GPa) = 33.06407 35.51460 34.28933
#
# Velocity S-wave (km/s) = 3.78304 3.92072 3.85250
# Velocity P-wave (km/s) = 6.41266 6.68137 6.54839
#
# Compressibility (1/GPa) = 0.01963848
#
# Stress axis : x y z
#
# Youngs Moduli (GPa) = 78.13051 100.31955 80.62936
#
# Poissons Ratio (x) = -0.13801 0.31630
# Poissons Ratio (y) = -0.10749 0.42076
# Poissons Ratio (z) = 0.30650 0.52351
#
# Static dielectric constant tensor:
#      x y z
#    x 4.083330 0.000000 0.000000 
#    y 0.000000 4.053300 0.000000 
#    z 0.000000 0.000000 4.250170 
# 
# 
# High freq. dielectric constant tensor:
#      x y z
#    x 1.909330 0.000000 0.000000 
#    y 0.000000 1.914760 0.000000 
#    z 0.000000 0.000000 1.920530 
# 
# From -- ./inp_files/1645.got.cif
#   From: 2010.03.12/outbox.cif.g09.slc.cpg/sg33_1_cif.got.tgz:1645.got - 2010.04.14 01:49:19.
