data_PCOD8171901
_publ_section_title
;
Structure prediction by ZEFSAII (Michael W. Deem and Ramdas Pophale) SiO2 
 PCOD8171901
Probable space group: P N N 2
;
_chemical_formula_sum "Si O2"
_cell_formula_units_Z 32
_cell_length_a 8.779463
_cell_length_b 7.738892
_cell_length_c 24.462489
_cell_angle_alpha 90.000000
_cell_angle_beta 90.000000
_cell_angle_gamma 90.000000
_cell_volume 1662.062620
_symmetry_space_group_name_H-M "P N N 2"
_symmetry_group_IT_number 34
_symmetry_cell_setting 'orthorhombic'
loop_
_space_group_symop_operation_xyz
x,y,z
-x,-y,z
1/2-x,1/2+y,1/2+z
1/2+x,1/2-y,1/2+z
loop_
_atom_site_type_symbol
_atom_site_label
_atom_site_fract_x
_atom_site_fract_y
_atom_site_fract_z
Si Si1 0.678721 0.805987 0.826440
Si Si2 0.681358 1.000000 0.135362
Si Si3 0.182248 0.807134 0.560489
Si Si4 0.178720 0.305987 0.326440
Si Si5 0.829757 0.202624 0.441224
Si Si6 0.819667 0.500000 0.758866
Si Si7 0.182248 0.192867 0.560489
Si Si8 0.170243 0.202625 0.441224
O O1 0.500000 0.759274 0.827109
O O2 0.748238 0.790686 0.888196
O O3 0.762498 0.674067 0.786871
O O4 0.707826 0.000000 0.804791
O O5 0.743247 0.999999 0.196894
O O6 0.744232 0.170744 0.104656
O O7 0.500000 0.000000 0.134098
O O8 0.744233 0.829256 0.104656
O O9 0.248561 0.756996 0.500021
O O10 0.000000 0.805974 0.557183
O O11 0.237809 0.000000 0.577026
O O12 0.248237 0.290688 0.388196
O O13 0.262498 0.174066 0.286872
O O14 1.000000 0.276802 0.444412
O O15 0.829310 0.999999 0.430323
O O16 0.000000 0.500000 0.759983
O O17 0.248560 0.243006 0.500021
#
# Coordination Sequence:
#
# PCOD8171901 Si02
#       8
#     4   4   4   4   4   4   4   4
#     4  10  20  34  55  81 106 136 177 225 269 310
#     4   9  18  29  43  65  99 139 172 203 252 314
#     4   8  14  24  40  66  98 127 156 202 263 314
#     4  10  20  34  55  81 106 136 177 225 269 310
#     4   8  13  24  45  73 104 128 154 207 272 318
#     4  11  23  37  51  73 111 153 182 211 254 312
#     4   8  14  24  40  66  98 127 156 202 263 314
#     4   8  13  24  45  73 104 128 154 207 272 318
#
# _framework density 19.253185999999999
#
# number of rings (size 3 to 8) (size 9 to 14) (size 15 to 20)
#    0.000    3.000    1.250    1.875    1.750    1.500 
#    0.000    2.500    0.000    0.000    0.000    3.500 
#    0.000    0.000    0.000    0.000    0.000    0.000 
#
# Total GULP energy -396479.253324 kJ/mol
# GULP energy per Si atom -12389.976666 kJ/mol
# Density = 1.920936 g / cm^3
# Si number density = 19.253186 Si / 1000 Ang^3
#
#
#
# Elastic Constant Matrix: (Units=GPa)
#
#
# Indices 1 2 3 4 5 6 
#
# 1 22.4014 22.5663 24.6450 0.0000 0.0000 0.0000
# 2 22.5663 140.6978 100.9256 0.0000 0.0000 0.0000
# 3 24.6450 100.9256 180.2217 0.0000 0.0000 0.0000
# 4 0.0000 0.0000 0.0000 26.4366 0.0000 0.0000
# 5 0.0000 0.0000 0.0000 0.0000 18.9421 0.0000
# 6 0.0000 0.0000 0.0000 0.0000 0.0000 14.9243
#
#
#
# Elastic Compliance Matrix: (Units=1/GPa)
#
#
# Indices 1 2 3 4 5 6 
#
# 1 0.055192 -0.005747 -0.004329 0.000000 0.000000 0.000000
# 2 -0.005747 0.012478 -0.006202 0.000000 0.000000 0.000000
# 3 -0.004329 -0.006202 0.009614 0.000000 0.000000 0.000000
# 4 0.000000 0.000000 0.000000 0.037826 0.000000 0.000000
# 5 0.000000 0.000000 0.000000 0.000000 0.052792 0.000000
# 6 0.000000 0.000000 0.000000 0.000000 0.000000 0.067005
#
#
# Mechanical properties :
#
#
# Convention : Reuss Voigt Hill
#
# Bulk Modulus (GPa) = 22.35735 71.06607 46.71171
# Shear Modulus (GPa) = 17.70714 25.07286 21.39000
#
# Velocity S-wave (km/s) = 3.03594 3.61261 3.33676
# Velocity P-wave (km/s) = 4.89150 7.37515 6.25778
#
# Compressibility (1/GPa) = 0.04472803
#
# Stress axis : x y z
#
# Youngs Moduli (GPa) = 18.11863 80.14196 104.01696
#
# Poissons Ratio (x) = 0.46055 0.45031
# Poissons Ratio (y) = 0.10412 0.64510
# Poissons Ratio (z) = 0.07844 0.49703
#
# Static dielectric constant tensor:
#      x y z
#    x 2.791570 0.000000 0.000000 
#    y 0.000000 3.603320 0.000000 
#    z 0.000000 0.000000 3.833910 
# 
# 
# High freq. dielectric constant tensor:
#      x y z
#    x 1.664520 0.000000 0.000000 
#    y 0.000000 1.758590 0.000000 
#    z 0.000000 0.000000 1.759130 
# 
# From -- ./inp_files/8447.got.cif
#   From: 2010.03.12/outbox.cif.g09.slc.cpg/sg34_5_cif.got.tgz:8447.got - 2010.04.14 01:56:33.
