data_PCOD8171233
_publ_section_title
;
Structure prediction by ZEFSAII (Michael W. Deem and Ramdas Pophale) SiO2 
 PCOD8171233
Probable space group: P N A 21
;
_chemical_formula_sum "Si O2"
_cell_formula_units_Z 28
_cell_length_a 8.857050
_cell_length_b 10.783178
_cell_length_c 11.769169
_cell_angle_alpha 90.000000
_cell_angle_beta 90.000000
_cell_angle_gamma 90.000000
_cell_volume 1124.039750
_symmetry_space_group_name_H-M "P N A 21"
_symmetry_group_IT_number 33
_symmetry_cell_setting 'orthorhombic'
loop_
_space_group_symop_operation_xyz
x,y,z
-x,-y,1/2+z
1/2-x,1/2+y,1/2+z
1/2+x,1/2-y,z
loop_
_atom_site_type_symbol
_atom_site_label
_atom_site_fract_x
_atom_site_fract_y
_atom_site_fract_z
Si Si1 0.089047 0.165336 0.849520
Si Si2 0.993601 0.163676 0.219348
Si Si3 0.529563 0.868453 0.007877
Si Si4 0.991183 0.358296 0.041310
Si Si5 0.839144 0.207938 0.692119
Si Si6 0.322645 0.523463 0.549686
Si Si7 0.228739 0.273534 0.361944
O O1 0.217729 0.211595 0.762057
O O2 0.939859 0.129132 0.779787
O O3 0.126601 0.035310 0.916464
O O4 0.043953 0.273995 0.936671
O O5 0.029263 0.296972 0.161090
O O6 0.820821 0.151179 0.263631
O O7 0.031650 0.058818 0.126588
O O8 0.115249 0.166377 0.320197
O O9 0.648332 0.805371 0.927015
O O10 0.363879 0.866098 0.945981
O O11 0.541428 0.799262 0.128936
O O12 0.574137 0.010711 0.027705
O O13 0.810413 0.375745 0.052180
O O14 0.768795 0.111779 0.598138
#
# Coordination Sequence:
#
# PCOD8171233 Si02
#       7
#     4   4   4   4   4   4   4
#     4  11  26  49  73 105 145 193 247 300 376 430
#     4  10  22  43  70 103 134 181 244 293 366 424
#     4  11  25  44  68 104 144 187 248 289 375 440
#     4  11  23  45  73 100 141 191 241 300 357 462
#     4  12  26  48  72 104 152 192 240 313 364 442
#     4  11  24  45  73 106 141 186 254 295 367 442
#     4  10  22  42  67  98 141 180 230 302 347 440
#
# _framework density 24.910152
#
# number of rings (size 3 to 8) (size 9 to 14) (size 15 to 20)
#    0.000    1.143    2.857    2.571    2.000    5.714 
#   10.286    0.000    0.000    0.000    0.000    0.000 
#    0.000    0.000    0.000    0.000    0.000    0.000 
#
# Total GULP energy -346880.418784 kJ/mol
# GULP energy per Si atom -12388.586385 kJ/mol
# Density = 2.485346 g / cm^3
# Si number density = 24.910152 Si / 1000 Ang^3
#
#
#
# Elastic Constant Matrix: (Units=GPa)
#
#
# Indices 1 2 3 4 5 6 
#
# 1 104.8260 6.3077 46.2339 0.0000 0.0000 0.0000
# 2 6.3077 80.7640 56.4865 0.0000 0.0000 0.0000
# 3 46.2339 56.4865 131.7607 0.0000 0.0000 0.0000
# 4 0.0000 0.0000 0.0000 22.5583 0.0000 0.0000
# 5 0.0000 0.0000 0.0000 0.0000 57.8754 0.0000
# 6 0.0000 0.0000 0.0000 0.0000 0.0000 29.8722
#
#
#
# Elastic Compliance Matrix: (Units=1/GPa)
#
#
# Indices 1 2 3 4 5 6 
#
# 1 0.011713 0.002799 -0.005310 0.000000 0.000000 0.000000
# 2 0.002799 0.018353 -0.008850 0.000000 0.000000 0.000000
# 3 -0.005310 -0.008850 0.013247 0.000000 0.000000 0.000000
# 4 0.000000 0.000000 0.000000 0.044330 0.000000 0.000000
# 5 0.000000 0.000000 0.000000 0.000000 0.017278 0.000000
# 6 0.000000 0.000000 0.000000 0.000000 0.000000 0.033476
#
#
# Mechanical properties :
#
#
# Convention : Reuss Voigt Hill
#
# Bulk Modulus (GPa) = 48.56557 59.48966 54.02762
# Shear Modulus (GPa) = 29.76491 35.94935 32.85713
#
# Velocity S-wave (km/s) = 3.46047 3.80302 3.63578
# Velocity P-wave (km/s) = 5.95861 6.57400 6.27386
#
# Compressibility (1/GPa) = 0.02059072
#
# Stress axis : x y z
#
# Youngs Moduli (GPa) = 85.37374 54.48703 75.48934
#
# Poissons Ratio (x) = -0.15251 0.40085
# Poissons Ratio (y) = -0.23897 0.66810
# Poissons Ratio (z) = 0.45334 0.48222
#
# Static dielectric constant tensor:
#      x y z
#    x 4.731050 0.000000 0.000000 
#    y 0.000000 4.210700 0.000000 
#    z 0.000000 0.000000 5.062200 
# 
# 
# High freq. dielectric constant tensor:
#      x y z
#    x 2.001300 0.000000 0.000000 
#    y 0.000000 1.976690 0.000000 
#    z 0.000000 0.000000 2.018190 
# 
# From -- ./inp_files/5866.got.cif
#   From: 2010.03.12/outbox.cif.g09.slc.cpg/sg33_3_cif.got.tgz:5866.got - 2010.04.14 01:49:19.
