data_PCOD8171568
_publ_section_title
;
Structure prediction by ZEFSAII (Michael W. Deem and Ramdas Pophale) SiO2 
 PCOD8171568
Probable space group: P N A 21
;
_chemical_formula_sum "Si O2"
_cell_formula_units_Z 24
_cell_length_a 18.616011
_cell_length_b 6.309396
_cell_length_c 9.127904
_cell_angle_alpha 90.000000
_cell_angle_beta 90.000000
_cell_angle_gamma 90.000000
_cell_volume 1072.125133
_symmetry_space_group_name_H-M "P N A 21"
_symmetry_group_IT_number 33
_symmetry_cell_setting 'orthorhombic'
loop_
_space_group_symop_operation_xyz
x,y,z
-x,-y,1/2+z
1/2-x,1/2+y,1/2+z
1/2+x,1/2-y,z
loop_
_atom_site_type_symbol
_atom_site_label
_atom_site_fract_x
_atom_site_fract_y
_atom_site_fract_z
Si Si1 0.419808 0.908268 0.904930
Si Si2 0.364290 0.809673 0.453793
Si Si3 0.302151 0.198360 0.589091
Si Si4 0.590468 0.469782 0.204669
Si Si5 0.265569 0.034187 0.884760
Si Si6 0.476844 0.815408 0.216372
O O1 0.394838 0.678351 0.845402
O O2 0.349842 0.058283 0.924860
O O3 0.473348 0.008491 0.788290
O O4 0.463668 0.889370 0.052638
O O5 0.414897 0.672535 0.559153
O O6 0.282803 0.720389 0.452752
O O7 0.399472 0.799916 0.294038
O O8 0.361000 0.050148 0.510870
O O9 0.342929 0.369801 0.689558
O O10 0.256818 0.052955 0.706005
O O11 0.257857 0.308965 0.457271
O O12 0.514570 0.586837 0.221940
#
# Coordination Sequence:
#
# PCOD8171568 Si02
#       6
#     4   4   4   4   4   4
#     4  12  25  44  73 106 147 189 244 299 365 431
#     4  11  25  46  73 104 146 189 246 301 359 439
#     4  11  24  45  70 103 144 190 244 304 362 434
#     4  11  22  45  70  99 143 184 236 301 362 426
#     4  11  25  44  71 107 144 194 239 301 370 432
#     4  12  25  44  71 107 140 194 243 302 364 434
#
# _framework density 22.385449000000001
#
# number of rings (size 3 to 8) (size 9 to 14) (size 15 to 20)
#    0.000    0.667    3.333    4.000    2.333    2.667 
#    0.000    0.000    0.000    0.000    0.000    0.000 
#    0.000    0.000    0.000    0.000    0.000    0.000 
#
# Total GULP energy -297584.280741 kJ/mol
# GULP energy per Si atom -12399.345031 kJ/mol
# Density = 2.233450 g / cm^3
# Si number density = 22.385449 Si / 1000 Ang^3
#
#
#
# Elastic Constant Matrix: (Units=GPa)
#
#
# Indices 1 2 3 4 5 6 
#
# 1 119.5366 51.8819 56.1768 0.0000 0.0000 0.0000
# 2 51.8819 108.9039 69.1571 0.0000 0.0000 0.0000
# 3 56.1768 69.1571 154.6440 0.0000 0.0000 0.0000
# 4 0.0000 0.0000 0.0000 48.9007 0.0000 0.0000
# 5 0.0000 0.0000 0.0000 0.0000 46.3032 0.0000
# 6 0.0000 0.0000 0.0000 0.0000 0.0000 32.6946
#
#
#
# Elastic Compliance Matrix: (Units=1/GPa)
#
#
# Indices 1 2 3 4 5 6 
#
# 1 0.011118 -0.003815 -0.002332 0.000000 0.000000 0.000000
# 2 -0.003815 0.014134 -0.004935 0.000000 0.000000 0.000000
# 3 -0.002332 -0.004935 0.009521 0.000000 0.000000 0.000000
# 4 0.000000 0.000000 0.000000 0.020450 0.000000 0.000000
# 5 0.000000 0.000000 0.000000 0.000000 0.021597 0.000000
# 6 0.000000 0.000000 0.000000 0.000000 0.000000 0.030586
#
#
# Mechanical properties :
#
#
# Convention : Reuss Voigt Hill
#
# Bulk Modulus (GPa) = 79.32032 81.94625 80.63328
# Shear Modulus (GPa) = 37.37712 39.30426 38.34069
#
# Velocity S-wave (km/s) = 4.09064 4.19477 4.14303
# Velocity P-wave (km/s) = 7.60407 7.75550 7.68016
#
# Compressibility (1/GPa) = 0.01260711
#
# Stress axis : x y z
#
# Youngs Moduli (GPa) = 89.94634 70.75307 105.03602
#
# Poissons Ratio (x) = 0.26995 0.24499
# Poissons Ratio (y) = 0.34317 0.51831
# Poissons Ratio (z) = 0.20980 0.34914
#
# Static dielectric constant tensor:
#      x y z
#    x 3.932110 0.000000 0.000000 
#    y 0.000000 4.143290 0.000000 
#    z 0.000000 0.000000 4.126390 
# 
# 
# High freq. dielectric constant tensor:
#      x y z
#    x 1.878580 0.000000 0.000000 
#    y 0.000000 1.883990 0.000000 
#    z 0.000000 0.000000 1.888230 
# 
# From -- ./inp_files/4624.got.cif
#   From: 2010.03.12/outbox.cif.g09.slc.cpg/sg33_3_cif.got.tgz:4624.got - 2010.04.14 01:49:19.
