data_PCOD8171799
_publ_section_title
;
Structure prediction by ZEFSAII (Michael W. Deem and Ramdas Pophale) SiO2 
 PCOD8171799
Probable space group: P N A 21
;
_chemical_formula_sum "Si O2"
_cell_formula_units_Z 16
_cell_length_a 16.898724
_cell_length_b 8.340623
_cell_length_c 4.818194
_cell_angle_alpha 90.000000
_cell_angle_beta 90.000000
_cell_angle_gamma 90.000000
_cell_volume 679.104623
_symmetry_space_group_name_H-M "P N A 21"
_symmetry_group_IT_number 33
_symmetry_cell_setting 'orthorhombic'
loop_
_space_group_symop_operation_xyz
x,y,z
-x,-y,1/2+z
1/2-x,1/2+y,1/2+z
1/2+x,1/2-y,z
loop_
_atom_site_type_symbol
_atom_site_label
_atom_site_fract_x
_atom_site_fract_y
_atom_site_fract_z
Si Si1 0.028944 0.408976 0.321230
Si Si2 0.707323 0.671777 0.494963
Si Si3 0.968320 0.086370 0.045298
Si Si4 0.703644 0.047191 0.491903
O O1 0.117530 0.381948 0.427379
O O2 0.974095 0.453763 0.584582
O O3 0.994330 0.249830 0.187966
O O4 0.622036 0.592803 0.444845
O O5 0.704547 0.859229 0.430787
O O6 0.773359 0.584024 0.308465
O O7 0.731641 0.640796 0.811308
O O8 0.979040 0.944881 0.271508
#
# Coordination Sequence:
#
# PCOD8171799 Si02
#       4
#     4   4   4   4
#     4  12  26  50  77 106 145 198 247 302 367 440
#     4  12  28  50  70 112 148 195 246 302 371 445
#     4  12  28  48  77 109 150 193 250 308 364 438
#     4  12  28  48  76 105 153 194 245 304 374 441
#
# _framework density 23.560433
#
# number of rings (size 3 to 8) (size 9 to 14) (size 15 to 20)
#    0.000    0.000    2.500    6.000   14.000    0.000 
#    0.000    0.000    0.000    0.000    0.000    0.000 
#    0.000    0.000    0.000    0.000    0.000    0.000 
#
# Total GULP energy -198556.946358 kJ/mol
# GULP energy per Si atom -12409.809147 kJ/mol
# Density = 2.350681 g / cm^3
# Si number density = 23.560433 Si / 1000 Ang^3
#
#
#
# Elastic Constant Matrix: (Units=GPa)
#
#
# Indices 1 2 3 4 5 6 
#
# 1 122.5562 35.4515 25.0127 0.0000 0.0000 0.0000
# 2 35.4515 33.0677 4.4582 0.0000 0.0000 0.0000
# 3 25.0127 4.4582 95.9315 0.0000 0.0000 0.0000
# 4 0.0000 0.0000 0.0000 46.7376 0.0000 0.0000
# 5 0.0000 0.0000 0.0000 0.0000 53.9506 0.0000
# 6 0.0000 0.0000 0.0000 0.0000 0.0000 34.9581
#
#
#
# Elastic Compliance Matrix: (Units=1/GPa)
#
#
# Indices 1 2 3 4 5 6 
#
# 1 0.012460 -0.013002 -0.002645 0.000000 0.000000 0.000000
# 2 -0.013002 0.043999 0.001345 0.000000 0.000000 0.000000
# 3 -0.002645 0.001345 0.011051 0.000000 0.000000 0.000000
# 4 0.000000 0.000000 0.000000 0.021396 0.000000 0.000000
# 5 0.000000 0.000000 0.000000 0.000000 0.018535 0.000000
# 6 0.000000 0.000000 0.000000 0.000000 0.000000 0.028606
#
#
# Mechanical properties :
#
#
# Convention : Reuss Voigt Hill
#
# Bulk Modulus (GPa) = 25.70180 42.37782 34.03981
# Shear Modulus (GPa) = 28.15009 39.57149 33.86079
#
# Velocity S-wave (km/s) = 3.46034 4.10271 3.79514
# Velocity P-wave (km/s) = 5.18632 6.36151 5.80374
#
# Compressibility (1/GPa) = 0.03890778
#
# Stress axis : x y z
#
# Youngs Moduli (GPa) = 80.25475 22.72784 90.48855
#
# Poissons Ratio (x) = 0.29551 0.23931
# Poissons Ratio (y) = 1.04347 -0.12174
# Poissons Ratio (z) = 0.21224 -0.03058
#
# Static dielectric constant tensor:
#      x y z
#    x 4.905140 0.000000 0.000000 
#    y 0.000000 4.207700 0.000000 
#    z 0.000000 0.000000 4.540310 
# 
# 
# High freq. dielectric constant tensor:
#      x y z
#    x 1.937430 0.000000 0.000000 
#    y 0.000000 1.941160 0.000000 
#    z 0.000000 0.000000 1.953810 
# 
# From -- ./inp_files/1195.got.cif
#   From: 2010.03.12/outbox.cif.g09.slc.cpg/sg33_1_cif.got.tgz:1195.got - 2010.04.14 01:49:19.
