data_PCOD8171962
_publ_section_title
;
Structure prediction by ZEFSAII (Michael W. Deem and Ramdas Pophale) SiO2 
 PCOD8171962
Probable space group: P N N 2
;
_chemical_formula_sum "Si O2"
_cell_formula_units_Z 28
_cell_length_a 9.208317
_cell_length_b 17.881470
_cell_length_c 8.584343
_cell_angle_alpha 90.000000
_cell_angle_beta 90.000000
_cell_angle_gamma 90.000000
_cell_volume 1413.482846
_symmetry_space_group_name_H-M "P N N 2"
_symmetry_group_IT_number 34
_symmetry_cell_setting 'orthorhombic'
loop_
_space_group_symop_operation_xyz
x,y,z
-x,-y,z
1/2-x,1/2+y,1/2+z
1/2+x,1/2-y,1/2+z
loop_
_atom_site_type_symbol
_atom_site_label
_atom_site_fract_x
_atom_site_fract_y
_atom_site_fract_z
Si Si1 0.097662 0.133021 0.348650
Si Si2 0.000000 0.500000 0.462639
Si Si3 0.000000 0.000000 0.566167
Si Si4 0.900692 0.139035 0.052904
Si Si5 0.833729 0.839828 0.873049
Si Si6 0.127627 0.641566 0.633751
Si Si7 0.630846 0.242471 0.090827
Si Si8 0.199310 0.985542 0.838160
O O1 0.258821 0.126648 0.273459
O O2 0.083098 0.212088 0.437561
O O3 0.076215 0.063569 0.463947
O O4 0.968187 0.129744 0.223904
O O5 0.940621 0.436395 0.577369
O O6 0.872921 0.528518 0.345889
O O7 0.874144 0.039159 0.673855
O O8 0.750157 0.182048 0.047296
O O9 0.873063 0.056859 0.983379
O O10 0.011640 0.185364 0.943868
O O11 0.800224 0.801238 0.710311
O O12 0.838590 0.928334 0.855968
O O13 0.707518 0.817054 0.991322
O O14 0.000655 0.699423 0.677534
#
# Coordination Sequence:
#
# PCOD8171962 Si02
#       8
#     4   2   2   4   4   4   4   4
#     4  11  26  39  63 103 129 164 220 283 324 383
#     4  10  22  40  66  90 122 174 226 256 318 402
#     4  12  24  40  68  92 134 164 230 280 318 386
#     4  11  22  38  68  91 123 173 220 256 329 406
#     4  10  21  38  62  88 127 167 215 261 323 388
#     4  10  23  40  64  91 131 166 214 268 327 391
#     4  12  21  42  62  96 131 167 210 275 335 389
#     4  11  20  42  64  92 120 181 220 263 326 404
#
# _framework density 19.809224
#
# number of rings (size 3 to 8) (size 9 to 14) (size 15 to 20)
#    0.000    1.143    4.286    1.714    6.000    0.000 
#    0.000    2.143    0.000    0.000    0.000    0.000 
#    0.000    0.000    0.000    0.000    0.000    0.000 
#
# Total GULP energy -347119.044292 kJ/mol
# GULP energy per Si atom -12397.108725 kJ/mol
# Density = 1.976414 g / cm^3
# Si number density = 19.809224 Si / 1000 Ang^3
#
#
#
# Elastic Constant Matrix: (Units=GPa)
#
#
# Indices 1 2 3 4 5 6 
#
# 1 122.3456 42.8331 40.9780 0.0000 0.0000 0.0000
# 2 42.8331 95.2260 43.4103 0.0000 0.0000 0.0000
# 3 40.9780 43.4103 107.3321 0.0000 0.0000 0.0000
# 4 0.0000 0.0000 0.0000 38.6153 0.0000 0.0000
# 5 0.0000 0.0000 0.0000 0.0000 30.2255 0.0000
# 6 0.0000 0.0000 0.0000 0.0000 0.0000 28.0747
#
#
#
# Elastic Compliance Matrix: (Units=1/GPa)
#
#
# Indices 1 2 3 4 5 6 
#
# 1 0.010223 -0.003456 -0.002505 0.000000 0.000000 0.000000
# 2 -0.003456 0.014044 -0.004360 0.000000 0.000000 0.000000
# 3 -0.002505 -0.004360 0.012037 0.000000 0.000000 0.000000
# 4 0.000000 0.000000 0.000000 0.025896 0.000000 0.000000
# 5 0.000000 0.000000 0.000000 0.000000 0.033085 0.000000
# 6 0.000000 0.000000 0.000000 0.000000 0.000000 0.035619
#
#
# Mechanical properties :
#
#
# Convention : Reuss Voigt Hill
#
# Bulk Modulus (GPa) = 63.85752 64.37184 64.11468
# Shear Modulus (GPa) = 31.89451 32.56192 32.22821
#
# Velocity S-wave (km/s) = 4.01694 4.05875 4.03790
# Velocity P-wave (km/s) = 7.33625 7.38451 7.36042
#
# Compressibility (1/GPa) = 0.01565986
#
# Stress axis : x y z
#
# Youngs Moduli (GPa) = 97.82245 71.20617 83.07847
#
# Poissons Ratio (x) = 0.24611 0.20811
# Poissons Ratio (y) = 0.33810 0.36226
# Poissons Ratio (z) = 0.24504 0.31049
#
# Static dielectric constant tensor:
#      x y z
#    x 3.979670 0.000000 0.000000 
#    y 0.000000 3.590190 0.000000 
#    z 0.000000 0.000000 3.698060 
# 
# 
# High freq. dielectric constant tensor:
#      x y z
#    x 1.788140 0.000000 0.000000 
#    y 0.000000 1.768890 0.000000 
#    z 0.000000 0.000000 1.766610 
# 
# From -- ./inp_files/2806.got.cif
#   From: 2010.03.12/outbox.cif.g09.slc.cpg/sg34_2_cif.got.tgz:2806.got - 2010.04.14 01:56:33.
