data_PCOD8171014
_publ_section_title
;
Structure prediction by ZEFSAII (Michael W. Deem and Ramdas Pophale) SiO2 
 PCOD8171014
Probable space group: P N A 21
;
_chemical_formula_sum "Si O2"
_cell_formula_units_Z 32
_cell_length_a 19.860362
_cell_length_b 8.875765
_cell_length_c 9.186013
_cell_angle_alpha 90.000000
_cell_angle_beta 90.000000
_cell_angle_gamma 90.000000
_cell_volume 1619.272763
_symmetry_space_group_name_H-M "P N A 21"
_symmetry_group_IT_number 33
_symmetry_cell_setting 'orthorhombic'
loop_
_space_group_symop_operation_xyz
x,y,z
-x,-y,1/2+z
1/2-x,1/2+y,1/2+z
1/2+x,1/2-y,z
loop_
_atom_site_type_symbol
_atom_site_label
_atom_site_fract_x
_atom_site_fract_y
_atom_site_fract_z
Si Si1 0.880455 0.077494 0.090780
Si Si2 0.957445 0.434475 0.711791
Si Si3 0.141481 0.523948 0.967269
Si Si4 0.958747 0.785866 0.041281
Si Si5 0.743773 0.387729 0.672815
Si Si6 0.155021 0.643097 0.430867
Si Si7 0.162014 0.395396 0.660393
Si Si8 0.047239 0.699041 0.795617
O O1 0.927002 0.197117 0.169878
O O2 0.937412 0.958788 0.047063
O O3 0.822759 0.993085 0.184697
O O4 0.846786 0.175772 0.960349
O O5 0.910822 0.525140 0.594656
O O6 0.916164 0.407424 0.860362
O O7 0.982498 0.270780 0.652171
O O8 0.024203 0.534717 0.736506
O O9 0.147184 0.405495 0.834028
O O10 0.110819 0.678206 0.902943
O O11 0.214429 0.554591 0.034156
O O12 0.895114 0.681927 0.065768
O O13 0.983412 0.770159 0.875822
O O14 0.785069 0.399701 0.821640
O O15 0.726731 0.212595 0.644633
O O16 0.171682 0.558624 0.584265
#
# Coordination Sequence:
#
# PCOD8171014 Si02
#       8
#     4   4   4   4   4   4   4   4
#     4  11  24  39  63  91 125 162 201 266 310 351
#     4  10  21  39  65  92 121 163 207 244 307 388
#     4  10  21  39  64  88 119 157 209 253 296 363
#     4  10  22  38  59  93 128 152 198 254 309 366
#     4  10  25  41  59  90 124 158 215 255 306 358
#     4  11  22  40  66  86 122 167 207 250 309 373
#     4  11  20  39  65  84 118 166 201 252 301 372
#     4  11  21  39  63  94 121 165 204 250 310 377
#
# _framework density 19.761959999999998
#
# number of rings (size 3 to 8) (size 9 to 14) (size 15 to 20)
#    0.000    1.500    3.750    0.750    5.250    0.000 
#    2.250    0.000    2.750    0.000    0.000    0.000 
#    0.000    0.000    0.000    0.000    0.000    0.000 
#
# Total GULP energy -396516.115511 kJ/mol
# GULP energy per Si atom -12391.128610 kJ/mol
# Density = 1.971698 g / cm^3
# Si number density = 19.761960 Si / 1000 Ang^3
#
#
#
# Elastic Constant Matrix: (Units=GPa)
#
#
# Indices 1 2 3 4 5 6 
#
# 1 78.9790 36.6245 29.1497 0.0000 0.0000 0.0000
# 2 36.6245 111.7017 32.7437 0.0000 0.0000 0.0000
# 3 29.1497 32.7437 87.3746 0.0000 0.0000 0.0000
# 4 0.0000 0.0000 0.0000 23.2281 0.0000 0.0000
# 5 0.0000 0.0000 0.0000 0.0000 28.5348 0.0000
# 6 0.0000 0.0000 0.0000 0.0000 0.0000 28.1504
#
#
#
# Elastic Compliance Matrix: (Units=1/GPa)
#
#
# Indices 1 2 3 4 5 6 
#
# 1 0.015972 -0.004128 -0.003781 0.000000 0.000000 0.000000
# 2 -0.004128 0.011124 -0.002792 0.000000 0.000000 0.000000
# 3 -0.003781 -0.002792 0.013753 0.000000 0.000000 0.000000
# 4 0.000000 0.000000 0.000000 0.043051 0.000000 0.000000
# 5 0.000000 0.000000 0.000000 0.000000 0.035045 0.000000
# 6 0.000000 0.000000 0.000000 0.000000 0.000000 0.035523
#
#
# Mechanical properties :
#
#
# Convention : Reuss Voigt Hill
#
# Bulk Modulus (GPa) = 51.42403 52.78790 52.10596
# Shear Modulus (GPa) = 27.41937 27.95180 27.68559
#
# Velocity S-wave (km/s) = 3.72893 3.76496 3.74699
# Velocity P-wave (km/s) = 6.67968 6.75794 6.71893
#
# Compressibility (1/GPa) = 0.01944616
#
# Stress axis : x y z
#
# Youngs Moduli (GPa) = 62.61108 89.89333 72.71338
#
# Poissons Ratio (x) = 0.37111 0.27495
# Poissons Ratio (y) = 0.25848 0.20298
# Poissons Ratio (z) = 0.23675 0.25094
#
# Static dielectric constant tensor:
#      x y z
#    x 3.717820 0.000000 0.000000 
#    y 0.000000 3.664610 0.000000 
#    z 0.000000 0.000000 3.615600 
# 
# 
# High freq. dielectric constant tensor:
#      x y z
#    x 1.779170 0.000000 0.000000 
#    y 0.000000 1.755300 0.000000 
#    z 0.000000 0.000000 1.770630 
# 
# From -- ./inp_files/4978.got.cif
#   From: 2010.03.12/outbox.cif.g09.slc.cpg/sg33_3_cif.got.tgz:4978.got - 2010.04.14 01:49:19.
