data_PCOD8171274
_publ_section_title
;
Structure prediction by ZEFSAII (Michael W. Deem and Ramdas Pophale) SiO2 
 PCOD8171274
Probable space group: P N A 21
;
_chemical_formula_sum "Si O2"
_cell_formula_units_Z 32
_cell_length_a 12.066464
_cell_length_b 6.451130
_cell_length_c 18.029594
_cell_angle_alpha 90.000000
_cell_angle_beta 90.000000
_cell_angle_gamma 90.000000
_cell_volume 1403.465568
_symmetry_space_group_name_H-M "P N A 21"
_symmetry_group_IT_number 33
_symmetry_cell_setting 'orthorhombic'
loop_
_space_group_symop_operation_xyz
x,y,z
-x,-y,1/2+z
1/2-x,1/2+y,1/2+z
1/2+x,1/2-y,z
loop_
_atom_site_type_symbol
_atom_site_label
_atom_site_fract_x
_atom_site_fract_y
_atom_site_fract_z
Si Si1 0.068138 0.126169 0.002650
Si Si2 0.040713 0.521834 0.405926
Si Si3 0.192652 0.384305 0.700588
Si Si4 0.298206 0.763091 0.635386
Si Si5 0.301818 0.011019 0.770267
Si Si6 0.128045 0.082089 0.589222
Si Si7 0.237952 0.313667 0.469418
Si Si8 0.345953 0.185236 0.333649
O O1 0.118501 0.276435 0.066106
O O2 0.976288 0.977207 0.039213
O O3 0.021161 0.273156 0.937032
O O4 0.162000 0.978627 0.968540
O O5 0.116426 0.574599 0.335637
O O6 0.120500 0.435124 0.469916
O O7 0.958641 0.335496 0.380900
O O8 0.263151 0.525467 0.644828
O O9 0.099639 0.256202 0.652749
O O10 0.145272 0.506861 0.771387
O O11 0.281988 0.223755 0.729539
O O12 0.356985 0.850455 0.710581
O O13 0.180701 0.879400 0.626116
O O14 0.183748 0.908166 0.797043
O O15 0.231609 0.168856 0.540867
O O16 0.248584 0.165016 0.396278
#
# Coordination Sequence:
#
# PCOD8171274 Si02
#       8
#     4   4   4   4   4   4   4   4
#     4  12  25  41  76 102 139 189 236 296 363 423
#     4  11  25  43  70 105 136 186 233 288 357 435
#     4  10  22  44  69  98 144 184 234 298 351 419
#     4  10  22  45  66 102 141 183 232 295 349 418
#     4   9  23  43  68  98 143 182 234 291 353 420
#     4  11  24  43  71  99 135 184 235 288 355 424
#     4  11  24  47  66 100 144 174 236 295 354 427
#     4  10  23  42  70  96 136 184 232 285 354 426
#
# _framework density 22.800701
#
# number of rings (size 3 to 8) (size 9 to 14) (size 15 to 20)
#    0.000    1.500    1.250    2.250    5.250    4.000 
#    2.250    0.000    0.000    0.000    0.000    0.000 
#    0.000    0.000    0.000    0.000    0.000    0.000 
#
# Total GULP energy -396489.415598 kJ/mol
# GULP energy per Si atom -12390.294237 kJ/mol
# Density = 2.274881 g / cm^3
# Si number density = 22.800701 Si / 1000 Ang^3
#
#
#
# Elastic Constant Matrix: (Units=GPa)
#
#
# Indices 1 2 3 4 5 6 
#
# 1 107.3711 58.2726 46.3588 0.0000 0.0000 0.0000
# 2 58.2726 118.5669 53.3965 0.0000 0.0000 0.0000
# 3 46.3588 53.3965 124.1926 0.0000 0.0000 0.0000
# 4 0.0000 0.0000 0.0000 42.7385 0.0000 0.0000
# 5 0.0000 0.0000 0.0000 0.0000 40.0657 0.0000
# 6 0.0000 0.0000 0.0000 0.0000 0.0000 32.1360
#
#
#
# Elastic Compliance Matrix: (Units=1/GPa)
#
#
# Indices 1 2 3 4 5 6 
#
# 1 0.013388 -0.005369 -0.002689 0.000000 0.000000 0.000000
# 2 -0.005369 0.012612 -0.003418 0.000000 0.000000 0.000000
# 3 -0.002689 -0.003418 0.010526 0.000000 0.000000 0.000000
# 4 0.000000 0.000000 0.000000 0.023398 0.000000 0.000000
# 5 0.000000 0.000000 0.000000 0.000000 0.024959 0.000000
# 6 0.000000 0.000000 0.000000 0.000000 0.000000 0.031118
#
#
# Mechanical properties :
#
#
# Convention : Reuss Voigt Hill
#
# Bulk Modulus (GPa) = 73.67627 74.02072 73.84849
# Shear Modulus (GPa) = 34.84827 35.79488 35.32158
#
# Velocity S-wave (km/s) = 3.91370 3.96650 3.94019
# Velocity P-wave (km/s) = 7.26678 7.31520 7.29103
#
# Compressibility (1/GPa) = 0.01357289
#
# Stress axis : x y z
#
# Youngs Moduli (GPa) = 74.69102 79.28767 95.00602
#
# Poissons Ratio (x) = 0.42569 0.25550
# Poissons Ratio (y) = 0.40102 0.32478
# Poissons Ratio (z) = 0.20087 0.27104
#
# Static dielectric constant tensor:
#      x y z
#    x 3.824570 0.000000 0.000000 
#    y 0.000000 4.092340 0.000000 
#    z 0.000000 0.000000 4.585260 
# 
# 
# High freq. dielectric constant tensor:
#      x y z
#    x 1.870000 0.000000 0.000000 
#    y 0.000000 1.899560 0.000000 
#    z 0.000000 0.000000 1.930680 
# 
# From -- ./inp_files/9117.got.cif
#   From: 2010.03.12/outbox.cif.g09.slc.cpg/sg33_5_cif.got.tgz:9117.got - 2010.04.14 01:49:19.
