data_PCOD8171420
_publ_section_title
;
Structure prediction by ZEFSAII (Michael W. Deem and Ramdas Pophale) SiO2 
 PCOD8171420
Probable space group: P N A 21
;
_chemical_formula_sum "Si O2"
_cell_formula_units_Z 20
_cell_length_a 10.515720
_cell_length_b 5.312239
_cell_length_c 15.064159
_cell_angle_alpha 90.000000
_cell_angle_beta 90.000000
_cell_angle_gamma 90.000000
_cell_volume 841.514320
_symmetry_space_group_name_H-M "P N A 21"
_symmetry_group_IT_number 33
_symmetry_cell_setting 'orthorhombic'
loop_
_space_group_symop_operation_xyz
x,y,z
-x,-y,1/2+z
1/2-x,1/2+y,1/2+z
1/2+x,1/2-y,z
loop_
_atom_site_type_symbol
_atom_site_label
_atom_site_fract_x
_atom_site_fract_y
_atom_site_fract_z
Si Si1 0.575526 0.283234 0.363860
Si Si2 0.998675 0.586809 0.218278
Si Si3 0.266692 0.315351 0.800903
Si Si4 0.057382 0.554650 0.017966
Si Si5 0.856753 0.955949 0.445056
O O1 0.715728 0.412248 0.350990
O O2 0.558471 0.087697 0.446624
O O3 0.484534 0.523401 0.385596
O O4 0.528515 0.167214 0.271235
O O5 0.112333 0.783004 0.237429
O O6 0.994289 0.538007 0.113789
O O7 0.860898 0.689613 0.244123
O O8 0.259428 0.086293 0.874031
O O9 0.134304 0.297208 0.003244
O O10 0.155874 0.793173 0.006304
#
# Coordination Sequence:
#
# PCOD8171420 Si02
#       5
#     4   4   4   4   4
#     4  10  24  46  77 104 155 201 255 308 389 446
#     4  12  27  46  77 115 152 206 255 326 379 469
#     4  12  24  48  77 112 157 202 259 313 395 457
#     4  10  24  49  72 113 148 200 259 309 384 449
#     4  10  23  49  75 104 150 199 248 310 375 453
#
# _framework density 23.766677999999999
#
# number of rings (size 3 to 8) (size 9 to 14) (size 15 to 20)
#    1.200    0.000    4.000    0.000    8.400    1.600 
#    3.600    0.000    0.000    0.000    0.000    0.000 
#    0.000    0.000    0.000    0.000    0.000    0.000 
#
# Total GULP energy -247792.420747 kJ/mol
# GULP energy per Si atom -12389.621037 kJ/mol
# Density = 2.371258 g / cm^3
# Si number density = 23.766678 Si / 1000 Ang^3
#
#
#
# Elastic Constant Matrix: (Units=GPa)
#
#
# Indices 1 2 3 4 5 6 
#
# 1 107.5065 18.2305 40.5997 0.0000 0.0000 0.0000
# 2 18.2305 133.3357 46.0397 0.0000 0.0000 0.0000
# 3 40.5997 46.0397 157.1138 0.0000 0.0000 0.0000
# 4 0.0000 0.0000 0.0000 29.2823 0.0000 0.0000
# 5 0.0000 0.0000 0.0000 0.0000 23.1561 0.0000
# 6 0.0000 0.0000 0.0000 0.0000 0.0000 36.3519
#
#
#
# Elastic Compliance Matrix: (Units=1/GPa)
#
#
# Indices 1 2 3 4 5 6 
#
# 1 0.010343 -0.000547 -0.002513 0.000000 0.000000 0.000000
# 2 -0.000547 0.008373 -0.002312 0.000000 0.000000 0.000000
# 3 -0.002513 -0.002312 0.007692 0.000000 0.000000 0.000000
# 4 0.000000 0.000000 0.000000 0.034150 0.000000 0.000000
# 5 0.000000 0.000000 0.000000 0.000000 0.043185 0.000000
# 6 0.000000 0.000000 0.000000 0.000000 0.000000 0.027509
#
#
# Mechanical properties :
#
#
# Convention : Reuss Voigt Hill
#
# Bulk Modulus (GPa) = 63.83699 67.52175 65.67937
# Shear Modulus (GPa) = 33.96342 37.29715 35.63029
#
# Velocity S-wave (km/s) = 3.78436 3.96574 3.87611
# Velocity P-wave (km/s) = 6.78331 7.03146 6.90850
#
# Compressibility (1/GPa) = 0.01566490
#
# Stress axis : x y z
#
# Youngs Moduli (GPa) = 96.68050 119.43107 130.01030
#
# Poissons Ratio (x) = 0.06528 0.32667
# Poissons Ratio (y) = 0.05285 0.30063
# Poissons Ratio (z) = 0.24292 0.27616
#
# Static dielectric constant tensor:
#      x y z
#    x 4.021440 0.000000 0.000000 
#    y 0.000000 4.329860 0.000000 
#    z 0.000000 0.000000 4.047520 
# 
# 
# High freq. dielectric constant tensor:
#      x y z
#    x 1.937030 0.000000 0.000000 
#    y 0.000000 1.956560 0.000000 
#    z 0.000000 0.000000 1.925930 
# 
# From -- ./inp_files/7848.got.cif
#   From: 2010.03.12/outbox.cif.g09.slc.cpg/sg33_4_cif.got.tgz:7848.got - 2010.04.14 01:49:19.
