data_PCOD8171523
_publ_section_title
;
Structure prediction by ZEFSAII (Michael W. Deem and Ramdas Pophale) SiO2 
 PCOD8171523
Probable space group: P N A 21
;
_chemical_formula_sum "Si O2"
_cell_formula_units_Z 32
_cell_length_a 8.789891
_cell_length_b 8.966972
_cell_length_c 18.919469
_cell_angle_alpha 90.000000
_cell_angle_beta 90.000000
_cell_angle_gamma 90.000000
_cell_volume 1491.208074
_symmetry_space_group_name_H-M "P N A 21"
_symmetry_group_IT_number 33
_symmetry_cell_setting 'orthorhombic'
loop_
_space_group_symop_operation_xyz
x,y,z
-x,-y,1/2+z
1/2-x,1/2+y,1/2+z
1/2+x,1/2-y,z
loop_
_atom_site_type_symbol
_atom_site_label
_atom_site_fract_x
_atom_site_fract_y
_atom_site_fract_z
Si Si1 0.441275 0.627845 0.786820
Si Si2 0.748545 0.211158 0.891395
Si Si3 0.890174 0.910341 0.936852
Si Si4 0.867942 0.851603 0.254323
Si Si5 0.416544 0.197679 0.506903
Si Si6 0.026971 0.539976 0.410401
Si Si7 0.928681 0.354074 0.672102
Si Si8 0.403859 0.079637 0.259236
O O1 0.408257 0.687421 0.865961
O O2 0.565350 0.495685 0.793319
O O3 0.523209 0.759073 0.744171
O O4 0.278680 0.583412 0.754356
O O5 0.698820 0.226146 0.808454
O O6 0.811887 0.374931 0.910099
O O7 0.598875 0.163866 0.935212
O O8 0.874822 0.082214 0.908945
O O9 0.746284 0.850468 0.979202
O O10 0.036660 0.869128 0.986180
O O11 0.738065 0.898239 0.199162
O O12 0.012502 0.792969 0.211066
O O13 0.425618 0.174001 0.589462
O O14 0.540156 0.090681 0.467906
O O15 0.969600 0.484122 0.333471
O O16 0.046324 0.484187 0.691559
#
# Coordination Sequence:
#
# PCOD8171523 Si02
#       8
#     4   4   4   4   4   4   4   4
#     4  12  23  40  69 100 129 171 225 294 336 394
#     4  11  21  38  64  97 125 165 224 285 321 384
#     4  11  21  41  63  97 129 170 228 276 338 399
#     4  12  23  41  68  97 134 174 225 285 340 399
#     4  11  25  41  64  92 140 177 216 277 340 416
#     4  11  22  41  62  95 131 167 221 277 330 389
#     4  12  24  43  63  97 135 182 221 274 344 415
#     4  12  23  41  65 101 133 170 232 282 337 402
#
# _framework density 21.459111
#
# number of rings (size 3 to 8) (size 9 to 14) (size 15 to 20)
#    0.000    0.500    6.250    3.750    0.000    2.000 
#    0.000    6.250    0.000    0.000    0.000    0.000 
#    0.000    0.000    0.000    0.000    0.000    0.000 
#
# Total GULP energy -396502.408001 kJ/mol
# GULP energy per Si atom -12390.700250 kJ/mol
# Density = 2.141027 g / cm^3
# Si number density = 21.459111 Si / 1000 Ang^3
#
#
#
# Elastic Constant Matrix: (Units=GPa)
#
#
# Indices 1 2 3 4 5 6 
#
# 1 69.1475 28.8945 6.3693 0.0000 0.0000 0.0000
# 2 28.8945 81.7774 25.0270 0.0000 0.0000 0.0000
# 3 6.3693 25.0270 83.3666 0.0000 0.0000 0.0000
# 4 0.0000 0.0000 0.0000 20.9308 0.0000 0.0000
# 5 0.0000 0.0000 0.0000 0.0000 28.4248 0.0000
# 6 0.0000 0.0000 0.0000 0.0000 0.0000 45.3777
#
#
#
# Elastic Compliance Matrix: (Units=1/GPa)
#
#
# Indices 1 2 3 4 5 6 
#
# 1 0.016990 -0.006173 0.000555 0.000000 0.000000 0.000000
# 2 -0.006173 0.015708 -0.004244 0.000000 0.000000 0.000000
# 3 0.000555 -0.004244 0.013227 0.000000 0.000000 0.000000
# 4 0.000000 0.000000 0.000000 0.047776 0.000000 0.000000
# 5 0.000000 0.000000 0.000000 0.000000 0.035180 0.000000
# 6 0.000000 0.000000 0.000000 0.000000 0.000000 0.022037
#
#
# Mechanical properties :
#
#
# Convention : Reuss Voigt Hill
#
# Bulk Modulus (GPa) = 38.16595 39.43035 38.79815
# Shear Modulus (GPa) = 27.87417 30.54671 29.21044
#
# Velocity S-wave (km/s) = 3.60800 3.77700 3.69347
# Velocity P-wave (km/s) = 5.93135 6.11846 6.02563
#
# Compressibility (1/GPa) = 0.02620137
#
# Stress axis : x y z
#
# Youngs Moduli (GPa) = 58.85734 63.66054 75.60355
#
# Poissons Ratio (x) = 0.39298 -0.04197
# Poissons Ratio (y) = 0.36333 0.32087
# Poissons Ratio (z) = -0.03267 0.27018
#
# Static dielectric constant tensor:
#      x y z
#    x 4.176160 0.000000 0.000000 
#    y 0.000000 4.100490 0.000000 
#    z 0.000000 0.000000 3.567240 
# 
# 
# High freq. dielectric constant tensor:
#      x y z
#    x 1.858610 0.000000 0.000000 
#    y 0.000000 1.848770 0.000000 
#    z 0.000000 0.000000 1.800530 
# 
# From -- ./inp_files/8931.got.cif
#   From: 2010.03.12/outbox.cif.g09.slc.cpg/sg33_5_cif.got.tgz:8931.got - 2010.04.14 01:49:19.
