data_PCOD8171693
_publ_section_title
;
Structure prediction by ZEFSAII (Michael W. Deem and Ramdas Pophale) SiO2 
 PCOD8171693
Probable space group: P N A 21
;
_chemical_formula_sum "Si O2"
_cell_formula_units_Z 20
_cell_length_a 15.356362
_cell_length_b 10.898416
_cell_length_c 4.983617
_cell_angle_alpha 90.000000
_cell_angle_beta 90.000000
_cell_angle_gamma 90.000000
_cell_volume 834.058247
_symmetry_space_group_name_H-M "P N A 21"
_symmetry_group_IT_number 33
_symmetry_cell_setting 'orthorhombic'
loop_
_space_group_symop_operation_xyz
x,y,z
-x,-y,1/2+z
1/2-x,1/2+y,1/2+z
1/2+x,1/2-y,z
loop_
_atom_site_type_symbol
_atom_site_label
_atom_site_fract_x
_atom_site_fract_y
_atom_site_fract_z
Si Si1 0.125644 0.638533 0.094010
Si Si2 0.558776 0.212594 0.606494
Si Si3 0.186970 0.500178 0.594022
Si Si4 0.480717 0.630145 0.584680
Si Si5 0.870780 0.091218 0.719048
O O1 0.187619 0.570779 0.310070
O O2 0.150080 0.782116 0.066873
O O3 0.023891 0.624707 0.172484
O O4 0.133060 0.579576 0.802946
O O5 0.643697 0.132583 0.545296
O O6 0.534005 0.303010 0.365005
O O7 0.575866 0.294954 0.866700
O O8 0.282270 0.486307 0.726814
O O9 0.584509 0.624985 0.507811
O O10 0.444086 0.490974 0.570845
#
# Coordination Sequence:
#
# PCOD8171693 Si02
#       5
#     4   4   4   4   4
#     4  11  25  45  68 103 144 186 231 296 360 428
#     4  11  24  47  74 104 142 190 234 293 368 434
#     4  12  27  42  75 104 146 181 243 295 357 423
#     4  11  25  46  74 102 143 190 240 290 363 432
#     4  11  27  46  75 105 145 189 246 294 360 427
#
# _framework density 23.979144000000002
#
# number of rings (size 3 to 8) (size 9 to 14) (size 15 to 20)
#    0.000    0.800    0.000    7.200    5.600    8.000 
#    0.000    0.000    0.000    0.000    0.000    0.000 
#    0.000    0.000    0.000    0.000    0.000    0.000 
#
# Total GULP energy -247970.499576 kJ/mol
# GULP energy per Si atom -12398.524979 kJ/mol
# Density = 2.392457 g / cm^3
# Si number density = 23.979144 Si / 1000 Ang^3
#
#
#
# Elastic Constant Matrix: (Units=GPa)
#
#
# Indices 1 2 3 4 5 6 
#
# 1 107.2760 39.0122 10.9238 0.0000 0.0000 0.0000
# 2 39.0122 124.6769 30.4494 0.0000 0.0000 0.0000
# 3 10.9238 30.4494 82.2977 0.0000 0.0000 0.0000
# 4 0.0000 0.0000 0.0000 43.5434 0.0000 0.0000
# 5 0.0000 0.0000 0.0000 0.0000 25.5817 0.0000
# 6 0.0000 0.0000 0.0000 0.0000 0.0000 23.7591
#
#
#
# Elastic Compliance Matrix: (Units=1/GPa)
#
#
# Indices 1 2 3 4 5 6 
#
# 1 0.010522 -0.003244 -0.000196 0.000000 0.000000 0.000000
# 2 -0.003244 0.009818 -0.003202 0.000000 0.000000 0.000000
# 3 -0.000196 -0.003202 0.013362 0.000000 0.000000 0.000000
# 4 0.000000 0.000000 0.000000 0.022966 0.000000 0.000000
# 5 0.000000 0.000000 0.000000 0.000000 0.039090 0.000000
# 6 0.000000 0.000000 0.000000 0.000000 0.000000 0.042089
#
#
# Mechanical properties :
#
#
# Convention : Reuss Voigt Hill
#
# Bulk Modulus (GPa) = 48.98049 52.78017 50.88033
# Shear Modulus (GPa) = 31.65827 34.16786 32.91306
#
# Velocity S-wave (km/s) = 3.63745 3.77888 3.70884
# Velocity P-wave (km/s) = 6.17350 6.41081 6.29327
#
# Compressibility (1/GPa) = 0.02041629
#
# Stress axis : x y z
#
# Youngs Moduli (GPa) = 95.04280 101.85482 74.84070
#
# Poissons Ratio (x) = 0.33045 0.01468
# Poissons Ratio (y) = 0.30835 0.23963
# Poissons Ratio (z) = 0.01865 0.32613
#
# Static dielectric constant tensor:
#      x y z
#    x 4.308270 0.000000 0.000000 
#    y 0.000000 4.441670 0.000000 
#    z 0.000000 0.000000 4.180300 
# 
# 
# High freq. dielectric constant tensor:
#      x y z
#    x 1.935620 0.000000 0.000000 
#    y 0.000000 1.970300 0.000000 
#    z 0.000000 0.000000 1.953210 
# 
# From -- ./inp_files/1617.got.cif
#   From: 2010.03.12/outbox.cif.g09.slc.cpg/sg33_1_cif.got.tgz:1617.got - 2010.04.14 01:49:19.
