data_PCOD8171351
_publ_section_title
;
Structure prediction by ZEFSAII (Michael W. Deem and Ramdas Pophale) SiO2 
 PCOD8171351
Probable space group: P N A 21
;
_chemical_formula_sum "Si O2"
_cell_formula_units_Z 32
_cell_length_a 9.209490
_cell_length_b 13.862693
_cell_length_c 11.599085
_cell_angle_alpha 90.000000
_cell_angle_beta 90.000000
_cell_angle_gamma 90.000000
_cell_volume 1480.835841
_symmetry_space_group_name_H-M "P N A 21"
_symmetry_group_IT_number 33
_symmetry_cell_setting 'orthorhombic'
loop_
_space_group_symop_operation_xyz
x,y,z
-x,-y,1/2+z
1/2-x,1/2+y,1/2+z
1/2+x,1/2-y,z
loop_
_atom_site_type_symbol
_atom_site_label
_atom_site_fract_x
_atom_site_fract_y
_atom_site_fract_z
Si Si1 0.885834 0.718930 0.058440
Si Si2 0.528027 0.930078 0.909610
Si Si3 0.193002 0.386439 0.227389
Si Si4 0.084145 0.361840 0.993667
Si Si5 0.095997 0.857423 0.178472
Si Si6 0.902690 0.185029 0.941525
Si Si7 0.499277 0.432156 0.152386
Si Si8 0.295803 0.684186 0.822383
O O1 0.741776 0.681116 0.119756
O O2 0.965197 0.785900 0.150075
O O3 0.990908 0.628695 0.026511
O O4 0.858689 0.784418 0.946002
O O5 0.378189 0.934839 0.838760
O O6 0.651537 0.877816 0.836170
O O7 0.583456 0.037104 0.928683
O O8 0.332335 0.449074 0.190692
O O9 0.250191 0.278740 0.252264
O O10 0.067029 0.382991 0.129717
O O11 0.238215 0.309106 0.983229
O O12 0.959388 0.294835 0.940752
O O13 0.099390 0.863305 0.316370
O O14 0.070011 0.964169 0.129565
O O15 0.002111 0.123648 0.030035
O O16 0.583772 0.374959 0.252093
#
# Coordination Sequence:
#
# PCOD8171351 Si02
#       8
#     4   4   4   4   4   4   4   4
#     4  11  26  46  69 104 142 185 237 294 354 421
#     4  11  25  43  74 102 141 184 242 289 357 427
#     4  10  23  42  69 104 140 184 230 303 340 418
#     4  11  25  44  68 101 141 182 238 285 360 417
#     4  12  27  45  73 101 149 188 234 292 362 426
#     4  11  26  46  67 103 143 187 230 300 352 431
#     4  11  26  43  74 107 141 187 245 287 362 430
#     4  11  22  45  74 104 141 185 238 298 345 426
#
# _framework density 21.609418000000002
#
# number of rings (size 3 to 8) (size 9 to 14) (size 15 to 20)
#    0.000    1.000    2.500    3.000    8.750    6.000 
#    0.000    0.000    0.000    0.000    0.000    0.000 
#    0.000    0.000    0.000    0.000    0.000    0.000 
#
# Total GULP energy -396909.631647 kJ/mol
# GULP energy per Si atom -12403.425989 kJ/mol
# Density = 2.156023 g / cm^3
# Si number density = 21.609418 Si / 1000 Ang^3
#
#
#
# Elastic Constant Matrix: (Units=GPa)
#
#
# Indices 1 2 3 4 5 6 
#
# 1 101.8259 55.7146 35.3865 0.0000 0.0000 0.0000
# 2 55.7146 116.2552 38.0198 0.0000 0.0000 0.0000
# 3 35.3865 38.0198 113.5691 0.0000 0.0000 0.0000
# 4 0.0000 0.0000 0.0000 22.4664 0.0000 0.0000
# 5 0.0000 0.0000 0.0000 0.0000 36.5755 0.0000
# 6 0.0000 0.0000 0.0000 0.0000 0.0000 28.5515
#
#
#
# Elastic Compliance Matrix: (Units=1/GPa)
#
#
# Indices 1 2 3 4 5 6 
#
# 1 0.013848 -0.005868 -0.002350 0.000000 0.000000 0.000000
# 2 -0.005868 0.012146 -0.002238 0.000000 0.000000 0.000000
# 3 -0.002350 -0.002238 0.010287 0.000000 0.000000 0.000000
# 4 0.000000 0.000000 0.000000 0.044511 0.000000 0.000000
# 5 0.000000 0.000000 0.000000 0.000000 0.027341 0.000000
# 6 0.000000 0.000000 0.000000 0.000000 0.000000 0.035024
#
#
# Mechanical properties :
#
#
# Convention : Reuss Voigt Hill
#
# Bulk Modulus (GPa) = 65.06855 65.54356 65.30605
# Shear Modulus (GPa) = 29.55225 31.02062 30.28643
#
# Velocity S-wave (km/s) = 3.70207 3.79293 3.74777
# Velocity P-wave (km/s) = 6.96063 7.04121 7.00103
#
# Compressibility (1/GPa) = 0.01536841
#
# Stress axis : x y z
#
# Youngs Moduli (GPa) = 72.21149 82.33323 97.21282
#
# Poissons Ratio (x) = 0.48313 0.22850
# Poissons Ratio (y) = 0.42374 0.21753
# Poissons Ratio (z) = 0.16973 0.18424
#
# Static dielectric constant tensor:
#      x y z
#    x 3.863420 0.000000 0.000000 
#    y 0.000000 3.843980 0.000000 
#    z 0.000000 0.000000 4.063390 
# 
# 
# High freq. dielectric constant tensor:
#      x y z
#    x 1.853150 0.000000 0.000000 
#    y 0.000000 1.848850 0.000000 
#    z 0.000000 0.000000 1.858800 
# 
# From -- ./inp_files/5951.got.cif
#   From: 2010.03.12/outbox.cif.g09.slc.cpg/sg33_3_cif.got.tgz:5951.got - 2010.04.14 01:49:19.
