data_PCOD8171084
_publ_section_title
;
Structure prediction by ZEFSAII (Michael W. Deem and Ramdas Pophale) SiO2 
 PCOD8171084
Probable space group: P N A 21
;
_chemical_formula_sum "Si O2"
_cell_formula_units_Z 28
_cell_length_a 30.001488
_cell_length_b 8.281336
_cell_length_c 5.128487
_cell_angle_alpha 90.000000
_cell_angle_beta 90.000000
_cell_angle_gamma 90.000000
_cell_volume 1274.184917
_symmetry_space_group_name_H-M "P N A 21"
_symmetry_group_IT_number 33
_symmetry_cell_setting 'orthorhombic'
loop_
_space_group_symop_operation_xyz
x,y,z
-x,-y,1/2+z
1/2-x,1/2+y,1/2+z
1/2+x,1/2-y,z
loop_
_atom_site_type_symbol
_atom_site_label
_atom_site_fract_x
_atom_site_fract_y
_atom_site_fract_z
Si Si1 0.974477 0.560590 0.287980
Si Si2 0.213346 0.398052 0.725977
Si Si3 0.105965 0.832344 0.376574
Si Si4 0.124639 0.548357 0.702241
Si Si5 0.650031 0.626523 0.873104
Si Si6 0.006366 0.900605 0.356161
Si Si7 0.757750 0.965688 0.240163
O O1 0.923679 0.502150 0.306898
O O2 0.004432 0.476215 0.507159
O O3 0.972373 0.752776 0.328861
O O4 0.159118 0.397876 0.701191
O O5 0.230989 0.218612 0.670667
O O6 0.229784 0.523439 0.506150
O O7 0.230454 0.454828 0.006306
O O8 0.119251 0.642658 0.423160
O O9 0.114713 0.928663 0.648694
O O10 0.055239 0.836274 0.287355
O O11 0.135349 0.928740 0.161249
O O12 0.147920 0.677923 0.897027
O O13 0.697977 0.566736 0.792652
O O14 0.006100 0.959919 0.653745
#
# Coordination Sequence:
#
# PCOD8171084 Si02
#       7
#     4   4   4   4   4   4   4
#     4  12  24  45  72  99 136 186 232 280 345 412
#     4  12  27  44  71 103 138 177 233 276 352 401
#     4  10  22  41  67  98 133 182 222 278 344 399
#     4  10  25  41  72  99 135 179 234 283 337 414
#     4  10  21  41  70  92 136 175 226 273 349 395
#     4  12  25  43  66 103 141 182 227 290 342 404
#     4  12  26  47  70 104 139 183 222 290 339 423
#
# _framework density 21.974830999999998
#
# number of rings (size 3 to 8) (size 9 to 14) (size 15 to 20)
#    0.857    0.000    1.429    6.000    4.000    2.286 
#    0.000    0.000    0.000    0.000    0.000    0.000 
#    0.000    0.000    0.000    0.000    0.000    0.000 
#
# Total GULP energy -347025.668091 kJ/mol
# GULP energy per Si atom -12393.773860 kJ/mol
# Density = 2.192482 g / cm^3
# Si number density = 21.974831 Si / 1000 Ang^3
#
#
#
# Elastic Constant Matrix: (Units=GPa)
#
#
# Indices 1 2 3 4 5 6 
#
# 1 130.2424 41.2875 23.3667 0.0000 0.0000 0.0000
# 2 41.2875 86.5473 17.6800 0.0000 0.0000 0.0000
# 3 23.3667 17.6800 119.0840 0.0000 0.0000 0.0000
# 4 0.0000 0.0000 0.0000 22.7043 0.0000 0.0000
# 5 0.0000 0.0000 0.0000 0.0000 27.3616 0.0000
# 6 0.0000 0.0000 0.0000 0.0000 0.0000 37.1162
#
#
#
# Elastic Compliance Matrix: (Units=1/GPa)
#
#
# Indices 1 2 3 4 5 6 
#
# 1 0.009207 -0.004149 -0.001191 0.000000 0.000000 0.000000
# 2 -0.004149 0.013785 -0.001233 0.000000 0.000000 0.000000
# 3 -0.001191 -0.001233 0.008814 0.000000 0.000000 0.000000
# 4 0.000000 0.000000 0.000000 0.044044 0.000000 0.000000
# 5 0.000000 0.000000 0.000000 0.000000 0.036548 0.000000
# 6 0.000000 0.000000 0.000000 0.000000 0.000000 0.026942
#
#
# Mechanical properties :
#
#
# Convention : Reuss Voigt Hill
#
# Bulk Modulus (GPa) = 53.58446 55.61581 54.60014
# Shear Modulus (GPa) = 31.50488 34.33905 32.92196
#
# Velocity S-wave (km/s) = 3.79050 3.95733 3.87482
# Velocity P-wave (km/s) = 6.60262 6.80033 6.70220
#
# Compressibility (1/GPa) = 0.01866213
#
# Stress axis : x y z
#
# Youngs Moduli (GPa) = 108.61513 72.54045 113.45522
#
# Poissons Ratio (x) = 0.30096 0.13508
# Poissons Ratio (y) = 0.45063 0.13984
# Poissons Ratio (z) = 0.12932 0.08941
#
# Static dielectric constant tensor:
#      x y z
#    x 3.977030 0.000000 0.000000 
#    y 0.000000 3.815380 0.000000 
#    z 0.000000 0.000000 4.091210 
# 
# 
# High freq. dielectric constant tensor:
#      x y z
#    x 1.873610 0.000000 0.000000 
#    y 0.000000 1.843020 0.000000 
#    z 0.000000 0.000000 1.875290 
# 
# From -- ./inp_files/2443.got.cif
#   From: 2010.03.12/outbox.cif.g09.slc.cpg/sg33_2_cif.got.tgz:2443.got - 2010.04.14 01:49:19.
