data_PCOD8171618
_publ_section_title
;
Structure prediction by ZEFSAII (Michael W. Deem and Ramdas Pophale) SiO2 
 PCOD8171618
Probable space group: P N A 21
;
_chemical_formula_sum "Si O2"
_cell_formula_units_Z 32
_cell_length_a 9.302063
_cell_length_b 11.241694
_cell_length_c 14.547391
_cell_angle_alpha 90.000000
_cell_angle_beta 90.000000
_cell_angle_gamma 90.000000
_cell_volume 1521.234436
_symmetry_space_group_name_H-M "P N A 21"
_symmetry_group_IT_number 33
_symmetry_cell_setting 'orthorhombic'
loop_
_space_group_symop_operation_xyz
x,y,z
-x,-y,1/2+z
1/2-x,1/2+y,1/2+z
1/2+x,1/2-y,z
loop_
_atom_site_type_symbol
_atom_site_label
_atom_site_fract_x
_atom_site_fract_y
_atom_site_fract_z
Si Si1 0.809738 0.256779 0.408960
Si Si2 0.383380 0.712317 0.230216
Si Si3 0.515205 0.494587 0.137275
Si Si4 0.374261 0.183079 0.855345
Si Si5 0.033373 0.511731 0.965193
Si Si6 0.708630 0.116313 0.579611
Si Si7 0.556472 0.394370 0.336502
Si Si8 0.835730 0.094761 0.975756
O O1 0.915675 0.368157 0.416738
O O2 0.746937 0.219966 0.507674
O O3 0.674251 0.289960 0.345291
O O4 0.897892 0.148226 0.365405
O O5 0.426845 0.615533 0.154333
O O6 0.523789 0.755251 0.282005
O O7 0.275257 0.655176 0.304220
O O8 0.312147 0.824221 0.179067
O O9 0.663127 0.522203 0.085213
O O10 0.550764 0.428457 0.230855
O O11 0.422195 0.411254 0.070778
O O12 0.438666 0.059697 0.891124
O O13 0.345455 0.270792 0.940518
O O14 0.169222 0.434002 0.997236
O O15 0.935657 0.545309 0.052593
O O16 0.600875 0.505506 0.399605
#
# Coordination Sequence:
#
# PCOD8171618 Si02
#       8
#     4   4   4   4   4   4   4   4
#     4  11  23  45  69 100 138 182 229 291 347 421
#     4  12  24  44  70 107 135 183 242 291 337 423
#     4  12  26  42  73 102 140 183 233 290 352 424
#     4  12  26  46  72  99 146 186 231 290 361 416
#     4  11  26  44  72 101 135 191 230 289 357 422
#     4  12  24  44  71 106 135 182 240 291 344 413
#     4  11  23  45  69  99 136 182 230 289 349 411
#     4  11  24  48  68 102 145 181 237 293 355 418
#
# _framework density 21.035549
#
# number of rings (size 3 to 8) (size 9 to 14) (size 15 to 20)
#    0.000    0.500    6.250    2.250    7.000    0.000 
#    4.500    0.000    0.000    0.000    0.000    0.000 
#    0.000    0.000    0.000    0.000    0.000    0.000 
#
# Total GULP energy -397014.423472 kJ/mol
# GULP energy per Si atom -12406.700734 kJ/mol
# Density = 2.098767 g / cm^3
# Si number density = 21.035549 Si / 1000 Ang^3
#
#
#
# Elastic Constant Matrix: (Units=GPa)
#
#
# Indices 1 2 3 4 5 6 
#
# 1 82.6405 30.7340 39.4808 0.0000 0.0000 0.0000
# 2 30.7340 63.7427 32.4233 0.0000 0.0000 0.0000
# 3 39.4808 32.4233 111.6207 0.0000 0.0000 0.0000
# 4 0.0000 0.0000 0.0000 38.6665 0.0000 0.0000
# 5 0.0000 0.0000 0.0000 0.0000 37.8213 0.0000
# 6 0.0000 0.0000 0.0000 0.0000 0.0000 35.1953
#
#
#
# Elastic Compliance Matrix: (Units=1/GPa)
#
#
# Indices 1 2 3 4 5 6 
#
# 1 0.016170 -0.005734 -0.004054 0.000000 0.000000 0.000000
# 2 -0.005734 0.020442 -0.003910 0.000000 0.000000 0.000000
# 3 -0.004054 -0.003910 0.011528 0.000000 0.000000 0.000000
# 4 0.000000 0.000000 0.000000 0.025862 0.000000 0.000000
# 5 0.000000 0.000000 0.000000 0.000000 0.026440 0.000000
# 6 0.000000 0.000000 0.000000 0.000000 0.000000 0.028413
#
#
# Mechanical properties :
#
#
# Convention : Reuss Voigt Hill
#
# Bulk Modulus (GPa) = 48.20545 51.47556 49.84051
# Shear Modulus (GPa) = 30.64382 32.69435 31.66908
#
# Velocity S-wave (km/s) = 3.82090 3.94667 3.88429
# Velocity P-wave (km/s) = 6.51396 6.72994 6.62283
#
# Compressibility (1/GPa) = 0.02074454
#
# Stress axis : x y z
#
# Youngs Moduli (GPa) = 61.84351 48.91982 86.74296
#
# Poissons Ratio (x) = 0.28053 0.35162
# Poissons Ratio (y) = 0.35464 0.33912
# Poissons Ratio (z) = 0.25069 0.19125
#
# Static dielectric constant tensor:
#      x y z
#    x 4.102550 0.000000 0.000000 
#    y 0.000000 3.749580 0.000000 
#    z 0.000000 0.000000 3.681220 
# 
# 
# High freq. dielectric constant tensor:
#      x y z
#    x 1.848810 0.000000 0.000000 
#    y 0.000000 1.817010 0.000000 
#    z 0.000000 0.000000 1.816630 
# 
# From -- ./inp_files/7623.got.cif
#   From: 2010.03.12/outbox.cif.g09.slc.cpg/sg33_4_cif.got.tgz:7623.got - 2010.04.14 01:49:19.
