data_PCOD8171979
_publ_section_title
;
Structure prediction by ZEFSAII (Michael W. Deem and Ramdas Pophale) SiO2 
 PCOD8171979
Probable space group: P N N 2
;
_chemical_formula_sum "Si O2"
_cell_formula_units_Z 20
_cell_length_a 10.096534
_cell_length_b 8.056690
_cell_length_c 11.861431
_cell_angle_alpha 90.000000
_cell_angle_beta 90.000000
_cell_angle_gamma 90.000000
_cell_volume 964.863888
_symmetry_space_group_name_H-M "P N N 2"
_symmetry_group_IT_number 34
_symmetry_cell_setting 'orthorhombic'
loop_
_space_group_symop_operation_xyz
x,y,z
-x,-y,z
1/2-x,1/2+y,1/2+z
1/2+x,1/2-y,1/2+z
loop_
_atom_site_type_symbol
_atom_site_label
_atom_site_fract_x
_atom_site_fract_y
_atom_site_fract_z
Si Si1 0.379530 0.378480 0.625000
Si Si2 0.784169 0.356645 0.503639
Si Si3 0.139041 0.567993 0.267459
Si Si4 0.393275 0.363087 0.193132
Si Si5 0.990393 0.802267 0.913619
O O1 0.500000 0.500000 0.662398
O O2 0.259325 0.494675 0.586372
O O3 0.335341 0.256365 0.724577
O O4 0.419778 0.254976 0.521071
O O5 0.872362 0.428292 0.402750
O O6 0.872217 0.235831 0.578454
O O7 0.661593 0.257607 0.442672
O O8 0.255760 0.445243 0.231399
O O9 0.000000 0.500000 0.219177
O O10 0.500000 0.500000 0.160377
O O11 0.450897 0.239864 0.293301
O O12 0.000000 0.000000 0.900645
#
# Coordination Sequence:
#
# PCOD8171979 Si02
#       5
#     4   4   4   4   4
#     4   9  19  40  64  85 129 173 210 267 329 392
#     4  10  21  40  66  93 130 172 216 265 334 389
#     4  12  23  39  65  99 129 167 221 278 329 392
#     4  11  21  42  68  90 134 178 215 272 333 393
#     4   8  15  39  63  79 119 177 205 256 324 379
#
# _framework density 20.728313
#
# number of rings (size 3 to 8) (size 9 to 14) (size 15 to 20)
#    0.000    2.400    6.000    2.400    0.000    2.400 
#    3.600    0.000    0.000    0.000    0.000    0.000 
#    0.000    0.000    0.000    0.000    0.000    0.000 
#
# Total GULP energy -247804.260298 kJ/mol
# GULP energy per Si atom -12390.213015 kJ/mol
# Density = 2.068113 g / cm^3
# Si number density = 20.728313 Si / 1000 Ang^3
#
#
#
# Elastic Constant Matrix: (Units=GPa)
#
#
# Indices 1 2 3 4 5 6 
#
# 1 100.2826 18.5725 25.9372 0.0000 0.0000 0.0000
# 2 18.5725 49.7091 29.1255 0.0000 0.0000 0.0000
# 3 25.9372 29.1255 75.4091 0.0000 0.0000 0.0000
# 4 0.0000 0.0000 0.0000 30.7066 0.0000 0.0000
# 5 0.0000 0.0000 0.0000 0.0000 23.5583 0.0000
# 6 0.0000 0.0000 0.0000 0.0000 0.0000 29.7079
#
#
#
# Elastic Compliance Matrix: (Units=1/GPa)
#
#
# Indices 1 2 3 4 5 6 
#
# 1 0.011178 -0.002486 -0.002884 0.000000 0.000000 0.000000
# 2 -0.002486 0.026554 -0.009401 0.000000 0.000000 0.000000
# 3 -0.002884 -0.009401 0.017884 0.000000 0.000000 0.000000
# 4 0.000000 0.000000 0.000000 0.032566 0.000000 0.000000
# 5 0.000000 0.000000 0.000000 0.000000 0.042448 0.000000
# 6 0.000000 0.000000 0.000000 0.000000 0.000000 0.033661
#
#
# Mechanical properties :
#
#
# Convention : Reuss Voigt Hill
#
# Bulk Modulus (GPa) = 38.35385 41.40790 39.88088
# Shear Modulus (GPa) = 24.68813 26.91228 25.80020
#
# Velocity S-wave (km/s) = 3.45488 3.60715 3.53184
# Velocity P-wave (km/s) = 5.87011 6.11298 5.99278
#
# Compressibility (1/GPa) = 0.02607300
#
# Stress axis : x y z
#
# Youngs Moduli (GPa) = 89.45861 37.65880 55.91568
#
# Poissons Ratio (x) = 0.09364 0.16129
# Poissons Ratio (y) = 0.22243 0.52566
# Poissons Ratio (z) = 0.25804 0.35403
#
# Static dielectric constant tensor:
#      x y z
#    x 3.881730 0.000000 0.000000 
#    y 0.000000 3.332910 0.000000 
#    z 0.000000 0.000000 4.385050 
# 
# 
# High freq. dielectric constant tensor:
#      x y z
#    x 1.813520 0.000000 0.000000 
#    y 0.000000 1.762270 0.000000 
#    z 0.000000 0.000000 1.822060 
# 
# From -- ./inp_files/4785.got.cif
#   From: 2010.03.12/outbox.cif.g09.slc.cpg/sg34_3_cif.got.tgz:4785.got - 2010.04.14 01:56:33.
