data_PCOD8171144
_publ_section_title
;
Structure prediction by ZEFSAII (Michael W. Deem and Ramdas Pophale) SiO2 
 PCOD8171144
Probable space group: P N A 21
;
_chemical_formula_sum "Si O2"
_cell_formula_units_Z 28
_cell_length_a 11.947477
_cell_length_b 14.016449
_cell_length_c 8.391936
_cell_angle_alpha 90.000000
_cell_angle_beta 90.000000
_cell_angle_gamma 90.000000
_cell_volume 1405.323690
_symmetry_space_group_name_H-M "P N A 21"
_symmetry_group_IT_number 33
_symmetry_cell_setting 'orthorhombic'
loop_
_space_group_symop_operation_xyz
x,y,z
-x,-y,1/2+z
1/2-x,1/2+y,1/2+z
1/2+x,1/2-y,z
loop_
_atom_site_type_symbol
_atom_site_label
_atom_site_fract_x
_atom_site_fract_y
_atom_site_fract_z
Si Si1 0.166506 0.629459 0.246620
Si Si2 0.128764 0.127148 0.973392
Si Si3 0.743324 0.219211 0.170343
Si Si4 0.644450 0.876150 0.880993
Si Si5 0.756280 0.030021 0.668433
Si Si6 0.109623 0.429980 0.374443
Si Si7 0.112780 0.825218 0.374967
O O1 0.288501 0.633171 0.324290
O O2 0.100637 0.533691 0.293497
O O3 0.093174 0.717039 0.315328
O O4 0.186977 0.637506 0.059601
O O5 0.004836 0.123392 0.903855
O O6 0.145717 0.218288 0.088362
O O7 0.152411 0.031050 0.071490
O O8 0.822339 0.284350 0.279132
O O9 0.691166 0.135272 0.272101
O O10 0.820114 0.169678 0.038955
O O11 0.511268 0.883120 0.879406
O O12 0.701814 0.970385 0.811387
O O13 0.655985 0.063127 0.553508
O O14 0.818779 0.121303 0.737597
#
# Coordination Sequence:
#
# PCOD8171144 Si02
#       7
#     4   4   4   4   4   4   4
#     4  10  23  38  60  89 116 154 204 239 290 358
#     4   9  22  41  58  85 121 154 195 247 292 345
#     4  10  22  38  60  89 116 151 199 238 292 361
#     4  11  22  39  61  87 119 155 194 244 295 347
#     4  10  23  38  58  90 119 153 203 239 288 359
#     4  11  22  40  61  87 121 153 192 248 296 346
#     4  11  22  40  62  85 120 160 195 245 295 344
#
# _framework density 19.924234999999999
#
# number of rings (size 3 to 8) (size 9 to 14) (size 15 to 20)
#    0.000    1.714    0.000    4.286    0.000   10.286 
#    0.000    2.857    0.000    0.000    0.000    0.000 
#    0.000    0.000    0.000    0.000    0.000    0.000 
#
# Total GULP energy -347369.117467 kJ/mol
# GULP energy per Si atom -12406.039910 kJ/mol
# Density = 1.987889 g / cm^3
# Si number density = 19.924235 Si / 1000 Ang^3
#
#
#
# Elastic Constant Matrix: (Units=GPa)
#
#
# Indices 1 2 3 4 5 6 
#
# 1 92.6495 44.1477 32.8547 0.0000 0.0000 0.0000
# 2 44.1477 104.6813 27.3309 0.0000 0.0000 0.0000
# 3 32.8547 27.3309 89.6217 0.0000 0.0000 0.0000
# 4 0.0000 0.0000 0.0000 40.1853 0.0000 0.0000
# 5 0.0000 0.0000 0.0000 0.0000 21.5369 0.0000
# 6 0.0000 0.0000 0.0000 0.0000 0.0000 17.6669
#
#
#
# Elastic Compliance Matrix: (Units=1/GPa)
#
#
# Indices 1 2 3 4 5 6 
#
# 1 0.014595 -0.005170 -0.003774 0.000000 0.000000 0.000000
# 2 -0.005170 0.012211 -0.001828 0.000000 0.000000 0.000000
# 3 -0.003774 -0.001828 0.013099 0.000000 0.000000 0.000000
# 4 0.000000 0.000000 0.000000 0.024885 0.000000 0.000000
# 5 0.000000 0.000000 0.000000 0.000000 0.046432 0.000000
# 6 0.000000 0.000000 0.000000 0.000000 0.000000 0.056603
#
#
# Mechanical properties :
#
#
# Convention : Reuss Voigt Hill
#
# Bulk Modulus (GPa) = 54.46550 55.06878 54.76714
# Shear Modulus (GPa) = 25.57686 28.05242 26.81464
#
# Velocity S-wave (km/s) = 3.58677 3.75634 3.67254
# Velocity P-wave (km/s) = 6.67450 6.82001 6.74765
#
# Compressibility (1/GPa) = 0.01836025
#
# Stress axis : x y z
#
# Youngs Moduli (GPa) = 68.51604 81.89645 76.34133
#
# Poissons Ratio (x) = 0.42340 0.28810
# Poissons Ratio (y) = 0.35423 0.13958
# Poissons Ratio (z) = 0.25857 0.14974
#
# Static dielectric constant tensor:
#      x y z
#    x 3.391230 0.000000 0.000000 
#    y 0.000000 3.738200 0.000000 
#    z 0.000000 0.000000 3.788000 
# 
# 
# High freq. dielectric constant tensor:
#      x y z
#    x 1.770000 0.000000 0.000000 
#    y 0.000000 1.785870 0.000000 
#    z 0.000000 0.000000 1.794490 
# 
# From -- ./inp_files/3890.got.cif
#   From: 2010.03.12/outbox.cif.g09.slc.cpg/sg33_2_cif.got.tgz:3890.got - 2010.04.14 01:49:19.
