data_PCOD8171449
_publ_section_title
;
Structure prediction by ZEFSAII (Michael W. Deem and Ramdas Pophale) SiO2 
 PCOD8171449
Probable space group: P N A 21
;
_chemical_formula_sum "Si O2"
_cell_formula_units_Z 28
_cell_length_a 8.504710
_cell_length_b 8.328081
_cell_length_c 15.753877
_cell_angle_alpha 90.000000
_cell_angle_beta 90.000000
_cell_angle_gamma 90.000000
_cell_volume 1115.814242
_symmetry_space_group_name_H-M "P N A 21"
_symmetry_group_IT_number 33
_symmetry_cell_setting 'orthorhombic'
loop_
_space_group_symop_operation_xyz
x,y,z
-x,-y,1/2+z
1/2-x,1/2+y,1/2+z
1/2+x,1/2-y,z
loop_
_atom_site_type_symbol
_atom_site_label
_atom_site_fract_x
_atom_site_fract_y
_atom_site_fract_z
Si Si1 0.764048 0.692551 0.686760
Si Si2 0.588445 0.064293 0.904636
Si Si3 0.544157 0.609398 0.401709
Si Si4 0.538215 0.425626 0.092964
Si Si5 0.045910 0.524359 0.086989
Si Si6 0.357955 0.289714 0.367606
Si Si7 0.758714 0.198183 0.552405
O O1 0.605867 0.607413 0.655291
O O2 0.798450 0.852623 0.632134
O O3 0.924485 0.588492 0.668454
O O4 0.756173 0.721352 0.786601
O O5 0.505259 0.218038 0.857470
O O6 0.772272 0.088817 0.892226
O O7 0.546741 0.881606 0.872908
O O8 0.529579 0.080083 0.001911
O O9 0.492611 0.634384 0.498433
O O10 0.467295 0.448979 0.359996
O O11 0.581226 0.612845 0.085185
O O12 0.212422 0.618275 0.077103
O O13 0.895190 0.635493 0.099566
O O14 0.245785 0.311974 0.449929
#
# Coordination Sequence:
#
# PCOD8171449 Si02
#       7
#     4   4   4   4   4   4   4
#     4  12  24  43  69 103 143 178 235 308 371 416
#     4  11  25  42  74 102 139 192 245 296 353 442
#     4  11  23  47  70 103 139 193 245 291 350 451
#     4  11  22  41  68  97 136 183 239 288 354 434
#     4  11  22  42  73 102 139 188 248 297 360 437
#     4  10  28  44  74 107 149 186 243 305 379 421
#     4  10  24  43  72 102 137 194 245 291 353 451
#
# _framework density 25.093781
#
# number of rings (size 3 to 8) (size 9 to 14) (size 15 to 20)
#    0.000    1.143    2.857    1.714   16.000    0.000 
#    2.571    1.429    0.000    0.000    0.000    0.000 
#    0.000    0.000    0.000    0.000    0.000    0.000 
#
# Total GULP energy -346875.146764 kJ/mol
# GULP energy per Si atom -12388.398099 kJ/mol
# Density = 2.503667 g / cm^3
# Si number density = 25.093781 Si / 1000 Ang^3
#
#
#
# Elastic Constant Matrix: (Units=GPa)
#
#
# Indices 1 2 3 4 5 6 
#
# 1 41.9603 24.7299 -0.7289 0.0000 0.0000 0.0000
# 2 24.7299 169.8795 16.7233 0.0000 0.0000 0.0000
# 3 -0.7289 16.7233 73.0994 0.0000 0.0000 0.0000
# 4 0.0000 0.0000 0.0000 19.6638 0.0000 0.0000
# 5 0.0000 0.0000 0.0000 0.0000 25.0914 0.0000
# 6 0.0000 0.0000 0.0000 0.0000 0.0000 30.7022
#
#
#
# Elastic Compliance Matrix: (Units=1/GPa)
#
#
# Indices 1 2 3 4 5 6 
#
# 1 0.026164 -0.003923 0.001158 0.000000 0.000000 0.000000
# 2 -0.003923 0.006610 -0.001551 0.000000 0.000000 0.000000
# 3 0.001158 -0.001551 0.014046 0.000000 0.000000 0.000000
# 4 0.000000 0.000000 0.000000 0.050855 0.000000 0.000000
# 5 0.000000 0.000000 0.000000 0.000000 0.039854 0.000000
# 6 0.000000 0.000000 0.000000 0.000000 0.000000 0.032571
#
#
# Mechanical properties :
#
#
# Convention : Reuss Voigt Hill
#
# Bulk Modulus (GPa) = 26.18542 40.70975 33.44758
# Shear Modulus (GPa) = 26.11477 31.37247 28.74362
#
# Velocity S-wave (km/s) = 3.22947 3.53967 3.38812
# Velocity P-wave (km/s) = 4.93595 5.74142 5.35386
#
# Compressibility (1/GPa) = 0.03818920
#
# Stress axis : x y z
#
# Youngs Moduli (GPa) = 38.22021 151.27894 71.19228
#
# Poissons Ratio (x) = 0.59344 -0.08247
# Poissons Ratio (y) = 0.14993 0.11045
# Poissons Ratio (z) = -0.04427 0.23469
#
# Static dielectric constant tensor:
#      x y z
#    x 4.273290 0.000000 0.000000 
#    y 0.000000 5.340380 0.000000 
#    z 0.000000 0.000000 4.064460 
# 
# 
# High freq. dielectric constant tensor:
#      x y z
#    x 2.002690 0.000000 0.000000 
#    y 0.000000 2.031480 0.000000 
#    z 0.000000 0.000000 1.952260 
# 
# From -- ./inp_files/8479.got.cif
#   From: 2010.03.12/outbox.cif.g09.slc.cpg/sg33_5_cif.got.tgz:8479.got - 2010.04.14 01:49:19.
