data_PCOD8171142
_publ_section_title
;
Structure prediction by ZEFSAII (Michael W. Deem and Ramdas Pophale) SiO2 
 PCOD8171142
Probable space group: P N A 21
;
_chemical_formula_sum "Si O2"
_cell_formula_units_Z 32
_cell_length_a 5.082393
_cell_length_b 19.855033
_cell_length_c 15.226372
_cell_angle_alpha 90.000000
_cell_angle_beta 90.000000
_cell_angle_gamma 90.000000
_cell_volume 1536.509654
_symmetry_space_group_name_H-M "P N A 21"
_symmetry_group_IT_number 33
_symmetry_cell_setting 'orthorhombic'
loop_
_space_group_symop_operation_xyz
x,y,z
-x,-y,1/2+z
1/2-x,1/2+y,1/2+z
1/2+x,1/2-y,z
loop_
_atom_site_type_symbol
_atom_site_label
_atom_site_fract_x
_atom_site_fract_y
_atom_site_fract_z
Si Si1 0.431342 0.963145 0.383880
Si Si2 0.938762 0.913860 0.293786
Si Si3 0.556766 0.457730 0.596808
Si Si4 0.341285 0.791712 0.881353
Si Si5 0.550615 0.083383 0.491395
Si Si6 0.780154 0.103180 0.047942
Si Si7 0.475452 0.703257 0.418685
Si Si8 0.914044 0.705499 0.686029
O O1 0.638745 0.930929 0.317400
O O2 0.429944 0.921534 0.475157
O O3 0.140039 0.963743 0.342873
O O4 0.505505 0.039784 0.403595
O O5 0.982485 0.924283 0.191375
O O6 0.998649 0.837269 0.326067
O O7 0.301396 0.443859 0.541077
O O8 0.590842 0.538769 0.596714
O O9 0.802415 0.419476 0.555032
O O10 0.536296 0.728237 0.891006
O O11 0.387010 0.823540 0.784777
O O12 0.407612 0.841106 0.960318
O O13 0.619733 0.143673 0.120567
O O14 0.996678 0.150523 0.999646
O O15 0.194905 0.739111 0.425127
O O16 0.701975 0.764232 0.669117
#
# Coordination Sequence:
#
# PCOD8171142 Si02
#       8
#     4   4   4   4   4   4   4   4
#     4  10  22  39  65  89 126 164 208 247 317 381
#     4  11  23  43  61  94 126 166 212 262 311 379
#     4  11  25  41  65  95 128 158 217 273 310 375
#     4  10  22  41  62  89 122 162 211 257 311 381
#     4  11  22  42  64  90 123 165 209 266 315 372
#     4  10  22  40  61  96 124 167 203 257 318 376
#     4  11  22  38  64  88 125 168 204 254 308 384
#     4  10  22  38  58  91 128 160 202 252 304 384
#
# _framework density 20.826422999999998
#
# number of rings (size 3 to 8) (size 9 to 14) (size 15 to 20)
#    0.000    1.500    0.000    6.000    1.750    5.000 
#    4.500    3.750    0.000    0.000    0.000    0.000 
#    0.000    0.000    0.000    0.000    0.000    0.000 
#
# Total GULP energy -396855.763056 kJ/mol
# GULP energy per Si atom -12401.742596 kJ/mol
# Density = 2.077902 g / cm^3
# Si number density = 20.826423 Si / 1000 Ang^3
#
#
#
# Elastic Constant Matrix: (Units=GPa)
#
#
# Indices 1 2 3 4 5 6 
#
# 1 83.9218 -0.4406 13.8157 0.0000 0.0000 0.0000
# 2 -0.4406 71.3225 43.7608 0.0000 0.0000 0.0000
# 3 13.8157 43.7608 92.2324 0.0000 0.0000 0.0000
# 4 0.0000 0.0000 0.0000 35.4763 0.0000 0.0000
# 5 0.0000 0.0000 0.0000 0.0000 31.1237 0.0000
# 6 0.0000 0.0000 0.0000 0.0000 0.0000 19.3350
#
#
#
# Elastic Compliance Matrix: (Units=1/GPa)
#
#
# Indices 1 2 3 4 5 6 
#
# 1 0.012363 0.001711 -0.002664 0.000000 0.000000 0.000000
# 2 0.001711 0.020015 -0.009753 0.000000 0.000000 0.000000
# 3 -0.002664 -0.009753 0.015868 0.000000 0.000000 0.000000
# 4 0.000000 0.000000 0.000000 0.028188 0.000000 0.000000
# 5 0.000000 0.000000 0.000000 0.000000 0.032130 0.000000
# 6 0.000000 0.000000 0.000000 0.000000 0.000000 0.051720
#
#
# Mechanical properties :
#
#
# Convention : Reuss Voigt Hill
#
# Bulk Modulus (GPa) = 37.26372 40.19429 38.72901
# Shear Modulus (GPa) = 26.22731 29.87640 28.05186
#
# Velocity S-wave (km/s) = 3.55255 3.79165 3.67404
# Velocity P-wave (km/s) = 5.89567 6.20567 6.05265
#
# Compressibility (1/GPa) = 0.02683575
#
# Stress axis : x y z
#
# Youngs Moduli (GPa) = 80.88431 49.96176 63.01804
#
# Poissons Ratio (x) = -0.08547 0.16785
# Poissons Ratio (y) = -0.13836 0.61460
# Poissons Ratio (z) = 0.21544 0.48726
#
# Static dielectric constant tensor:
#      x y z
#    x 3.835360 0.000000 0.000000 
#    y 0.000000 3.736950 0.000000 
#    z 0.000000 0.000000 3.785340 
# 
# 
# High freq. dielectric constant tensor:
#      x y z
#    x 1.831440 0.000000 0.000000 
#    y 0.000000 1.806670 0.000000 
#    z 0.000000 0.000000 1.811010 
# 
# From -- ./inp_files/7454.got.cif
#   From: 2010.03.12/outbox.cif.g09.slc.cpg/sg33_4_cif.got.tgz:7454.got - 2010.04.14 01:49:19.
