data_PCOD8171620
_publ_section_title
;
Structure prediction by ZEFSAII (Michael W. Deem and Ramdas Pophale) SiO2 
 PCOD8171620
Probable space group: P N A 21
;
_chemical_formula_sum "Si O2"
_cell_formula_units_Z 24
_cell_length_a 12.349878
_cell_length_b 9.442934
_cell_length_c 9.350400
_cell_angle_alpha 90.000000
_cell_angle_beta 90.000000
_cell_angle_gamma 90.000000
_cell_volume 1090.435072
_symmetry_space_group_name_H-M "P N A 21"
_symmetry_group_IT_number 33
_symmetry_cell_setting 'orthorhombic'
loop_
_space_group_symop_operation_xyz
x,y,z
-x,-y,1/2+z
1/2-x,1/2+y,1/2+z
1/2+x,1/2-y,z
loop_
_atom_site_type_symbol
_atom_site_label
_atom_site_fract_x
_atom_site_fract_y
_atom_site_fract_z
Si Si1 0.974735 0.369492 0.194360
Si Si2 0.922037 0.588458 0.997185
Si Si3 0.145715 0.116804 0.596930
Si Si4 0.245469 0.153304 0.305516
Si Si5 0.447018 0.585696 0.591158
Si Si6 0.218082 0.986107 0.866893
O O1 0.853392 0.412072 0.239949
O O2 0.041322 0.354692 0.341345
O O3 0.986094 0.232823 0.091925
O O4 0.010125 0.500201 0.089762
O O5 0.820472 0.482413 0.968639
O O6 0.885931 0.719352 0.094057
O O7 0.212667 0.078149 0.454337
O O8 0.227693 0.081883 0.725575
O O9 0.035318 0.031939 0.628566
O O10 0.146295 0.112615 0.205204
O O11 0.274408 0.319497 0.327045
O O12 0.393729 0.533673 0.443041
#
# Coordination Sequence:
#
# PCOD8171620 Si02
#       6
#     4   4   4   4   4   4
#     4  12  25  48  70 104 148 193 244 310 372 436
#     4  11  27  47  68 106 148 190 243 315 371 440
#     4  11  24  45  73 105 138 196 243 302 372 449
#     4  11  24  47  71 105 149 182 244 321 358 440
#     4  12  23  46  77 103 144 196 252 300 373 450
#     4  11  23  45  69 109 139 187 248 294 376 439
#
# _framework density 22.009564000000001
#
# number of rings (size 3 to 8) (size 9 to 14) (size 15 to 20)
#    0.000    0.667    6.667    2.000    4.667    0.000 
#    3.000    0.000    0.000    0.000    0.000    0.000 
#    0.000    0.000    0.000    0.000    0.000    0.000 
#
# Total GULP energy -297319.064676 kJ/mol
# GULP energy per Si atom -12388.294361 kJ/mol
# Density = 2.195947 g / cm^3
# Si number density = 22.009564 Si / 1000 Ang^3
#
#
#
# Elastic Constant Matrix: (Units=GPa)
#
#
# Indices 1 2 3 4 5 6 
#
# 1 95.7761 45.3293 31.3365 0.0000 0.0000 0.0000
# 2 45.3293 108.7281 73.0564 0.0000 0.0000 0.0000
# 3 31.3365 73.0564 120.2305 0.0000 0.0000 0.0000
# 4 0.0000 0.0000 0.0000 45.2607 0.0000 0.0000
# 5 0.0000 0.0000 0.0000 0.0000 41.1141 0.0000
# 6 0.0000 0.0000 0.0000 0.0000 0.0000 34.1927
#
#
#
# Elastic Compliance Matrix: (Units=1/GPa)
#
#
# Indices 1 2 3 4 5 6 
#
# 1 0.013009 -0.005316 -0.000161 0.000000 0.000000 0.000000
# 2 -0.005316 0.017715 -0.009379 0.000000 0.000000 0.000000
# 3 -0.000161 -0.009379 0.014058 0.000000 0.000000 0.000000
# 4 0.000000 0.000000 0.000000 0.022094 0.000000 0.000000
# 5 0.000000 0.000000 0.000000 0.000000 0.024323 0.000000
# 6 0.000000 0.000000 0.000000 0.000000 0.000000 0.029246
#
#
# Mechanical properties :
#
#
# Convention : Reuss Voigt Hill
#
# Bulk Modulus (GPa) = 66.34748 69.35326 67.85037
# Shear Modulus (GPa) = 32.22047 35.78097 34.00072
#
# Velocity S-wave (km/s) = 3.83029 4.03637 3.93468
# Velocity P-wave (km/s) = 7.05491 7.30082 7.17892
#
# Compressibility (1/GPa) = 0.01507216
#
# Stress axis : x y z
#
# Youngs Moduli (GPa) = 76.86721 56.44829 71.13253
#
# Poissons Ratio (x) = 0.30006 0.01143
# Poissons Ratio (y) = 0.40860 0.66715
# Poissons Ratio (z) = 0.01235 0.52943
#
# Static dielectric constant tensor:
#      x y z
#    x 4.335420 0.000000 0.000000 
#    y 0.000000 3.891750 0.000000 
#    z 0.000000 0.000000 4.201890 
# 
# 
# High freq. dielectric constant tensor:
#      x y z
#    x 1.873280 0.000000 0.000000 
#    y 0.000000 1.856530 0.000000 
#    z 0.000000 0.000000 1.877670 
# 
# From -- ./inp_files/4243.got.cif
#   From: 2010.03.12/outbox.cif.g09.slc.cpg/sg33_3_cif.got.tgz:4243.got - 2010.04.14 01:49:19.
