data_PCOD8171678
_publ_section_title
;
Structure prediction by ZEFSAII (Michael W. Deem and Ramdas Pophale) SiO2 
 PCOD8171678
Probable space group: P N A 21
;
_chemical_formula_sum "Si O2"
_cell_formula_units_Z 28
_cell_length_a 12.218704
_cell_length_b 9.032916
_cell_length_c 11.171575
_cell_angle_alpha 90.000000
_cell_angle_beta 90.000000
_cell_angle_gamma 90.000000
_cell_volume 1233.012619
_symmetry_space_group_name_H-M "P N A 21"
_symmetry_group_IT_number 33
_symmetry_cell_setting 'orthorhombic'
loop_
_space_group_symop_operation_xyz
x,y,z
-x,-y,1/2+z
1/2-x,1/2+y,1/2+z
1/2+x,1/2-y,z
loop_
_atom_site_type_symbol
_atom_site_label
_atom_site_fract_x
_atom_site_fract_y
_atom_site_fract_z
Si Si1 0.813726 0.002316 0.079280
Si Si2 0.610267 0.331051 0.355653
Si Si3 0.269878 0.016811 0.188709
Si Si4 0.141346 0.496371 0.433174
Si Si5 0.412068 0.872486 0.499722
Si Si6 0.791384 0.794537 0.295637
Si Si7 0.940889 0.257443 0.195843
O O1 0.855922 0.164342 0.115801
O O2 0.841918 0.892396 0.188650
O O3 0.687881 0.018313 0.036710
O O4 0.881470 0.942654 0.966054
O O5 0.672085 0.383820 0.236710
O O6 0.657217 0.169285 0.386147
O O7 0.482210 0.323437 0.316738
O O8 0.383721 0.089012 0.236396
O O9 0.248185 0.855355 0.238740
O O10 0.278180 0.013957 0.046066
O O11 0.185317 0.616348 0.339628
O O12 0.013578 0.526846 0.455986
O O13 0.377608 0.750233 0.399697
O O14 0.450596 0.788029 0.618171
#
# Coordination Sequence:
#
# PCOD8171678 Si02
#       7
#     4   4   4   4   4   4   4
#     4  12  27  47  71 107 144 188 244 296 364 430
#     4  12  25  47  67 107 145 192 238 299 360 430
#     4  11  24  45  72 104 144 186 242 297 360 422
#     4  11  25  47  75 104 143 196 239 295 369 433
#     4  11  24  48  73 103 143 189 234 301 362 424
#     4  12  24  45  73 104 141 186 241 298 355 429
#     4  11  25  45  73 103 146 191 238 298 362 428
#
# _framework density 22.708606
#
# number of rings (size 3 to 8) (size 9 to 14) (size 15 to 20)
#    0.000    0.571    2.857    6.000    2.000    1.143 
#    5.143    0.000    0.000    0.000    0.000    0.000 
#    0.000    0.000    0.000    0.000    0.000    0.000 
#
# Total GULP energy -347117.086099 kJ/mol
# GULP energy per Si atom -12397.038789 kJ/mol
# Density = 2.265692 g / cm^3
# Si number density = 22.708606 Si / 1000 Ang^3
#
#
#
# Elastic Constant Matrix: (Units=GPa)
#
#
# Indices 1 2 3 4 5 6 
#
# 1 37.9486 22.1267 18.0067 0.0000 0.0000 0.0000
# 2 22.1267 114.8061 33.9177 0.0000 0.0000 0.0000
# 3 18.0067 33.9177 64.5749 0.0000 0.0000 0.0000
# 4 0.0000 0.0000 0.0000 46.6515 0.0000 0.0000
# 5 0.0000 0.0000 0.0000 0.0000 34.1549 0.0000
# 6 0.0000 0.0000 0.0000 0.0000 0.0000 33.4865
#
#
#
# Elastic Compliance Matrix: (Units=1/GPa)
#
#
# Indices 1 2 3 4 5 6 
#
# 1 0.031977 -0.004177 -0.006723 0.000000 0.000000 0.000000
# 2 -0.004177 0.010856 -0.004537 0.000000 0.000000 0.000000
# 3 -0.006723 -0.004537 0.019744 0.000000 0.000000 0.000000
# 4 0.000000 0.000000 0.000000 0.021436 0.000000 0.000000
# 5 0.000000 0.000000 0.000000 0.000000 0.029278 0.000000
# 6 0.000000 0.000000 0.000000 0.000000 0.000000 0.029863
#
#
# Mechanical properties :
#
#
# Convention : Reuss Voigt Hill
#
# Bulk Modulus (GPa) = 31.54325 40.60355 36.07340
# Shear Modulus (GPa) = 27.08640 32.41046 29.74843
#
# Velocity S-wave (km/s) = 3.45741 3.78197 3.62333
# Velocity P-wave (km/s) = 5.46433 6.08195 5.78139
#
# Compressibility (1/GPa) = 0.03170251
#
# Stress axis : x y z
#
# Youngs Moduli (GPa) = 31.27264 92.11660 50.64895
#
# Poissons Ratio (x) = 0.38475 0.34051
# Poissons Ratio (y) = 0.13062 0.22981
# Poissons Ratio (z) = 0.21024 0.41796
#
# Static dielectric constant tensor:
#      x y z
#    x 3.862520 0.000000 0.000000 
#    y 0.000000 4.166390 0.000000 
#    z 0.000000 0.000000 4.395400 
# 
# 
# High freq. dielectric constant tensor:
#      x y z
#    x 1.883810 0.000000 0.000000 
#    y 0.000000 1.906660 0.000000 
#    z 0.000000 0.000000 1.914260 
# 
# From -- ./inp_files/6353.got.cif
#   From: 2010.03.12/outbox.cif.g09.slc.cpg/sg33_4_cif.got.tgz:6353.got - 2010.04.14 01:49:19.
