data_PCOD8171909
_publ_section_title
;
Structure prediction by ZEFSAII (Michael W. Deem and Ramdas Pophale) SiO2 
 PCOD8171909
Probable space group: P N N 2
;
_chemical_formula_sum "Si O2"
_cell_formula_units_Z 26
_cell_length_a 30.249928
_cell_length_b 8.643284
_cell_length_c 5.166563
_cell_angle_alpha 90.000000
_cell_angle_beta 90.000000
_cell_angle_gamma 90.000000
_cell_volume 1350.842942
_symmetry_space_group_name_H-M "P N N 2"
_symmetry_group_IT_number 34
_symmetry_cell_setting 'orthorhombic'
loop_
_space_group_symop_operation_xyz
x,y,z
-x,-y,z
1/2-x,1/2+y,1/2+z
1/2+x,1/2-y,1/2+z
loop_
_atom_site_type_symbol
_atom_site_label
_atom_site_fract_x
_atom_site_fract_y
_atom_site_fract_z
Si Si1 0.733074 0.571066 0.573540
Si Si2 0.411470 0.016033 0.580902
Si Si3 0.500000 0.000000 0.341013
Si Si4 0.381045 0.522503 0.064350
Si Si5 0.280984 0.616339 0.074527
Si Si6 0.924763 0.663480 0.601860
Si Si7 0.867100 0.162406 0.064367
O O1 0.739803 0.458192 0.331072
O O2 0.685588 0.652767 0.568908
O O3 0.770082 0.702801 0.563196
O O4 0.740071 0.470730 0.830290
O O5 0.396250 0.905456 0.342839
O O6 0.461854 0.075121 0.523464
O O7 0.378691 0.159160 0.600469
O O8 0.408455 0.918631 0.842206
O O9 0.523029 0.130304 0.158089
O O10 0.333712 0.605177 0.075020
O O11 0.418517 0.653095 0.083966
O O12 0.386789 0.400913 0.296353
O O13 0.388559 0.434286 0.796515
#
# Coordination Sequence:
#
# PCOD8171909 Si02
#       7
#     4   4   2   4   4   4   4
#     4  10  21  36  55  81 115 146 182 226 267 318
#     4  10  20  36  60  78 107 144 181 224 270 325
#     4   8  22  36  60  76 114 128 192 224 278 304
#     4  10  21  37  56  82 114 144 179 227 275 319
#     4  10  21  36  55  81 115 146 182 226 267 318
#     4  10  20  36  60  78 107 144 181 224 270 325
#     4  10  21  37  56  82 114 144 179 227 275 319
#
# _framework density 19.247240000000001
#
# number of rings (size 3 to 8) (size 9 to 14) (size 15 to 20)
#    0.923    1.231    0.000    3.231    0.000    2.462 
#    0.000    0.769    0.000    0.000    0.000    0.000 
#    0.000    0.000    0.000    0.000    0.000    0.000 
#
# Total GULP energy -322371.381016 kJ/mol
# GULP energy per Si atom -12398.899270 kJ/mol
# Density = 1.920343 g / cm^3
# Si number density = 19.247240 Si / 1000 Ang^3
#
#
#
# Elastic Constant Matrix: (Units=GPa)
#
#
# Indices 1 2 3 4 5 6 
#
# 1 12.6446 0.9940 11.8344 0.0000 0.0000 0.0000
# 2 0.9940 44.2781 9.9118 0.0000 0.0000 0.0000
# 3 11.8344 9.9118 120.6252 0.0000 0.0000 0.0000
# 4 0.0000 0.0000 0.0000 32.2766 0.0000 0.0000
# 5 0.0000 0.0000 0.0000 0.0000 7.4972 0.0000
# 6 0.0000 0.0000 0.0000 0.0000 0.0000 33.2677
#
#
#
# Elastic Compliance Matrix: (Units=1/GPa)
#
#
# Indices 1 2 3 4 5 6 
#
# 1 0.087081 -0.000043 -0.008540 0.000000 0.000000 0.000000
# 2 -0.000043 0.023008 -0.001886 0.000000 0.000000 0.000000
# 3 -0.008540 -0.001886 0.009283 0.000000 0.000000 0.000000
# 4 0.000000 0.000000 0.000000 0.030982 0.000000 0.000000
# 5 0.000000 0.000000 0.000000 0.000000 0.133384 0.000000
# 6 0.000000 0.000000 0.000000 0.000000 0.000000 0.030059
#
#
# Mechanical properties :
#
#
# Convention : Reuss Voigt Hill
#
# Bulk Modulus (GPa) = 10.15917 24.78091 17.47004
# Shear Modulus (GPa) = 13.60370 24.92879 19.26625
#
# Velocity S-wave (km/s) = 2.66143 3.60278 3.16727
# Velocity P-wave (km/s) = 3.83849 5.49633 4.74045
#
# Compressibility (1/GPa) = 0.09843323
#
# Stress axis : x y z
#
# Youngs Moduli (GPa) = 11.48354 43.46359 107.72394
#
# Poissons Ratio (x) = 0.00187 0.91995
# Poissons Ratio (y) = 0.00050 0.20320
# Poissons Ratio (z) = 0.09807 0.08199
#
# Static dielectric constant tensor:
#      x y z
#    x 3.249480 0.000000 0.000000 
#    y 0.000000 3.337670 0.000000 
#    z 0.000000 0.000000 3.782030 
# 
# 
# High freq. dielectric constant tensor:
#      x y z
#    x 1.724240 0.000000 0.000000 
#    y 0.000000 1.740590 0.000000 
#    z 0.000000 0.000000 1.771220 
# 
# From -- ./inp_files/1744.got.cif
#   From: 2010.03.12/outbox.cif.g09.slc.cpg/sg34_1_cif.got.tgz:1744.got - 2010.04.14 01:56:33.
