data_PCOD8171926
_publ_section_title
;
Structure prediction by ZEFSAII (Michael W. Deem and Ramdas Pophale) SiO2 
 PCOD8171926
Probable space group: P N N 2
;
_chemical_formula_sum "Si O2"
_cell_formula_units_Z 28
_cell_length_a 5.090828
_cell_length_b 20.407978
_cell_length_c 11.111034
_cell_angle_alpha 90.000000
_cell_angle_beta 90.000000
_cell_angle_gamma 90.000000
_cell_volume 1154.364276
_symmetry_space_group_name_H-M "P N N 2"
_symmetry_group_IT_number 34
_symmetry_cell_setting 'orthorhombic'
loop_
_space_group_symop_operation_xyz
x,y,z
-x,-y,z
1/2-x,1/2+y,1/2+z
1/2+x,1/2-y,1/2+z
loop_
_atom_site_type_symbol
_atom_site_label
_atom_site_fract_x
_atom_site_fract_y
_atom_site_fract_z
Si Si1 0.000000 0.500000 0.451700
Si Si2 0.009334 0.326834 0.103522
Si Si3 0.009335 0.826834 0.884971
Si Si4 0.000000 0.000000 0.536793
Si Si5 0.520359 0.860066 0.032104
Si Si6 0.750000 0.287788 0.744247
Si Si7 0.750000 0.069976 0.744247
Si Si8 0.479642 0.639934 0.956390
O O1 0.913519 0.438350 0.533226
O O2 0.774552 0.524379 0.360652
O O3 0.067141 0.255232 0.156647
O O4 0.009219 0.380240 0.212824
O O5 0.227967 0.346675 0.004012
O O6 0.723854 0.323053 0.044385
O O7 0.067141 0.755232 0.831846
O O8 0.009220 0.880240 0.775669
O O9 0.227968 0.846675 0.984482
O O10 0.723855 0.823053 0.944109
O O11 0.086481 0.061650 0.455268
O O12 0.774552 0.024379 0.627842
O O13 0.555637 0.833817 0.166898
O O14 0.555636 0.333817 0.821596
#
# Coordination Sequence:
#
# PCOD8171926 Si02
#       8
#     2   4   4   2   4   4   4   4
#     4  10  20  38  62  94 126 164 212 256 318 380
#     4  10  23  40  64  94 122 162 217 264 313 368
#     4  10  23  40  64  94 122 162 217 264 313 368
#     4  10  20  38  62  94 126 164 212 256 318 380
#     4  11  24  41  63  93 128 167 211 263 312 384
#     4  11  24  42  66  94 132 171 208 262 328 381
#     4   9  18  34  62  86 116 159 208 268 306 353
#     4  11  24  41  63  93 128 167 211 263 312 384
#
# _framework density 24.255776000000001
#
# number of rings (size 3 to 8) (size 9 to 14) (size 15 to 20)
#    0.000    1.714    0.000    3.429    0.000   16.000 
#    0.000    5.714    0.000    0.000    0.000    0.000 
#    0.000    0.000    0.000    0.000    0.000    0.000 
#
# Total GULP energy -347045.480320 kJ/mol
# GULP energy per Si atom -12394.481440 kJ/mol
# Density = 2.420057 g / cm^3
# Si number density = 24.255776 Si / 1000 Ang^3
#
#
#
# Elastic Constant Matrix: (Units=GPa)
#
#
# Indices 1 2 3 4 5 6 
#
# 1 59.6405 -3.8395 5.8130 0.0000 0.0000 0.0000
# 2 -3.8395 168.1413 59.8377 0.0000 0.0000 0.0000
# 3 5.8130 59.8377 82.7968 0.0000 0.0000 0.0000
# 4 0.0000 0.0000 0.0000 21.5902 0.0000 0.0000
# 5 0.0000 0.0000 0.0000 0.0000 22.1500 0.0000
# 6 0.0000 0.0000 0.0000 0.0000 0.0000 16.3619
#
#
#
# Elastic Compliance Matrix: (Units=1/GPa)
#
#
# Indices 1 2 3 4 5 6 
#
# 1 0.017031 0.001096 -0.001988 0.000000 0.000000 0.000000
# 2 0.001096 0.008077 -0.005914 0.000000 0.000000 0.000000
# 3 -0.001988 -0.005914 0.016492 0.000000 0.000000 0.000000
# 4 0.000000 0.000000 0.000000 0.046317 0.000000 0.000000
# 5 0.000000 0.000000 0.000000 0.000000 0.045147 0.000000
# 6 0.000000 0.000000 0.000000 0.000000 0.000000 0.061118
#
#
# Mechanical properties :
#
#
# Convention : Reuss Voigt Hill
#
# Bulk Modulus (GPa) = 35.72939 48.24458 41.98698
# Shear Modulus (GPa) = 23.02832 28.60490 25.81661
#
# Velocity S-wave (km/s) = 3.08457 3.43782 3.26598
# Velocity P-wave (km/s) = 5.23911 5.97422 5.61870
#
# Compressibility (1/GPa) = 0.02798816
#
# Stress axis : x y z
#
# Youngs Moduli (GPa) = 58.71479 123.80470 60.63635
#
# Poissons Ratio (x) = -0.13575 0.12056
# Poissons Ratio (y) = -0.06438 0.35863
# Poissons Ratio (z) = 0.11673 0.73224
#
# Static dielectric constant tensor:
#      x y z
#    x 3.943090 0.000000 0.000000 
#    y 0.000000 4.913870 0.000000 
#    z 0.000000 0.000000 4.387500 
# 
# 
# High freq. dielectric constant tensor:
#      x y z
#    x 1.944360 0.000000 0.000000 
#    y 0.000000 1.981620 0.000000 
#    z 0.000000 0.000000 1.946080 
# 
# From -- ./inp_files/4513.got.cif
#   From: 2010.03.12/outbox.cif.g09.slc.cpg/sg34_3_cif.got.tgz:4513.got - 2010.04.14 01:56:33.
