data_PCOD8171826
_publ_section_title
;
Structure prediction by ZEFSAII (Michael W. Deem and Ramdas Pophale) SiO2 
 PCOD8171826
Probable space group: P N N 2
;
_chemical_formula_sum "Si O2"
_cell_formula_units_Z 24
_cell_length_a 7.210173
_cell_length_b 6.108552
_cell_length_c 22.268795
_cell_angle_alpha 90.000000
_cell_angle_beta 90.000000
_cell_angle_gamma 90.000000
_cell_volume 980.800498
_symmetry_space_group_name_H-M "P N N 2"
_symmetry_group_IT_number 34
_symmetry_cell_setting 'orthorhombic'
loop_
_space_group_symop_operation_xyz
x,y,z
-x,-y,z
1/2-x,1/2+y,1/2+z
1/2+x,1/2-y,1/2+z
loop_
_atom_site_type_symbol
_atom_site_label
_atom_site_fract_x
_atom_site_fract_y
_atom_site_fract_z
Si Si1 0.729923 0.160271 0.864000
Si Si2 0.804198 0.881621 0.972092
Si Si3 0.500000 0.500000 0.805272
Si Si4 0.729923 0.160271 0.211258
Si Si5 0.500000 0.500000 0.269986
Si Si6 0.000000 0.500000 0.918804
Si Si7 0.695802 0.381621 0.603166
Si Si8 0.000000 0.500000 0.156454
O O1 0.538747 0.285192 0.846753
O O2 0.894357 0.329624 0.877162
O O3 0.683463 0.002955 0.920752
O O4 0.811615 0.020440 0.808662
O O5 0.844251 0.625735 0.958256
O O6 0.705399 0.897967 0.037629
O O7 0.000000 0.000000 0.974722
O O8 0.688385 0.520440 0.766596
O O9 0.538747 0.285192 0.228505
O O10 0.894357 0.329624 0.198096
O O11 0.683463 0.002955 0.154506
O O12 0.500000 0.500000 0.600536
O O13 0.655749 0.125735 0.617002
#
# Coordination Sequence:
#
# PCOD8171826 Si02
#       8
#     4   4   2   4   2   2   4   2
#     4  11  23  40  61  95 126 172 218 272 325 385
#     4   9  18  35  61  93 127 165 219 269 320 392
#     4  12  24  42  64  92 134 172 220 270 326 398
#     4  11  23  40  61  95 126 172 218 272 325 385
#     4  12  24  42  64  92 134 172 220 270 326 398
#     4  10  17  38  62  96 122 168 219 262 334 378
#     4   9  18  35  61  93 127 165 219 269 320 392
#     4  10  17  38  62  96 122 168 219 262 334 378
#
# _framework density 24.469805999999998
#
# number of rings (size 3 to 8) (size 9 to 14) (size 15 to 20)
#    0.000    1.667    5.000    2.500    0.000    1.333 
#    0.000    0.833    0.000    2.000    0.000    0.000 
#    0.000    0.000    0.000    0.000    0.000    0.000 
#
# Total GULP energy -297534.107567 kJ/mol
# GULP energy per Si atom -12397.254482 kJ/mol
# Density = 2.441411 g / cm^3
# Si number density = 24.469806 Si / 1000 Ang^3
#
#
#
# Elastic Constant Matrix: (Units=GPa)
#
#
# Indices 1 2 3 4 5 6 
#
# 1 52.9493 14.3198 34.9992 0.0000 0.0000 0.0000
# 2 14.3198 110.4738 66.3798 0.0000 0.0000 0.0000
# 3 34.9992 66.3798 184.0018 0.0000 0.0000 0.0000
# 4 0.0000 0.0000 0.0000 16.9318 0.0000 0.0000
# 5 0.0000 0.0000 0.0000 0.0000 1.3775 0.0000
# 6 0.0000 0.0000 0.0000 0.0000 0.0000 51.9478
#
#
#
# Elastic Compliance Matrix: (Units=1/GPa)
#
#
# Indices 1 2 3 4 5 6 
#
# 1 0.021617 -0.000423 -0.003959 0.000000 0.000000 0.000000
# 2 -0.000423 0.011565 -0.004092 0.000000 0.000000 0.000000
# 3 -0.003959 -0.004092 0.007664 0.000000 0.000000 0.000000
# 4 0.000000 0.000000 0.000000 0.059060 0.000000 0.000000
# 5 0.000000 0.000000 0.000000 0.000000 0.725963 0.000000
# 6 0.000000 0.000000 0.000000 0.000000 0.000000 0.019250
#
#
# Mechanical properties :
#
#
# Convention : Reuss Voigt Hill
#
# Bulk Modulus (GPa) = 41.84369 64.31361 53.07865
# Shear Modulus (GPa) = 5.74690 29.49981 17.62336
#
# Velocity S-wave (km/s) = 1.53417 3.47588 2.68658
# Velocity P-wave (km/s) = 4.50283 6.51528 5.60020
#
# Compressibility (1/GPa) = 0.02389847
#
# Stress axis : x y z
#
# Youngs Moduli (GPa) = 46.25893 86.46484 130.48071
#
# Poissons Ratio (x) = 0.03659 0.51660
# Poissons Ratio (y) = 0.01957 0.53390
# Poissons Ratio (z) = 0.18315 0.35380
#
# Static dielectric constant tensor:
#      x y z
#    x 3.732680 0.000000 0.000000 
#    y 0.000000 4.948470 0.000000 
#    z 0.000000 0.000000 4.986020 
# 
# 
# High freq. dielectric constant tensor:
#      x y z
#    x 1.929230 0.000000 0.000000 
#    y 0.000000 1.984750 0.000000 
#    z 0.000000 0.000000 1.977300 
# 
# From -- ./inp_files/8422.got.cif
#   From: 2010.03.12/outbox.cif.g09.slc.cpg/sg34_5_cif.got.tgz:8422.got - 2010.04.14 01:56:33.
