data_PCOD8171309
_publ_section_title
;
Structure prediction by ZEFSAII (Michael W. Deem and Ramdas Pophale) SiO2 
 PCOD8171309
Probable space group: P N A 21
;
_chemical_formula_sum "Si O2"
_cell_formula_units_Z 32
_cell_length_a 5.559757
_cell_length_b 28.390611
_cell_length_c 8.802120
_cell_angle_alpha 90.000000
_cell_angle_beta 90.000000
_cell_angle_gamma 90.000000
_cell_volume 1389.369736
_symmetry_space_group_name_H-M "P N A 21"
_symmetry_group_IT_number 33
_symmetry_cell_setting 'orthorhombic'
loop_
_space_group_symop_operation_xyz
x,y,z
-x,-y,1/2+z
1/2-x,1/2+y,1/2+z
1/2+x,1/2-y,z
loop_
_atom_site_type_symbol
_atom_site_label
_atom_site_fract_x
_atom_site_fract_y
_atom_site_fract_z
Si Si1 0.847039 0.371580 0.849960
Si Si2 0.555771 0.410167 0.115510
Si Si3 0.629220 0.954050 0.858475
Si Si4 0.239330 0.874410 0.890899
Si Si5 0.446612 0.576614 0.116001
Si Si6 0.222445 0.446067 0.879317
Si Si7 0.702671 0.230641 0.442241
Si Si8 0.279091 0.234625 0.785377
O O1 0.774860 0.404552 0.711310
O O2 0.863702 0.319259 0.785954
O O3 0.102129 0.394400 0.894508
O O4 0.666429 0.374006 0.992462
O O5 0.770751 0.439647 0.193274
O O6 0.412296 0.378487 0.236367
O O7 0.386587 0.448104 0.030789
O O8 0.424912 0.917597 0.904043
O O9 0.540786 0.008820 0.867618
O O10 0.850455 0.954866 0.977561
O O11 0.361839 0.823563 0.904871
O O12 0.074897 0.878076 0.040298
O O13 0.623168 0.548164 0.225936
O O14 0.466236 0.256836 0.370150
O O15 0.724628 0.243582 0.619583
O O16 0.513089 0.260199 0.865460
#
# Coordination Sequence:
#
# PCOD8171309 Si02
#       8
#     4   4   4   4   4   4   4   4
#     4  11  24  42  69  99 139 181 231 292 353 431
#     4  10  25  44  66  94 150 184 230 282 365 422
#     4  11  24  42  67  99 137 183 233 288 355 428
#     4  11  24  42  69  99 139 181 231 292 353 431
#     4  10  23  38  66  96 134 170 236 282 353 406
#     4  11  24  42  67  99 137 183 233 288 355 428
#     4  10  23  40  70 102 139 176 235 298 364 414
#     4  10  23  40  70 102 139 176 235 298 364 414
#
# _framework density 23.032025000000001
#
# number of rings (size 3 to 8) (size 9 to 14) (size 15 to 20)
#    0.000    1.500    0.000    3.750   14.000    8.000 
#    0.000    1.250    0.000    0.000    0.000    0.000 
#    0.000    0.000    0.000    0.000    0.000    0.000 
#
# Total GULP energy -396477.377215 kJ/mol
# GULP energy per Si atom -12389.918038 kJ/mol
# Density = 2.297960 g / cm^3
# Si number density = 23.032025 Si / 1000 Ang^3
#
#
#
# Elastic Constant Matrix: (Units=GPa)
#
#
# Indices 1 2 3 4 5 6 
#
# 1 117.3405 18.2053 7.1361 0.0000 0.0000 0.0000
# 2 18.2053 118.3509 15.1037 0.0000 0.0000 0.0000
# 3 7.1361 15.1037 90.6129 0.0000 0.0000 0.0000
# 4 0.0000 0.0000 0.0000 17.7134 0.0000 0.0000
# 5 0.0000 0.0000 0.0000 0.0000 4.2048 0.0000
# 6 0.0000 0.0000 0.0000 0.0000 0.0000 36.4229
#
#
#
# Elastic Compliance Matrix: (Units=1/GPa)
#
#
# Indices 1 2 3 4 5 6 
#
# 1 0.008751 -0.001285 -0.000475 0.000000 0.000000 0.000000
# 2 -0.001285 0.008822 -0.001369 0.000000 0.000000 0.000000
# 3 -0.000475 -0.001369 0.011302 0.000000 0.000000 0.000000
# 4 0.000000 0.000000 0.000000 0.056455 0.000000 0.000000
# 5 0.000000 0.000000 0.000000 0.000000 0.237825 0.000000
# 6 0.000000 0.000000 0.000000 0.000000 0.000000 0.027455
#
#
# Mechanical properties :
#
#
# Convention : Reuss Voigt Hill
#
# Bulk Modulus (GPa) = 44.21859 45.24382 44.73121
# Shear Modulus (GPa) = 13.72096 30.72548 22.22322
#
# Velocity S-wave (km/s) = 2.44341 3.65640 3.10963
# Velocity P-wave (km/s) = 5.21544 6.12472 5.68828
#
# Compressibility (1/GPa) = 0.02261492
#
# Stress axis : x y z
#
# Youngs Moduli (GPa) = 114.27885 113.35393 88.48317
#
# Poissons Ratio (x) = 0.14571 0.04202
# Poissons Ratio (y) = 0.14690 0.12115
# Poissons Ratio (z) = 0.05427 0.15521
#
# Static dielectric constant tensor:
#      x y z
#    x 4.692000 0.000000 0.000000 
#    y 0.000000 3.991290 0.000000 
#    z 0.000000 0.000000 4.065780 
# 
# 
# High freq. dielectric constant tensor:
#      x y z
#    x 1.921370 0.000000 0.000000 
#    y 0.000000 1.900110 0.000000 
#    z 0.000000 0.000000 1.896230 
# 
# From -- ./inp_files/2857.got.cif
#   From: 2010.03.12/outbox.cif.g09.slc.cpg/sg33_2_cif.got.tgz:2857.got - 2010.04.14 01:49:19.
