data_PCOD8171829
_publ_section_title
;
Structure prediction by ZEFSAII (Michael W. Deem and Ramdas Pophale) SiO2 
 PCOD8171829
Probable space group: P N N 2
;
_chemical_formula_sum "Si O2"
_cell_formula_units_Z 30
_cell_length_a 16.211988
_cell_length_b 16.453305
_cell_length_c 5.270598
_cell_angle_alpha 90.000000
_cell_angle_beta 90.000000
_cell_angle_gamma 90.000000
_cell_volume 1405.883439
_symmetry_space_group_name_H-M "P N N 2"
_symmetry_group_IT_number 34
_symmetry_cell_setting 'orthorhombic'
loop_
_space_group_symop_operation_xyz
x,y,z
-x,-y,z
1/2-x,1/2+y,1/2+z
1/2+x,1/2-y,1/2+z
loop_
_atom_site_type_symbol
_atom_site_label
_atom_site_fract_x
_atom_site_fract_y
_atom_site_fract_z
Si Si1 0.081806 0.154633 0.252580
Si Si2 0.337400 0.302542 0.929376
Si Si3 0.706853 0.030554 0.894812
Si Si4 0.410033 0.732324 0.257002
Si Si5 0.500000 0.500000 0.626047
Si Si6 0.623394 0.621649 0.424738
Si Si7 0.761854 0.849630 0.949713
Si Si8 0.665134 0.104761 0.392669
O O1 0.053843 0.216303 0.476317
O O2 0.046903 0.064549 0.307213
O O3 0.040120 0.186759 0.985665
O O4 0.181540 0.150058 0.207653
O O5 0.395237 0.329871 0.164966
O O6 0.253756 0.353829 0.917881
O O7 0.387985 0.319811 0.670913
O O8 0.318548 0.207325 0.977385
O O9 0.783466 0.090841 0.907085
O O10 0.658947 0.040728 0.161279
O O11 0.648659 0.056981 0.657026
O O12 0.733865 0.937894 0.861135
O O13 0.319275 0.690404 0.231782
O O14 0.403840 0.826738 0.334450
O O15 0.565548 0.543032 0.443170
#
# Coordination Sequence:
#
# PCOD8171829 Si02
#       8
#     4   4   4   4   2   4   4   4
#     4  10  22  32  52  74 102 155 178 231 261 338
#     4   9  20  32  52  70 103 147 188 225 278 326
#     4  10  18  29  48  77 101 135 174 221 287 312
#     4   9  19  34  48  69 100 146 184 215 279 315
#     4  12  24  40  54  82 126 150 202 216 280 358
#     4  10  21  35  49  76 106 154 180 228 266 335
#     4   9  20  32  53  74 108 140 189 228 288 335
#     4   9  18  29  49  70 101 130 177 234 264 335
#
# _framework density 21.338896999999999
#
# number of rings (size 3 to 8) (size 9 to 14) (size 15 to 20)
#    0.800    1.600    1.333    0.800    7.467    4.267 
#    0.000    0.000    0.000    0.000    0.000    0.000 
#    0.000   16.000    0.000    0.000    0.000    0.000 
#
# Total GULP energy -371723.999481 kJ/mol
# GULP energy per Si atom -12390.799983 kJ/mol
# Density = 2.129033 g / cm^3
# Si number density = 21.338897 Si / 1000 Ang^3
#
#
#
# Elastic Constant Matrix: (Units=GPa)
#
#
# Indices 1 2 3 4 5 6 
#
# 1 17.3318 4.1299 24.1535 0.0000 0.0000 0.0000
# 2 4.1299 78.3691 48.2991 0.0000 0.0000 0.0000
# 3 24.1535 48.2991 173.7480 0.0000 0.0000 0.0000
# 4 0.0000 0.0000 0.0000 23.3561 0.0000 0.0000
# 5 0.0000 0.0000 0.0000 0.0000 14.0700 0.0000
# 6 0.0000 0.0000 0.0000 0.0000 0.0000 38.5012
#
#
#
# Elastic Compliance Matrix: (Units=1/GPa)
#
#
# Indices 1 2 3 4 5 6 
#
# 1 0.072091 0.002869 -0.010819 0.000000 0.000000 0.000000
# 2 0.002869 0.015512 -0.004711 0.000000 0.000000 0.000000
# 3 -0.010819 -0.004711 0.008569 0.000000 0.000000 0.000000
# 4 0.000000 0.000000 0.000000 0.042815 0.000000 0.000000
# 5 0.000000 0.000000 0.000000 0.000000 0.071073 0.000000
# 6 0.000000 0.000000 0.000000 0.000000 0.000000 0.025973
#
#
# Mechanical properties :
#
#
# Convention : Reuss Voigt Hill
#
# Bulk Modulus (GPa) = 14.11431 46.95710 30.53571
# Shear Modulus (GPa) = 17.54545 28.04321 22.79433
#
# Velocity S-wave (km/s) = 2.87056 3.62910 3.27189
# Velocity P-wave (km/s) = 4.19709 6.29394 5.34926
#
# Compressibility (1/GPa) = 0.07085008
#
# Stress axis : x y z
#
# Youngs Moduli (GPa) = 13.87129 64.46473 116.69863
#
# Poissons Ratio (x) = -0.18494 1.26259
# Poissons Ratio (y) = -0.03980 0.54977
# Poissons Ratio (z) = 0.15008 0.30369
#
# Static dielectric constant tensor:
#      x y z
#    x 3.376430 0.000000 0.000000 
#    y 0.000000 3.720660 0.000000 
#    z 0.000000 0.000000 4.015560 
# 
# 
# High freq. dielectric constant tensor:
#      x y z
#    x 1.786590 0.000000 0.000000 
#    y 0.000000 1.823520 0.000000 
#    z 0.000000 0.000000 1.842760 
# 
# From -- ./inp_files/1620.got.cif
#   From: 2010.03.12/outbox.cif.g09.slc.cpg/sg34_1_cif.got.tgz:1620.got - 2010.04.14 01:56:33.
