data_PCOD8171593
_publ_section_title
;
Structure prediction by ZEFSAII (Michael W. Deem and Ramdas Pophale) SiO2 
 PCOD8171593
Probable space group: P N A 21
;
_chemical_formula_sum "Si O2"
_cell_formula_units_Z 32
_cell_length_a 9.896780
_cell_length_b 13.349016
_cell_length_c 12.145582
_cell_angle_alpha 90.000000
_cell_angle_beta 90.000000
_cell_angle_gamma 90.000000
_cell_volume 1604.580464
_symmetry_space_group_name_H-M "P N A 21"
_symmetry_group_IT_number 33
_symmetry_cell_setting 'orthorhombic'
loop_
_space_group_symop_operation_xyz
x,y,z
-x,-y,1/2+z
1/2-x,1/2+y,1/2+z
1/2+x,1/2-y,z
loop_
_atom_site_type_symbol
_atom_site_label
_atom_site_fract_x
_atom_site_fract_y
_atom_site_fract_z
Si Si1 0.849874 0.525368 0.701750
Si Si2 0.819625 0.549241 0.941778
Si Si3 0.819754 0.950728 0.651337
Si Si4 0.414669 0.186614 0.187428
Si Si5 0.849782 0.974645 0.891346
Si Si6 0.896317 0.118472 0.079540
Si Si7 0.103585 0.618446 0.013584
Si Si8 0.085243 0.813367 0.905677
O O1 0.823662 0.487743 0.826680
O O2 0.724967 0.592940 0.662561
O O3 0.861248 0.421214 0.635108
O O4 0.984272 0.592493 0.683546
O O5 0.740297 0.650677 0.911480
O O6 0.749839 0.499939 0.046489
O O7 0.973665 0.561888 0.970773
O O8 0.740407 0.849297 0.681636
O O9 0.823622 0.012284 0.766409
O O10 0.973864 0.938085 0.622564
O O11 0.427985 0.262241 0.082600
O O12 0.444217 0.249980 0.296553
O O13 0.984100 0.907436 0.909563
O O14 0.724760 0.907161 0.930482
O O15 0.861290 0.078782 0.958001
O O16 0.071957 0.737736 0.010501
#
# Coordination Sequence:
#
# PCOD8171593 Si02
#       8
#     4   4   4   4   4   4   4   4
#     4  11  23  42  63  96 135 165 213 279 324 385
#     4  12  23  41  65  95 130 171 214 269 331 389
#     4  12  23  41  65  95 130 171 214 269 331 389
#     4  12  22  40  69  98 123 169 224 266 312 395
#     4  11  23  42  63  96 135 165 213 279 324 385
#     4  11  24  38  64  96 130 165 216 271 327 377
#     4  11  24  38  64  96 130 165 216 271 327 377
#     4  12  22  40  69  98 123 169 224 266 312 395
#
# _framework density 19.942906000000001
#
# number of rings (size 3 to 8) (size 9 to 14) (size 15 to 20)
#    0.000    0.500    7.500    1.500    0.000    0.000 
#    0.000    1.250    0.000    3.000    0.000    0.000 
#    0.000    0.000    0.000    0.000    0.000    0.000 
#
# Total GULP energy -396566.644469 kJ/mol
# GULP energy per Si atom -12392.707640 kJ/mol
# Density = 1.989751 g / cm^3
# Si number density = 19.942906 Si / 1000 Ang^3
#
#
#
# Elastic Constant Matrix: (Units=GPa)
#
#
# Indices 1 2 3 4 5 6 
#
# 1 89.6732 6.0275 31.7252 0.0000 0.0000 0.0000
# 2 6.0275 66.6436 49.8516 0.0000 0.0000 0.0000
# 3 31.7252 49.8516 157.1150 0.0000 0.0000 0.0000
# 4 0.0000 0.0000 0.0000 30.8055 0.0000 0.0000
# 5 0.0000 0.0000 0.0000 0.0000 26.7091 0.0000
# 6 0.0000 0.0000 0.0000 0.0000 0.0000 33.2128
#
#
#
# Elastic Compliance Matrix: (Units=1/GPa)
#
#
# Indices 1 2 3 4 5 6 
#
# 1 0.012056 0.000958 -0.002738 0.000000 0.000000 0.000000
# 2 0.000958 0.019751 -0.006460 0.000000 0.000000 0.000000
# 3 -0.002738 -0.006460 0.008968 0.000000 0.000000 0.000000
# 4 0.000000 0.000000 0.000000 0.032462 0.000000 0.000000
# 5 0.000000 0.000000 0.000000 0.000000 0.037440 0.000000
# 6 0.000000 0.000000 0.000000 0.000000 0.000000 0.030109
#
#
# Mechanical properties :
#
#
# Convention : Reuss Voigt Hill
#
# Bulk Modulus (GPa) = 41.16373 54.29336 47.72854
# Shear Modulus (GPa) = 30.23616 33.20063 31.71840
#
# Velocity S-wave (km/s) = 3.89798 4.08460 3.99238
# Velocity P-wave (km/s) = 6.39880 7.03767 6.72582
#
# Compressibility (1/GPa) = 0.02429323
#
# Stress axis : x y z
#
# Youngs Moduli (GPa) = 82.94624 50.63008 111.51349
#
# Poissons Ratio (x) = -0.04850 0.30536
# Poissons Ratio (y) = -0.07946 0.72042
# Poissons Ratio (z) = 0.22714 0.32709
#
# Static dielectric constant tensor:
#      x y z
#    x 4.149670 0.000000 0.000000 
#    y 0.000000 3.813660 0.000000 
#    z 0.000000 0.000000 4.394300 
# 
# 
# High freq. dielectric constant tensor:
#      x y z
#    x 1.806860 0.000000 0.000000 
#    y 0.000000 1.748030 0.000000 
#    z 0.000000 0.000000 1.779490 
# 
# From -- ./inp_files/6034.got.cif
#   From: 2010.03.12/outbox.cif.g09.slc.cpg/sg33_4_cif.got.tgz:6034.got - 2010.04.14 01:49:19.
