data_PCOD8171289
_publ_section_title
;
Structure prediction by ZEFSAII (Michael W. Deem and Ramdas Pophale) SiO2 
 PCOD8171289
Probable space group: P N A 21
;
_chemical_formula_sum "Si O2"
_cell_formula_units_Z 28
_cell_length_a 17.593233
_cell_length_b 7.447507
_cell_length_c 9.183985
_cell_angle_alpha 90.000000
_cell_angle_beta 90.000000
_cell_angle_gamma 90.000000
_cell_volume 1203.338301
_symmetry_space_group_name_H-M "P N A 21"
_symmetry_group_IT_number 33
_symmetry_cell_setting 'orthorhombic'
loop_
_space_group_symop_operation_xyz
x,y,z
-x,-y,1/2+z
1/2-x,1/2+y,1/2+z
1/2+x,1/2-y,z
loop_
_atom_site_type_symbol
_atom_site_label
_atom_site_fract_x
_atom_site_fract_y
_atom_site_fract_z
Si Si1 0.606735 0.945828 0.718830
Si Si2 0.754360 0.423117 0.003014
Si Si3 0.498436 0.280328 0.655179
Si Si4 0.151553 0.216830 0.239414
Si Si5 0.718991 0.821416 0.944350
Si Si6 0.160147 0.623271 0.239313
Si Si7 0.489923 0.374474 0.309707
O O1 0.674091 0.967506 0.604669
O O2 0.645623 0.924349 0.877688
O O3 0.557442 0.764251 0.711075
O O4 0.549204 0.107379 0.689657
O O5 0.691515 0.302787 0.082605
O O6 0.713153 0.602459 0.940074
O O7 0.789911 0.302187 0.873706
O O8 0.411735 0.246308 0.704831
O O9 0.494831 0.333100 0.483039
O O10 0.538247 0.427595 0.761193
O O11 0.204580 0.123323 0.361114
O O12 0.133810 0.422642 0.278463
O O13 0.073334 0.114045 0.239893
O O14 0.721687 0.882208 0.110233
#
# Coordination Sequence:
#
# PCOD8171289 Si02
#       7
#     4   4   4   4   4   4   4
#     4  11  25  49  74 106 152 194 247 309 384 450
#     4  10  24  45  72 105 146 196 252 307 376 454
#     4  12  27  45  74 108 151 201 249 321 379 456
#     4  10  23  45  69  99 146 194 246 314 371 450
#     4  10  22  45  68 102 141 191 248 299 371 454
#     4  11  22  43  71 100 144 193 246 310 374 444
#     4  12  27  48  74 110 152 197 262 310 387 458
#
# _framework density 23.268602999999999
#
# number of rings (size 3 to 8) (size 9 to 14) (size 15 to 20)
#    0.000    1.143    2.857    2.571    2.000    4.571 
#   12.857    0.000    0.000    0.000    0.000    0.000 
#    0.000    0.000    0.000    0.000    0.000    0.000 
#
# Total GULP energy -346957.079869 kJ/mol
# GULP energy per Si atom -12391.324281 kJ/mol
# Density = 2.321564 g / cm^3
# Si number density = 23.268603 Si / 1000 Ang^3
#
#
#
# Elastic Constant Matrix: (Units=GPa)
#
#
# Indices 1 2 3 4 5 6 
#
# 1 68.6016 -0.8983 34.0541 0.0000 0.0000 0.0000
# 2 -0.8983 82.3880 31.7874 0.0000 0.0000 0.0000
# 3 34.0541 31.7874 139.2827 0.0000 0.0000 0.0000
# 4 0.0000 0.0000 0.0000 37.8760 0.0000 0.0000
# 5 0.0000 0.0000 0.0000 0.0000 30.2067 0.0000
# 6 0.0000 0.0000 0.0000 0.0000 0.0000 23.3980
#
#
#
# Elastic Compliance Matrix: (Units=1/GPa)
#
#
# Indices 1 2 3 4 5 6 
#
# 1 0.016871 0.001947 -0.004569 0.000000 0.000000 0.000000
# 2 0.001947 0.013534 -0.003565 0.000000 0.000000 0.000000
# 3 -0.004569 -0.003565 0.009110 0.000000 0.000000 0.000000
# 4 0.000000 0.000000 0.000000 0.026402 0.000000 0.000000
# 5 0.000000 0.000000 0.000000 0.000000 0.033105 0.000000
# 6 0.000000 0.000000 0.000000 0.000000 0.000000 0.042739
#
#
# Mechanical properties :
#
#
# Convention : Reuss Voigt Hill
#
# Bulk Modulus (GPa) = 36.84463 46.68431 41.76447
# Shear Modulus (GPa) = 30.64057 33.31807 31.97932
#
# Velocity S-wave (km/s) = 3.63274 3.78814 3.71125
# Velocity P-wave (km/s) = 5.78486 6.26419 6.02929
#
# Compressibility (1/GPa) = 0.02714100
#
# Stress axis : x y z
#
# Youngs Moduli (GPa) = 59.27498 73.88621 109.76533
#
# Poissons Ratio (x) = -0.14384 0.50153
# Poissons Ratio (y) = -0.11540 0.39129
# Poissons Ratio (z) = 0.27083 0.26339
#
# Static dielectric constant tensor:
#      x y z
#    x 4.314810 0.000000 0.000000 
#    y 0.000000 4.126570 0.000000 
#    z 0.000000 0.000000 4.380310 
# 
# 
# High freq. dielectric constant tensor:
#      x y z
#    x 1.927190 0.000000 0.000000 
#    y 0.000000 1.919280 0.000000 
#    z 0.000000 0.000000 1.925990 
# 
# From -- ./inp_files/4695.got.cif
#   From: 2010.03.12/outbox.cif.g09.slc.cpg/sg33_3_cif.got.tgz:4695.got - 2010.04.14 01:49:19.
