data_PCOD8171999
_publ_section_title
;
Structure prediction by ZEFSAII (Michael W. Deem and Ramdas Pophale) SiO2 
 PCOD8171999
Probable space group: P N N 2
;
_chemical_formula_sum "Si O2"
_cell_formula_units_Z 26
_cell_length_a 10.838819
_cell_length_b 10.542324
_cell_length_c 9.761595
_cell_angle_alpha 90.000000
_cell_angle_beta 90.000000
_cell_angle_gamma 90.000000
_cell_volume 1115.421750
_symmetry_space_group_name_H-M "P N N 2"
_symmetry_group_IT_number 34
_symmetry_cell_setting 'orthorhombic'
loop_
_space_group_symop_operation_xyz
x,y,z
-x,-y,z
1/2-x,1/2+y,1/2+z
1/2+x,1/2-y,1/2+z
loop_
_atom_site_type_symbol
_atom_site_label
_atom_site_fract_x
_atom_site_fract_y
_atom_site_fract_z
Si Si1 0.074667 0.260585 0.517310
Si Si2 0.237149 0.029643 0.463012
Si Si3 0.090739 0.696392 0.274498
Si Si4 0.000000 0.500000 0.081763
Si Si5 0.406873 0.389372 0.185770
Si Si6 0.262415 0.972726 0.914878
Si Si7 0.362503 0.460423 0.684935
O O1 0.189886 0.164685 0.518614
O O2 0.125061 0.403045 0.495482
O O3 0.984102 0.230993 0.391258
O O4 0.989597 0.237680 0.654449
O O5 0.381021 0.011548 0.488214
O O6 0.161868 0.921242 0.543329
O O7 0.223514 0.021466 0.300372
O O8 0.992078 0.623536 0.179203
O O9 0.191097 0.595276 0.331452
O O10 0.157872 0.807310 0.187725
O O11 0.500000 0.500000 0.230252
O O12 0.308176 0.376495 0.309809
O O13 0.171601 0.016915 0.036106
O O14 0.500000 0.500000 0.719484
#
# Coordination Sequence:
#
# PCOD8171999 Si02
#       7
#     4   4   4   2   4   4   4
#     4  11  22  45  74 102 141 192 244 305 371 441
#     4  11  22  46  72  99 141 191 246 300 366 447
#     4  12  23  45  73 103 151 196 241 315 373 440
#     4  12  24  44  74 102 138 194 254 292 378 444
#     4  10  21  43  73 100 142 200 240 294 376 449
#     4  12  26  43  72 115 148 188 251 310 371 452
#     4  12  26  48  72 109 149 194 245 306 377 449
#
# _framework density 23.309567999999999
#
# number of rings (size 3 to 8) (size 9 to 14) (size 15 to 20)
#    0.000    0.615    6.154    1.846    2.154    2.462 
#    8.308    0.000    0.000    0.000    0.000    0.000 
#    0.000    0.000    0.000    0.000    0.000    0.000 
#
# Total GULP energy -322314.965957 kJ/mol
# GULP energy per Si atom -12396.729460 kJ/mol
# Density = 2.325651 g / cm^3
# Si number density = 23.309568 Si / 1000 Ang^3
#
#
#
# Elastic Constant Matrix: (Units=GPa)
#
#
# Indices 1 2 3 4 5 6 
#
# 1 129.2157 42.1979 53.8995 0.0000 0.0000 0.0000
# 2 42.1979 86.9054 21.4960 0.0000 0.0000 0.0000
# 3 53.8995 21.4960 126.1208 0.0000 0.0000 0.0000
# 4 0.0000 0.0000 0.0000 26.7852 0.0000 0.0000
# 5 0.0000 0.0000 0.0000 0.0000 47.2832 0.0000
# 6 0.0000 0.0000 0.0000 0.0000 0.0000 32.0440
#
#
#
# Elastic Compliance Matrix: (Units=1/GPa)
#
#
# Indices 1 2 3 4 5 6 
#
# 1 0.010742 -0.004260 -0.003865 0.000000 0.000000 0.000000
# 2 -0.004260 0.013703 -0.000515 0.000000 0.000000 0.000000
# 3 -0.003865 -0.000515 0.009668 0.000000 0.000000 0.000000
# 4 0.000000 0.000000 0.000000 0.037334 0.000000 0.000000
# 5 0.000000 0.000000 0.000000 0.000000 0.021149 0.000000
# 6 0.000000 0.000000 0.000000 0.000000 0.000000 0.031207
#
#
# Mechanical properties :
#
#
# Convention : Reuss Voigt Hill
#
# Bulk Modulus (GPa) = 59.40430 64.15875 61.78153
# Shear Modulus (GPa) = 34.08444 36.19903 35.14173
#
# Velocity S-wave (km/s) = 3.82809 3.94505 3.88701
# Velocity P-wave (km/s) = 6.71411 6.95238 6.83428
#
# Compressibility (1/GPa) = 0.01683380
#
# Stress axis : x y z
#
# Youngs Moduli (GPa) = 93.08964 72.97850 103.43047
#
# Poissons Ratio (x) = 0.31090 0.39974
# Poissons Ratio (y) = 0.39657 0.05325
# Poissons Ratio (z) = 0.35977 0.03757
#
# Static dielectric constant tensor:
#      x y z
#    x 4.193950 0.000000 0.000000 
#    y 0.000000 3.960650 0.000000 
#    z 0.000000 0.000000 4.201030 
# 
# 
# High freq. dielectric constant tensor:
#      x y z
#    x 1.928090 0.000000 0.000000 
#    y 0.000000 1.900540 0.000000 
#    z 0.000000 0.000000 1.922120 
# 
# From -- ./inp_files/3188.got.cif
#   From: 2010.03.12/outbox.cif.g09.slc.cpg/sg34_2_cif.got.tgz:3188.got - 2010.04.14 01:56:33.
