data_PCOD8171736
_publ_section_title
;
Structure prediction by ZEFSAII (Michael W. Deem and Ramdas Pophale) SiO2 
 PCOD8171736
Probable space group: P N A 21
;
_chemical_formula_sum "Si O2"
_cell_formula_units_Z 32
_cell_length_a 10.988339
_cell_length_b 11.107673
_cell_length_c 11.435001
_cell_angle_alpha 90.000000
_cell_angle_beta 90.000000
_cell_angle_gamma 90.000000
_cell_volume 1395.697634
_symmetry_space_group_name_H-M "P N A 21"
_symmetry_group_IT_number 33
_symmetry_cell_setting 'orthorhombic'
loop_
_space_group_symop_operation_xyz
x,y,z
-x,-y,1/2+z
1/2-x,1/2+y,1/2+z
1/2+x,1/2-y,z
loop_
_atom_site_type_symbol
_atom_site_label
_atom_site_fract_x
_atom_site_fract_y
_atom_site_fract_z
Si Si1 0.453075 0.377705 0.869040
Si Si2 0.535965 0.967681 0.704138
Si Si3 0.210664 0.401474 0.148223
Si Si4 0.305040 0.507947 0.374871
Si Si5 0.001930 0.732367 0.142152
Si Si6 0.276933 0.029462 0.404694
Si Si7 0.834693 0.310904 0.021775
Si Si8 0.249000 0.272669 0.505654
O O1 0.553481 0.474940 0.910441
O O2 0.501438 0.322100 0.750326
O O3 0.326339 0.446209 0.847042
O O4 0.439721 0.274088 0.967729
O O5 0.419094 0.879842 0.712462
O O6 0.602719 0.976160 0.827265
O O7 0.619305 0.922802 0.597985
O O8 0.477631 0.096817 0.681354
O O9 0.297965 0.475293 0.236923
O O10 0.257320 0.270237 0.111553
O O11 0.191940 0.483423 0.033797
O O12 0.239498 0.633720 0.411709
O O13 0.241189 0.401228 0.444977
O O14 0.867189 0.743688 0.088447
O O15 0.117546 0.765952 0.063588
O O16 0.236489 0.168311 0.408619
#
# Coordination Sequence:
#
# PCOD8171736 Si02
#       8
#     4   4   4   4   4   4   4   4
#     4  11  27  46  78 106 154 199 258 320 388 473
#     4  12  25  46  75 104 149 197 250 315 382 464
#     4  11  26  47  75 108 152 192 253 314 378 462
#     4  12  26  48  77 110 153 203 251 317 399 457
#     4  12  26  45  78 111 152 198 260 316 388 469
#     4  11  26  49  73 110 145 198 254 315 387 462
#     4  11  26  49  73 115 147 203 256 316 394 467
#     4  12  26  48  75 114 154 198 258 327 384 472
#
# _framework density 22.927600999999999
#
# number of rings (size 3 to 8) (size 9 to 14) (size 15 to 20)
#    0.000    0.500    2.500    4.500   10.500    1.000 
#    6.750    0.000    0.000    0.000    0.000    0.000 
#    0.000    0.000    0.000    0.000    0.000    0.000 
#
# Total GULP energy -396793.080397 kJ/mol
# GULP energy per Si atom -12399.783762 kJ/mol
# Density = 2.287542 g / cm^3
# Si number density = 22.927601 Si / 1000 Ang^3
#
#
#
# Elastic Constant Matrix: (Units=GPa)
#
#
# Indices 1 2 3 4 5 6 
#
# 1 135.5796 42.8768 61.4808 0.0000 0.0000 0.0000
# 2 42.8768 113.6709 51.9122 0.0000 0.0000 0.0000
# 3 61.4808 51.9122 119.0915 0.0000 0.0000 0.0000
# 4 0.0000 0.0000 0.0000 37.1473 0.0000 0.0000
# 5 0.0000 0.0000 0.0000 0.0000 39.7112 0.0000
# 6 0.0000 0.0000 0.0000 0.0000 0.0000 39.0236
#
#
#
# Elastic Compliance Matrix: (Units=1/GPa)
#
#
# Indices 1 2 3 4 5 6 
#
# 1 0.009901 -0.001748 -0.004349 0.000000 0.000000 0.000000
# 2 -0.001748 0.011293 -0.004020 0.000000 0.000000 0.000000
# 3 -0.004349 -0.004020 0.012394 0.000000 0.000000 0.000000
# 4 0.000000 0.000000 0.000000 0.026920 0.000000 0.000000
# 5 0.000000 0.000000 0.000000 0.000000 0.025182 0.000000
# 6 0.000000 0.000000 0.000000 0.000000 0.000000 0.025626
#
#
# Mechanical properties :
#
#
# Convention : Reuss Voigt Hill
#
# Bulk Modulus (GPa) = 74.88929 75.65351 75.27140
# Shear Modulus (GPa) = 36.76440 37.31457 37.03948
#
# Velocity S-wave (km/s) = 4.00872 4.03860 4.02369
# Velocity P-wave (km/s) = 7.35940 7.40374 7.38160
#
# Compressibility (1/GPa) = 0.01335304
#
# Stress axis : x y z
#
# Youngs Moduli (GPa) = 101.00116 88.55310 80.68131
#
# Poissons Ratio (x) = 0.15483 0.35090
# Poissons Ratio (y) = 0.17659 0.32433
# Poissons Ratio (z) = 0.43927 0.35597
#
# Static dielectric constant tensor:
#      x y z
#    x 4.186440 0.000000 0.000000 
#    y 0.000000 4.361420 0.000000 
#    z 0.000000 0.000000 4.139250 
# 
# 
# High freq. dielectric constant tensor:
#      x y z
#    x 1.914800 0.000000 0.000000 
#    y 0.000000 1.919600 0.000000 
#    z 0.000000 0.000000 1.903840 
# 
# From -- ./inp_files/6499.got.cif
#   From: 2010.03.12/outbox.cif.g09.slc.cpg/sg33_4_cif.got.tgz:6499.got - 2010.04.14 01:49:19.
