data_PCOD8171738
_publ_section_title
;
Structure prediction by ZEFSAII (Michael W. Deem and Ramdas Pophale) SiO2 
 PCOD8171738
Probable space group: P N A 21
;
_chemical_formula_sum "Si O2"
_cell_formula_units_Z 32
_cell_length_a 17.795867
_cell_length_b 5.352587
_cell_length_c 14.167578
_cell_angle_alpha 90.000000
_cell_angle_beta 90.000000
_cell_angle_gamma 90.000000
_cell_volume 1349.517431
_symmetry_space_group_name_H-M "P N A 21"
_symmetry_group_IT_number 33
_symmetry_cell_setting 'orthorhombic'
loop_
_space_group_symop_operation_xyz
x,y,z
-x,-y,1/2+z
1/2-x,1/2+y,1/2+z
1/2+x,1/2-y,z
loop_
_atom_site_type_symbol
_atom_site_label
_atom_site_fract_x
_atom_site_fract_y
_atom_site_fract_z
Si Si1 0.600645 0.088545 0.672290
Si Si2 0.445880 0.276281 0.661961
Si Si3 0.827307 0.538359 0.758694
Si Si4 0.579669 0.584219 0.961532
Si Si5 0.641627 0.069880 0.880766
Si Si6 0.439411 0.575969 0.835216
Si Si7 0.689305 0.603415 0.626533
Si Si8 0.798847 0.180977 0.914317
O O1 0.514786 0.092805 0.634305
O O2 0.596337 0.056346 0.784465
O O3 0.648990 0.332957 0.639256
O O4 0.631190 0.829645 0.632658
O O5 0.433830 0.456527 0.572593
O O6 0.479010 0.409932 0.755147
O O7 0.363623 0.172451 0.690982
O O8 0.896655 0.722295 0.772182
O O9 0.754145 0.642289 0.704901
O O10 0.804902 0.454040 0.865375
O O11 0.620973 0.333969 0.928865
O O12 0.503844 0.659508 0.906101
O O13 0.628183 0.834669 0.948795
O O14 0.730493 0.054817 0.856684
O O15 0.378911 0.444448 0.901575
O O16 0.724794 0.653777 0.523421
#
# Coordination Sequence:
#
# PCOD8171738 Si02
#       8
#     4   4   4   4   4   4   4   4
#     4  12  26  50  72 109 146 193 241 305 364 432
#     4  11  27  46  75 107 150 192 247 304 367 441
#     4  11  26  49  72 108 148 193 242 308 368 438
#     4  12  28  46  78 108 146 195 248 298 371 441
#     4  12  26  50  72 109 146 193 241 306 364 434
#     4  11  26  49  72 108 146 197 240 309 366 436
#     4  12  28  46  77 108 146 195 247 298 370 443
#     4  11  27  46  74 107 150 192 248 304 370 441
#
# _framework density 23.712178000000002
#
# number of rings (size 3 to 8) (size 9 to 14) (size 15 to 20)
#    0.000    0.500    2.500    3.750   14.000    0.000 
#    0.000    0.000    0.000    0.000    0.000    0.000 
#    0.000    0.000    0.000    0.000    0.000    0.000 
#
# Total GULP energy -396522.736180 kJ/mol
# GULP energy per Si atom -12391.335506 kJ/mol
# Density = 2.365821 g / cm^3
# Si number density = 23.712178 Si / 1000 Ang^3
#
#
#
# Elastic Constant Matrix: (Units=GPa)
#
#
# Indices 1 2 3 4 5 6 
#
# 1 70.6657 7.9932 -6.4508 0.0000 0.0000 0.0000
# 2 7.9932 101.1856 12.1478 0.0000 0.0000 0.0000
# 3 -6.4508 12.1478 103.2694 0.0000 0.0000 0.0000
# 4 0.0000 0.0000 0.0000 21.1892 0.0000 0.0000
# 5 0.0000 0.0000 0.0000 0.0000 29.2744 0.0000
# 6 0.0000 0.0000 0.0000 0.0000 0.0000 15.7276
#
#
#
# Elastic Compliance Matrix: (Units=1/GPa)
#
#
# Indices 1 2 3 4 5 6 
#
# 1 0.014390 -0.001262 0.001047 0.000000 0.000000 0.000000
# 2 -0.001262 0.010135 -0.001271 0.000000 0.000000 0.000000
# 3 0.001047 -0.001271 0.009898 0.000000 0.000000 0.000000
# 4 0.000000 0.000000 0.000000 0.047194 0.000000 0.000000
# 5 0.000000 0.000000 0.000000 0.000000 0.034160 0.000000
# 6 0.000000 0.000000 0.000000 0.000000 0.000000 0.063582
#
#
# Mechanical properties :
#
#
# Convention : Reuss Voigt Hill
#
# Bulk Modulus (GPa) = 31.79578 33.61123 32.70350
# Shear Modulus (GPa) = 25.93162 30.66694 28.29928
#
# Velocity S-wave (km/s) = 3.31055 3.60015 3.45838
# Velocity P-wave (km/s) = 5.29633 5.61132 5.45610
#
# Compressibility (1/GPa) = 0.03145071
#
# Stress axis : x y z
#
# Youngs Moduli (GPa) = 69.49493 98.66643 101.02689
#
# Poissons Ratio (x) = 0.12456 -0.10581
# Poissons Ratio (y) = 0.08773 0.12841
# Poissons Ratio (z) = -0.07279 0.12541
#
# Static dielectric constant tensor:
#      x y z
#    x 4.263780 0.000000 0.000000 
#    y 0.000000 4.274020 0.000000 
#    z 0.000000 0.000000 4.345950 
# 
# 
# High freq. dielectric constant tensor:
#      x y z
#    x 1.957560 0.000000 0.000000 
#    y 0.000000 1.931430 0.000000 
#    z 0.000000 0.000000 1.948880 
# 
# From -- ./inp_files/8230.got.cif
#   From: 2010.03.12/outbox.cif.g09.slc.cpg/sg33_5_cif.got.tgz:8230.got - 2010.04.14 01:49:19.
