data_PCOD8171003
_publ_section_title
;
Structure prediction by ZEFSAII (Michael W. Deem and Ramdas Pophale) SiO2 
 PCOD8171003
Probable space group: P N A 21
;
_chemical_formula_sum "Si O2"
_cell_formula_units_Z 28
_cell_length_a 9.090190
_cell_length_b 17.589039
_cell_length_c 8.258739
_cell_angle_alpha 90.000000
_cell_angle_beta 90.000000
_cell_angle_gamma 90.000000
_cell_volume 1320.470837
_symmetry_space_group_name_H-M "P N A 21"
_symmetry_group_IT_number 33
_symmetry_cell_setting 'orthorhombic'
loop_
_space_group_symop_operation_xyz
x,y,z
-x,-y,1/2+z
1/2-x,1/2+y,1/2+z
1/2+x,1/2-y,z
loop_
_atom_site_type_symbol
_atom_site_label
_atom_site_fract_x
_atom_site_fract_y
_atom_site_fract_z
Si Si1 0.779448 0.863717 0.298990
Si Si2 0.883863 0.879354 0.644374
Si Si3 0.072437 0.824713 0.900650
Si Si4 0.339943 0.772303 0.075104
Si Si5 0.675482 0.956867 0.870219
Si Si6 0.547743 0.467128 0.569570
Si Si7 0.988287 0.582383 0.175416
O O1 0.825261 0.841625 0.480518
O O2 0.759290 0.787718 0.192460
O O3 0.902944 0.920726 0.229242
O O4 0.622166 0.905551 0.300383
O O5 0.749863 0.885179 0.775563
O O6 0.012962 0.824548 0.715337
O O7 0.944638 0.963919 0.617852
O O8 0.240400 0.798748 0.921700
O O9 0.985772 0.764881 0.008336
O O10 0.050077 0.911313 0.959572
O O11 0.380035 0.845800 0.180578
O O12 0.606499 0.011286 0.735413
O O13 0.806212 0.996331 0.974516
O O14 0.549114 0.928456 0.992523
#
# Coordination Sequence:
#
# PCOD8171003 Si02
#       7
#     4   4   4   4   4   4   4
#     4  10  21  39  61  92 127 168 216 261 311 387
#     4  11  21  39  63  97 128 155 220 269 311 376
#     4  10  22  39  63  88 123 171 209 253 313 381
#     4  11  22  42  62  84 125 182 209 248 323 381
#     4  10  22  37  64  96 123 165 207 265 320 371
#     4   9  20  39  64  89 127 160 210 259 317 372
#     4  11  22  41  65  90 133 163 213 261 325 376
#
# _framework density 21.204557000000001
#
# number of rings (size 3 to 8) (size 9 to 14) (size 15 to 20)
#    0.000    1.714    1.429    4.286    0.000    3.429 
#    2.571    1.429    0.000    0.000    0.000    0.000 
#    0.000    0.000    0.000    0.000    0.000    0.000 
#
# Total GULP energy -347168.375050 kJ/mol
# GULP energy per Si atom -12398.870537 kJ/mol
# Density = 2.115629 g / cm^3
# Si number density = 21.204557 Si / 1000 Ang^3
#
#
#
# Elastic Constant Matrix: (Units=GPa)
#
#
# Indices 1 2 3 4 5 6 
#
# 1 60.3654 17.6510 19.3059 0.0000 0.0000 0.0000
# 2 17.6510 64.1671 12.3233 0.0000 0.0000 0.0000
# 3 19.3059 12.3233 115.1200 0.0000 0.0000 0.0000
# 4 0.0000 0.0000 0.0000 14.6255 0.0000 0.0000
# 5 0.0000 0.0000 0.0000 0.0000 37.7406 0.0000
# 6 0.0000 0.0000 0.0000 0.0000 0.0000 17.1732
#
#
#
# Elastic Compliance Matrix: (Units=1/GPa)
#
#
# Indices 1 2 3 4 5 6 
#
# 1 0.018775 -0.004656 -0.002650 0.000000 0.000000 0.000000
# 2 -0.004656 0.017066 -0.001046 0.000000 0.000000 0.000000
# 3 -0.002650 -0.001046 0.009243 0.000000 0.000000 0.000000
# 4 0.000000 0.000000 0.000000 0.068374 0.000000 0.000000
# 5 0.000000 0.000000 0.000000 0.000000 0.026497 0.000000
# 6 0.000000 0.000000 0.000000 0.000000 0.000000 0.058230
#
#
# Mechanical properties :
#
#
# Convention : Reuss Voigt Hill
#
# Bulk Modulus (GPa) = 35.23629 37.57922 36.40775
# Shear Modulus (GPa) = 22.28680 26.59933 24.44306
#
# Velocity S-wave (km/s) = 3.24549 3.54562 3.39887
# Velocity P-wave (km/s) = 5.54055 5.87559 5.71053
#
# Compressibility (1/GPa) = 0.02837983
#
# Stress axis : x y z
#
# Youngs Moduli (GPa) = 53.26332 58.59653 108.18978
#
# Poissons Ratio (x) = 0.27280 0.28672
# Poissons Ratio (y) = 0.24797 0.11318
# Poissons Ratio (z) = 0.14116 0.06130
#
# Static dielectric constant tensor:
#      x y z
#    x 3.812720 0.000000 0.000000 
#    y 0.000000 3.636610 0.000000 
#    z 0.000000 0.000000 3.863960 
# 
# 
# High freq. dielectric constant tensor:
#      x y z
#    x 1.834880 0.000000 0.000000 
#    y 0.000000 1.815700 0.000000 
#    z 0.000000 0.000000 1.824620 
# 
# From -- ./inp_files/3349.got.cif
#   From: 2010.03.12/outbox.cif.g09.slc.cpg/sg33_2_cif.got.tgz:3349.got - 2010.04.14 01:49:19.
