data_PCOD8171184
_publ_section_title
;
Structure prediction by ZEFSAII (Michael W. Deem and Ramdas Pophale) SiO2 
 PCOD8171184
Probable space group: P N A 21
;
_chemical_formula_sum "Si O2"
_cell_formula_units_Z 28
_cell_length_a 27.301938
_cell_length_b 5.434551
_cell_length_c 8.369772
_cell_angle_alpha 90.000000
_cell_angle_beta 90.000000
_cell_angle_gamma 90.000000
_cell_volume 1241.854663
_symmetry_space_group_name_H-M "P N A 21"
_symmetry_group_IT_number 33
_symmetry_cell_setting 'orthorhombic'
loop_
_space_group_symop_operation_xyz
x,y,z
-x,-y,1/2+z
1/2-x,1/2+y,1/2+z
1/2+x,1/2-y,z
loop_
_atom_site_type_symbol
_atom_site_label
_atom_site_fract_x
_atom_site_fract_y
_atom_site_fract_z
Si Si1 0.281604 0.776667 0.041440
Si Si2 0.030195 0.054177 0.973977
Si Si3 0.195909 0.542677 0.235932
Si Si4 0.988289 0.333760 0.708467
Si Si5 0.665731 0.735886 0.542447
Si Si6 0.399208 0.930514 0.563965
Si Si7 0.073746 0.680428 0.745439
O O1 0.230095 0.705794 0.120867
O O2 0.315192 0.538666 0.081280
O O3 0.302632 0.032813 0.118422
O O4 0.276724 0.836554 0.848932
O O5 0.994393 0.256249 0.893270
O O6 0.057916 0.931329 0.826325
O O7 0.073284 0.170346 0.082208
O O8 0.996600 0.878607 0.081659
O O9 0.167392 0.734057 0.350564
O O10 0.156325 0.406823 0.123919
O O11 0.024394 0.560980 0.672033
O O12 0.931178 0.385269 0.673687
O O13 0.610647 0.760467 0.602784
O O14 0.400198 0.007062 0.377601
#
# Coordination Sequence:
#
# PCOD8171184 Si02
#       7
#     4   4   4   4   4   4   4
#     4  10  26  46  72 106 140 180 238 294 362 421
#     4  10  22  40  66  98 140 187 229 287 348 417
#     4  10  26  46  74 101 142 183 238 300 361 432
#     4  10  22  41  62 102 139 185 231 283 353 428
#     4  10  26  45  71 107 135 188 227 299 348 437
#     4  10  23  43  65 103 132 186 234 291 357 425
#     4  10  23  41  66  99 142 183 233 288 357 426
#
# _framework density 22.546921000000001
#
# number of rings (size 3 to 8) (size 9 to 14) (size 15 to 20)
#    0.857    1.143    0.000    0.857    8.000    8.000 
#    0.000    0.000    0.000    0.000    0.000    0.000 
#    0.000    0.000    0.000    0.000    0.000    0.000 
#
# Total GULP energy -346868.585735 kJ/mol
# GULP energy per Si atom -12388.163776 kJ/mol
# Density = 2.249560 g / cm^3
# Si number density = 22.546921 Si / 1000 Ang^3
#
#
#
# Elastic Constant Matrix: (Units=GPa)
#
#
# Indices 1 2 3 4 5 6 
#
# 1 77.3103 1.2448 47.7504 0.0000 0.0000 0.0000
# 2 1.2448 93.0285 14.6971 0.0000 0.0000 0.0000
# 3 47.7504 14.6971 82.8135 0.0000 0.0000 0.0000
# 4 0.0000 0.0000 0.0000 38.2226 0.0000 0.0000
# 5 0.0000 0.0000 0.0000 0.0000 51.1989 0.0000
# 6 0.0000 0.0000 0.0000 0.0000 0.0000 14.8461
#
#
#
# Elastic Compliance Matrix: (Units=1/GPa)
#
#
# Indices 1 2 3 4 5 6 
#
# 1 0.020325 0.001625 -0.012008 0.000000 0.000000 0.000000
# 2 0.001625 0.011189 -0.002923 0.000000 0.000000 0.000000
# 3 -0.012008 -0.002923 0.019518 0.000000 0.000000 0.000000
# 4 0.000000 0.000000 0.000000 0.026163 0.000000 0.000000
# 5 0.000000 0.000000 0.000000 0.000000 0.019532 0.000000
# 6 0.000000 0.000000 0.000000 0.000000 0.000000 0.067358
#
#
# Mechanical properties :
#
#
# Convention : Reuss Voigt Hill
#
# Bulk Modulus (GPa) = 40.94813 42.28189 41.61501
# Shear Modulus (GPa) = 25.14626 33.48419 29.31523
#
# Velocity S-wave (km/s) = 3.34321 3.85787 3.60972
# Velocity P-wave (km/s) = 5.75356 6.21593 5.98921
#
# Compressibility (1/GPa) = 0.02442114
#
# Stress axis : x y z
#
# Youngs Moduli (GPa) = 49.19930 89.37019 51.23487
#
# Poissons Ratio (x) = -0.14524 0.61523
# Poissons Ratio (y) = -0.07996 0.14975
# Poissons Ratio (z) = 0.59079 0.26122
#
# Static dielectric constant tensor:
#      x y z
#    x 3.687990 0.000000 0.000000 
#    y 0.000000 4.201830 0.000000 
#    z 0.000000 0.000000 3.957850 
# 
# 
# High freq. dielectric constant tensor:
#      x y z
#    x 1.866940 0.000000 0.000000 
#    y 0.000000 1.895940 0.000000 
#    z 0.000000 0.000000 1.886540 
# 
# From -- ./inp_files/5252.got.cif
#   From: 2010.03.12/outbox.cif.g09.slc.cpg/sg33_3_cif.got.tgz:5252.got - 2010.04.14 01:49:19.
