data_PCOD8171097
_publ_section_title
;
Structure prediction by ZEFSAII (Michael W. Deem and Ramdas Pophale) SiO2 
 PCOD8171097
Probable space group: P N A 21
;
_chemical_formula_sum "Si O2"
_cell_formula_units_Z 32
_cell_length_a 13.272826
_cell_length_b 4.895825
_cell_length_c 21.575892
_cell_angle_alpha 90.000000
_cell_angle_beta 90.000000
_cell_angle_gamma 90.000000
_cell_volume 1402.032388
_symmetry_space_group_name_H-M "P N A 21"
_symmetry_group_IT_number 33
_symmetry_cell_setting 'orthorhombic'
loop_
_space_group_symop_operation_xyz
x,y,z
-x,-y,1/2+z
1/2-x,1/2+y,1/2+z
1/2+x,1/2-y,z
loop_
_atom_site_type_symbol
_atom_site_label
_atom_site_fract_x
_atom_site_fract_y
_atom_site_fract_z
Si Si1 0.800023 0.459473 0.693910
Si Si2 0.700587 0.978106 0.334932
Si Si3 0.636182 0.984309 0.523674
Si Si4 0.431460 0.529776 0.691348
Si Si5 0.328943 0.659461 0.448228
Si Si6 0.460506 0.192122 0.438982
Si Si7 0.118701 0.004533 0.607169
Si Si8 0.069069 0.021148 0.331839
O O1 0.763664 0.424315 0.764831
O O2 0.895967 0.658343 0.684766
O O3 0.709270 0.574128 0.652932
O O4 0.836578 0.160091 0.673568
O O5 0.794008 0.939835 0.380503
O O6 0.605991 0.779291 0.354811
O O7 0.668173 0.292485 0.337478
O O8 0.735950 0.844817 0.495561
O O9 0.586120 0.747108 0.563958
O O10 0.563008 0.085402 0.469134
O O11 0.657728 0.240407 0.567421
O O12 0.520420 0.433271 0.646910
O O13 0.470071 0.488312 0.761760
O O14 0.410480 0.445181 0.476428
O O15 0.376681 0.956494 0.438316
O O16 0.482492 0.335675 0.372587
#
# Coordination Sequence:
#
# PCOD8171097 Si02
#       8
#     4   4   4   4   4   4   4   4
#     4  10  23  43  67 101 133 172 221 283 339 407
#     4  10  21  42  69  98 141 171 216 288 349 401
#     4  12  28  46  65  97 143 178 232 289 331 410
#     4  10  23  43  68 100 135 171 224 283 344 404
#     4  12  26  43  69 103 132 185 229 282 344 414
#     4  12  26  43  70 102 133 185 232 281 351 410
#     4  12  26  44  71  95 133 189 226 275 343 421
#     4  10  21  42  69  98 140 173 214 295 345 405
#
# _framework density 22.824007999999999
#
# number of rings (size 3 to 8) (size 9 to 14) (size 15 to 20)
#    0.000    1.000    1.250    4.500    3.500    6.000 
#    2.250    0.000    0.000    0.000    0.000    0.000 
#    0.000    0.000    0.000    0.000    0.000    0.000 
#
# Total GULP energy -396761.724677 kJ/mol
# GULP energy per Si atom -12398.803896 kJ/mol
# Density = 2.277206 g / cm^3
# Si number density = 22.824008 Si / 1000 Ang^3
#
#
#
# Elastic Constant Matrix: (Units=GPa)
#
#
# Indices 1 2 3 4 5 6 
#
# 1 53.5680 6.6118 24.2191 0.0000 0.0000 0.0000
# 2 6.6118 103.0070 19.3895 0.0000 0.0000 0.0000
# 3 24.2191 19.3895 82.7218 0.0000 0.0000 0.0000
# 4 0.0000 0.0000 0.0000 30.3925 0.0000 0.0000
# 5 0.0000 0.0000 0.0000 0.0000 13.0873 0.0000
# 6 0.0000 0.0000 0.0000 0.0000 0.0000 37.8653
#
#
#
# Elastic Compliance Matrix: (Units=1/GPa)
#
#
# Indices 1 2 3 4 5 6 
#
# 1 0.021520 -0.000204 -0.006253 0.000000 0.000000 0.000000
# 2 -0.000204 0.010158 -0.002321 0.000000 0.000000 0.000000
# 3 -0.006253 -0.002321 0.014463 0.000000 0.000000 0.000000
# 4 0.000000 0.000000 0.000000 0.032903 0.000000 0.000000
# 5 0.000000 0.000000 0.000000 0.000000 0.076410 0.000000
# 6 0.000000 0.000000 0.000000 0.000000 0.000000 0.026409
#
#
# Mechanical properties :
#
#
# Convention : Reuss Voigt Hill
#
# Bulk Modulus (GPa) = 34.98317 37.74863 36.36590
# Shear Modulus (GPa) = 23.92929 28.87410 26.40170
#
# Velocity S-wave (km/s) = 3.24145 3.56065 3.40479
# Velocity P-wave (km/s) = 5.41941 5.78612 5.60576
#
# Compressibility (1/GPa) = 0.02858517
#
# Stress axis : x y z
#
# Youngs Moduli (GPa) = 46.46830 98.44343 69.13996
#
# Poissons Ratio (x) = 0.02012 0.43231
# Poissons Ratio (y) = 0.00950 0.16049
# Poissons Ratio (z) = 0.29055 0.22850
#
# Static dielectric constant tensor:
#      x y z
#    x 3.837380 0.000000 0.000000 
#    y 0.000000 4.357780 0.000000 
#    z 0.000000 0.000000 4.171630 
# 
# 
# High freq. dielectric constant tensor:
#      x y z
#    x 1.888800 0.000000 0.000000 
#    y 0.000000 1.919300 0.000000 
#    z 0.000000 0.000000 1.903460 
# 
# From -- ./inp_files/9136.got.cif
#   From: 2010.03.12/outbox.cif.g09.slc.cpg/sg33_5_cif.got.tgz:9136.got - 2010.04.14 01:49:19.
