data_PCOD8171821
_publ_section_title
;
Structure prediction by ZEFSAII (Michael W. Deem and Ramdas Pophale) SiO2 
 PCOD8171821
Probable space group: P N N 2
;
_chemical_formula_sum "Si O2"
_cell_formula_units_Z 26
_cell_length_a 8.657355
_cell_length_b 8.037113
_cell_length_c 18.318490
_cell_angle_alpha 90.000000
_cell_angle_beta 90.000000
_cell_angle_gamma 90.000000
_cell_volume 1274.603106
_symmetry_space_group_name_H-M "P N N 2"
_symmetry_group_IT_number 34
_symmetry_cell_setting 'orthorhombic'
loop_
_space_group_symop_operation_xyz
x,y,z
-x,-y,z
1/2-x,1/2+y,1/2+z
1/2+x,1/2-y,1/2+z
loop_
_atom_site_type_symbol
_atom_site_label
_atom_site_fract_x
_atom_site_fract_y
_atom_site_fract_z
Si Si1 0.884112 0.260032 0.882690
Si Si2 0.803917 0.335266 0.511481
Si Si3 0.500000 0.500000 0.494569
Si Si4 0.671717 0.974988 0.509800
Si Si5 0.083645 0.176691 0.759341
Si Si6 0.165298 0.531111 0.351909
Si Si7 0.430189 0.684825 0.095290
O O1 0.987862 0.160185 0.942119
O O2 0.833858 0.428393 0.923465
O O3 0.984861 0.301866 0.810705
O O4 0.739325 0.150303 0.859556
O O5 0.659917 0.456344 0.539421
O O6 0.851964 0.384202 0.430572
O O7 0.960800 0.330851 0.560700
O O8 0.759218 0.144967 0.516142
O O9 0.765792 0.828785 0.552571
O O10 0.500000 0.000000 0.543071
O O11 0.250518 0.153520 0.795691
O O12 0.100646 0.246654 0.677904
O O13 0.000000 0.000000 0.760947
O O14 0.000000 0.500000 0.316475
O O15 0.500000 0.500000 0.095884
#
# Coordination Sequence:
#
# PCOD8171821 Si02
#       7
#     4   4   2   4   4   4   4
#     4  10  17  32  54  78 102 137 182 222 270 327
#     4  10  19  34  51  82 110 140 184 231 276 330
#     4  10  16  32  56  78 100 138 188 228 264 330
#     4  11  19  31  53  80 108 143 181 227 282 328
#     4   9  16  33  51  75 107 140 182 217 268 330
#     4  10  18  30  54  79 104 138 185 230 268 315
#     4   9  20  32  50  80 114 143 177 231 281 328
#
# _framework density 20.398506000000001
#
# number of rings (size 3 to 8) (size 9 to 14) (size 15 to 20)
#    0.000    2.154    5.385    0.923    0.000    0.615 
#    0.000    0.000    0.000   13.846    6.000    0.000 
#    0.000    0.000    0.000    0.000    0.000    0.000 
#
# Total GULP energy -322114.637946 kJ/mol
# GULP energy per Si atom -12389.024536 kJ/mol
# Density = 2.035208 g / cm^3
# Si number density = 20.398506 Si / 1000 Ang^3
#
#
#
# Elastic Constant Matrix: (Units=GPa)
#
#
# Indices 1 2 3 4 5 6 
#
# 1 157.6654 16.5364 72.4215 0.0000 0.0000 0.0000
# 2 16.5364 32.9366 20.3744 0.0000 0.0000 0.0000
# 3 72.4215 20.3744 141.2406 0.0000 0.0000 0.0000
# 4 0.0000 0.0000 0.0000 20.9296 0.0000 0.0000
# 5 0.0000 0.0000 0.0000 0.0000 -16.2615 0.0000
# 6 0.0000 0.0000 0.0000 0.0000 0.0000 26.0600
#
#
#
# Elastic Compliance Matrix: (Units=1/GPa)
#
#
# Indices 1 2 3 4 5 6 
#
# 1 0.008383 -0.001702 -0.004053 0.000000 0.000000 0.000000
# 2 -0.001702 0.033682 -0.003986 0.000000 0.000000 0.000000
# 3 -0.004053 -0.003986 0.009733 0.000000 0.000000 0.000000
# 4 0.000000 0.000000 0.000000 0.047779 0.000000 0.000000
# 5 0.000000 0.000000 0.000000 0.000000 -0.061495 0.000000
# 6 0.000000 0.000000 0.000000 0.000000 0.000000 0.038373
#
#
# Mechanical properties :
#
#
# Convention : Reuss Voigt Hill
#
# Bulk Modulus (GPa) = 30.94418 61.16747 46.05582
# Shear Modulus (GPa) = 46.85696 20.97964 33.91830
#
# Velocity S-wave (km/s) = 4.79798 3.21049 4.08215
# Velocity P-wave (km/s) = 6.77473 6.61773 6.69669
#
# Compressibility (1/GPa) = 0.03231625
#
# Stress axis : x y z
#
# Youngs Moduli (GPa) = 119.29504 29.68988 102.74135
#
# Poissons Ratio (x) = 0.05052 0.41638
# Poissons Ratio (y) = 0.20299 0.40954
# Poissons Ratio (z) = 0.48347 0.11835
#
# Static dielectric constant tensor:
#      x y z
#    x 4.254810 0.000000 0.000000 
#    y 0.000000 3.619610 0.000000 
#    z 0.000000 0.000000 3.706260 
# 
# 
# High freq. dielectric constant tensor:
#      x y z
#    x 1.808350 0.000000 0.000000 
#    y 0.000000 1.778360 0.000000 
#    z 0.000000 0.000000 1.764150 
# 
# From -- ./inp_files/7483.got.cif
#   From: 2010.03.12/outbox.cif.g09.slc.cpg/sg34_4_cif.got.tgz:7483.got - 2010.04.14 01:56:33.
