data_PCOD8171388
_publ_section_title
;
Structure prediction by ZEFSAII (Michael W. Deem and Ramdas Pophale) SiO2 
 PCOD8171388
Probable space group: P N A 21
;
_chemical_formula_sum "Si O2"
_cell_formula_units_Z 32
_cell_length_a 21.408878
_cell_length_b 12.774984
_cell_length_c 5.387384
_cell_angle_alpha 90.000000
_cell_angle_beta 90.000000
_cell_angle_gamma 90.000000
_cell_volume 1473.439147
_symmetry_space_group_name_H-M "P N A 21"
_symmetry_group_IT_number 33
_symmetry_cell_setting 'orthorhombic'
loop_
_space_group_symop_operation_xyz
x,y,z
-x,-y,1/2+z
1/2-x,1/2+y,1/2+z
1/2+x,1/2-y,z
loop_
_atom_site_type_symbol
_atom_site_label
_atom_site_fract_x
_atom_site_fract_y
_atom_site_fract_z
Si Si1 0.419330 0.981595 0.379160
Si Si2 0.739129 0.790397 0.360863
Si Si3 0.852395 0.922802 0.419447
Si Si4 0.960784 0.620338 0.882485
Si Si5 0.206402 0.604813 0.884497
Si Si6 0.800357 0.062915 0.798639
Si Si7 0.069851 0.957306 0.526408
Si Si8 0.537935 0.351245 0.235322
O O1 0.423087 0.916672 0.636688
O O2 0.470122 0.073302 0.376524
O O3 0.352432 0.031983 0.341748
O O4 0.427239 0.907926 0.139584
O O5 0.808512 0.833515 0.300341
O O6 0.716075 0.824427 0.636052
O O7 0.741715 0.665351 0.331869
O O8 0.694535 0.827560 0.133489
O O9 0.892849 0.859076 0.621627
O O10 0.806759 0.015566 0.521263
O O11 0.903296 0.978861 0.255968
O O12 0.965715 0.745286 0.890573
O O13 0.266333 0.531168 0.947148
O O14 0.870692 0.088162 0.881755
O O15 0.024561 0.856925 0.564978
O O16 0.027389 0.043510 0.392253
#
# Coordination Sequence:
#
# PCOD8171388 Si02
#       8
#     4   4   4   4   4   4   4   4
#     4  10  23  46  64  97 135 167 226 282 319 398
#     4  11  25  42  69  97 130 179 220 268 340 393
#     4  10  23  45  61  98 138 166 231 273 325 408
#     4  10  24  42  67  97 132 176 221 273 334 388
#     4  11  24  44  66  99 129 174 225 271 332 398
#     4  10  25  42  66  94 136 175 218 284 329 394
#     4  11  22  43  62  97 138 168 225 279 332 394
#     4  11  24  38  69  97 128 185 216 278 339 399
#
# _framework density 21.717894999999999
#
# number of rings (size 3 to 8) (size 9 to 14) (size 15 to 20)
#    0.000    1.500    2.500    0.750    7.000    0.000 
#    0.000    0.000    0.000    0.000    0.000    0.000 
#    0.000    0.000    0.000    0.000    0.000    0.000 
#
# Total GULP energy -396523.134375 kJ/mol
# GULP energy per Si atom -12391.347949 kJ/mol
# Density = 2.166846 g / cm^3
# Si number density = 21.717895 Si / 1000 Ang^3
#
#
#
# Elastic Constant Matrix: (Units=GPa)
#
#
# Indices 1 2 3 4 5 6 
#
# 1 65.1849 33.5957 12.3038 0.0000 0.0000 0.0000
# 2 33.5957 96.5424 26.2876 0.0000 0.0000 0.0000
# 3 12.3038 26.2876 104.2532 0.0000 0.0000 0.0000
# 4 0.0000 0.0000 0.0000 13.7224 0.0000 0.0000
# 5 0.0000 0.0000 0.0000 0.0000 20.5069 0.0000
# 6 0.0000 0.0000 0.0000 0.0000 0.0000 20.2435
#
#
#
# Elastic Compliance Matrix: (Units=1/GPa)
#
#
# Indices 1 2 3 4 5 6 
#
# 1 0.018730 -0.006352 -0.000609 0.000000 0.000000 0.000000
# 2 -0.006352 0.013276 -0.002598 0.000000 0.000000 0.000000
# 3 -0.000609 -0.002598 0.010319 0.000000 0.000000 0.000000
# 4 0.000000 0.000000 0.000000 0.072873 0.000000 0.000000
# 5 0.000000 0.000000 0.000000 0.000000 0.048764 0.000000
# 6 0.000000 0.000000 0.000000 0.000000 0.000000 0.049399
#
#
# Mechanical properties :
#
#
# Convention : Reuss Voigt Hill
#
# Bulk Modulus (GPa) = 43.09000 45.59496 44.34248
# Shear Modulus (GPa) = 20.81482 23.81414 22.31448
#
# Velocity S-wave (km/s) = 3.09919 3.31497 3.20889
# Velocity P-wave (km/s) = 5.71756 5.97426 5.84732
#
# Compressibility (1/GPa) = 0.02320724
#
# Stress axis : x y z
#
# Youngs Moduli (GPa) = 53.39142 75.32429 96.90917
#
# Poissons Ratio (x) = 0.47845 0.05900
# Poissons Ratio (y) = 0.33914 0.25176
# Poissons Ratio (z) = 0.03250 0.19568
#
# Static dielectric constant tensor:
#      x y z
#    x 3.976000 0.000000 0.000000 
#    y 0.000000 3.780220 0.000000 
#    z 0.000000 0.000000 4.110440 
# 
# 
# High freq. dielectric constant tensor:
#      x y z
#    x 1.862180 0.000000 0.000000 
#    y 0.000000 1.846550 0.000000 
#    z 0.000000 0.000000 1.855700 
# 
# From -- ./inp_files/2065.got.cif
#   From: 2010.03.12/outbox.cif.g09.slc.cpg/sg33_2_cif.got.tgz:2065.got - 2010.04.14 01:49:19.
