data_PCOD8171656
_publ_section_title
;
Structure prediction by ZEFSAII (Michael W. Deem and Ramdas Pophale) SiO2 
 PCOD8171656
Probable space group: P N A 21
;
_chemical_formula_sum "Si O2"
_cell_formula_units_Z 28
_cell_length_a 25.291770
_cell_length_b 6.593633
_cell_length_c 7.588284
_cell_angle_alpha 90.000000
_cell_angle_beta 90.000000
_cell_angle_gamma 90.000000
_cell_volume 1265.457520
_symmetry_space_group_name_H-M "P N A 21"
_symmetry_group_IT_number 33
_symmetry_cell_setting 'orthorhombic'
loop_
_space_group_symop_operation_xyz
x,y,z
-x,-y,1/2+z
1/2-x,1/2+y,1/2+z
1/2+x,1/2-y,z
loop_
_atom_site_type_symbol
_atom_site_label
_atom_site_fract_x
_atom_site_fract_y
_atom_site_fract_z
Si Si1 0.205634 0.261540 0.175830
Si Si2 0.053072 0.853116 0.551680
Si Si3 0.377759 0.015649 0.216992
Si Si4 0.174636 0.651313 0.039702
Si Si5 0.225818 0.425120 0.530380
Si Si6 0.615249 0.531187 0.221756
Si Si7 0.557971 0.349378 0.885208
O O1 0.223358 0.426409 0.319876
O O2 0.166469 0.102448 0.265457
O O3 0.177607 0.405731 0.033838
O O4 0.254664 0.146626 0.088973
O O5 0.086292 0.648786 0.585489
O O6 0.078559 0.982391 0.391793
O O7 0.048233 0.994682 0.723911
O O8 0.996424 0.783978 0.478763
O O9 0.350688 0.183789 0.346196
O O10 0.414938 0.855031 0.316190
O O11 0.332040 0.890081 0.113886
O O12 0.232268 0.748142 0.073533
O O13 0.134452 0.737787 0.186848
O O14 0.591657 0.454312 0.037994
#
# Coordination Sequence:
#
# PCOD8171656 Si02
#       7
#     4   4   4   4   4   4   4
#     4  11  24  42  69 104 144 192 242 292 363 434
#     4  12  27  48  76 106 143 192 247 303 370 436
#     4  12  26  47  74 106 145 193 243 303 367 441
#     4  11  24  42  70 105 147 188 241 294 357 440
#     4  11  25  43  67 106 144 196 240 298 361 437
#     4  11  24  46  73 105 148 189 234 305 365 428
#     4  12  26  48  77 106 145 190 249 303 369 436
#
# _framework density 22.126384999999999
#
# number of rings (size 3 to 8) (size 9 to 14) (size 15 to 20)
#    0.000    0.571    5.714    1.714    2.000    4.571 
#    2.571    0.000    0.000    0.000    0.000    0.000 
#    0.000    0.000    0.000    0.000    0.000    0.000 
#
# Total GULP energy -347054.303595 kJ/mol
# GULP energy per Si atom -12394.796557 kJ/mol
# Density = 2.207602 g / cm^3
# Si number density = 22.126385 Si / 1000 Ang^3
#
#
#
# Elastic Constant Matrix: (Units=GPa)
#
#
# Indices 1 2 3 4 5 6 
#
# 1 121.0982 52.0907 50.7678 0.0000 0.0000 0.0000
# 2 52.0907 107.5450 46.7068 0.0000 0.0000 0.0000
# 3 50.7678 46.7068 130.5440 0.0000 0.0000 0.0000
# 4 0.0000 0.0000 0.0000 37.1009 0.0000 0.0000
# 5 0.0000 0.0000 0.0000 0.0000 41.1188 0.0000
# 6 0.0000 0.0000 0.0000 0.0000 0.0000 26.9302
#
#
#
# Elastic Compliance Matrix: (Units=1/GPa)
#
#
# Indices 1 2 3 4 5 6 
#
# 1 0.011276 -0.004212 -0.002878 0.000000 0.000000 0.000000
# 2 -0.004212 0.012582 -0.002864 0.000000 0.000000 0.000000
# 3 -0.002878 -0.002864 0.009804 0.000000 0.000000 0.000000
# 4 0.000000 0.000000 0.000000 0.026954 0.000000 0.000000
# 5 0.000000 0.000000 0.000000 0.000000 0.024320 0.000000
# 6 0.000000 0.000000 0.000000 0.000000 0.000000 0.037133
#
#
# Mechanical properties :
#
#
# Convention : Reuss Voigt Hill
#
# Bulk Modulus (GPa) = 72.70150 73.14641 72.92395
# Shear Modulus (GPa) = 34.11540 35.00478 34.56009
#
# Velocity S-wave (km/s) = 3.93089 3.98180 3.95643
# Velocity P-wave (km/s) = 7.31650 7.36681 7.34170
#
# Compressibility (1/GPa) = 0.01375488
#
# Stress axis : x y z
#
# Youngs Moduli (GPa) = 88.68323 79.47764 101.99646
#
# Poissons Ratio (x) = 0.33473 0.29358
# Poissons Ratio (y) = 0.37350 0.29210
# Poissons Ratio (z) = 0.25526 0.22761
#
# Static dielectric constant tensor:
#      x y z
#    x 4.132920 0.000000 0.000000 
#    y 0.000000 3.777180 0.000000 
#    z 0.000000 0.000000 4.063810 
# 
# 
# High freq. dielectric constant tensor:
#      x y z
#    x 1.880050 0.000000 0.000000 
#    y 0.000000 1.864060 0.000000 
#    z 0.000000 0.000000 1.884570 
# 
# From -- ./inp_files/5165.got.cif
#   From: 2010.03.12/outbox.cif.g09.slc.cpg/sg33_3_cif.got.tgz:5165.got - 2010.04.14 01:49:19.
