data_PCOD8171427
_publ_section_title
;
Structure prediction by ZEFSAII (Michael W. Deem and Ramdas Pophale) SiO2 
 PCOD8171427
Probable space group: P N A 21
;
_chemical_formula_sum "Si O2"
_cell_formula_units_Z 32
_cell_length_a 8.449011
_cell_length_b 15.411909
_cell_length_c 11.271229
_cell_angle_alpha 90.000000
_cell_angle_beta 90.000000
_cell_angle_gamma 90.000000
_cell_volume 1467.687465
_symmetry_space_group_name_H-M "P N A 21"
_symmetry_group_IT_number 33
_symmetry_cell_setting 'orthorhombic'
loop_
_space_group_symop_operation_xyz
x,y,z
-x,-y,1/2+z
1/2-x,1/2+y,1/2+z
1/2+x,1/2-y,z
loop_
_atom_site_type_symbol
_atom_site_label
_atom_site_fract_x
_atom_site_fract_y
_atom_site_fract_z
Si Si1 0.856969 0.297431 0.456080
Si Si2 0.823787 0.341881 0.195454
Si Si3 0.225087 0.570622 0.136586
Si Si4 0.596916 0.531824 0.810229
Si Si5 0.888622 0.540834 0.218075
Si Si6 0.016368 0.827640 0.618456
Si Si7 0.815265 0.054846 0.941242
Si Si8 0.294462 0.874840 0.985232
O O1 0.775941 0.315624 0.329370
O O2 0.753322 0.341859 0.560810
O O3 0.847200 0.195313 0.481397
O O4 0.036659 0.331944 0.455357
O O5 0.896258 0.437411 0.202881
O O6 0.949224 0.273885 0.141040
O O7 0.672153 0.338944 0.109085
O O8 0.369350 0.552589 0.227222
O O9 0.065693 0.576657 0.213368
O O10 0.213446 0.491531 0.043242
O O11 0.572759 0.616271 0.730019
O O12 0.444612 0.512234 0.889724
O O13 0.752007 0.550948 0.889679
O O14 0.809204 0.576914 0.338156
O O15 0.786104 0.580733 0.112340
O O16 0.098847 0.860206 0.496176
#
# Coordination Sequence:
#
# PCOD8171427 Si02
#       8
#     4   4   4   4   4   4   4   4
#     4  11  22  40  65  99 133 165 232 283 328 398
#     4  12  22  43  68 101 132 174 223 289 334 396
#     4  10  24  40  69  99 127 177 223 282 341 399
#     4  11  22  40  66  97 135 172 227 275 347 403
#     4  11  24  44  68  95 138 178 223 280 346 405
#     4  11  25  39  66 102 130 176 223 287 339 399
#     4  11  24  45  64 100 140 174 225 278 344 419
#     4  11  25  39  66 101 129 180 222 282 339 403
#
# _framework density 21.803007000000001
#
# number of rings (size 3 to 8) (size 9 to 14) (size 15 to 20)
#    0.000    1.000    3.750    2.250    8.750    0.000 
#    0.000    5.000    0.000    0.000    0.000    0.000 
#    0.000    0.000    0.000    0.000    0.000    0.000 
#
# Total GULP energy -396799.830332 kJ/mol
# GULP energy per Si atom -12399.994698 kJ/mol
# Density = 2.175338 g / cm^3
# Si number density = 21.803007 Si / 1000 Ang^3
#
#
#
# Elastic Constant Matrix: (Units=GPa)
#
#
# Indices 1 2 3 4 5 6 
#
# 1 53.2797 -5.1061 17.9649 0.0000 0.0000 0.0000
# 2 -5.1061 72.3860 30.9403 0.0000 0.0000 0.0000
# 3 17.9649 30.9403 93.7409 0.0000 0.0000 0.0000
# 4 0.0000 0.0000 0.0000 35.6755 0.0000 0.0000
# 5 0.0000 0.0000 0.0000 0.0000 39.4650 0.0000
# 6 0.0000 0.0000 0.0000 0.0000 0.0000 27.7001
#
#
#
# Elastic Compliance Matrix: (Units=1/GPa)
#
#
# Indices 1 2 3 4 5 6 
#
# 1 0.020886 0.003707 -0.005226 0.000000 0.000000 0.000000
# 2 0.003707 0.016742 -0.006236 0.000000 0.000000 0.000000
# 3 -0.005226 -0.006236 0.013728 0.000000 0.000000 0.000000
# 4 0.000000 0.000000 0.000000 0.028030 0.000000 0.000000
# 5 0.000000 0.000000 0.000000 0.000000 0.025339 0.000000
# 6 0.000000 0.000000 0.000000 0.000000 0.000000 0.036101
#
#
# Mechanical properties :
#
#
# Convention : Reuss Voigt Hill
#
# Bulk Modulus (GPa) = 27.89781 34.11163 31.00472
# Shear Modulus (GPa) = 29.71138 32.27530 30.99334
#
# Velocity S-wave (km/s) = 3.69551 3.85166 3.77439
# Velocity P-wave (km/s) = 5.57066 5.95481 5.76593
#
# Compressibility (1/GPa) = 0.03584511
#
# Stress axis : x y z
#
# Youngs Moduli (GPa) = 47.87806 59.73010 72.84549
#
# Poissons Ratio (x) = -0.22143 0.38072
# Poissons Ratio (y) = -0.17750 0.45429
# Poissons Ratio (z) = 0.25023 0.37250
#
# Static dielectric constant tensor:
#      x y z
#    x 3.778770 0.000000 0.000000 
#    y 0.000000 3.891310 0.000000 
#    z 0.000000 0.000000 4.114670 
# 
# 
# High freq. dielectric constant tensor:
#      x y z
#    x 1.856380 0.000000 0.000000 
#    y 0.000000 1.843990 0.000000 
#    z 0.000000 0.000000 1.859240 
# 
# From -- ./inp_files/5947.got.cif
#   From: 2010.03.12/outbox.cif.g09.slc.cpg/sg33_3_cif.got.tgz:5947.got - 2010.04.14 01:49:19.
