data_PCOD8171011
_publ_section_title
;
Structure prediction by ZEFSAII (Michael W. Deem and Ramdas Pophale) SiO2 
 PCOD8171011
Probable space group: P N A 21
;
_chemical_formula_sum "Si O2"
_cell_formula_units_Z 24
_cell_length_a 9.620567
_cell_length_b 14.586235
_cell_length_c 7.552279
_cell_angle_alpha 90.000000
_cell_angle_beta 90.000000
_cell_angle_gamma 90.000000
_cell_volume 1059.795083
_symmetry_space_group_name_H-M "P N A 21"
_symmetry_group_IT_number 33
_symmetry_cell_setting 'orthorhombic'
loop_
_space_group_symop_operation_xyz
x,y,z
-x,-y,1/2+z
1/2-x,1/2+y,1/2+z
1/2+x,1/2-y,z
loop_
_atom_site_type_symbol
_atom_site_label
_atom_site_fract_x
_atom_site_fract_y
_atom_site_fract_z
Si Si1 0.919192 0.596145 0.926570
Si Si2 0.201958 0.676874 0.329005
Si Si3 0.335187 0.075190 0.166924
Si Si4 0.426355 0.551492 0.890359
Si Si5 0.540986 0.273014 0.640207
Si Si6 0.793459 0.012404 0.209194
O O1 0.804327 0.596355 0.768504
O O2 0.072510 0.589163 0.841803
O O3 0.886171 0.515879 0.066503
O O4 0.900393 0.692032 0.020563
O O5 0.155379 0.662365 0.533009
O O6 0.358137 0.714306 0.308907
O O7 0.197234 0.577824 0.232365
O O8 0.106686 0.748492 0.223742
O O9 0.173026 0.072622 0.223966
O O10 0.568935 0.505521 0.829988
O O11 0.463551 0.637580 0.015952
O O12 0.341434 0.476221 0.006554
#
# Coordination Sequence:
#
# PCOD8171011 Si02
#       6
#     4   4   4   4   4   4
#     4  11  21  39  66  95 128 169 216 270 325 390
#     4  10  23  41  62  91 127 168 217 267 324 387
#     4  11  23  42  65  96 130 172 220 268 329 406
#     4  11  23  42  65  94 133 173 216 269 331 397
#     4  11  23  43  65  96 132 169 216 280 331 382
#     4  10  21  39  63  92 126 171 213 258 320 394
#
# _framework density 22.645886000000001
#
# number of rings (size 3 to 8) (size 9 to 14) (size 15 to 20)
#    0.000    1.333    0.000    8.000    0.000    2.667 
#    0.000    6.667    0.000    0.000    0.000    0.000 
#    0.000    0.000    0.000    0.000    0.000    0.000 
#
# Total GULP energy -297513.412665 kJ/mol
# GULP energy per Si atom -12396.392194 kJ/mol
# Density = 2.259434 g / cm^3
# Si number density = 22.645886 Si / 1000 Ang^3
#
#
#
# Elastic Constant Matrix: (Units=GPa)
#
#
# Indices 1 2 3 4 5 6 
#
# 1 89.4508 14.9553 18.2637 0.0000 0.0000 0.0000
# 2 14.9553 64.0780 30.4678 0.0000 0.0000 0.0000
# 3 18.2637 30.4678 90.8549 0.0000 0.0000 0.0000
# 4 0.0000 0.0000 0.0000 44.4193 0.0000 0.0000
# 5 0.0000 0.0000 0.0000 0.0000 50.4153 0.0000
# 6 0.0000 0.0000 0.0000 0.0000 0.0000 32.3791
#
#
#
# Elastic Compliance Matrix: (Units=1/GPa)
#
#
# Indices 1 2 3 4 5 6 
#
# 1 0.011858 -0.001944 -0.001732 0.000000 0.000000 0.000000
# 2 -0.001944 0.018885 -0.005942 0.000000 0.000000 0.000000
# 3 -0.001732 -0.005942 0.013347 0.000000 0.000000 0.000000
# 4 0.000000 0.000000 0.000000 0.022513 0.000000 0.000000
# 5 0.000000 0.000000 0.000000 0.000000 0.019835 0.000000
# 6 0.000000 0.000000 0.000000 0.000000 0.000000 0.030884
#
#
# Mechanical properties :
#
#
# Convention : Reuss Voigt Hill
#
# Bulk Modulus (GPa) = 40.23459 41.30636 40.77048
# Shear Modulus (GPa) = 34.52001 37.48921 36.00461
#
# Velocity S-wave (km/s) = 3.90851 4.07314 3.99168
# Velocity P-wave (km/s) = 6.17852 6.35613 6.26795
#
# Compressibility (1/GPa) = 0.02485424
#
# Stress axis : x y z
#
# Youngs Moduli (GPa) = 84.33163 52.95170 74.92106
#
# Poissons Ratio (x) = 0.10295 0.12974
# Poissons Ratio (y) = 0.16395 0.44520
# Poissons Ratio (z) = 0.14604 0.31465
#
# Static dielectric constant tensor:
#      x y z
#    x 4.206390 0.000000 0.000000 
#    y 0.000000 3.930640 0.000000 
#    z 0.000000 0.000000 4.298440 
# 
# 
# High freq. dielectric constant tensor:
#      x y z
#    x 1.908260 0.000000 0.000000 
#    y 0.000000 1.869890 0.000000 
#    z 0.000000 0.000000 1.901270 
# 
# From -- ./inp_files/3182.got.cif
#   From: 2010.03.12/outbox.cif.g09.slc.cpg/sg33_2_cif.got.tgz:3182.got - 2010.04.14 01:49:19.
