data_PCOD8171930
_publ_section_title
;
Structure prediction by ZEFSAII (Michael W. Deem and Ramdas Pophale) SiO2 
 PCOD8171930
Probable space group: P N N 2
;
_chemical_formula_sum "Si O2"
_cell_formula_units_Z 22
_cell_length_a 10.509666
_cell_length_b 13.135927
_cell_length_c 8.735273
_cell_angle_alpha 90.000000
_cell_angle_beta 90.000000
_cell_angle_gamma 90.000000
_cell_volume 1205.941173
_symmetry_space_group_name_H-M "P N N 2"
_symmetry_group_IT_number 34
_symmetry_cell_setting 'orthorhombic'
loop_
_space_group_symop_operation_xyz
x,y,z
-x,-y,z
1/2-x,1/2+y,1/2+z
1/2+x,1/2-y,1/2+z
loop_
_atom_site_type_symbol
_atom_site_label
_atom_site_fract_x
_atom_site_fract_y
_atom_site_fract_z
Si Si1 0.229928 0.769596 0.012060
Si Si2 0.455646 0.817597 0.828695
Si Si3 0.827279 0.517029 0.500374
Si Si4 0.500000 0.000000 0.264960
Si Si5 0.540595 0.189240 0.474163
Si Si6 0.763855 0.316446 0.339261
O O1 0.263248 0.700130 0.159327
O O2 0.341770 0.743864 0.888078
O O3 0.093259 0.744054 0.940959
O O4 0.228646 0.891636 0.046178
O O5 0.445703 0.840592 0.649863
O O6 0.594179 0.771408 0.871489
O O7 0.444716 0.926824 0.912756
O O8 0.881016 0.466766 0.657060
O O9 0.760197 0.435379 0.388473
O O10 0.451096 0.909185 0.369310
O O11 0.658264 0.261441 0.438252
#
# Coordination Sequence:
#
# PCOD8171930 Si02
#       6
#     4   4   4   2   4   4
#     4   9  22  40  57  92 119 162 201 258 325 376
#     4   9  21  39  58  86 121 155 204 257 310 378
#     4  10  20  39  62  82 125 165 202 257 326 377
#     4  12  22  38  62  92 124 174 214 254 328 394
#     4  11  24  34  64  92 117 159 218 254 311 389
#     4  11  20  37  64  87 117 163 208 257 310 386
#
# _framework density 18.243013999999999
#
# number of rings (size 3 to 8) (size 9 to 14) (size 15 to 20)
#    1.091    0.727    3.636    0.000    7.636    0.727 
#    0.000    0.000    0.000    1.091    0.000    0.000 
#    0.000    0.000    0.000    0.000    0.000    0.000 
#
# Total GULP energy -272563.202879 kJ/mol
# GULP energy per Si atom -12389.236494 kJ/mol
# Density = 1.820149 g / cm^3
# Si number density = 18.243014 Si / 1000 Ang^3
#
#
#
# Elastic Constant Matrix: (Units=GPa)
#
#
# Indices 1 2 3 4 5 6 
#
# 1 107.4012 30.1232 50.6853 0.0000 0.0000 0.0000
# 2 30.1232 72.4602 42.3606 0.0000 0.0000 0.0000
# 3 50.6853 42.3606 108.1070 0.0000 0.0000 0.0000
# 4 0.0000 0.0000 0.0000 39.5800 0.0000 0.0000
# 5 0.0000 0.0000 0.0000 0.0000 32.8028 0.0000
# 6 0.0000 0.0000 0.0000 0.0000 0.0000 31.9345
#
#
#
# Elastic Compliance Matrix: (Units=1/GPa)
#
#
# Indices 1 2 3 4 5 6 
#
# 1 0.012232 -0.002247 -0.004854 0.000000 0.000000 0.000000
# 2 -0.002247 0.018314 -0.006123 0.000000 0.000000 0.000000
# 3 -0.004854 -0.006123 0.013925 0.000000 0.000000 0.000000
# 4 0.000000 0.000000 0.000000 0.025265 0.000000 0.000000
# 5 0.000000 0.000000 0.000000 0.000000 0.030485 0.000000
# 6 0.000000 0.000000 0.000000 0.000000 0.000000 0.031314
#
#
# Mechanical properties :
#
#
# Convention : Reuss Voigt Hill
#
# Bulk Modulus (GPa) = 55.48484 59.36739 57.42611
# Shear Modulus (GPa) = 30.48926 31.85007 31.16966
#
# Velocity S-wave (km/s) = 4.09257 4.18290 4.13798
# Velocity P-wave (km/s) = 7.26722 7.47944 7.37410
#
# Compressibility (1/GPa) = 0.01802294
#
# Stress axis : x y z
#
# Youngs Moduli (GPa) = 81.75229 54.60235 71.81268
#
# Poissons Ratio (x) = 0.12270 0.34861
# Poissons Ratio (y) = 0.18372 0.43968
# Poissons Ratio (z) = 0.39686 0.33431
#
# Static dielectric constant tensor:
#      x y z
#    x 3.417770 0.000000 0.000000 
#    y 0.000000 3.206950 0.000000 
#    z 0.000000 0.000000 3.411580 
# 
# 
# High freq. dielectric constant tensor:
#      x y z
#    x 1.708040 0.000000 0.000000 
#    y 0.000000 1.684600 0.000000 
#    z 0.000000 0.000000 1.715140 
# 
# From -- ./inp_files/2620.got.cif
#   From: 2010.03.12/outbox.cif.g09.slc.cpg/sg34_2_cif.got.tgz:2620.got - 2010.04.14 01:56:33.
