data_PCOD8171556
_publ_section_title
;
Structure prediction by ZEFSAII (Michael W. Deem and Ramdas Pophale) SiO2 
 PCOD8171556
Probable space group: P N A 21
;
_chemical_formula_sum "Si O2"
_cell_formula_units_Z 28
_cell_length_a 17.654505
_cell_length_b 12.682092
_cell_length_c 5.280121
_cell_angle_alpha 90.000000
_cell_angle_beta 90.000000
_cell_angle_gamma 90.000000
_cell_volume 1182.198270
_symmetry_space_group_name_H-M "P N A 21"
_symmetry_group_IT_number 33
_symmetry_cell_setting 'orthorhombic'
loop_
_space_group_symop_operation_xyz
x,y,z
-x,-y,1/2+z
1/2-x,1/2+y,1/2+z
1/2+x,1/2-y,z
loop_
_atom_site_type_symbol
_atom_site_label
_atom_site_fract_x
_atom_site_fract_y
_atom_site_fract_z
Si Si1 0.584988 0.240562 0.953240
Si Si2 0.205147 0.176510 0.294495
Si Si3 0.545407 0.473609 0.802470
Si Si4 0.309174 0.474300 0.045704
Si Si5 0.723994 0.158249 0.690076
Si Si6 0.800245 0.442181 0.917860
Si Si7 0.524313 0.941713 0.477054
O O1 0.564664 0.350876 0.824848
O O2 0.636961 0.174601 0.762558
O O3 0.634755 0.251490 0.207354
O O4 0.509838 0.174929 0.013974
O O5 0.248942 0.241262 0.518450
O O6 0.163511 0.064425 0.349491
O O7 0.263357 0.158566 0.060433
O O8 0.488385 0.484707 0.565850
O O9 0.622357 0.541587 0.746363
O O10 0.235131 0.541218 0.140656
O O11 0.282594 0.361859 0.926995
O O12 0.727599 0.049455 0.544714
O O13 0.889143 0.427584 0.898998
O O14 0.482307 0.999684 0.245570
#
# Coordination Sequence:
#
# PCOD8171556 Si02
#       7
#     4   4   4   4   4   4   4
#     4  12  25  50  76 107 156 209 253 313 407 462
#     4  11  22  44  75 106 149 202 260 312 396 468
#     4  12  28  51  77 109 159 214 263 322 389 469
#     4  11  24  46  75 107 151 195 267 331 376 470
#     4  11  22  42  78 107 139 200 254 320 404 448
#     4  11  24  45  74 107 152 198 256 331 381 466
#     4  12  27  48  77 117 158 196 259 331 393 463
#
# _framework density 23.684692999999999
#
# number of rings (size 3 to 8) (size 9 to 14) (size 15 to 20)
#    0.000    0.571    4.286    3.429    4.000    0.000 
#    7.714    1.429    0.000    0.000    0.000    0.000 
#    0.000    0.000    0.000    0.000    0.000    0.000 
#
# Total GULP energy -347046.215444 kJ/mol
# GULP energy per Si atom -12394.507694 kJ/mol
# Density = 2.363079 g / cm^3
# Si number density = 23.684693 Si / 1000 Ang^3
#
#
#
# Elastic Constant Matrix: (Units=GPa)
#
#
# Indices 1 2 3 4 5 6 
#
# 1 120.1220 29.1741 16.8416 0.0000 0.0000 0.0000
# 2 29.1741 105.3250 29.2797 0.0000 0.0000 0.0000
# 3 16.8416 29.2797 87.3409 0.0000 0.0000 0.0000
# 4 0.0000 0.0000 0.0000 41.3260 0.0000 0.0000
# 5 0.0000 0.0000 0.0000 0.0000 29.0481 0.0000
# 6 0.0000 0.0000 0.0000 0.0000 0.0000 43.0068
#
#
#
# Elastic Compliance Matrix: (Units=1/GPa)
#
#
# Indices 1 2 3 4 5 6 
#
# 1 0.009003 -0.002218 -0.000992 0.000000 0.000000 0.000000
# 2 -0.002218 0.011016 -0.003265 0.000000 0.000000 0.000000
# 3 -0.000992 -0.003265 0.012735 0.000000 0.000000 0.000000
# 4 0.000000 0.000000 0.000000 0.024198 0.000000 0.000000
# 5 0.000000 0.000000 0.000000 0.000000 0.034426 0.000000
# 6 0.000000 0.000000 0.000000 0.000000 0.000000 0.023252
#
#
# Mechanical properties :
#
#
# Convention : Reuss Voigt Hill
#
# Bulk Modulus (GPa) = 50.49687 51.48653 50.99170
# Shear Modulus (GPa) = 37.26261 38.50900 37.88580
#
# Velocity S-wave (km/s) = 3.97076 4.03662 4.00383
# Velocity P-wave (km/s) = 6.51071 6.59631 6.55365
#
# Compressibility (1/GPa) = 0.01980321
#
# Stress axis : x y z
#
# Youngs Moduli (GPa) = 111.07845 90.77297 78.52084
#
# Poissons Ratio (x) = 0.20131 0.07793
# Poissons Ratio (y) = 0.24634 0.25641
# Poissons Ratio (z) = 0.11024 0.29642
#
# Static dielectric constant tensor:
#      x y z
#    x 4.289130 0.000000 0.000000 
#    y 0.000000 4.271650 0.000000 
#    z 0.000000 0.000000 4.626470 
# 
# 
# High freq. dielectric constant tensor:
#      x y z
#    x 1.927290 0.000000 0.000000 
#    y 0.000000 1.945450 0.000000 
#    z 0.000000 0.000000 1.951580 
# 
# From -- ./inp_files/1742.got.cif
#   From: 2010.03.12/outbox.cif.g09.slc.cpg/sg33_1_cif.got.tgz:1742.got - 2010.04.14 01:49:19.
