data_PCOD8171373
_publ_section_title
;
Structure prediction by ZEFSAII (Michael W. Deem and Ramdas Pophale) SiO2 
 PCOD8171373
Probable space group: P N A 21
;
_chemical_formula_sum "Si O2"
_cell_formula_units_Z 32
_cell_length_a 8.899890
_cell_length_b 27.350042
_cell_length_c 5.705990
_cell_angle_alpha 90.000000
_cell_angle_beta 90.000000
_cell_angle_gamma 90.000000
_cell_volume 1388.908522
_symmetry_space_group_name_H-M "P N A 21"
_symmetry_group_IT_number 33
_symmetry_cell_setting 'orthorhombic'
loop_
_space_group_symop_operation_xyz
x,y,z
-x,-y,1/2+z
1/2-x,1/2+y,1/2+z
1/2+x,1/2-y,z
loop_
_atom_site_type_symbol
_atom_site_label
_atom_site_fract_x
_atom_site_fract_y
_atom_site_fract_z
Si Si1 0.109368 0.783011 0.493710
Si Si2 0.913004 0.496493 0.757754
Si Si3 0.124204 0.058039 0.204259
Si Si4 0.649037 0.250097 0.309510
Si Si5 0.595222 0.796424 0.107025
Si Si6 0.716626 0.897660 0.095362
Si Si7 0.468120 0.383861 0.804484
Si Si8 0.341124 0.459311 0.481886
O O1 0.263840 0.786933 0.637861
O O2 0.115571 0.732564 0.348748
O O3 0.102270 0.830213 0.330088
O O4 0.967437 0.783716 0.667751
O O5 0.829558 0.443608 0.755128
O O6 0.986145 0.502455 0.497479
O O7 0.791340 0.541777 0.784486
O O8 0.263276 0.087625 0.321239
O O9 0.014204 0.091334 0.048507
O O10 0.012098 0.035916 0.398450
O O11 0.202993 0.011408 0.093127
O O12 0.565715 0.217592 0.502332
O O13 0.769618 0.285400 0.428877
O O14 0.595973 0.854867 0.142160
O O15 0.880479 0.877223 0.159739
O O16 0.338879 0.414844 0.667962
#
# Coordination Sequence:
#
# PCOD8171373 Si02
#       8
#     4   4   4   4   4   4   4   4
#     4  11  23  45  68 105 142 184 237 302 360 441
#     4  12  28  50  69 101 153 201 245 299 363 451
#     4  11  20  40  71  99 132 175 237 311 361 424
#     4  10  23  43  71  99 145 184 238 299 365 427
#     4  11  23  46  71 100 144 183 240 298 362 438
#     4  11  24  43  71 100 132 193 241 293 374 442
#     4  11  23  39  75 101 133 179 239 305 374 426
#     4  11  22  42  68 101 135 179 239 303 359 427
#
# _framework density 23.039673000000001
#
# number of rings (size 3 to 8) (size 9 to 14) (size 15 to 20)
#    0.000    1.000    2.500    4.500    1.750    4.000 
#    6.750    0.000    0.000    0.000    0.000    0.000 
#    0.000    0.000    0.000    0.000    0.000    0.000 
#
# Total GULP energy -396630.235213 kJ/mol
# GULP energy per Si atom -12394.694850 kJ/mol
# Density = 2.298723 g / cm^3
# Si number density = 23.039673 Si / 1000 Ang^3
#
#
#
# Elastic Constant Matrix: (Units=GPa)
#
#
# Indices 1 2 3 4 5 6 
#
# 1 73.0484 9.5513 11.4262 0.0000 0.0000 0.0000
# 2 9.5513 84.8732 7.8007 0.0000 0.0000 0.0000
# 3 11.4262 7.8007 82.4264 0.0000 0.0000 0.0000
# 4 0.0000 0.0000 0.0000 33.6844 0.0000 0.0000
# 5 0.0000 0.0000 0.0000 0.0000 36.4614 0.0000
# 6 0.0000 0.0000 0.0000 0.0000 0.0000 30.4348
#
#
#
# Elastic Compliance Matrix: (Units=1/GPa)
#
#
# Indices 1 2 3 4 5 6 
#
# 1 0.014162 -0.001426 -0.001828 0.000000 0.000000 0.000000
# 2 -0.001426 0.012029 -0.000941 0.000000 0.000000 0.000000
# 3 -0.001828 -0.000941 0.012475 0.000000 0.000000 0.000000
# 4 0.000000 0.000000 0.000000 0.029687 0.000000 0.000000
# 5 0.000000 0.000000 0.000000 0.000000 0.027426 0.000000
# 6 0.000000 0.000000 0.000000 0.000000 0.000000 0.032857
#
#
# Mechanical properties :
#
#
# Convention : Reuss Voigt Hill
#
# Bulk Modulus (GPa) = 33.02929 33.10051 33.06490
# Shear Modulus (GPa) = 33.98634 34.22076 34.10355
#
# Velocity S-wave (km/s) = 3.84490 3.85814 3.85152
# Velocity P-wave (km/s) = 5.83763 5.85191 5.84478
#
# Compressibility (1/GPa) = 0.03027616
#
# Stress axis : x y z
#
# Youngs Moduli (GPa) = 70.61182 83.13112 80.16347
#
# Poissons Ratio (x) = 0.11852 0.14656
# Poissons Ratio (y) = 0.10067 0.07542
# Poissons Ratio (z) = 0.12910 0.07821
#
# Static dielectric constant tensor:
#      x y z
#    x 4.185570 0.000000 0.000000 
#    y 0.000000 3.971380 0.000000 
#    z 0.000000 0.000000 4.460780 
# 
# 
# High freq. dielectric constant tensor:
#      x y z
#    x 1.909120 0.000000 0.000000 
#    y 0.000000 1.896430 0.000000 
#    z 0.000000 0.000000 1.922410 
# 
# From -- ./inp_files/616.got.cif
#   From: 2010.03.12/outbox.cif.g09.slc.cpg/sg33_1_cif.got.tgz:616.got - 2010.04.14 01:49:19.
