data_PCOD8171200
_publ_section_title
;
Structure prediction by ZEFSAII (Michael W. Deem and Ramdas Pophale) SiO2 
 PCOD8171200
Probable space group: P N A 21
;
_chemical_formula_sum "Si O2"
_cell_formula_units_Z 20
_cell_length_a 17.210985
_cell_length_b 6.303915
_cell_length_c 8.135677
_cell_angle_alpha 90.000000
_cell_angle_beta 90.000000
_cell_angle_gamma 90.000000
_cell_volume 882.693183
_symmetry_space_group_name_H-M "P N A 21"
_symmetry_group_IT_number 33
_symmetry_cell_setting 'orthorhombic'
loop_
_space_group_symop_operation_xyz
x,y,z
-x,-y,1/2+z
1/2-x,1/2+y,1/2+z
1/2+x,1/2-y,z
loop_
_atom_site_type_symbol
_atom_site_label
_atom_site_fract_x
_atom_site_fract_y
_atom_site_fract_z
Si Si1 0.524912 0.104169 0.915860
Si Si2 0.780528 0.436047 0.925629
Si Si3 0.101097 0.940723 0.434904
Si Si4 0.402927 0.832915 0.750178
Si Si5 0.658495 0.232927 0.699266
O O1 0.482889 0.330755 0.939746
O O2 0.587728 0.093340 0.769699
O O3 0.461586 0.919862 0.891205
O O4 0.572040 0.062832 0.081115
O O5 0.830570 0.226287 0.944612
O O6 0.816263 0.582015 0.782415
O O7 0.697551 0.356126 0.855767
O O8 0.782130 0.577497 0.095821
O O9 0.100784 0.077730 0.264739
O O10 0.116180 0.097415 0.585162
#
# Coordination Sequence:
#
# PCOD8171200 Si02
#       5
#     4   4   4   4   4
#     4  11  22  41  67  95 129 175 223 287 332 415
#     4  10  25  43  63  97 135 177 223 280 340 420
#     4  10  22  42  65  95 130 174 224 279 341 413
#     4  10  22  41  63  97 132 168 227 275 341 400
#     4  11  25  43  66  98 136 178 231 281 350 416
#
# _framework density 22.65793
#
# number of rings (size 3 to 8) (size 9 to 14) (size 15 to 20)
#    0.000    1.600    0.000    4.800    5.600    3.200 
#    3.600    0.000    0.000    0.000    0.000    0.000 
#    0.000    0.000    0.000    0.000    0.000    0.000 
#
# Total GULP energy -247839.191925 kJ/mol
# GULP energy per Si atom -12391.959596 kJ/mol
# Density = 2.260636 g / cm^3
# Si number density = 22.657930 Si / 1000 Ang^3
#
#
#
# Elastic Constant Matrix: (Units=GPa)
#
#
# Indices 1 2 3 4 5 6 
#
# 1 75.7440 14.4741 8.3066 0.0000 0.0000 0.0000
# 2 14.4741 98.6820 20.1390 0.0000 0.0000 0.0000
# 3 8.3066 20.1390 79.2872 0.0000 0.0000 0.0000
# 4 0.0000 0.0000 0.0000 26.1475 0.0000 0.0000
# 5 0.0000 0.0000 0.0000 0.0000 40.9416 0.0000
# 6 0.0000 0.0000 0.0000 0.0000 0.0000 26.8813
#
#
#
# Elastic Compliance Matrix: (Units=1/GPa)
#
#
# Indices 1 2 3 4 5 6 
#
# 1 0.013654 -0.001804 -0.000972 0.000000 0.000000 0.000000
# 2 -0.001804 0.010926 -0.002586 0.000000 0.000000 0.000000
# 3 -0.000972 -0.002586 0.013371 0.000000 0.000000 0.000000
# 4 0.000000 0.000000 0.000000 0.038245 0.000000 0.000000
# 5 0.000000 0.000000 0.000000 0.000000 0.024425 0.000000
# 6 0.000000 0.000000 0.000000 0.000000 0.000000 0.037201
#
#
# Mechanical properties :
#
#
# Convention : Reuss Voigt Hill
#
# Bulk Modulus (GPa) = 36.73008 37.72808 37.22908
# Shear Modulus (GPa) = 31.72155 32.84697 32.28426
#
# Velocity S-wave (km/s) = 3.74574 3.81161 3.77882
# Velocity P-wave (km/s) = 5.91214 6.00487 5.95868
#
# Compressibility (1/GPa) = 0.02722564
#
# Stress axis : x y z
#
# Youngs Moduli (GPa) = 73.23991 91.52491 74.78810
#
# Poissons Ratio (x) = 0.16513 0.07271
# Poissons Ratio (y) = 0.13214 0.19342
# Poissons Ratio (z) = 0.07120 0.23670
#
# Static dielectric constant tensor:
#      x y z
#    x 4.038880 0.000000 0.000000 
#    y 0.000000 4.340620 0.000000 
#    z 0.000000 0.000000 4.070370 
# 
# 
# High freq. dielectric constant tensor:
#      x y z
#    x 1.889090 0.000000 0.000000 
#    y 0.000000 1.897690 0.000000 
#    z 0.000000 0.000000 1.892210 
# 
# From -- ./inp_files/4542.got.cif
#   From: 2010.03.12/outbox.cif.g09.slc.cpg/sg33_3_cif.got.tgz:4542.got - 2010.04.14 01:49:19.
