data_PCOD8171879
_publ_section_title
;
Structure prediction by ZEFSAII (Michael W. Deem and Ramdas Pophale) SiO2 
 PCOD8171879
Probable space group: P N N 2
;
_chemical_formula_sum "Si O2"
_cell_formula_units_Z 24
_cell_length_a 12.312009
_cell_length_b 9.569904
_cell_length_c 9.167896
_cell_angle_alpha 90.000000
_cell_angle_beta 90.000000
_cell_angle_gamma 90.000000
_cell_volume 1080.205001
_symmetry_space_group_name_H-M "P N N 2"
_symmetry_group_IT_number 34
_symmetry_cell_setting 'orthorhombic'
loop_
_space_group_symop_operation_xyz
x,y,z
-x,-y,z
1/2-x,1/2+y,1/2+z
1/2+x,1/2-y,1/2+z
loop_
_atom_site_type_symbol
_atom_site_label
_atom_site_fract_x
_atom_site_fract_y
_atom_site_fract_z
Si Si1 0.757212 0.221886 0.745510
Si Si2 0.722810 0.729637 0.590003
Si Si3 0.879575 0.975718 0.238408
Si Si4 0.925647 0.886356 0.548567
Si Si5 0.069138 0.634618 0.548861
Si Si6 0.124104 0.542597 0.250652
O O1 0.659912 0.322358 0.695852
O O2 0.867608 0.280820 0.675182
O O3 0.714436 0.069700 0.696032
O O4 0.776334 0.214884 0.917780
O O5 0.709839 0.582293 0.672455
O O6 0.830498 0.815412 0.644946
O O7 0.624329 0.826379 0.642168
O O8 0.880599 0.982625 0.415062
O O9 0.000000 0.000000 0.172501
O O10 0.988732 0.752000 0.482286
O O11 0.000000 0.000000 0.639373
O O12 0.149706 0.584987 0.419416
O O13 0.000000 0.500000 0.609110
O O14 0.000000 0.500000 0.249579
#
# Coordination Sequence:
#
# PCOD8171879 Si02
#       6
#     4   4   4   4   4   4
#     4  11  23  39  60  93 124 155 203 256 304 351
#     4  11  22  38  62  91 121 154 204 258 299 349
#     4  10  19  37  61  86 118 161 201 242 297 364
#     4  10  20  37  61  88 119 162 204 240 298 369
#     4  11  22  41  63  87 123 166 202 246 304 372
#     4  11  22  40  63  89 119 162 206 244 298 373
#
# _framework density 22.218005000000002
#
# number of rings (size 3 to 8) (size 9 to 14) (size 15 to 20)
#    0.000    1.333    0.000   10.000    0.000    2.000 
#    0.000    5.833    0.000    0.000    0.000    0.000 
#    0.000    0.000    0.000    0.000    0.000    0.000 
#
# Total GULP energy -297322.763245 kJ/mol
# GULP energy per Si atom -12388.448469 kJ/mol
# Density = 2.216744 g / cm^3
# Si number density = 22.218005 Si / 1000 Ang^3
#
#
#
# Elastic Constant Matrix: (Units=GPa)
#
#
# Indices 1 2 3 4 5 6 
#
# 1 73.4042 35.8888 33.3598 0.0000 0.0000 0.0000
# 2 35.8888 139.1753 38.6355 0.0000 0.0000 0.0000
# 3 33.3598 38.6355 51.7886 0.0000 0.0000 0.0000
# 4 0.0000 0.0000 0.0000 29.3016 0.0000 0.0000
# 5 0.0000 0.0000 0.0000 0.0000 14.5334 0.0000
# 6 0.0000 0.0000 0.0000 0.0000 0.0000 55.4999
#
#
#
# Elastic Compliance Matrix: (Units=1/GPa)
#
#
# Indices 1 2 3 4 5 6 
#
# 1 0.019678 -0.001962 -0.011212 0.000000 0.000000 0.000000
# 2 -0.001962 0.009257 -0.005643 0.000000 0.000000 0.000000
# 3 -0.011212 -0.005643 0.030741 0.000000 0.000000 0.000000
# 4 0.000000 0.000000 0.000000 0.034128 0.000000 0.000000
# 5 0.000000 0.000000 0.000000 0.000000 0.068807 0.000000
# 6 0.000000 0.000000 0.000000 0.000000 0.000000 0.018018
#
#
# Mechanical properties :
#
#
# Convention : Reuss Voigt Hill
#
# Bulk Modulus (GPa) = 45.36473 53.34849 49.35661
# Shear Modulus (GPa) = 22.16214 30.29924 26.23069
#
# Velocity S-wave (km/s) = 3.16173 3.69687 3.43972
# Velocity P-wave (km/s) = 5.81300 6.50277 6.16754
#
# Compressibility (1/GPa) = 0.02204356
#
# Stress axis : x y z
#
# Youngs Moduli (GPa) = 50.81846 108.02085 32.52973
#
# Poissons Ratio (x) = 0.21191 0.36473
# Poissons Ratio (y) = 0.09970 0.18355
# Poissons Ratio (z) = 0.56978 0.60952
#
# Static dielectric constant tensor:
#      x y z
#    x 4.231480 0.000000 0.000000 
#    y 0.000000 4.453940 0.000000 
#    z 0.000000 0.000000 3.654210 
# 
# 
# High freq. dielectric constant tensor:
#      x y z
#    x 1.876300 0.000000 0.000000 
#    y 0.000000 1.908290 0.000000 
#    z 0.000000 0.000000 1.826810 
# 
# From -- ./inp_files/3548.got.cif
#   From: 2010.03.12/outbox.cif.g09.slc.cpg/sg34_2_cif.got.tgz:3548.got - 2010.04.14 01:56:33.
