data_PCOD8171035
_publ_section_title
;
Structure prediction by ZEFSAII (Michael W. Deem and Ramdas Pophale) SiO2 
 PCOD8171035
Probable space group: P N A 21
;
_chemical_formula_sum "Si O2"
_cell_formula_units_Z 28
_cell_length_a 4.977134
_cell_length_b 17.806984
_cell_length_c 12.447800
_cell_angle_alpha 90.000000
_cell_angle_beta 90.000000
_cell_angle_gamma 90.000000
_cell_volume 1103.220450
_symmetry_space_group_name_H-M "P N A 21"
_symmetry_group_IT_number 33
_symmetry_cell_setting 'orthorhombic'
loop_
_space_group_symop_operation_xyz
x,y,z
-x,-y,1/2+z
1/2-x,1/2+y,1/2+z
1/2+x,1/2-y,z
loop_
_atom_site_type_symbol
_atom_site_label
_atom_site_fract_x
_atom_site_fract_y
_atom_site_fract_z
Si Si1 0.774066 0.200011 0.847150
Si Si2 0.936828 0.063563 0.235395
Si Si3 0.212883 0.929184 0.503420
Si Si4 0.241253 0.200977 0.308054
Si Si5 0.756012 0.299226 0.555835
Si Si6 0.383174 0.405044 0.662905
Si Si7 0.794882 0.524626 0.955104
O O1 0.577539 0.270342 0.844872
O O2 0.733059 0.152678 0.955424
O O3 0.721001 0.148008 0.743804
O O4 0.167013 0.127531 0.238937
O O5 0.753794 0.067280 0.342509
O O6 0.748126 0.077050 0.131726
O O7 0.075702 0.982593 0.225833
O O8 0.409758 0.990224 0.451417
O O9 0.913289 0.957178 0.476265
O O10 0.037872 0.269534 0.280367
O O11 0.221336 0.176739 0.432370
O O12 0.052625 0.269911 0.583168
O O13 0.674014 0.370082 0.630100
O O14 0.213863 0.414974 0.552435
#
# Coordination Sequence:
#
# PCOD8171035 Si02
#       7
#     4   4   4   4   4   4   4
#     4  12  27  47  73 104 154 199 242 300 363 450
#     4  11  25  47  77 106 145 195 238 315 362 434
#     4  11  27  45  71 104 145 194 243 292 372 435
#     4  10  23  43  68  99 137 180 231 290 361 426
#     4  10  21  40  63  97 137 177 225 289 353 414
#     4  11  24  44  74 107 141 187 247 299 366 426
#     4  11  25  46  70 107 145 180 248 315 353 431
#
# _framework density 25.380243
#
# number of rings (size 3 to 8) (size 9 to 14) (size 15 to 20)
#    0.000    1.143    2.857    1.714    2.000    8.000 
#    0.000    0.000    0.000    0.000    0.000    0.000 
#    0.000    0.000    0.000    0.000    0.000    0.000 
#
# Total GULP energy -347400.944483 kJ/mol
# GULP energy per Si atom -12407.176589 kJ/mol
# Density = 2.532248 g / cm^3
# Si number density = 25.380243 Si / 1000 Ang^3
#
#
#
# Elastic Constant Matrix: (Units=GPa)
#
#
# Indices 1 2 3 4 5 6 
#
# 1 51.6757 -3.0727 18.8746 0.0000 0.0000 0.0000
# 2 -3.0727 104.9136 48.4482 0.0000 0.0000 0.0000
# 3 18.8746 48.4482 155.3733 0.0000 0.0000 0.0000
# 4 0.0000 0.0000 0.0000 60.6816 0.0000 0.0000
# 5 0.0000 0.0000 0.0000 0.0000 21.6324 0.0000
# 6 0.0000 0.0000 0.0000 0.0000 0.0000 29.1854
#
#
#
# Elastic Compliance Matrix: (Units=1/GPa)
#
#
# Indices 1 2 3 4 5 6 
#
# 1 0.020623 0.002057 -0.003147 0.000000 0.000000 0.000000
# 2 0.002057 0.011340 -0.003786 0.000000 0.000000 0.000000
# 3 -0.003147 -0.003786 0.007999 0.000000 0.000000 0.000000
# 4 0.000000 0.000000 0.000000 0.016479 0.000000 0.000000
# 5 0.000000 0.000000 0.000000 0.000000 0.046227 0.000000
# 6 0.000000 0.000000 0.000000 0.000000 0.000000 0.034264
#
#
# Mechanical properties :
#
#
# Convention : Reuss Voigt Hill
#
# Bulk Modulus (GPa) = 33.10042 48.94032 41.02037
# Shear Modulus (GPa) = 31.89712 38.81405 35.35559
#
# Velocity S-wave (km/s) = 3.54894 3.91487 3.73639
# Velocity P-wave (km/s) = 5.46474 6.30553 5.90013
#
# Compressibility (1/GPa) = 0.03021110
#
# Stress axis : x y z
#
# Youngs Moduli (GPa) = 48.48931 88.18158 125.01705
#
# Poissons Ratio (x) = -0.18140 0.39339
# Poissons Ratio (y) = -0.09975 0.47331
# Poissons Ratio (z) = 0.15258 0.33385
#
# Static dielectric constant tensor:
#      x y z
#    x 4.316870 0.000000 0.000000 
#    y 0.000000 4.554510 0.000000 
#    z 0.000000 0.000000 4.783380 
# 
# 
# High freq. dielectric constant tensor:
#      x y z
#    x 2.004120 0.000000 0.000000 
#    y 0.000000 2.023060 0.000000 
#    z 0.000000 0.000000 2.015820 
# 
# From -- ./inp_files/5489.got.cif
#   From: 2010.03.12/outbox.cif.g09.slc.cpg/sg33_3_cif.got.tgz:5489.got - 2010.04.14 01:49:19.
