data_PCOD8171322
_publ_section_title
;
Structure prediction by ZEFSAII (Michael W. Deem and Ramdas Pophale) SiO2 
 PCOD8171322
Probable space group: P N A 21
;
_chemical_formula_sum "Si O2"
_cell_formula_units_Z 32
_cell_length_a 14.404399
_cell_length_b 11.036716
_cell_length_c 9.402935
_cell_angle_alpha 90.000000
_cell_angle_beta 90.000000
_cell_angle_gamma 90.000000
_cell_volume 1494.852851
_symmetry_space_group_name_H-M "P N A 21"
_symmetry_group_IT_number 33
_symmetry_cell_setting 'orthorhombic'
loop_
_space_group_symop_operation_xyz
x,y,z
-x,-y,1/2+z
1/2-x,1/2+y,1/2+z
1/2+x,1/2-y,z
loop_
_atom_site_type_symbol
_atom_site_label
_atom_site_fract_x
_atom_site_fract_y
_atom_site_fract_z
Si Si1 0.331299 0.750888 0.959440
Si Si2 0.882004 0.862470 0.247136
Si Si3 0.570510 0.533012 0.153026
Si Si4 0.795134 0.711579 0.488997
Si Si5 0.365441 0.186895 0.154466
Si Si6 0.056501 0.245162 0.202874
Si Si7 0.165846 0.897674 0.869822
Si Si8 0.748961 0.486483 0.316532
O O1 0.428526 0.768374 0.872801
O O2 0.265161 0.868585 0.942695
O O3 0.284409 0.630794 0.898524
O O4 0.345155 0.727428 0.125747
O O5 0.860287 0.797674 0.395342
O O6 0.991381 0.882062 0.220684
O O7 0.827655 0.991311 0.256470
O O8 0.536464 0.394883 0.166106
O O9 0.664448 0.555527 0.240628
O O10 0.588698 0.567298 0.988475
O O11 0.690970 0.763173 0.517059
O O12 0.843673 0.711131 0.642736
O O13 0.795038 0.577665 0.426857
O O14 0.476039 0.173688 0.127829
O O15 0.368139 0.280154 0.286416
O O16 0.323910 0.056772 0.198989
#
# Coordination Sequence:
#
# PCOD8171322 Si02
#       8
#     4   4   4   4   4   4   4   4
#     4  10  23  41  61  99 131 176 226 268 345 413
#     4  12  24  36  68 102 127 170 231 291 329 399
#     4  11  22  39  66 101 129 164 236 289 328 393
#     4  12  24  42  64 101 133 175 228 275 342 413
#     4  11  22  43  68  91 136 180 215 279 353 398
#     4  11  22  42  69  97 131 179 225 274 344 411
#     4  11  20  39  64  95 133 171 214 291 346 391
#     4  10  23  42  62  90 134 179 207 277 333 406
#
# _framework density 21.406789
#
# number of rings (size 3 to 8) (size 9 to 14) (size 15 to 20)
#    0.000    1.000    6.250    2.250    3.500    0.000 
#    0.000    6.250    0.000    0.000    0.000    0.000 
#    0.000    0.000    0.000    0.000    0.000    0.000 
#
# Total GULP energy -396708.274675 kJ/mol
# GULP energy per Si atom -12397.133584 kJ/mol
# Density = 2.135807 g / cm^3
# Si number density = 21.406789 Si / 1000 Ang^3
#
#
#
# Elastic Constant Matrix: (Units=GPa)
#
#
# Indices 1 2 3 4 5 6 
#
# 1 112.9040 33.1400 27.1623 0.0000 0.0000 0.0000
# 2 33.1400 61.7869 22.9765 0.0000 0.0000 0.0000
# 3 27.1623 22.9765 89.3783 0.0000 0.0000 0.0000
# 4 0.0000 0.0000 0.0000 34.3395 0.0000 0.0000
# 5 0.0000 0.0000 0.0000 0.0000 28.0942 0.0000
# 6 0.0000 0.0000 0.0000 0.0000 0.0000 27.4901
#
#
#
# Elastic Compliance Matrix: (Units=1/GPa)
#
#
# Indices 1 2 3 4 5 6 
#
# 1 0.010822 -0.005066 -0.001987 0.000000 0.000000 0.000000
# 2 -0.005066 0.020267 -0.003670 0.000000 0.000000 0.000000
# 3 -0.001987 -0.003670 0.012736 0.000000 0.000000 0.000000
# 4 0.000000 0.000000 0.000000 0.029121 0.000000 0.000000
# 5 0.000000 0.000000 0.000000 0.000000 0.035595 0.000000
# 6 0.000000 0.000000 0.000000 0.000000 0.000000 0.036377
#
#
# Mechanical properties :
#
#
# Convention : Reuss Voigt Hill
#
# Bulk Modulus (GPa) = 44.68522 47.84741 46.26632
# Shear Modulus (GPa) = 28.76514 30.03745 29.40130
#
# Velocity S-wave (km/s) = 3.66968 3.74996 3.71004
# Velocity P-wave (km/s) = 6.23499 6.41480 6.32553
#
# Compressibility (1/GPa) = 0.02237877
#
# Stress axis : x y z
#
# Youngs Moduli (GPa) = 92.40516 49.34223 78.51952
#
# Poissons Ratio (x) = 0.24995 0.15598
# Poissons Ratio (y) = 0.46810 0.28820
# Poissons Ratio (z) = 0.18357 0.18111
#
# Static dielectric constant tensor:
#      x y z
#    x 4.000630 0.000000 0.000000 
#    y 0.000000 3.781340 0.000000 
#    z 0.000000 0.000000 3.992050 
# 
# 
# High freq. dielectric constant tensor:
#      x y z
#    x 1.837280 0.000000 0.000000 
#    y 0.000000 1.820530 0.000000 
#    z 0.000000 0.000000 1.843660 
# 
# From -- ./inp_files/4404.got.cif
#   From: 2010.03.12/outbox.cif.g09.slc.cpg/sg33_3_cif.got.tgz:4404.got - 2010.04.14 01:49:19.
