data_PCOD8171104
_publ_section_title
;
Structure prediction by ZEFSAII (Michael W. Deem and Ramdas Pophale) SiO2 
 PCOD8171104
Probable space group: P N A 21
;
_chemical_formula_sum "Si O2"
_cell_formula_units_Z 28
_cell_length_a 14.296847
_cell_length_b 13.918362
_cell_length_c 6.494622
_cell_angle_alpha 90.000000
_cell_angle_beta 90.000000
_cell_angle_gamma 90.000000
_cell_volume 1292.356337
_symmetry_space_group_name_H-M "P N A 21"
_symmetry_group_IT_number 33
_symmetry_cell_setting 'orthorhombic'
loop_
_space_group_symop_operation_xyz
x,y,z
-x,-y,1/2+z
1/2-x,1/2+y,1/2+z
1/2+x,1/2-y,z
loop_
_atom_site_type_symbol
_atom_site_label
_atom_site_fract_x
_atom_site_fract_y
_atom_site_fract_z
Si Si1 0.379861 0.619889 0.929140
Si Si2 0.694888 0.542295 0.148400
Si Si3 0.611430 0.055033 0.865243
Si Si4 0.234842 0.107636 0.822132
Si Si5 0.573235 0.894970 0.162931
Si Si6 0.962459 0.184783 0.696611
Si Si7 0.900764 0.759924 0.544772
O O1 0.367134 0.527105 0.790266
O O2 0.395994 0.714112 0.786461
O O3 0.291877 0.623618 0.083015
O O4 0.471813 0.611884 0.070120
O O5 0.799823 0.563826 0.217962
O O6 0.641726 0.643263 0.173025
O O7 0.699472 0.494490 0.919788
O O8 0.517091 0.046377 0.734444
O O9 0.604272 0.145137 0.021299
O O10 0.622589 0.955058 0.983293
O O11 0.347581 0.114613 0.841298
O O12 0.193113 0.196025 0.948353
O O13 0.540729 0.789563 0.090343
O O14 0.006259 0.197682 0.927899
#
# Coordination Sequence:
#
# PCOD8171104 Si02
#       7
#     4   4   4   4   4   4   4
#     4  10  22  41  67  97 127 168 218 265 336 388
#     4  11  23  41  67  97 132 171 215 273 337 395
#     4  11  23  42  66  95 128 176 220 274 332 400
#     4  10  21  43  63  95 132 168 211 277 322 403
#     4  11  23  43  63  92 131 168 225 268 331 395
#     4  10  24  40  66  95 129 170 214 275 331 396
#     4   9  22  42  66  93 133 169 217 270 325 397
#
# _framework density 21.665851
#
# number of rings (size 3 to 8) (size 9 to 14) (size 15 to 20)
#    0.000    1.714    1.429    1.714    8.000    0.000 
#    5.143    0.000    0.000    0.000    0.000    0.000 
#    0.000    0.000    0.000    0.000    0.000    0.000 
#
# Total GULP energy -347046.249932 kJ/mol
# GULP energy per Si atom -12394.508926 kJ/mol
# Density = 2.161654 g / cm^3
# Si number density = 21.665851 Si / 1000 Ang^3
#
#
#
# Elastic Constant Matrix: (Units=GPa)
#
#
# Indices 1 2 3 4 5 6 
#
# 1 150.0767 33.1904 36.8247 0.0000 0.0000 0.0000
# 2 33.1904 78.0581 30.2786 0.0000 0.0000 0.0000
# 3 36.8247 30.2786 101.1681 0.0000 0.0000 0.0000
# 4 0.0000 0.0000 0.0000 29.4220 0.0000 0.0000
# 5 0.0000 0.0000 0.0000 0.0000 23.9286 0.0000
# 6 0.0000 0.0000 0.0000 0.0000 0.0000 32.1884
#
#
#
# Elastic Compliance Matrix: (Units=1/GPa)
#
#
# Indices 1 2 3 4 5 6 
#
# 1 0.007719 -0.002480 -0.002067 0.000000 0.000000 0.000000
# 2 -0.002480 0.015291 -0.003674 0.000000 0.000000 0.000000
# 3 -0.002067 -0.003674 0.011737 0.000000 0.000000 0.000000
# 4 0.000000 0.000000 0.000000 0.033988 0.000000 0.000000
# 5 0.000000 0.000000 0.000000 0.000000 0.041791 0.000000
# 6 0.000000 0.000000 0.000000 0.000000 0.000000 0.031067
#
#
# Mechanical properties :
#
#
# Convention : Reuss Voigt Hill
#
# Bulk Modulus (GPa) = 54.63336 58.87668 56.75502
# Shear Modulus (GPa) = 30.46257 32.37508 31.41883
#
# Velocity S-wave (km/s) = 3.75376 3.86980 3.81222
# Velocity P-wave (km/s) = 6.63767 6.87030 6.75499
#
# Compressibility (1/GPa) = 0.01830383
#
# Stress axis : x y z
#
# Youngs Moduli (GPa) = 129.54950 65.40005 85.20421
#
# Poissons Ratio (x) = 0.16221 0.17615
# Poissons Ratio (y) = 0.32131 0.31300
# Poissons Ratio (z) = 0.26783 0.24025
#
# Static dielectric constant tensor:
#      x y z
#    x 4.009160 0.000000 0.000000 
#    y 0.000000 3.847140 0.000000 
#    z 0.000000 0.000000 3.902020 
# 
# 
# High freq. dielectric constant tensor:
#      x y z
#    x 1.865310 0.000000 0.000000 
#    y 0.000000 1.848610 0.000000 
#    z 0.000000 0.000000 1.831820 
# 
# From -- ./inp_files/1440.got.cif
#   From: 2010.03.12/outbox.cif.g09.slc.cpg/sg33_1_cif.got.tgz:1440.got - 2010.04.14 01:49:19.
