data_PCOD8171852
_publ_section_title
;
Structure prediction by ZEFSAII (Michael W. Deem and Ramdas Pophale) SiO2 
 PCOD8171852
Probable space group: P N N 2
;
_chemical_formula_sum "Si O2"
_cell_formula_units_Z 32
_cell_length_a 11.284502
_cell_length_b 14.312776
_cell_length_c 9.579114
_cell_angle_alpha 90.000000
_cell_angle_beta 90.000000
_cell_angle_gamma 90.000000
_cell_volume 1547.147123
_symmetry_space_group_name_H-M "P N N 2"
_symmetry_group_IT_number 34
_symmetry_cell_setting 'orthorhombic'
loop_
_space_group_symop_operation_xyz
x,y,z
-x,-y,z
1/2-x,1/2+y,1/2+z
1/2+x,1/2-y,1/2+z
loop_
_atom_site_type_symbol
_atom_site_label
_atom_site_fract_x
_atom_site_fract_y
_atom_site_fract_z
Si Si1 0.070544 0.595975 0.393810
Si Si2 0.401232 0.071013 0.482305
Si Si3 0.024361 0.106320 0.529157
Si Si4 0.967329 0.709210 0.152432
Si Si5 0.076141 0.093817 0.227462
Si Si6 0.281177 0.541270 0.204885
Si Si7 0.165734 0.630835 0.692986
Si Si8 0.703309 0.664380 0.161560
O O1 0.200469 0.586628 0.323600
O O2 0.086796 0.626911 0.553588
O O3 0.000000 0.500000 0.386145
O O4 0.993839 0.672176 0.309940
O O5 0.434972 0.171617 0.545273
O O6 0.280078 0.035235 0.551691
O O7 0.398606 0.074506 0.315606
O O8 0.500000 0.000000 0.535004
O O9 0.088122 0.136179 0.385239
O O10 0.105021 0.108318 0.671818
O O11 0.900742 0.162667 0.544317
O O12 0.000000 0.000000 0.496324
O O13 0.982107 0.820906 0.141602
O O14 0.836841 0.673756 0.102098
O O15 0.208533 0.079173 0.167968
O O16 0.000000 0.000000 0.205836
O O17 0.312805 0.433354 0.247834
O O18 0.182249 0.738511 0.745214
#
# Coordination Sequence:
#
# PCOD8171852 Si02
#       8
#     4   4   4   4   4   4   4   4
#     4  11  21  40  62  88 123 162 202 257 310 363
#     4  11  20  38  63  90 117 154 213 251 291 369
#     4   9  18  33  62  87 117 155 206 246 302 363
#     4  10  20  38  67  88 119 165 211 245 304 369
#     4  10  21  40  59  88 132 162 197 260 318 366
#     4  10  18  38  63  88 113 162 205 248 302 363
#     4  11  24  38  59  92 128 155 206 249 317 365
#     4  10  19  38  60  89 118 162 197 252 295 369
#
# _framework density 20.683229999999998
#
# number of rings (size 3 to 8) (size 9 to 14) (size 15 to 20)
#    0.000    1.750    3.750    1.875    0.000    0.000 
#    6.750    0.625    5.500    0.000    0.000    0.000 
#    0.000    0.000    0.000    0.000    0.000    0.000 
#
# Total GULP energy -396418.386943 kJ/mol
# GULP energy per Si atom -12388.074592 kJ/mol
# Density = 2.063615 g / cm^3
# Si number density = 20.683230 Si / 1000 Ang^3
#
#
#
# Elastic Constant Matrix: (Units=GPa)
#
#
# Indices 1 2 3 4 5 6 
#
# 1 90.7085 32.9476 26.6899 0.0000 0.0000 0.0000
# 2 32.9476 97.4429 15.0704 0.0000 0.0000 0.0000
# 3 26.6899 15.0704 90.4287 0.0000 0.0000 0.0000
# 4 0.0000 0.0000 0.0000 12.2923 0.0000 0.0000
# 5 0.0000 0.0000 0.0000 0.0000 27.6538 0.0000
# 6 0.0000 0.0000 0.0000 0.0000 0.0000 23.5864
#
#
#
# Elastic Compliance Matrix: (Units=1/GPa)
#
#
# Indices 1 2 3 4 5 6 
#
# 1 0.013463 -0.004042 -0.003300 0.000000 0.000000 0.000000
# 2 -0.004042 0.011747 -0.000765 0.000000 0.000000 0.000000
# 3 -0.003300 -0.000765 0.012160 0.000000 0.000000 0.000000
# 4 0.000000 0.000000 0.000000 0.081352 0.000000 0.000000
# 5 0.000000 0.000000 0.000000 0.000000 0.036161 0.000000
# 6 0.000000 0.000000 0.000000 0.000000 0.000000 0.042397
#
#
# Mechanical properties :
#
#
# Convention : Reuss Voigt Hill
#
# Bulk Modulus (GPa) = 47.26542 47.55508 47.41025
# Shear Modulus (GPa) = 22.67087 26.29797 24.48442
#
# Velocity S-wave (km/s) = 3.31433 3.56963 3.44434
# Velocity P-wave (km/s) = 6.12765 6.32706 6.22815
#
# Compressibility (1/GPa) = 0.02115712
#
# Stress axis : x y z
#
# Youngs Moduli (GPa) = 74.27505 85.12553 82.23736
#
# Poissons Ratio (x) = 0.34407 0.27139
# Poissons Ratio (y) = 0.30021 0.06289
# Poissons Ratio (z) = 0.24512 0.06510
#
# Static dielectric constant tensor:
#      x y z
#    x 3.926600 0.000000 0.000000 
#    y 0.000000 3.780730 0.000000 
#    z 0.000000 0.000000 3.470820 
# 
# 
# High freq. dielectric constant tensor:
#      x y z
#    x 1.815130 0.000000 0.000000 
#    y 0.000000 1.810150 0.000000 
#    z 0.000000 0.000000 1.774380 
# 
# From -- ./inp_files/3363.got.cif
#   From: 2010.03.12/outbox.cif.g09.slc.cpg/sg34_2_cif.got.tgz:3363.got - 2010.04.14 01:56:33.
