data_PCOD8171784
_publ_section_title
;
Structure prediction by ZEFSAII (Michael W. Deem and Ramdas Pophale) SiO2 
 PCOD8171784
Probable space group: P N A 21
;
_chemical_formula_sum "Si O2"
_cell_formula_units_Z 20
_cell_length_a 22.467565
_cell_length_b 6.870065
_cell_length_c 5.443637
_cell_angle_alpha 90.000000
_cell_angle_beta 90.000000
_cell_angle_gamma 90.000000
_cell_volume 840.245142
_symmetry_space_group_name_H-M "P N A 21"
_symmetry_group_IT_number 33
_symmetry_cell_setting 'orthorhombic'
loop_
_space_group_symop_operation_xyz
x,y,z
-x,-y,1/2+z
1/2-x,1/2+y,1/2+z
1/2+x,1/2-y,z
loop_
_atom_site_type_symbol
_atom_site_label
_atom_site_fract_x
_atom_site_fract_y
_atom_site_fract_z
Si Si1 0.186782 0.405732 0.138690
Si Si2 0.698293 0.339310 0.643730
Si Si3 0.089999 0.871777 0.685190
Si Si4 0.072087 0.545122 0.333427
Si Si5 0.504845 0.297124 0.543119
O O1 0.236894 0.569072 0.149821
O O2 0.189024 0.270746 0.384305
O O3 0.123611 0.517694 0.129630
O O4 0.192922 0.296345 0.881099
O O5 0.650473 0.509393 0.682415
O O6 0.101941 0.665167 0.555775
O O7 0.063502 0.827037 0.952543
O O8 0.034894 0.994143 0.570295
O O9 0.051588 0.325665 0.385487
O O10 0.010870 0.662864 0.276813
#
# Coordination Sequence:
#
# PCOD8171784 Si02
#       5
#     4   4   4   4   4
#     4  12  29  51  79 109 150 196 254 312 376 442
#     4  12  29  51  79 109 150 196 254 312 376 442
#     4  12  27  45  73 108 152 196 249 307 370 446
#     4  12  27  45  73 108 152 196 249 307 370 446
#     4  12  26  44  70 108 152 198 246 300 378 442
#
# _framework density 23.802574
#
# number of rings (size 3 to 8) (size 9 to 14) (size 15 to 20)
#    0.000    0.000    6.000    2.400   14.000    0.000 
#    0.000    0.000    0.000    0.000    0.000    0.000 
#    0.000    0.000    0.000    0.000    0.000    0.000 
#
# Total GULP energy -247797.705705 kJ/mol
# GULP energy per Si atom -12389.885285 kJ/mol
# Density = 2.374840 g / cm^3
# Si number density = 23.802574 Si / 1000 Ang^3
#
#
#
# Elastic Constant Matrix: (Units=GPa)
#
#
# Indices 1 2 3 4 5 6 
#
# 1 111.7208 17.7748 3.8862 0.0000 0.0000 0.0000
# 2 17.7748 84.9804 17.4259 0.0000 0.0000 0.0000
# 3 3.8862 17.4259 84.7713 0.0000 0.0000 0.0000
# 4 0.0000 0.0000 0.0000 42.1248 0.0000 0.0000
# 5 0.0000 0.0000 0.0000 0.0000 37.3970 0.0000
# 6 0.0000 0.0000 0.0000 0.0000 0.0000 63.2558
#
#
#
# Elastic Compliance Matrix: (Units=1/GPa)
#
#
# Indices 1 2 3 4 5 6 
#
# 1 0.009259 -0.001931 -0.000028 0.000000 0.000000 0.000000
# 2 -0.001931 0.012688 -0.002520 0.000000 0.000000 0.000000
# 3 -0.000028 -0.002520 0.012316 0.000000 0.000000 0.000000
# 4 0.000000 0.000000 0.000000 0.023739 0.000000 0.000000
# 5 0.000000 0.000000 0.000000 0.000000 0.026740 0.000000
# 6 0.000000 0.000000 0.000000 0.000000 0.000000 0.015809
#
#
# Mechanical properties :
#
#
# Convention : Reuss Voigt Hill
#
# Bulk Modulus (GPa) = 39.51583 39.96070 39.73827
# Shear Modulus (GPa) = 42.39352 44.71454 43.55403
#
# Velocity S-wave (km/s) = 4.22482 4.33894 4.28226
# Velocity P-wave (km/s) = 6.35896 6.47508 6.41728
#
# Compressibility (1/GPa) = 0.02530631
#
# Stress axis : x y z
#
# Youngs Moduli (GPa) = 108.00222 78.81464 81.19738
#
# Poissons Ratio (x) = 0.15219 0.00223
# Poissons Ratio (y) = 0.20855 0.20459
# Poissons Ratio (z) = 0.00297 0.19859
#
# Static dielectric constant tensor:
#      x y z
#    x 4.419750 0.000000 0.000000 
#    y 0.000000 4.556620 0.000000 
#    z 0.000000 0.000000 4.572400 
# 
# 
# High freq. dielectric constant tensor:
#      x y z
#    x 1.959430 0.000000 0.000000 
#    y 0.000000 1.965810 0.000000 
#    z 0.000000 0.000000 1.939270 
# 
# From -- ./inp_files/1934.got.cif
#   From: 2010.03.12/outbox.cif.g09.slc.cpg/sg33_1_cif.got.tgz:1934.got - 2010.04.14 01:49:19.
