data_PCOD8171922
_publ_section_title
;
Structure prediction by ZEFSAII (Michael W. Deem and Ramdas Pophale) SiO2 
 PCOD8171922
Probable space group: P N N 2
;
_chemical_formula_sum "Si O2"
_cell_formula_units_Z 32
_cell_length_a 11.500780
_cell_length_b 9.255110
_cell_length_c 14.368115
_cell_angle_alpha 90.000000
_cell_angle_beta 90.000000
_cell_angle_gamma 90.000000
_cell_volume 1529.356299
_symmetry_space_group_name_H-M "P N N 2"
_symmetry_group_IT_number 34
_symmetry_cell_setting 'orthorhombic'
loop_
_space_group_symop_operation_xyz
x,y,z
-x,-y,z
1/2-x,1/2+y,1/2+z
1/2+x,1/2-y,1/2+z
loop_
_atom_site_type_symbol
_atom_site_label
_atom_site_fract_x
_atom_site_fract_y
_atom_site_fract_z
Si Si1 0.953412 0.342332 0.623350
Si Si2 0.466941 0.166193 0.916805
Si Si3 0.791143 0.279450 0.160271
Si Si4 0.701134 0.293694 0.444945
Si Si5 0.049136 0.245693 0.227184
Si Si6 0.792375 0.954971 0.120050
Si Si7 0.071930 0.145808 0.769217
Si Si8 0.124551 0.457034 0.069019
O O1 0.993304 0.277991 0.522354
O O2 0.814678 0.345160 0.631377
O O3 0.000000 0.500000 0.638224
O O4 0.993232 0.248944 0.708827
O O5 0.328503 0.187599 0.898235
O O6 0.551334 0.242966 0.840302
O O7 0.500000 0.000000 0.910975
O O8 0.699520 0.363436 0.224366
O O9 0.806356 0.391896 0.076044
O O10 0.912836 0.247903 0.208378
O O11 0.748184 0.120381 0.128522
O O12 0.666470 0.426318 0.514081
O O13 0.596347 0.291344 0.371176
O O14 0.696377 0.141710 0.498734
O O15 0.108463 0.094380 0.194320
O O16 0.108178 0.378752 0.170700
O O17 0.000000 0.000000 0.776062
O O18 0.000000 0.500000 0.026542
#
# Coordination Sequence:
#
# PCOD8171922 Si02
#       8
#     4   4   4   4   4   4   4   4
#     4  10  22  44  63  90 135 181 213 270 343 398
#     4  10  20  37  68  94 128 170 222 280 334 389
#     4  11  21  41  64  98 128 167 218 278 336 384
#     4  10  23  43  64  96 130 172 222 272 328 401
#     4  10  20  38  69  96 124 167 220 275 327 385
#     4  10  22  41  73  92 127 175 224 273 333 399
#     4  12  27  40  65  95 139 180 219 272 336 416
#     4   9  21  39  68  94 127 167 211 275 332 387
#
# _framework density 20.923836000000001
#
# number of rings (size 3 to 8) (size 9 to 14) (size 15 to 20)
#    0.000    1.750    2.500    1.500    5.250    3.500 
#    0.000    2.500    5.500    0.000    0.000    0.000 
#    0.000    0.000    0.000    0.000    0.000    0.000 
#
# Total GULP energy -396455.223534 kJ/mol
# GULP energy per Si atom -12389.225735 kJ/mol
# Density = 2.087621 g / cm^3
# Si number density = 20.923836 Si / 1000 Ang^3
#
#
#
# Elastic Constant Matrix: (Units=GPa)
#
#
# Indices 1 2 3 4 5 6 
#
# 1 89.5046 46.4779 50.3180 0.0000 0.0000 0.0000
# 2 46.4779 99.2258 60.4433 0.0000 0.0000 0.0000
# 3 50.3180 60.4433 142.0276 0.0000 0.0000 0.0000
# 4 0.0000 0.0000 0.0000 16.1734 0.0000 0.0000
# 5 0.0000 0.0000 0.0000 0.0000 32.6215 0.0000
# 6 0.0000 0.0000 0.0000 0.0000 0.0000 37.9797
#
#
#
# Elastic Compliance Matrix: (Units=1/GPa)
#
#
# Indices 1 2 3 4 5 6 
#
# 1 0.015840 -0.005401 -0.003313 0.000000 0.000000 0.000000
# 2 -0.005401 0.015447 -0.004660 0.000000 0.000000 0.000000
# 3 -0.003313 -0.004660 0.010198 0.000000 0.000000 0.000000
# 4 0.000000 0.000000 0.000000 0.061830 0.000000 0.000000
# 5 0.000000 0.000000 0.000000 0.000000 0.030655 0.000000
# 6 0.000000 0.000000 0.000000 0.000000 0.000000 0.026330
#
#
# Mechanical properties :
#
#
# Convention : Reuss Voigt Hill
#
# Bulk Modulus (GPa) = 67.86383 71.69296 69.77840
# Shear Modulus (GPa) = 26.04708 28.92285 27.48497
#
# Velocity S-wave (km/s) = 3.53207 3.72195 3.62826
# Velocity P-wave (km/s) = 7.00987 7.26696 7.13957
#
# Compressibility (1/GPa) = 0.01473539
#
# Stress axis : x y z
#
# Youngs Moduli (GPa) = 63.13119 64.73848 98.05910
#
# Poissons Ratio (x) = 0.34967 0.32489
# Poissons Ratio (y) = 0.34099 0.45697
# Poissons Ratio (z) = 0.20917 0.30169
#
# Static dielectric constant tensor:
#      x y z
#    x 3.884500 0.000000 0.000000 
#    y 0.000000 3.595940 0.000000 
#    z 0.000000 0.000000 3.903490 
# 
# 
# High freq. dielectric constant tensor:
#      x y z
#    x 1.826720 0.000000 0.000000 
#    y 0.000000 1.808400 0.000000 
#    z 0.000000 0.000000 1.810340 
# 
# From -- ./inp_files/6815.got.cif
#   From: 2010.03.12/outbox.cif.g09.slc.cpg/sg34_4_cif.got.tgz:6815.got - 2010.04.14 01:56:33.
