data_PCOD8171918
_publ_section_title
;
Structure prediction by ZEFSAII (Michael W. Deem and Ramdas Pophale) SiO2 
 PCOD8171918
Probable space group: P N N 2
;
_chemical_formula_sum "Si O2"
_cell_formula_units_Z 30
_cell_length_a 7.746630
_cell_length_b 12.842146
_cell_length_c 14.464956
_cell_angle_alpha 90.000000
_cell_angle_beta 90.000000
_cell_angle_gamma 90.000000
_cell_volume 1439.022331
_symmetry_space_group_name_H-M "P N N 2"
_symmetry_group_IT_number 34
_symmetry_cell_setting 'orthorhombic'
loop_
_space_group_symop_operation_xyz
x,y,z
-x,-y,z
1/2-x,1/2+y,1/2+z
1/2+x,1/2-y,1/2+z
loop_
_atom_site_type_symbol
_atom_site_label
_atom_site_fract_x
_atom_site_fract_y
_atom_site_fract_z
Si Si1 0.524442 0.884201 0.471580
Si Si2 0.000000 0.000000 0.958745
Si Si3 0.014206 0.617711 0.175181
Si Si4 0.397567 0.697247 0.352134
Si Si5 0.068381 0.115630 0.475194
Si Si6 0.347553 0.922805 0.031374
Si Si7 0.998668 0.300877 0.361300
Si Si8 0.624385 0.277730 0.148519
O O1 0.431485 0.872561 0.572664
O O2 0.428114 0.802379 0.408391
O O3 0.727524 0.865515 0.476010
O O4 0.500000 0.000000 0.431622
O O5 0.003707 0.897681 0.894982
O O6 0.170058 0.988853 0.023023
O O7 0.924144 0.685953 0.256902
O O8 0.210512 0.650881 0.163835
O O9 0.000000 0.500000 0.210650
O O10 0.198937 0.661399 0.358118
O O11 0.466516 0.723836 0.248811
O O12 0.001358 0.165500 0.572350
O O13 0.997270 0.179167 0.387617
O O14 0.000000 0.000000 0.464470
O O15 0.325901 0.837745 0.112781
O O16 0.500000 0.000000 0.061453
O O17 0.392308 0.868162 0.933921
#
# Coordination Sequence:
#
# PCOD8171918 Si02
#       8
#     4   2   4   4   4   4   4   4
#     4  10  21  40  61  86 123 167 212 261 319 379
#     4  12  24  38  72  98 132 170 226 264 336 384
#     4   9  18  35  62  90 120 162 206 263 322 378
#     4  11  22  39  63  97 129 166 210 274 321 384
#     4  10  20  38  60  87 121 169 210 260 317 382
#     4  11  22  44  67  94 134 177 214 271 326 396
#     4  10  20  37  62  92 126 161 208 263 321 379
#     4   9  22  38  62  94 131 163 217 267 322 393
#
# _framework density 20.847487000000001
#
# number of rings (size 3 to 8) (size 9 to 14) (size 15 to 20)
#    0.000    1.867    1.333    3.600    2.800    0.533 
#    0.000    6.667   27.867    0.000    0.000    0.000 
#    0.000    0.000    0.000    0.000    0.000    0.000 
#
# Total GULP energy -371819.101096 kJ/mol
# GULP energy per Si atom -12393.970037 kJ/mol
# Density = 2.080004 g / cm^3
# Si number density = 20.847487 Si / 1000 Ang^3
#
#
#
# Elastic Constant Matrix: (Units=GPa)
#
#
# Indices 1 2 3 4 5 6 
#
# 1 75.2389 22.0273 15.7423 0.0000 0.0000 0.0000
# 2 22.0273 151.7182 75.7741 0.0000 0.0000 0.0000
# 3 15.7423 75.7741 124.3763 0.0000 0.0000 0.0000
# 4 0.0000 0.0000 0.0000 8.2085 0.0000 0.0000
# 5 0.0000 0.0000 0.0000 0.0000 1796.3170 0.0000
# 6 0.0000 0.0000 0.0000 0.0000 0.0000 36.3133
#
#
#
# Elastic Compliance Matrix: (Units=1/GPa)
#
#
# Indices 1 2 3 4 5 6 
#
# 1 0.013931 -0.001641 -0.000763 0.000000 0.000000 0.000000
# 2 -0.001641 0.009667 -0.005682 0.000000 0.000000 0.000000
# 3 -0.000763 -0.005682 0.011598 0.000000 0.000000 0.000000
# 4 0.000000 0.000000 0.000000 0.121824 0.000000 0.000000
# 5 0.000000 0.000000 0.000000 0.000000 0.000557 0.000000
# 6 0.000000 0.000000 0.000000 0.000000 0.000000 0.027538
#
#
# Mechanical properties :
#
#
# Convention : Reuss Voigt Hill
#
# Bulk Modulus (GPa) = 52.56600 64.26899 58.41749
# Shear Modulus (GPa) = 24.08126 384.02041 204.05083
#
# Velocity S-wave (km/s) = 3.40239 13.58693 9.90406
# Velocity P-wave (km/s) = 6.37999 16.64435 12.60434
#
# Compressibility (1/GPa) = 0.01902370
#
# Stress axis : x y z
#
# Youngs Moduli (GPa) = 71.78112 103.44248 86.21964
#
# Poissons Ratio (x) = 0.16979 0.06581
# Poissons Ratio (y) = 0.11782 0.48989
# Poissons Ratio (z) = 0.05479 0.58774
#
# Static dielectric constant tensor:
#      x y z
#    x 3.098970 0.000000 0.000000 
#    y 0.000000 3.922020 0.000000 
#    z 0.000000 0.000000 4.300550 
# 
# 
# High freq. dielectric constant tensor:
#      x y z
#    x 1.798800 0.000000 0.000000 
#    y 0.000000 1.821340 0.000000 
#    z 0.000000 0.000000 1.817590 
# 
# From -- ./inp_files/6534.got.cif
#   From: 2010.03.12/outbox.cif.g09.slc.cpg/sg34_4_cif.got.tgz:6534.got - 2010.04.14 01:56:33.
