data_PCOD8171657
_publ_section_title
;
Structure prediction by ZEFSAII (Michael W. Deem and Ramdas Pophale) SiO2 
 PCOD8171657
Probable space group: P N A 21
;
_chemical_formula_sum "Si O2"
_cell_formula_units_Z 24
_cell_length_a 15.655594
_cell_length_b 7.983223
_cell_length_c 8.391557
_cell_angle_alpha 90.000000
_cell_angle_beta 90.000000
_cell_angle_gamma 90.000000
_cell_volume 1048.794400
_symmetry_space_group_name_H-M "P N A 21"
_symmetry_group_IT_number 33
_symmetry_cell_setting 'orthorhombic'
loop_
_space_group_symop_operation_xyz
x,y,z
-x,-y,1/2+z
1/2-x,1/2+y,1/2+z
1/2+x,1/2-y,z
loop_
_atom_site_type_symbol
_atom_site_label
_atom_site_fract_x
_atom_site_fract_y
_atom_site_fract_z
Si Si1 0.074329 0.813917 0.342770
Si Si2 0.729471 0.696097 0.698657
Si Si3 0.753154 0.315698 0.827420
Si Si4 0.581557 0.186282 0.686223
Si Si5 0.450932 0.183951 0.175625
Si Si6 0.607589 0.317172 0.355450
O O1 0.159248 0.753307 0.247338
O O2 0.052842 0.686966 0.484936
O O3 0.992654 0.820373 0.226099
O O4 0.091406 0.995878 0.418782
O O5 0.748011 0.505488 0.757535
O O6 0.736987 0.763469 0.515087
O O7 0.632397 0.729152 0.754485
O O8 0.796598 0.812792 0.789254
O O9 0.669475 0.218298 0.775688
O O10 0.599379 0.188056 0.499105
O O11 0.546135 0.005988 0.735851
O O12 0.538575 0.274269 0.221506
#
# Coordination Sequence:
#
# PCOD8171657 Si02
#       6
#     4   4   4   4   4   4
#     4  11  24  43  63  93 130 171 219 272 331 402
#     4  11  24  44  68  98 134 175 223 281 342 410
#     4  11  24  44  68  98 134 175 223 281 342 410
#     4  12  24  41  67  97 129 172 219 275 337 402
#     4  11  24  43  63  93 130 171 219 272 331 402
#     4  12  24  41  67  97 129 172 219 275 337 402
#
# _framework density 22.883420000000001
#
# number of rings (size 3 to 8) (size 9 to 14) (size 15 to 20)
#    0.000    0.667    0.000   10.000    0.000    4.000 
#    0.000    0.000    0.000    0.000    0.000    0.000 
#    0.000    0.000    0.000    0.000    0.000    0.000 
#
# Total GULP energy -297394.378792 kJ/mol
# GULP energy per Si atom -12391.432450 kJ/mol
# Density = 2.283134 g / cm^3
# Si number density = 22.883420 Si / 1000 Ang^3
#
#
#
# Elastic Constant Matrix: (Units=GPa)
#
#
# Indices 1 2 3 4 5 6 
#
# 1 123.9693 -3.6125 25.2456 0.0000 0.0000 0.0000
# 2 -3.6125 98.7222 23.8679 0.0000 0.0000 0.0000
# 3 25.2456 23.8679 73.8420 0.0000 0.0000 0.0000
# 4 0.0000 0.0000 0.0000 40.5989 0.0000 0.0000
# 5 0.0000 0.0000 0.0000 0.0000 25.4222 0.0000
# 6 0.0000 0.0000 0.0000 0.0000 0.0000 40.4806
#
#
#
# Elastic Compliance Matrix: (Units=1/GPa)
#
#
# Indices 1 2 3 4 5 6 
#
# 1 0.008786 0.001137 -0.003371 0.000000 0.000000 0.000000
# 2 0.001137 0.011135 -0.003988 0.000000 0.000000 0.000000
# 3 -0.003371 -0.003988 0.015984 0.000000 0.000000 0.000000
# 4 0.000000 0.000000 0.000000 0.024631 0.000000 0.000000
# 5 0.000000 0.000000 0.000000 0.000000 0.039336 0.000000
# 6 0.000000 0.000000 0.000000 0.000000 0.000000 0.024703
#
#
# Mechanical properties :
#
#
# Convention : Reuss Voigt Hill
#
# Bulk Modulus (GPa) = 42.62506 43.05949 42.84228
# Shear Modulus (GPa) = 34.52077 38.03585 36.27831
#
# Velocity S-wave (km/s) = 3.88822 4.08138 3.98597
# Velocity P-wave (km/s) = 6.23098 6.40843 6.32033
#
# Compressibility (1/GPa) = 0.02346038
#
# Stress axis : x y z
#
# Youngs Moduli (GPa) = 113.81526 89.80582 62.56269
#
# Poissons Ratio (x) = -0.10207 0.21091
# Poissons Ratio (y) = -0.12936 0.24949
# Poissons Ratio (z) = 0.38370 0.35813
#
# Static dielectric constant tensor:
#      x y z
#    x 4.752310 0.000000 0.000000 
#    y 0.000000 4.098470 0.000000 
#    z 0.000000 0.000000 3.896850 
# 
# 
# High freq. dielectric constant tensor:
#      x y z
#    x 1.934040 0.000000 0.000000 
#    y 0.000000 1.913290 0.000000 
#    z 0.000000 0.000000 1.885350 
# 
# From -- ./inp_files/4282.got.cif
#   From: 2010.03.12/outbox.cif.g09.slc.cpg/sg33_3_cif.got.tgz:4282.got - 2010.04.14 01:49:19.
