data_PCOD8171004
_publ_section_title
;
Structure prediction by ZEFSAII (Michael W. Deem and Ramdas Pophale) SiO2 
 PCOD8171004
Probable space group: P N A 21
;
_chemical_formula_sum "Si O2"
_cell_formula_units_Z 32
_cell_length_a 16.513593
_cell_length_b 10.348818
_cell_length_c 8.712157
_cell_angle_alpha 90.000000
_cell_angle_beta 90.000000
_cell_angle_gamma 90.000000
_cell_volume 1488.874251
_symmetry_space_group_name_H-M "P N A 21"
_symmetry_group_IT_number 33
_symmetry_cell_setting 'orthorhombic'
loop_
_space_group_symop_operation_xyz
x,y,z
-x,-y,1/2+z
1/2-x,1/2+y,1/2+z
1/2+x,1/2-y,z
loop_
_atom_site_type_symbol
_atom_site_label
_atom_site_fract_x
_atom_site_fract_y
_atom_site_fract_z
Si Si1 0.793548 0.908966 0.406520
Si Si2 0.672911 0.105455 0.866920
Si Si3 0.364711 0.788920 0.770898
Si Si4 0.783460 0.084948 0.124001
Si Si5 0.480529 0.893427 0.529899
Si Si6 0.444224 0.373387 0.962662
Si Si7 0.145452 0.465769 0.538030
Si Si8 0.582829 0.478970 0.155783
O O1 0.819744 0.759600 0.403973
O O2 0.698556 0.926606 0.448624
O O3 0.845533 0.992381 0.530032
O O4 0.806369 0.968966 0.238044
O O5 0.692122 0.069808 0.693551
O O6 0.736964 0.028788 0.973750
O O7 0.582759 0.053022 0.903752
O O8 0.274274 0.805613 0.700085
O O9 0.429231 0.881514 0.686337
O O10 0.397905 0.645259 0.760179
O O11 0.360350 0.831345 0.946806
O O12 0.864607 0.151912 0.063752
O O13 0.507502 0.758730 0.457343
O O14 0.554674 0.986446 0.563666
O O15 0.424285 0.409469 0.784872
O O16 0.500146 0.475513 0.055910
#
# Coordination Sequence:
#
# PCOD8171004 Si02
#       8
#     4   4   4   4   4   4   4   4
#     4  11  22  41  61  91 123 162 208 256 313 365
#     4  11  22  43  62  92 128 161 202 263 314 359
#     4   9  21  40  58  89 126 161 202 261 305 362
#     4  10  21  39  62  87 123 163 205 256 309 368
#     4  10  21  40  62  89 128 162 201 256 306 365
#     4  11  22  36  64  90 123 169 202 254 311 369
#     4  11  23  37  68  91 118 167 210 246 313 384
#     4  11  22  40  61  91 129 161 206 258 313 366
#
# _framework density 21.492749
#
# number of rings (size 3 to 8) (size 9 to 14) (size 15 to 20)
#    0.000    1.500    3.750    3.000    1.750    0.000 
#    0.000    0.000    0.000    3.000    0.000    0.000 
#    0.000    0.000    0.000    0.000    0.000    0.000 
#
# Total GULP energy -396630.819627 kJ/mol
# GULP energy per Si atom -12394.713113 kJ/mol
# Density = 2.144383 g / cm^3
# Si number density = 21.492749 Si / 1000 Ang^3
#
#
#
# Elastic Constant Matrix: (Units=GPa)
#
#
# Indices 1 2 3 4 5 6 
#
# 1 119.7789 7.0857 26.6477 0.0000 0.0000 0.0000
# 2 7.0857 31.4761 29.9602 0.0000 0.0000 0.0000
# 3 26.6477 29.9602 143.0891 0.0000 0.0000 0.0000
# 4 0.0000 0.0000 0.0000 26.8873 0.0000 0.0000
# 5 0.0000 0.0000 0.0000 0.0000 33.1362 0.0000
# 6 0.0000 0.0000 0.0000 0.0000 0.0000 23.5389
#
#
#
# Elastic Compliance Matrix: (Units=1/GPa)
#
#
# Indices 1 2 3 4 5 6 
#
# 1 0.008716 -0.000521 -0.001514 0.000000 0.000000 0.000000
# 2 -0.000521 0.039709 -0.008217 0.000000 0.000000 0.000000
# 3 -0.001514 -0.008217 0.008991 0.000000 0.000000 0.000000
# 4 0.000000 0.000000 0.000000 0.037192 0.000000 0.000000
# 5 0.000000 0.000000 0.000000 0.000000 0.030178 0.000000
# 6 0.000000 0.000000 0.000000 0.000000 0.000000 0.042483
#
#
# Mechanical properties :
#
#
# Convention : Reuss Voigt Hill
#
# Bulk Modulus (GPa) = 27.09165 46.85903 36.97534
# Shear Modulus (GPa) = 24.99014 32.08919 28.53967
#
# Velocity S-wave (km/s) = 3.41357 3.86816 3.64795
# Velocity P-wave (km/s) = 5.30745 6.46528 5.91476
#
# Compressibility (1/GPa) = 0.03691174
#
# Stress axis : x y z
#
# Youngs Moduli (GPa) = 114.72624 25.18322 111.21977
#
# Poissons Ratio (x) = 0.01312 0.16841
# Poissons Ratio (y) = 0.05976 0.91393
# Poissons Ratio (z) = 0.17372 0.20694
#
# Static dielectric constant tensor:
#      x y z
#    x 4.183570 0.000000 0.000000 
#    y 0.000000 3.379710 0.000000 
#    z 0.000000 0.000000 4.072250 
# 
# 
# High freq. dielectric constant tensor:
#      x y z
#    x 1.865390 0.000000 0.000000 
#    y 0.000000 1.800450 0.000000 
#    z 0.000000 0.000000 1.856140 
# 
# From -- ./inp_files/4840.got.cif
#   From: 2010.03.12/outbox.cif.g09.slc.cpg/sg33_3_cif.got.tgz:4840.got - 2010.04.14 01:49:19.
