data_PCOD8171461
_publ_section_title
;
Structure prediction by ZEFSAII (Michael W. Deem and Ramdas Pophale) SiO2 
 PCOD8171461
Probable space group: P N A 21
;
_chemical_formula_sum "Si O2"
_cell_formula_units_Z 28
_cell_length_a 5.528313
_cell_length_b 22.974324
_cell_length_c 9.699616
_cell_angle_alpha 90.000000
_cell_angle_beta 90.000000
_cell_angle_gamma 90.000000
_cell_volume 1231.940993
_symmetry_space_group_name_H-M "P N A 21"
_symmetry_group_IT_number 33
_symmetry_cell_setting 'orthorhombic'
loop_
_space_group_symop_operation_xyz
x,y,z
-x,-y,1/2+z
1/2-x,1/2+y,1/2+z
1/2+x,1/2-y,z
loop_
_atom_site_type_symbol
_atom_site_label
_atom_site_fract_x
_atom_site_fract_y
_atom_site_fract_z
Si Si1 0.178497 0.392391 0.341240
Si Si2 0.367676 0.062908 0.120058
Si Si3 0.550902 0.718307 0.255037
Si Si4 0.637823 0.400982 0.838664
Si Si5 0.424414 0.281925 0.430581
Si Si6 0.105787 0.560265 0.074850
Si Si7 0.449673 0.520613 0.853837
O O1 0.386691 0.343622 0.353887
O O2 0.273652 0.458665 0.359895
O O3 0.060939 0.392434 0.188946
O O4 0.998953 0.389012 0.473388
O O5 0.156979 0.059554 0.232127
O O6 0.442291 0.995843 0.102906
O O7 0.283634 0.093464 0.980732
O O8 0.311854 0.755519 0.299268
O O9 0.518047 0.657478 0.333478
O O10 0.561133 0.707632 0.092564
O O11 0.829699 0.405037 0.713888
O O12 0.439103 0.451955 0.825790
O O13 0.684130 0.255234 0.384741
O O14 0.342419 0.533705 0.003548
#
# Coordination Sequence:
#
# PCOD8171461 Si02
#       7
#     4   4   4   4   4   4   4
#     4  11  24  42  66  96 137 173 223 285 342 416
#     4  11  24  41  60 102 142 174 219 280 352 434
#     4  10  25  45  67 101 137 179 242 295 341 411
#     4  12  23  41  69  99 134 185 220 289 357 411
#     4  10  24  44  71  99 131 180 241 294 338 398
#     4  11  23  40  64 101 134 175 224 276 347 417
#     4  11  23  41  65  98 135 172 229 275 345 425
#
# _framework density 22.728362000000001
#
# number of rings (size 3 to 8) (size 9 to 14) (size 15 to 20)
#    0.000    1.143    2.857    2.571   12.000    1.143 
#    0.000    1.429    0.000    0.000    0.000    0.000 
#    0.000    0.000    0.000    0.000    0.000    0.000 
#
# Total GULP energy -346962.066469 kJ/mol
# GULP energy per Si atom -12391.502374 kJ/mol
# Density = 2.267663 g / cm^3
# Si number density = 22.728362 Si / 1000 Ang^3
#
#
#
# Elastic Constant Matrix: (Units=GPa)
#
#
# Indices 1 2 3 4 5 6 
#
# 1 108.3336 47.1069 35.8230 0.0000 0.0000 0.0000
# 2 47.1069 127.6327 37.9060 0.0000 0.0000 0.0000
# 3 35.8230 37.9060 118.2366 0.0000 0.0000 0.0000
# 4 0.0000 0.0000 0.0000 26.8468 0.0000 0.0000
# 5 0.0000 0.0000 0.0000 0.0000 24.2069 0.0000
# 6 0.0000 0.0000 0.0000 0.0000 0.0000 34.0527
#
#
#
# Elastic Compliance Matrix: (Units=1/GPa)
#
#
# Indices 1 2 3 4 5 6 
#
# 1 0.011562 -0.003566 -0.002360 0.000000 0.000000 0.000000
# 2 -0.003566 0.009760 -0.002048 0.000000 0.000000 0.000000
# 3 -0.002360 -0.002048 0.009829 0.000000 0.000000 0.000000
# 4 0.000000 0.000000 0.000000 0.037248 0.000000 0.000000
# 5 0.000000 0.000000 0.000000 0.000000 0.041311 0.000000
# 6 0.000000 0.000000 0.000000 0.000000 0.000000 0.029366
#
#
# Mechanical properties :
#
#
# Convention : Reuss Voigt Hill
#
# Bulk Modulus (GPa) = 65.78127 66.20831 65.99479
# Shear Modulus (GPa) = 31.23206 32.57907 31.90556
#
# Velocity S-wave (km/s) = 3.71097 3.79015 3.75077
# Velocity P-wave (km/s) = 6.88236 6.95321 6.91788
#
# Compressibility (1/GPa) = 0.01520190
#
# Stress axis : x y z
#
# Youngs Moduli (GPa) = 86.49161 102.46278 101.73771
#
# Poissons Ratio (x) = 0.36543 0.24006
# Poissons Ratio (y) = 0.30847 0.20839
# Poissons Ratio (z) = 0.20408 0.20988
#
# Static dielectric constant tensor:
#      x y z
#    x 4.274750 0.000000 0.000000 
#    y 0.000000 3.934750 0.000000 
#    z 0.000000 0.000000 4.162900 
# 
# 
# High freq. dielectric constant tensor:
#      x y z
#    x 1.905600 0.000000 0.000000 
#    y 0.000000 1.885210 0.000000 
#    z 0.000000 0.000000 1.887690 
# 
# From -- ./inp_files/2723.got.cif
#   From: 2010.03.12/outbox.cif.g09.slc.cpg/sg33_2_cif.got.tgz:2723.got - 2010.04.14 01:49:19.
