data_PCOD8171313
_publ_section_title
;
Structure prediction by ZEFSAII (Michael W. Deem and Ramdas Pophale) SiO2 
 PCOD8171313
Probable space group: P N A 21
;
_chemical_formula_sum "Si O2"
_cell_formula_units_Z 28
_cell_length_a 10.229863
_cell_length_b 14.781889
_cell_length_c 8.640720
_cell_angle_alpha 90.000000
_cell_angle_beta 90.000000
_cell_angle_gamma 90.000000
_cell_volume 1306.621158
_symmetry_space_group_name_H-M "P N A 21"
_symmetry_group_IT_number 33
_symmetry_cell_setting 'orthorhombic'
loop_
_space_group_symop_operation_xyz
x,y,z
-x,-y,1/2+z
1/2-x,1/2+y,1/2+z
1/2+x,1/2-y,z
loop_
_atom_site_type_symbol
_atom_site_label
_atom_site_fract_x
_atom_site_fract_y
_atom_site_fract_z
Si Si1 0.085076 0.901422 0.682560
Si Si2 0.339058 0.646996 0.883357
Si Si3 0.941761 0.398443 0.746643
Si Si4 0.148780 0.096664 0.708725
Si Si5 0.062188 0.568531 0.890606
Si Si6 0.851447 0.676748 0.711754
Si Si7 0.479147 0.729851 0.436902
O O1 0.236227 0.895492 0.733543
O O2 0.077098 0.825358 0.548732
O O3 0.976151 0.885188 0.812512
O O4 0.070240 0.008053 0.645317
O O5 0.218018 0.577396 0.860736
O O6 0.297173 0.740766 0.811187
O O7 0.355128 0.665711 0.065520
O O8 0.793486 0.430468 0.761692
O O9 0.981423 0.405721 0.565498
O O10 0.952583 0.295780 0.812066
O O11 0.029599 0.464325 0.852605
O O12 0.087960 0.145514 0.854566
O O13 0.986292 0.635164 0.774824
O O14 0.877248 0.710673 0.536532
#
# Coordination Sequence:
#
# PCOD8171313 Si02
#       7
#     4   4   4   4   4   4   4
#     4  11  23  43  66  95 132 173 217 273 331 398
#     4  10  23  40  64  94 128 171 219 269 324 394
#     4  11  24  43  69  99 134 174 229 274 331 407
#     4  11  23  44  63  97 132 168 222 274 330 393
#     4  11  23  43  69  97 135 177 221 275 333 395
#     4  11  22  43  67  94 134 172 221 268 333 394
#     4  11  24  40  68 100 131 177 219 277 336 395
#
# _framework density 21.429316
#
# number of rings (size 3 to 8) (size 9 to 14) (size 15 to 20)
#    0.000    1.143    1.429    5.143    2.000    4.571 
#    5.143    0.000    0.000    0.000    0.000    0.000 
#    0.000    0.000    0.000    0.000    0.000    0.000 
#
# Total GULP energy -347012.646091 kJ/mol
# GULP energy per Si atom -12393.308789 kJ/mol
# Density = 2.138054 g / cm^3
# Si number density = 21.429316 Si / 1000 Ang^3
#
#
#
# Elastic Constant Matrix: (Units=GPa)
#
#
# Indices 1 2 3 4 5 6 
#
# 1 100.9167 24.7499 37.1703 0.0000 0.0000 0.0000
# 2 24.7499 113.5355 45.8642 0.0000 0.0000 0.0000
# 3 37.1703 45.8642 100.0696 0.0000 0.0000 0.0000
# 4 0.0000 0.0000 0.0000 42.0931 0.0000 0.0000
# 5 0.0000 0.0000 0.0000 0.0000 18.0412 0.0000
# 6 0.0000 0.0000 0.0000 0.0000 0.0000 24.3645
#
#
#
# Elastic Compliance Matrix: (Units=1/GPa)
#
#
# Indices 1 2 3 4 5 6 
#
# 1 0.011565 -0.000964 -0.003854 0.000000 0.000000 0.000000
# 2 -0.000964 0.010889 -0.004633 0.000000 0.000000 0.000000
# 3 -0.003854 -0.004633 0.013548 0.000000 0.000000 0.000000
# 4 0.000000 0.000000 0.000000 0.023757 0.000000 0.000000
# 5 0.000000 0.000000 0.000000 0.000000 0.055429 0.000000
# 6 0.000000 0.000000 0.000000 0.000000 0.000000 0.041043
#
#
# Mechanical properties :
#
#
# Convention : Reuss Voigt Hill
#
# Bulk Modulus (GPa) = 58.47712 58.89895 58.68804
# Shear Modulus (GPa) = 27.64979 30.68225 29.16602
#
# Velocity S-wave (km/s) = 3.59594 3.78800 3.69322
# Velocity P-wave (km/s) = 6.67748 6.83205 6.75520
#
# Compressibility (1/GPa) = 0.01710071
#
# Stress axis : x y z
#
# Youngs Moduli (GPa) = 86.46685 91.83179 73.81268
#
# Poissons Ratio (x) = 0.08855 0.28446
# Poissons Ratio (y) = 0.08338 0.34195
# Poissons Ratio (z) = 0.33323 0.42543
#
# Static dielectric constant tensor:
#      x y z
#    x 3.733650 0.000000 0.000000 
#    y 0.000000 3.982020 0.000000 
#    z 0.000000 0.000000 3.908280 
# 
# 
# High freq. dielectric constant tensor:
#      x y z
#    x 1.839560 0.000000 0.000000 
#    y 0.000000 1.852810 0.000000 
#    z 0.000000 0.000000 1.841850 
# 
# From -- ./inp_files/3211.got.cif
#   From: 2010.03.12/outbox.cif.g09.slc.cpg/sg33_2_cif.got.tgz:3211.got - 2010.04.14 01:49:19.
