data_PCOD8171823
_publ_section_title
;
Structure prediction by ZEFSAII (Michael W. Deem and Ramdas Pophale) SiO2 
 PCOD8171823
Probable space group: P N N 2
;
_chemical_formula_sum "Si O2"
_cell_formula_units_Z 30
_cell_length_a 11.632682
_cell_length_b 15.066930
_cell_length_c 9.334674
_cell_angle_alpha 90.000000
_cell_angle_beta 90.000000
_cell_angle_gamma 90.000000
_cell_volume 1636.077161
_symmetry_space_group_name_H-M "P N N 2"
_symmetry_group_IT_number 34
_symmetry_cell_setting 'orthorhombic'
loop_
_space_group_symop_operation_xyz
x,y,z
-x,-y,z
1/2-x,1/2+y,1/2+z
1/2+x,1/2-y,1/2+z
loop_
_atom_site_type_symbol
_atom_site_label
_atom_site_fract_x
_atom_site_fract_y
_atom_site_fract_z
Si Si1 0.071646 0.818250 0.720620
Si Si2 0.797824 0.952023 0.468911
Si Si3 0.265101 0.736302 0.906581
Si Si4 0.810783 0.776582 0.733359
Si Si5 0.601139 0.122090 0.741576
Si Si6 0.738690 0.645674 0.976056
Si Si7 0.500000 0.500000 0.165342
Si Si8 0.654295 0.929234 0.727842
O O1 0.144561 0.766832 0.839636
O O2 0.131166 0.812331 0.563619
O O3 0.947507 0.774043 0.720958
O O4 0.065033 0.924509 0.759137
O O5 0.795987 0.866797 0.361713
O O6 0.681076 0.945318 0.560982
O O7 0.797066 0.050847 0.403448
O O8 0.910209 0.943078 0.570220
O O9 0.364845 0.800815 0.851304
O O10 0.255649 0.742173 0.078105
O O11 0.771383 0.702006 0.840694
O O12 0.758363 0.869917 0.793924
O O13 0.654463 0.139978 0.585177
O O14 0.464200 0.124376 0.734923
O O15 0.645248 0.026299 0.802034
#
# Coordination Sequence:
#
# PCOD8171823 Si02
#       8
#     4   4   4   4   4   4   2   4
#     4  10  21  37  61  86 114 151 203 240 281 349
#     4   9  18  34  57  84 108 150 197 233 277 348
#     4  10  21  36  57  87 117 145 190 244 290 340
#     4  11  22  35  59  87 116 149 191 242 299 338
#     4   9  19  36  59  82 111 149 193 235 283 347
#     4   9  21  37  58  85 111 152 194 235 286 348
#     4  10  16  36  64  82 106 156 206 236 270 346
#     4   9  18  34  57  83 108 148 194 230 276 351
#
# _framework density 18.336544
#
# number of rings (size 3 to 8) (size 9 to 14) (size 15 to 20)
#    0.000    2.400    2.667    0.800    5.600    0.000 
#    0.000    2.667    0.000    0.800    0.000    0.000 
#    0.000    0.000    0.000    0.000    0.000    0.000 
#
# Total GULP energy -371645.152147 kJ/mol
# GULP energy per Si atom -12388.171738 kJ/mol
# Density = 1.829481 g / cm^3
# Si number density = 18.336544 Si / 1000 Ang^3
#
#
#
# Elastic Constant Matrix: (Units=GPa)
#
#
# Indices 1 2 3 4 5 6 
#
# 1 129.3560 55.5373 34.9312 0.0000 0.0000 0.0000
# 2 55.5373 134.1763 57.5021 0.0000 0.0000 0.0000
# 3 34.9312 57.5021 69.6543 0.0000 0.0000 0.0000
# 4 0.0000 0.0000 0.0000 32.7107 0.0000 0.0000
# 5 0.0000 0.0000 0.0000 0.0000 17.5612 0.0000
# 6 0.0000 0.0000 0.0000 0.0000 0.0000 34.4997
#
#
#
# Elastic Compliance Matrix: (Units=1/GPa)
#
#
# Indices 1 2 3 4 5 6 
#
# 1 0.009651 -0.002972 -0.002386 0.000000 0.000000 0.000000
# 2 -0.002972 0.012448 -0.008786 0.000000 0.000000 0.000000
# 3 -0.002386 -0.008786 0.022807 0.000000 0.000000 0.000000
# 4 0.000000 0.000000 0.000000 0.030571 0.000000 0.000000
# 5 0.000000 0.000000 0.000000 0.000000 0.056944 0.000000
# 6 0.000000 0.000000 0.000000 0.000000 0.000000 0.028986
#
#
# Mechanical properties :
#
#
# Convention : Reuss Voigt Hill
#
# Bulk Modulus (GPa) = 60.17963 69.90310 65.04137
# Shear Modulus (GPa) = 25.61021 29.30205 27.45613
#
# Velocity S-wave (km/s) = 3.74127 4.00185 3.87375
# Velocity P-wave (km/s) = 7.18008 7.71739 7.45358
#
# Compressibility (1/GPa) = 0.01661692
#
# Stress axis : x y z
#
# Youngs Moduli (GPa) = 103.61604 80.33186 43.84677
#
# Poissons Ratio (x) = 0.23874 0.10464
# Poissons Ratio (y) = 0.30794 0.38524
# Poissons Ratio (z) = 0.24728 0.70581
#
# Static dielectric constant tensor:
#      x y z
#    x 3.580670 0.000000 0.000000 
#    y 0.000000 3.788890 0.000000 
#    z 0.000000 0.000000 2.890510 
# 
# 
# High freq. dielectric constant tensor:
#      x y z
#    x 1.728660 0.000000 0.000000 
#    y 0.000000 1.729530 0.000000 
#    z 0.000000 0.000000 1.649410 
# 
# From -- ./inp_files/3313.got.cif
#   From: 2010.03.12/outbox.cif.g09.slc.cpg/sg34_2_cif.got.tgz:3313.got - 2010.04.14 01:56:33.
