data_PCOD8171836
_publ_section_title
;
Structure prediction by ZEFSAII (Michael W. Deem and Ramdas Pophale) SiO2 
 PCOD8171836
Probable space group: P N N 2
;
_chemical_formula_sum "Si O2"
_cell_formula_units_Z 32
_cell_length_a 8.881194
_cell_length_b 17.283877
_cell_length_c 10.074657
_cell_angle_alpha 90.000000
_cell_angle_beta 90.000000
_cell_angle_gamma 90.000000
_cell_volume 1546.474606
_symmetry_space_group_name_H-M "P N N 2"
_symmetry_group_IT_number 34
_symmetry_cell_setting 'orthorhombic'
loop_
_space_group_symop_operation_xyz
x,y,z
-x,-y,z
1/2-x,1/2+y,1/2+z
1/2+x,1/2-y,1/2+z
loop_
_atom_site_type_symbol
_atom_site_label
_atom_site_fract_x
_atom_site_fract_y
_atom_site_fract_z
Si Si1 0.011469 0.754846 0.264340
Si Si2 0.250593 0.139193 0.717710
Si Si3 0.826174 0.515417 0.121812
Si Si4 0.783942 0.683057 0.081791
Si Si5 0.222417 0.359393 0.775822
Si Si6 0.484125 0.255258 0.230331
Si Si7 0.252584 0.680544 0.910646
Si Si8 0.676235 0.485766 0.849577
O O1 0.908907 0.742399 0.134299
O O2 0.907466 0.771791 0.392611
O O3 0.117008 0.681340 0.299581
O O4 0.116032 0.828092 0.229353
O O5 0.089468 0.170673 0.767799
O O6 0.275387 0.161753 0.563137
O O7 0.271600 0.046517 0.734036
O O8 0.805251 0.603845 0.168892
O O9 0.000000 0.500000 0.080503
O O10 0.710519 0.504632 0.001699
O O11 0.619531 0.719953 0.106538
O O12 0.807848 0.666513 0.927916
O O13 0.089891 0.318564 0.690613
O O14 0.226419 0.452667 0.761398
O O15 0.384440 0.232070 0.357154
O O16 0.270059 0.601809 0.821538
O O17 0.500000 0.500000 0.823737
#
# Coordination Sequence:
#
# PCOD8171836 Si02
#       8
#     4   4   4   4   4   4   4   4
#     4  10  18  32  50  76 106 144 174 204 268 320
#     4  10  20  34  53  79 111 137 173 219 264 320
#     4  10  20  32  54  80 109 140 166 222 285 318
#     4  10  20  34  53  79 111 137 173 219 264 320
#     4  10  20  34  53  79 111 137 173 219 264 320
#     4  10  22  32  50  84 106 144 178 204 272 320
#     4  10  20  34  53  79 111 137 173 219 264 320
#     4  10  20  32  54  80 109 140 166 222 285 318
#
# _framework density 20.692226000000002
#
# number of rings (size 3 to 8) (size 9 to 14) (size 15 to 20)
#    0.000    2.000    2.500    1.500   10.500    0.000 
#    0.000    0.000    0.000    0.000    0.000  122.500 
#    0.000    0.000    0.000    0.000    0.000    0.000 
#
# Total GULP energy -396529.954100 kJ/mol
# GULP energy per Si atom -12391.561066 kJ/mol
# Density = 2.064513 g / cm^3
# Si number density = 20.692226 Si / 1000 Ang^3
#
#
#
# Elastic Constant Matrix: (Units=GPa)
#
#
# Indices 1 2 3 4 5 6 
#
# 1 105.0064 27.2772 1.7819 0.0000 0.0000 0.0000
# 2 27.2772 120.8848 17.3346 0.0000 0.0000 0.0000
# 3 1.7819 17.3346 14.6290 0.0000 0.0000 0.0000
# 4 0.0000 0.0000 0.0000 27.6758 0.0000 0.0000
# 5 0.0000 0.0000 0.0000 0.0000 27.6971 0.0000
# 6 0.0000 0.0000 0.0000 0.0000 0.0000 29.8357
#
#
#
# Elastic Compliance Matrix: (Units=1/GPa)
#
#
# Indices 1 2 3 4 5 6 
#
# 1 0.010155 -0.002547 0.001781 0.000000 0.000000 0.000000
# 2 -0.002547 0.010604 -0.012255 0.000000 0.000000 0.000000
# 3 0.001781 -0.012255 0.082663 0.000000 0.000000 0.000000
# 4 0.000000 0.000000 0.000000 0.036133 0.000000 0.000000
# 5 0.000000 0.000000 0.000000 0.000000 0.036105 0.000000
# 6 0.000000 0.000000 0.000000 0.000000 0.000000 0.033517
#
#
# Mechanical properties :
#
#
# Convention : Reuss Voigt Hill
#
# Bulk Modulus (GPa) = 12.92342 37.03417 24.97880
# Shear Modulus (GPa) = 19.15624 29.98350 24.56987
#
# Velocity S-wave (km/s) = 3.04595 3.81073 3.44960
# Velocity P-wave (km/s) = 4.31619 6.10727 5.28811
#
# Compressibility (1/GPa) = 0.07737888
#
# Stress axis : x y z
#
# Youngs Moduli (GPa) = 98.47795 94.30048 12.09737
#
# Poissons Ratio (x) = 0.24016 -0.02154
# Poissons Ratio (y) = 0.25079 0.14826
# Poissons Ratio (z) = -0.17537 1.15570
#
# Static dielectric constant tensor:
#      x y z
#    x 4.020640 0.000000 0.000000 
#    y 0.000000 4.418510 0.000000 
#    z 0.000000 0.000000 3.158680 
# 
# 
# High freq. dielectric constant tensor:
#      x y z
#    x 1.834870 0.000000 0.000000 
#    y 0.000000 1.816320 0.000000 
#    z 0.000000 0.000000 1.736580 
# 
# From -- ./inp_files/5177.got.cif
#   From: 2010.03.12/outbox.cif.g09.slc.cpg/sg34_3_cif.got.tgz:5177.got - 2010.04.14 01:56:33.
