data_PCOD8171344
_publ_section_title
;
Structure prediction by ZEFSAII (Michael W. Deem and Ramdas Pophale) SiO2 
 PCOD8171344
Probable space group: P N A 21
;
_chemical_formula_sum "Si O2"
_cell_formula_units_Z 24
_cell_length_a 8.173581
_cell_length_b 13.824008
_cell_length_c 8.442350
_cell_angle_alpha 90.000000
_cell_angle_beta 90.000000
_cell_angle_gamma 90.000000
_cell_volume 953.915049
_symmetry_space_group_name_H-M "P N A 21"
_symmetry_group_IT_number 33
_symmetry_cell_setting 'orthorhombic'
loop_
_space_group_symop_operation_xyz
x,y,z
-x,-y,1/2+z
1/2-x,1/2+y,1/2+z
1/2+x,1/2-y,z
loop_
_atom_site_type_symbol
_atom_site_label
_atom_site_fract_x
_atom_site_fract_y
_atom_site_fract_z
Si Si1 0.092563 0.434378 0.925280
Si Si2 0.904071 0.278600 0.072461
Si Si3 0.595118 0.459658 0.343611
Si Si4 0.760394 0.277442 0.423128
Si Si5 0.551175 0.116709 0.562785
Si Si6 0.892009 0.897545 0.499954
O O1 0.269510 0.482150 0.945016
O O2 0.073378 0.396992 0.748036
O O3 0.067928 0.345264 0.049614
O O4 0.956368 0.515346 0.968580
O O5 0.850410 0.273510 0.253752
O O6 0.765721 0.330614 0.962379
O O7 0.947640 0.171471 0.013047
O O8 0.599579 0.348118 0.405397
O O9 0.638858 0.458997 0.159098
O O10 0.425813 0.518985 0.369126
O O11 0.703174 0.173889 0.485090
O O12 0.885132 0.321981 0.548310
#
# Coordination Sequence:
#
# PCOD8171344 Si02
#       6
#     4   4   4   4   4   4
#     4  11  25  45  68  99 135 181 234 288 348 429
#     4  11  24  43  69  97 132 180 231 282 348 422
#     4  10  24  42  64  94 132 173 222 278 344 411
#     4  10  23  42  65  96 132 178 224 285 355 418
#     4  11  24  43  67  97 135 177 228 288 356 423
#     4  11  24  43  67  97 132 175 223 281 345 413
#
# _framework density 25.159472999999998
#
# number of rings (size 3 to 8) (size 9 to 14) (size 15 to 20)
#    0.000    1.333    0.000    6.000    0.000   14.667 
#    0.000    0.000    0.000    0.000    0.000    0.000 
#    0.000    0.000    0.000    0.000    0.000    0.000 
#
# Total GULP energy -297537.338381 kJ/mol
# GULP energy per Si atom -12397.389099 kJ/mol
# Density = 2.510221 g / cm^3
# Si number density = 25.159473 Si / 1000 Ang^3
#
#
#
# Elastic Constant Matrix: (Units=GPa)
#
#
# Indices 1 2 3 4 5 6 
#
# 1 24.5895 2.1058 4.0023 0.0000 0.0000 0.0000
# 2 2.1058 117.3439 35.0120 0.0000 0.0000 0.0000
# 3 4.0023 35.0120 79.3789 0.0000 0.0000 0.0000
# 4 0.0000 0.0000 0.0000 43.5951 0.0000 0.0000
# 5 0.0000 0.0000 0.0000 0.0000 35.9053 0.0000
# 6 0.0000 0.0000 0.0000 0.0000 0.0000 55.8785
#
#
#
# Elastic Compliance Matrix: (Units=1/GPa)
#
#
# Indices 1 2 3 4 5 6 
#
# 1 0.041006 -0.000137 -0.002007 0.000000 0.000000 0.000000
# 2 -0.000137 0.009814 -0.004322 0.000000 0.000000 0.000000
# 3 -0.002007 -0.004322 0.014605 0.000000 0.000000 0.000000
# 4 0.000000 0.000000 0.000000 0.022938 0.000000 0.000000
# 5 0.000000 0.000000 0.000000 0.000000 0.027851 0.000000
# 6 0.000000 0.000000 0.000000 0.000000 0.000000 0.017896
#
#
# Mechanical properties :
#
#
# Convention : Reuss Voigt Hill
#
# Bulk Modulus (GPa) = 19.04994 33.72805 26.38900
# Shear Modulus (GPa) = 30.38770 39.08859 34.73814
#
# Velocity S-wave (km/s) = 3.47912 3.94589 3.71983
# Velocity P-wave (km/s) = 4.87105 5.84764 5.38154
#
# Compressibility (1/GPa) = 0.05249359
#
# Stress axis : x y z
#
# Youngs Moduli (GPa) = 24.38656 101.89626 68.46863
#
# Poissons Ratio (x) = 0.01396 0.13742
# Poissons Ratio (y) = 0.00334 0.29590
# Poissons Ratio (z) = 0.04895 0.44037
#
# Static dielectric constant tensor:
#      x y z
#    x 4.630460 0.000000 0.000000 
#    y 0.000000 4.991800 0.000000 
#    z 0.000000 0.000000 4.082320 
# 
# 
# High freq. dielectric constant tensor:
#      x y z
#    x 2.003930 0.000000 0.000000 
#    y 0.000000 2.029350 0.000000 
#    z 0.000000 0.000000 1.974210 
# 
# From -- ./inp_files/3192.got.cif
#   From: 2010.03.12/outbox.cif.g09.slc.cpg/sg33_2_cif.got.tgz:3192.got - 2010.04.14 01:49:19.
