data_PCOD8171117
_publ_section_title
;
Structure prediction by ZEFSAII (Michael W. Deem and Ramdas Pophale) SiO2 
 PCOD8171117
Probable space group: P N A 21
;
_chemical_formula_sum "Si O2"
_cell_formula_units_Z 32
_cell_length_a 20.250211
_cell_length_b 8.001353
_cell_length_c 9.228214
_cell_angle_alpha 90.000000
_cell_angle_beta 90.000000
_cell_angle_gamma 90.000000
_cell_volume 1495.239085
_symmetry_space_group_name_H-M "P N A 21"
_symmetry_group_IT_number 33
_symmetry_cell_setting 'orthorhombic'
loop_
_space_group_symop_operation_xyz
x,y,z
-x,-y,1/2+z
1/2-x,1/2+y,1/2+z
1/2+x,1/2-y,z
loop_
_atom_site_type_symbol
_atom_site_label
_atom_site_fract_x
_atom_site_fract_y
_atom_site_fract_z
Si Si1 0.356401 0.946586 0.950860
Si Si2 0.831738 0.745003 0.674854
Si Si3 0.276708 0.011570 0.224358
Si Si4 0.161897 0.772258 0.271630
Si Si5 0.015827 0.848420 0.272364
Si Si6 0.998143 0.529320 0.076606
Si Si7 0.358038 0.076108 0.497375
Si Si8 0.530402 0.341779 0.090375
O O1 0.340832 0.792292 0.846034
O O2 0.330018 0.111954 0.872858
O O3 0.434966 0.956399 0.973910
O O4 0.319956 0.917075 0.103428
O O5 0.763429 0.840090 0.648499
O O6 0.827696 0.582933 0.576926
O O7 0.892314 0.860682 0.625783
O O8 0.326163 0.094113 0.340082
O O9 0.225009 0.887962 0.302258
O O10 0.093219 0.861599 0.312427
O O11 0.159489 0.732997 0.099222
O O12 0.997597 0.668610 0.202634
O O13 0.975093 0.864214 0.418928
O O14 0.993649 0.004283 0.170885
O O15 0.063061 0.559080 0.978222
O O16 0.002417 0.339944 0.142219
#
# Coordination Sequence:
#
# PCOD8171117 Si02
#       8
#     4   4   4   4   4   4   4   4
#     4  11  24  41  68  94 134 181 224 283 345 416
#     4  10  23  42  60  93 135 171 217 282 342 399
#     4  12  22  39  68  95 127 174 226 267 345 418
#     4  10  21  44  59  90 138 167 218 283 339 399
#     4  11  24  43  68 101 136 183 229 288 352 407
#     4  10  24  43  70  99 136 178 233 286 344 405
#     4   9  22  39  65  91 128 174 217 275 333 399
#     4  11  24  43  70  99 138 182 226 288 348 411
#
# _framework density 21.401259
#
# number of rings (size 3 to 8) (size 9 to 14) (size 15 to 20)
#    0.000    1.500    2.500    2.250    5.250    0.000 
#    2.250    0.000    0.000    0.000    0.000    0.000 
#    0.000    0.000    0.000    0.000    0.000    0.000 
#
# Total GULP energy -396821.621392 kJ/mol
# GULP energy per Si atom -12400.675668 kJ/mol
# Density = 2.135255 g / cm^3
# Si number density = 21.401259 Si / 1000 Ang^3
#
#
#
# Elastic Constant Matrix: (Units=GPa)
#
#
# Indices 1 2 3 4 5 6 
#
# 1 107.6466 18.8380 42.2630 0.0000 0.0000 0.0000
# 2 18.8380 96.4907 26.2353 0.0000 0.0000 0.0000
# 3 42.2630 26.2353 114.0836 0.0000 0.0000 0.0000
# 4 0.0000 0.0000 0.0000 26.8530 0.0000 0.0000
# 5 0.0000 0.0000 0.0000 0.0000 37.8380 0.0000
# 6 0.0000 0.0000 0.0000 0.0000 0.0000 23.5409
#
#
#
# Elastic Compliance Matrix: (Units=1/GPa)
#
#
# Indices 1 2 3 4 5 6 
#
# 1 0.010980 -0.001107 -0.003813 0.000000 0.000000 0.000000
# 2 -0.001107 0.011167 -0.002158 0.000000 0.000000 0.000000
# 3 -0.003813 -0.002158 0.010674 0.000000 0.000000 0.000000
# 4 0.000000 0.000000 0.000000 0.037240 0.000000 0.000000
# 5 0.000000 0.000000 0.000000 0.000000 0.026428 0.000000
# 6 0.000000 0.000000 0.000000 0.000000 0.000000 0.042479
#
#
# Mechanical properties :
#
#
# Convention : Reuss Voigt Hill
#
# Bulk Modulus (GPa) = 53.57524 54.76594 54.17059
# Shear Modulus (GPa) = 31.37811 33.03867 32.20839
#
# Velocity S-wave (km/s) = 3.83323 3.93335 3.88361
# Velocity P-wave (km/s) = 6.68428 6.80249 6.74364
#
# Compressibility (1/GPa) = 0.01866534
#
# Stress axis : x y z
#
# Youngs Moduli (GPa) = 91.07070 89.55351 93.68235
#
# Poissons Ratio (x) = 0.09913 0.35723
# Poissons Ratio (y) = 0.10081 0.20215
# Poissons Ratio (z) = 0.34727 0.19324
#
# Static dielectric constant tensor:
#      x y z
#    x 3.823850 0.000000 0.000000 
#    y 0.000000 3.911940 0.000000 
#    z 0.000000 0.000000 3.728680 
# 
# 
# High freq. dielectric constant tensor:
#      x y z
#    x 1.836640 0.000000 0.000000 
#    y 0.000000 1.839090 0.000000 
#    z 0.000000 0.000000 1.834590 
# 
# From -- ./inp_files/4974.got.cif
#   From: 2010.03.12/outbox.cif.g09.slc.cpg/sg33_3_cif.got.tgz:4974.got - 2010.04.14 01:49:19.
