data_PCOD8171774
_publ_section_title
;
Structure prediction by ZEFSAII (Michael W. Deem and Ramdas Pophale) SiO2 
 PCOD8171774
Probable space group: P N A 21
;
_chemical_formula_sum "Si O2"
_cell_formula_units_Z 24
_cell_length_a 24.240873
_cell_length_b 6.814142
_cell_length_c 6.817048
_cell_angle_alpha 90.000000
_cell_angle_beta 90.000000
_cell_angle_gamma 90.000000
_cell_volume 1126.045107
_symmetry_space_group_name_H-M "P N A 21"
_symmetry_group_IT_number 33
_symmetry_cell_setting 'orthorhombic'
loop_
_space_group_symop_operation_xyz
x,y,z
-x,-y,1/2+z
1/2-x,1/2+y,1/2+z
1/2+x,1/2-y,z
loop_
_atom_site_type_symbol
_atom_site_label
_atom_site_fract_x
_atom_site_fract_y
_atom_site_fract_z
Si Si1 0.625258 0.474141 0.718470
Si Si2 0.872197 0.488735 0.719207
Si Si3 0.804544 0.840440 0.865834
Si Si4 0.942726 0.619309 0.368428
Si Si5 0.054309 0.698440 0.543428
Si Si6 0.301168 0.338828 0.543827
O O1 0.673029 0.449358 0.558116
O O2 0.603245 0.262584 0.781268
O O3 0.574016 0.596648 0.633896
O O4 0.650167 0.583445 0.905782
O O5 0.852368 0.705909 0.775183
O O6 0.918788 0.506149 0.555105
O O7 0.820637 0.362574 0.643237
O O8 0.897079 0.381139 0.906978
O O9 0.753004 0.703624 0.917852
O O10 0.785776 0.001508 0.707935
O O11 0.959497 0.458077 0.210268
O O12 0.997855 0.739026 0.425686
#
# Coordination Sequence:
#
# PCOD8171774 Si02
#       6
#     4   4   4   4   4   4
#     4  12  27  46  72 104 144 182 233 292 346 416
#     4  12  25  46  72  98 144 186 231 284 350 414
#     4  12  28  45  71 105 141 185 236 289 348 414
#     4  12  26  45  74 106 140 183 233 288 350 415
#     4  12  26  45  74 106 140 183 233 288 350 415
#     4  12  28  45  71 105 141 185 236 289 348 414
#
# _framework density 21.313534000000001
#
# number of rings (size 3 to 8) (size 9 to 14) (size 15 to 20)
#    0.000    0.000    8.333    1.000    4.667    6.667 
#    0.000    0.000    0.000    0.000    0.000    0.000 
#    0.000    0.000    0.000    0.000    0.000    0.000 
#
# Total GULP energy -297840.921154 kJ/mol
# GULP energy per Si atom -12410.038381 kJ/mol
# Density = 2.126502 g / cm^3
# Si number density = 21.313534 Si / 1000 Ang^3
#
#
#
# Elastic Constant Matrix: (Units=GPa)
#
#
# Indices 1 2 3 4 5 6 
#
# 1 84.6011 12.7035 20.8728 0.0000 0.0000 0.0000
# 2 12.7035 78.3194 27.5766 0.0000 0.0000 0.0000
# 3 20.8728 27.5766 90.8370 0.0000 0.0000 0.0000
# 4 0.0000 0.0000 0.0000 39.7048 0.0000 0.0000
# 5 0.0000 0.0000 0.0000 0.0000 40.6430 0.0000
# 6 0.0000 0.0000 0.0000 0.0000 0.0000 39.5246
#
#
#
# Elastic Compliance Matrix: (Units=1/GPa)
#
#
# Indices 1 2 3 4 5 6 
#
# 1 0.012622 -0.001149 -0.002552 0.000000 0.000000 0.000000
# 2 -0.001149 0.014401 -0.004108 0.000000 0.000000 0.000000
# 3 -0.002552 -0.004108 0.012842 0.000000 0.000000 0.000000
# 4 0.000000 0.000000 0.000000 0.025186 0.000000 0.000000
# 5 0.000000 0.000000 0.000000 0.000000 0.024604 0.000000
# 6 0.000000 0.000000 0.000000 0.000000 0.000000 0.025301
#
#
# Mechanical properties :
#
#
# Convention : Reuss Voigt Hill
#
# Bulk Modulus (GPa) = 41.23959 41.78482 41.51220
# Shear Modulus (GPa) = 36.06047 36.81480 36.43764
#
# Velocity S-wave (km/s) = 4.11774 4.16058 4.13922
# Velocity P-wave (km/s) = 6.48064 6.53667 6.50871
#
# Compressibility (1/GPa) = 0.02424855
#
# Stress axis : x y z
#
# Youngs Moduli (GPa) = 79.22540 69.43966 77.86877
#
# Poissons Ratio (x) = 0.07978 0.19869
# Poissons Ratio (y) = 0.09102 0.31988
# Poissons Ratio (z) = 0.20215 0.28525
#
# Static dielectric constant tensor:
#      x y z
#    x 3.690130 0.000000 0.000000 
#    y 0.000000 3.751140 0.000000 
#    z 0.000000 0.000000 4.034690 
# 
# 
# High freq. dielectric constant tensor:
#      x y z
#    x 1.840330 0.000000 0.000000 
#    y 0.000000 1.839560 0.000000 
#    z 0.000000 0.000000 1.855590 
# 
# From -- ./inp_files/2366.got.cif
#   From: 2010.03.12/outbox.cif.g09.slc.cpg/sg33_2_cif.got.tgz:2366.got - 2010.04.14 01:49:19.
