data_PCOD8171079
_publ_section_title
;
Structure prediction by ZEFSAII (Michael W. Deem and Ramdas Pophale) SiO2 
 PCOD8171079
Probable space group: P N A 21
;
_chemical_formula_sum "Si O2"
_cell_formula_units_Z 32
_cell_length_a 14.889187
_cell_length_b 6.512944
_cell_length_c 14.307925
_cell_angle_alpha 90.000000
_cell_angle_beta 90.000000
_cell_angle_gamma 90.000000
_cell_volume 1387.474415
_symmetry_space_group_name_H-M "P N A 21"
_symmetry_group_IT_number 33
_symmetry_cell_setting 'orthorhombic'
loop_
_space_group_symop_operation_xyz
x,y,z
-x,-y,1/2+z
1/2-x,1/2+y,1/2+z
1/2+x,1/2-y,z
loop_
_atom_site_type_symbol
_atom_site_label
_atom_site_fract_x
_atom_site_fract_y
_atom_site_fract_z
Si Si1 0.326744 0.159781 0.519110
Si Si2 0.000320 0.638464 0.807553
Si Si3 0.959837 0.003633 0.576536
Si Si4 0.743694 0.285045 0.718475
Si Si5 0.351230 0.588661 0.744678
Si Si6 0.803330 0.185338 0.324173
Si Si7 0.989820 0.596798 0.489608
Si Si8 0.437883 0.862858 0.153005
O O1 0.404070 0.332895 0.518347
O O2 0.268265 0.135166 0.613390
O O3 0.269863 0.231760 0.427160
O O4 0.383370 0.950770 0.506309
O O5 0.092381 0.765502 0.811839
O O6 0.987027 0.463949 0.884688
O O7 0.993750 0.504951 0.712728
O O8 0.920708 0.807107 0.817366
O O9 0.893817 0.875157 0.643147
O O10 0.005851 0.840354 0.506390
O O11 0.031554 0.124643 0.641815
O O12 0.717338 0.447479 0.799050
O O13 0.658404 0.136059 0.703013
O O14 0.828638 0.154578 0.758702
O O15 0.255576 0.699286 0.747039
O O16 0.060800 0.469233 0.551938
#
# Coordination Sequence:
#
# PCOD8171079 Si02
#       8
#     4   4   4   4   4   4   4   4
#     4   9  23  41  64  96 136 174 230 292 342 431
#     4  11  24  44  71  99 147 185 241 302 360 431
#     4  10  21  41  67  91 136 181 228 281 358 415
#     4  11  24  41  68  99 138 184 234 291 361 429
#     4  11  23  42  67  98 134 185 234 288 356 428
#     4  11  24  44  67 101 137 184 236 293 358 433
#     4  10  22  43  67  95 133 186 228 289 355 424
#     4  11  23  42  65 103 135 179 235 288 354 429
#
# _framework density 23.063488
#
# number of rings (size 3 to 8) (size 9 to 14) (size 15 to 20)
#    0.000    1.500    2.500    1.500    7.000    0.000 
#    2.250    0.000    0.000    0.000    0.000    0.000 
#    0.000    0.000    0.000    0.000    0.000    0.000 
#
# Total GULP energy -396470.238143 kJ/mol
# GULP energy per Si atom -12389.694942 kJ/mol
# Density = 2.301099 g / cm^3
# Si number density = 23.063488 Si / 1000 Ang^3
#
#
#
# Elastic Constant Matrix: (Units=GPa)
#
#
# Indices 1 2 3 4 5 6 
#
# 1 79.4379 38.4180 26.0952 0.0000 0.0000 0.0000
# 2 38.4180 115.4386 42.3277 0.0000 0.0000 0.0000
# 3 26.0952 42.3277 75.7837 0.0000 0.0000 0.0000
# 4 0.0000 0.0000 0.0000 36.1700 0.0000 0.0000
# 5 0.0000 0.0000 0.0000 0.0000 26.8578 0.0000
# 6 0.0000 0.0000 0.0000 0.0000 0.0000 34.1286
#
#
#
# Elastic Compliance Matrix: (Units=1/GPa)
#
#
# Indices 1 2 3 4 5 6 
#
# 1 0.015562 -0.004042 -0.003101 0.000000 0.000000 0.000000
# 2 -0.004042 0.011943 -0.005279 0.000000 0.000000 0.000000
# 3 -0.003101 -0.005279 0.017212 0.000000 0.000000 0.000000
# 4 0.000000 0.000000 0.000000 0.027647 0.000000 0.000000
# 5 0.000000 0.000000 0.000000 0.000000 0.037233 0.000000
# 6 0.000000 0.000000 0.000000 0.000000 0.000000 0.029301
#
#
# Mechanical properties :
#
#
# Convention : Reuss Voigt Hill
#
# Bulk Modulus (GPa) = 50.31911 53.81577 52.06744
# Shear Modulus (GPa) = 29.34845 30.35255 29.85050
#
# Velocity S-wave (km/s) = 3.57109 3.63167 3.60151
# Velocity P-wave (km/s) = 6.23447 6.40076 6.31816
#
# Compressibility (1/GPa) = 0.01987317
#
# Stress axis : x y z
#
# Youngs Moduli (GPa) = 64.25944 83.72806 58.09994
#
# Poissons Ratio (x) = 0.33843 0.18017
# Poissons Ratio (y) = 0.25974 0.30671
# Poissons Ratio (z) = 0.19927 0.44200
#
# Static dielectric constant tensor:
#      x y z
#    x 4.066630 0.000000 0.000000 
#    y 0.000000 4.243540 0.000000 
#    z 0.000000 0.000000 4.082960 
# 
# 
# High freq. dielectric constant tensor:
#      x y z
#    x 1.896550 0.000000 0.000000 
#    y 0.000000 1.914350 0.000000 
#    z 0.000000 0.000000 1.905910 
# 
# From -- ./inp_files/8264.got.cif
#   From: 2010.03.12/outbox.cif.g09.slc.cpg/sg33_5_cif.got.tgz:8264.got - 2010.04.14 01:49:19.
