data_PCOD8171914
_publ_section_title
;
Structure prediction by ZEFSAII (Michael W. Deem and Ramdas Pophale) SiO2 
 PCOD8171914
Probable space group: P N N 2
;
_chemical_formula_sum "Si O2"
_cell_formula_units_Z 32
_cell_length_a 15.006011
_cell_length_b 8.805415
_cell_length_c 11.608706
_cell_angle_alpha 90.000000
_cell_angle_beta 90.000000
_cell_angle_gamma 90.000000
_cell_volume 1533.906550
_symmetry_space_group_name_H-M "P N N 2"
_symmetry_group_IT_number 34
_symmetry_cell_setting 'orthorhombic'
loop_
_space_group_symop_operation_xyz
x,y,z
-x,-y,z
1/2-x,1/2+y,1/2+z
1/2+x,1/2-y,1/2+z
loop_
_atom_site_type_symbol
_atom_site_label
_atom_site_fract_x
_atom_site_fract_y
_atom_site_fract_z
Si Si1 0.640869 0.880313 0.240620
Si Si2 0.585179 0.917977 0.483552
Si Si3 0.003047 0.181249 0.344558
Si Si4 0.570621 0.631276 0.082741
Si Si5 0.750775 0.968020 0.630822
Si Si6 0.700600 0.182992 0.831817
Si Si7 0.232538 0.376092 0.596138
Si Si8 0.573097 0.627201 0.616917
O O1 0.587019 0.948004 0.347396
O O2 0.576682 0.754601 0.183551
O O3 0.733675 0.814248 0.288697
O O4 0.658159 0.014396 0.149398
O O5 0.672931 0.988579 0.538878
O O6 0.577280 0.738637 0.507760
O O7 0.500000 0.000000 0.537596
O O8 0.100523 0.252463 0.332319
O O9 0.956456 0.222946 0.465906
O O10 0.947325 0.229916 0.231189
O O11 0.000000 0.000000 0.339264
O O12 0.500000 0.500000 0.114757
O O13 0.666895 0.553784 0.071200
O O14 0.776517 0.792141 0.650748
O O15 0.715840 0.037329 0.750654
O O16 0.722931 0.129293 0.959443
O O17 0.329147 0.447291 0.628394
O O18 0.500000 0.500000 0.592381
#
# Coordination Sequence:
#
# PCOD8171914 Si02
#       8
#     4   4   4   4   4   4   4   4
#     4  11  24  42  63  94 138 173 221 271 336 400
#     4  11  24  41  60  92 132 171 213 270 330 393
#     4  10  20  36  70  97 125 166 229 279 328 388
#     4  10  23  41  69  99 130 177 223 272 341 398
#     4  10  23  44  66  93 136 176 220 282 337 393
#     4  11  22  45  66  97 130 177 221 283 328 407
#     4  11  23  42  66  94 135 172 227 273 337 395
#     4  10  21  39  64  92 123 169 218 272 323 387
#
# _framework density 20.861764999999998
#
# number of rings (size 3 to 8) (size 9 to 14) (size 15 to 20)
#    0.000    1.500    2.500    3.750    1.750    5.500 
#    4.500    2.500    0.000    0.000    0.000    0.000 
#    0.000    0.000    0.000    0.000    0.000    0.000 
#
# Total GULP energy -396709.759082 kJ/mol
# GULP energy per Si atom -12397.179971 kJ/mol
# Density = 2.081428 g / cm^3
# Si number density = 20.861765 Si / 1000 Ang^3
#
#
#
# Elastic Constant Matrix: (Units=GPa)
#
#
# Indices 1 2 3 4 5 6 
#
# 1 126.3267 38.8718 53.7850 0.0000 0.0000 0.0000
# 2 38.8718 78.4391 48.2767 0.0000 0.0000 0.0000
# 3 53.7850 48.2767 140.3132 0.0000 0.0000 0.0000
# 4 0.0000 0.0000 0.0000 32.2512 0.0000 0.0000
# 5 0.0000 0.0000 0.0000 0.0000 33.1261 0.0000
# 6 0.0000 0.0000 0.0000 0.0000 0.0000 42.8714
#
#
#
# Elastic Compliance Matrix: (Units=1/GPa)
#
#
# Indices 1 2 3 4 5 6 
#
# 1 0.010101 -0.003327 -0.002727 0.000000 0.000000 0.000000
# 2 -0.003327 0.017270 -0.004666 0.000000 0.000000 0.000000
# 3 -0.002727 -0.004666 0.009778 0.000000 0.000000 0.000000
# 4 0.000000 0.000000 0.000000 0.031007 0.000000 0.000000
# 5 0.000000 0.000000 0.000000 0.000000 0.030188 0.000000
# 6 0.000000 0.000000 0.000000 0.000000 0.000000 0.023326
#
#
# Mechanical properties :
#
#
# Convention : Reuss Voigt Hill
#
# Bulk Modulus (GPa) = 63.66674 69.66067 66.66370
# Shear Modulus (GPa) = 33.70512 35.25945 34.48228
#
# Velocity S-wave (km/s) = 4.02386 4.11560 4.06999
# Velocity P-wave (km/s) = 7.22311 7.48654 7.35600
#
# Compressibility (1/GPa) = 0.01570679
#
# Stress axis : x y z
#
# Youngs Moduli (GPa) = 99.00120 57.90506 102.27220
#
# Poissons Ratio (x) = 0.19266 0.27891
# Poissons Ratio (y) = 0.32940 0.47725
# Poissons Ratio (z) = 0.26999 0.27021
#
# Static dielectric constant tensor:
#      x y z
#    x 3.975420 0.000000 0.000000 
#    y 0.000000 3.697560 0.000000 
#    z 0.000000 0.000000 4.225370 
# 
# 
# High freq. dielectric constant tensor:
#      x y z
#    x 1.829990 0.000000 0.000000 
#    y 0.000000 1.803310 0.000000 
#    z 0.000000 0.000000 1.825420 
# 
# From -- ./inp_files/5670.got.cif
#   From: 2010.03.12/outbox.cif.g09.slc.cpg/sg34_3_cif.got.tgz:5670.got - 2010.04.14 01:56:33.
