data_PCOD8171570
_publ_section_title
;
Structure prediction by ZEFSAII (Michael W. Deem and Ramdas Pophale) SiO2 
 PCOD8171570
Probable space group: P N A 21
;
_chemical_formula_sum "Si O2"
_cell_formula_units_Z 20
_cell_length_a 13.378226
_cell_length_b 11.382353
_cell_length_c 5.478919
_cell_angle_alpha 90.000000
_cell_angle_beta 90.000000
_cell_angle_gamma 90.000000
_cell_volume 834.306176
_symmetry_space_group_name_H-M "P N A 21"
_symmetry_group_IT_number 33
_symmetry_cell_setting 'orthorhombic'
loop_
_space_group_symop_operation_xyz
x,y,z
-x,-y,1/2+z
1/2-x,1/2+y,1/2+z
1/2+x,1/2-y,z
loop_
_atom_site_type_symbol
_atom_site_label
_atom_site_fract_x
_atom_site_fract_y
_atom_site_fract_z
Si Si1 0.946765 0.176232 0.411110
Si Si2 0.939277 0.518919 0.319322
Si Si3 0.113450 0.251974 0.083213
Si Si4 0.109535 0.058093 0.723231
Si Si5 0.720287 0.836934 0.899556
O O1 0.860303 0.253777 0.538845
O O2 0.018395 0.266704 0.263132
O O3 0.007450 0.102954 0.605686
O O4 0.893160 0.082178 0.233212
O O5 0.895186 0.650369 0.370591
O O6 0.844553 0.435811 0.257566
O O7 0.993124 0.477417 0.574137
O O8 0.218525 0.253454 0.226834
O O9 0.111302 0.118349 0.986761
O O10 0.208899 0.096584 0.584953
#
# Coordination Sequence:
#
# PCOD8171570 Si02
#       5
#     4   4   4   4   4
#     4  11  22  46  66 102 142 182 238 297 359 435
#     4  12  27  49  75 106 153 197 242 305 374 431
#     4  11  25  44  71 104 141 192 241 295 368 430
#     4  11  24  42  73  99 139 192 240 299 365 431
#     4  11  26  43  71 107 143 189 245 300 360 441
#
# _framework density 23.972014999999999
#
# number of rings (size 3 to 8) (size 9 to 14) (size 15 to 20)
#    0.000    0.800    4.000    2.400    5.600    3.200 
#    0.000    0.000    0.000    0.000    0.000    0.000 
#    0.000    0.000    0.000    0.000    0.000    0.000 
#
# Total GULP energy -247877.714990 kJ/mol
# GULP energy per Si atom -12393.885749 kJ/mol
# Density = 2.391745 g / cm^3
# Si number density = 23.972015 Si / 1000 Ang^3
#
#
#
# Elastic Constant Matrix: (Units=GPa)
#
#
# Indices 1 2 3 4 5 6 
#
# 1 158.2858 50.5743 31.0885 0.0000 0.0000 0.0000
# 2 50.5743 79.7969 -6.7660 0.0000 0.0000 0.0000
# 3 31.0885 -6.7660 71.2439 0.0000 0.0000 0.0000
# 4 0.0000 0.0000 0.0000 43.0818 0.0000 0.0000
# 5 0.0000 0.0000 0.0000 0.0000 19.5711 0.0000
# 6 0.0000 0.0000 0.0000 0.0000 0.0000 42.9444
#
#
#
# Elastic Compliance Matrix: (Units=1/GPa)
#
#
# Indices 1 2 3 4 5 6 
#
# 1 0.009215 -0.006231 -0.004613 0.000000 0.000000 0.000000
# 2 -0.006231 0.016847 0.004319 0.000000 0.000000 0.000000
# 3 -0.004613 0.004319 0.016459 0.000000 0.000000 0.000000
# 4 0.000000 0.000000 0.000000 0.023212 0.000000 0.000000
# 5 0.000000 0.000000 0.000000 0.000000 0.051096 0.000000
# 6 0.000000 0.000000 0.000000 0.000000 0.000000 0.023286
#
#
# Mechanical properties :
#
#
# Convention : Reuss Voigt Hill
#
# Bulk Modulus (GPa) = 33.93111 51.01335 42.47223
# Shear Modulus (GPa) = 30.67709 36.74811 33.71260
#
# Velocity S-wave (km/s) = 3.58118 3.91955 3.75418
# Velocity P-wave (km/s) = 5.59330 6.46610 6.04547
#
# Compressibility (1/GPa) = 0.02947148
#
# Stress axis : x y z
#
# Youngs Moduli (GPa) = 108.52328 59.35666 60.75589
#
# Poissons Ratio (x) = 0.36986 0.28025
# Poissons Ratio (y) = 0.67623 -0.26241
# Poissons Ratio (z) = 0.50059 -0.25637
#
# Static dielectric constant tensor:
#      x y z
#    x 4.562380 0.000000 0.000000 
#    y 0.000000 4.608980 0.000000 
#    z 0.000000 0.000000 3.992100 
# 
# 
# High freq. dielectric constant tensor:
#      x y z
#    x 1.966830 0.000000 0.000000 
#    y 0.000000 1.969210 0.000000 
#    z 0.000000 0.000000 1.922310 
# 
# From -- ./inp_files/675.got.cif
#   From: 2010.03.12/outbox.cif.g09.slc.cpg/sg33_1_cif.got.tgz:675.got - 2010.04.14 01:49:19.
