data_PCOD8171126
_publ_section_title
;
Structure prediction by ZEFSAII (Michael W. Deem and Ramdas Pophale) SiO2 
 PCOD8171126
Probable space group: P N A 21
;
_chemical_formula_sum "Si O2"
_cell_formula_units_Z 32
_cell_length_a 12.126947
_cell_length_b 13.716692
_cell_length_c 9.101891
_cell_angle_alpha 90.000000
_cell_angle_beta 90.000000
_cell_angle_gamma 90.000000
_cell_volume 1514.023084
_symmetry_space_group_name_H-M "P N A 21"
_symmetry_group_IT_number 33
_symmetry_cell_setting 'orthorhombic'
loop_
_space_group_symop_operation_xyz
x,y,z
-x,-y,1/2+z
1/2-x,1/2+y,1/2+z
1/2+x,1/2-y,z
loop_
_atom_site_type_symbol
_atom_site_label
_atom_site_fract_x
_atom_site_fract_y
_atom_site_fract_z
Si Si1 0.970457 0.098501 0.393770
Si Si2 0.041272 0.921367 0.216202
Si Si3 0.715876 0.684496 0.411544
Si Si4 0.996600 0.590017 0.810894
Si Si5 0.644063 0.007873 0.055151
Si Si6 0.152735 0.257821 0.413397
Si Si7 0.201603 0.161704 0.691781
Si Si8 0.152603 0.758657 0.715516
O O1 0.925303 0.055676 0.547642
O O2 0.868526 0.138277 0.298583
O O3 0.050182 0.186794 0.429410
O O4 0.040911 0.020759 0.305463
O O5 0.136224 0.856958 0.287569
O O6 0.922223 0.871865 0.222479
O O7 0.796951 0.604437 0.488362
O O8 0.768987 0.782369 0.342268
O O9 0.643665 0.726030 0.543153
O O10 0.949871 0.527357 0.676250
O O11 0.891328 0.631462 0.901153
O O12 0.058691 0.681452 0.743633
O O13 0.081165 0.533812 0.914024
O O14 0.727145 0.931849 0.135717
O O15 0.217996 0.244215 0.565908
O O16 0.227093 0.226142 0.273532
#
# Coordination Sequence:
#
# PCOD8171126 Si02
#       8
#     4   4   4   4   4   4   4   4
#     4  10  22  40  68  95 131 174 224 288 354 417
#     4  11  24  42  68 101 134 177 230 292 352 432
#     4  12  27  43  71 101 141 182 244 292 365 436
#     4  11  27  42  75  97 148 183 241 296 372 436
#     4  12  27  50  67 110 145 191 239 311 362 453
#     4  10  21  45  67  93 130 184 231 291 356 427
#     4  11  26  44  71  98 141 183 236 298 362 436
#     4  11  22  44  67  95 134 182 235 292 353 427
#
# _framework density 21.135742
#
# number of rings (size 3 to 8) (size 9 to 14) (size 15 to 20)
#    0.000    1.000    2.500    3.750    8.750    1.000 
#    0.000    0.000    0.000    0.000    0.000    0.000 
#    0.000    0.000    0.000    0.000    0.000    0.000 
#
# Total GULP energy -396557.885917 kJ/mol
# GULP energy per Si atom -12392.433935 kJ/mol
# Density = 2.108764 g / cm^3
# Si number density = 21.135742 Si / 1000 Ang^3
#
#
#
# Elastic Constant Matrix: (Units=GPa)
#
#
# Indices 1 2 3 4 5 6 
#
# 1 63.6622 19.0752 16.7532 0.0000 0.0000 0.0000
# 2 19.0752 78.1719 38.7125 0.0000 0.0000 0.0000
# 3 16.7532 38.7125 130.9584 0.0000 0.0000 0.0000
# 4 0.0000 0.0000 0.0000 35.9774 0.0000 0.0000
# 5 0.0000 0.0000 0.0000 0.0000 40.3424 0.0000
# 6 0.0000 0.0000 0.0000 0.0000 0.0000 19.5818
#
#
#
# Elastic Compliance Matrix: (Units=1/GPa)
#
#
# Indices 1 2 3 4 5 6 
#
# 1 0.017085 -0.003616 -0.001117 0.000000 0.000000 0.000000
# 2 -0.003616 0.015752 -0.004194 0.000000 0.000000 0.000000
# 3 -0.001117 -0.004194 0.009019 0.000000 0.000000 0.000000
# 4 0.000000 0.000000 0.000000 0.027795 0.000000 0.000000
# 5 0.000000 0.000000 0.000000 0.000000 0.024788 0.000000
# 6 0.000000 0.000000 0.000000 0.000000 0.000000 0.051068
#
#
# Mechanical properties :
#
#
# Convention : Reuss Voigt Hill
#
# Bulk Modulus (GPa) = 41.66255 46.87493 44.26874
# Shear Modulus (GPa) = 29.17834 32.39708 30.78771
#
# Velocity S-wave (km/s) = 3.71957 3.91936 3.82077
# Velocity P-wave (km/s) = 6.18074 6.53514 6.36041
#
# Compressibility (1/GPa) = 0.02400237
#
# Stress axis : x y z
#
# Youngs Moduli (GPa) = 58.52993 63.48601 110.88230
#
# Poissons Ratio (x) = 0.22957 0.12383
# Poissons Ratio (y) = 0.21165 0.46501
# Poissons Ratio (z) = 0.06536 0.26624
#
# Static dielectric constant tensor:
#      x y z
#    x 3.867010 0.000000 0.000000 
#    y 0.000000 3.952440 0.000000 
#    z 0.000000 0.000000 4.267750 
# 
# 
# High freq. dielectric constant tensor:
#      x y z
#    x 1.832660 0.000000 0.000000 
#    y 0.000000 1.826750 0.000000 
#    z 0.000000 0.000000 1.845560 
# 
# From -- ./inp_files/3997.got.cif
#   From: 2010.03.12/outbox.cif.g09.slc.cpg/sg33_2_cif.got.tgz:3997.got - 2010.04.14 01:49:19.
