data_PCOD8171082
_publ_section_title
;
Structure prediction by ZEFSAII (Michael W. Deem and Ramdas Pophale) SiO2 
 PCOD8171082
Probable space group: P N A 21
;
_chemical_formula_sum "Si O2"
_cell_formula_units_Z 32
_cell_length_a 9.269511
_cell_length_b 11.176964
_cell_length_c 13.543057
_cell_angle_alpha 90.000000
_cell_angle_beta 90.000000
_cell_angle_gamma 90.000000
_cell_volume 1403.128295
_symmetry_space_group_name_H-M "P N A 21"
_symmetry_group_IT_number 33
_symmetry_cell_setting 'orthorhombic'
loop_
_space_group_symop_operation_xyz
x,y,z
-x,-y,1/2+z
1/2-x,1/2+y,1/2+z
1/2+x,1/2-y,z
loop_
_atom_site_type_symbol
_atom_site_label
_atom_site_fract_x
_atom_site_fract_y
_atom_site_fract_z
Si Si1 0.838695 0.776131 0.827540
Si Si2 0.844946 0.891011 0.468602
Si Si3 0.887248 0.157817 0.446979
Si Si4 0.530590 0.642196 0.168267
Si Si5 0.582156 0.601981 0.614189
Si Si6 0.128670 0.459044 0.201228
Si Si7 0.154509 0.645224 0.658508
Si Si8 0.250681 0.202676 0.768842
O O1 0.980126 0.837013 0.871103
O O2 0.728401 0.758230 0.918399
O O3 0.864637 0.644893 0.782329
O O4 0.767075 0.867051 0.748211
O O5 0.739797 0.853478 0.556636
O O6 0.813203 0.799144 0.379860
O O7 0.013159 0.882460 0.504651
O O8 0.816697 0.026506 0.434608
O O9 0.931014 0.185864 0.558836
O O10 0.512520 0.498134 0.172040
O O11 0.654100 0.679473 0.246809
O O12 0.381672 0.706560 0.193695
O O13 0.751025 0.562782 0.614803
O O14 0.567870 0.728017 0.671586
O O15 0.149585 0.586589 0.252220
O O16 0.966741 0.458339 0.155885
#
# Coordination Sequence:
#
# PCOD8171082 Si02
#       8
#     4   4   4   4   4   4   4   4
#     4  11  21  40  70 102 139 176 236 294 352 423
#     4  11  25  41  68 101 143 184 235 297 360 426
#     4  11  23  42  69 102 137 186 242 287 354 427
#     4  10  24  44  67  94 140 189 231 289 349 424
#     4   9  21  42  69  99 133 182 229 288 350 421
#     4  10  21  41  67  98 138 177 227 292 347 422
#     4  11  23  41  70 106 137 179 232 296 363 417
#     4  11  24  45  64  96 141 187 232 285 359 420
#
# _framework density 22.806183999999998
#
# number of rings (size 3 to 8) (size 9 to 14) (size 15 to 20)
#    0.000    1.500    2.500    2.250    3.500    4.000 
#    0.000    2.500    0.000    0.000    0.000    0.000 
#    0.000    0.000    0.000    0.000    0.000    0.000 
#
# Total GULP energy -396748.207261 kJ/mol
# GULP energy per Si atom -12398.381477 kJ/mol
# Density = 2.275428 g / cm^3
# Si number density = 22.806184 Si / 1000 Ang^3
#
#
#
# Elastic Constant Matrix: (Units=GPa)
#
#
# Indices 1 2 3 4 5 6 
#
# 1 78.0168 38.1639 38.3974 0.0000 0.0000 0.0000
# 2 38.1639 70.9711 32.4821 0.0000 0.0000 0.0000
# 3 38.3974 32.4821 119.2804 0.0000 0.0000 0.0000
# 4 0.0000 0.0000 0.0000 24.2023 0.0000 0.0000
# 5 0.0000 0.0000 0.0000 0.0000 43.9078 0.0000
# 6 0.0000 0.0000 0.0000 0.0000 0.0000 38.7641
#
#
#
# Elastic Compliance Matrix: (Units=1/GPa)
#
#
# Indices 1 2 3 4 5 6 
#
# 1 0.018762 -0.008368 -0.003761 0.000000 0.000000 0.000000
# 2 -0.008368 0.019828 -0.002706 0.000000 0.000000 0.000000
# 3 -0.003761 -0.002706 0.010331 0.000000 0.000000 0.000000
# 4 0.000000 0.000000 0.000000 0.041318 0.000000 0.000000
# 5 0.000000 0.000000 0.000000 0.000000 0.022775 0.000000
# 6 0.000000 0.000000 0.000000 0.000000 0.000000 0.025797
#
#
# Mechanical properties :
#
#
# Convention : Reuss Voigt Hill
#
# Bulk Modulus (GPa) = 51.94203 54.03944 52.99073
# Shear Modulus (GPa) = 28.58795 31.98984 30.28890
#
# Velocity S-wave (km/s) = 3.54435 3.74930 3.64826
# Velocity P-wave (km/s) = 6.29084 6.51840 6.40563
#
# Compressibility (1/GPa) = 0.01925223
#
# Stress axis : x y z
#
# Youngs Moduli (GPa) = 53.29890 50.43284 96.79433
#
# Poissons Ratio (x) = 0.42201 0.36404
# Poissons Ratio (y) = 0.44599 0.26192
# Poissons Ratio (z) = 0.20046 0.13647
#
# Static dielectric constant tensor:
#      x y z
#    x 4.348190 0.000000 0.000000 
#    y 0.000000 4.007350 0.000000 
#    z 0.000000 0.000000 4.030300 
# 
# 
# High freq. dielectric constant tensor:
#      x y z
#    x 1.912560 0.000000 0.000000 
#    y 0.000000 1.884300 0.000000 
#    z 0.000000 0.000000 1.891350 
# 
# From -- ./inp_files/7653.got.cif
#   From: 2010.03.12/outbox.cif.g09.slc.cpg/sg33_4_cif.got.tgz:7653.got - 2010.04.14 01:49:19.
