data_PCOD8171797
_publ_section_title
;
Structure prediction by ZEFSAII (Michael W. Deem and Ramdas Pophale) SiO2 
 PCOD8171797
Probable space group: P N A 21
;
_chemical_formula_sum "Si O2"
_cell_formula_units_Z 16
_cell_length_a 12.492640
_cell_length_b 10.889297
_cell_length_c 4.722796
_cell_angle_alpha 90.000000
_cell_angle_beta 90.000000
_cell_angle_gamma 90.000000
_cell_volume 642.470594
_symmetry_space_group_name_H-M "P N A 21"
_symmetry_group_IT_number 33
_symmetry_cell_setting 'orthorhombic'
loop_
_space_group_symop_operation_xyz
x,y,z
-x,-y,1/2+z
1/2-x,1/2+y,1/2+z
1/2+x,1/2-y,z
loop_
_atom_site_type_symbol
_atom_site_label
_atom_site_fract_x
_atom_site_fract_y
_atom_site_fract_z
Si Si1 0.166625 0.258217 0.046910
Si Si2 0.310129 0.245522 0.523176
Si Si3 0.487915 0.418394 0.272987
Si Si4 0.071331 0.507850 0.101950
O O1 0.259971 0.195892 0.231431
O O2 0.059219 0.178324 0.093125
O O3 0.148418 0.394342 0.174220
O O4 0.209114 0.275841 0.727170
O O5 0.387044 0.359128 0.438196
O O6 0.375391 0.137643 0.673679
O O7 0.553130 0.488053 0.525601
O O8 0.960793 0.499490 0.273723
#
# Coordination Sequence:
#
# PCOD8171797 Si02
#       4
#     4   4   4   4
#     4  12  28  48  76 110 147 202 254 309 381 454
#     4  12  28  48  76 110 147 202 254 309 381 454
#     4  12  28  50  76 112 160 200 250 322 386 452
#     4  12  26  50  74 104 150 198 254 312 370 448
#
# _framework density 24.903862
#
# number of rings (size 3 to 8) (size 9 to 14) (size 15 to 20)
#    0.000    0.000    2.500    6.000   14.000    0.000 
#    0.000    0.000    0.000    0.000    0.000    0.000 
#    0.000    0.000    0.000    0.000    0.000    0.000 
#
# Total GULP energy -198325.166877 kJ/mol
# GULP energy per Si atom -12395.322930 kJ/mol
# Density = 2.484718 g / cm^3
# Si number density = 24.903862 Si / 1000 Ang^3
#
#
#
# Elastic Constant Matrix: (Units=GPa)
#
#
# Indices 1 2 3 4 5 6 
#
# 1 103.1382 40.6631 45.8654 0.0000 0.0000 0.0000
# 2 40.6631 107.0305 42.2013 0.0000 0.0000 0.0000
# 3 45.8654 42.2013 131.7344 0.0000 0.0000 0.0000
# 4 0.0000 0.0000 0.0000 42.1721 0.0000 0.0000
# 5 0.0000 0.0000 0.0000 0.0000 55.4554 0.0000
# 6 0.0000 0.0000 0.0000 0.0000 0.0000 30.1517
#
#
#
# Elastic Compliance Matrix: (Units=1/GPa)
#
#
# Indices 1 2 3 4 5 6 
#
# 1 0.012507 -0.003473 -0.003242 0.000000 0.000000 0.000000
# 2 -0.003473 0.011659 -0.002526 0.000000 0.000000 0.000000
# 3 -0.003242 -0.002526 0.009529 0.000000 0.000000 0.000000
# 4 0.000000 0.000000 0.000000 0.023712 0.000000 0.000000
# 5 0.000000 0.000000 0.000000 0.000000 0.018033 0.000000
# 6 0.000000 0.000000 0.000000 0.000000 0.000000 0.033166
#
#
# Mechanical properties :
#
#
# Convention : Reuss Voigt Hill
#
# Bulk Modulus (GPa) = 65.73420 66.59585 66.16502
# Shear Modulus (GPa) = 37.83390 39.76740 38.80065
#
# Velocity S-wave (km/s) = 3.90192 4.00038 3.95145
# Velocity P-wave (km/s) = 6.83757 6.93805 6.88800
#
# Compressibility (1/GPa) = 0.01521278
#
# Stress axis : x y z
#
# Youngs Moduli (GPa) = 79.95704 85.77410 104.94570
#
# Poissons Ratio (x) = 0.29793 0.34020
# Poissons Ratio (y) = 0.27772 0.26504
# Poissons Ratio (z) = 0.25920 0.21662
#
# Static dielectric constant tensor:
#      x y z
#    x 4.160980 0.000000 0.000000 
#    y 0.000000 4.431480 0.000000 
#    z 0.000000 0.000000 4.437420 
# 
# 
# High freq. dielectric constant tensor:
#      x y z
#    x 1.981900 0.000000 0.000000 
#    y 0.000000 1.994160 0.000000 
#    z 0.000000 0.000000 2.013360 
# 
# From -- ./inp_files/643.got.cif
#   From: 2010.03.12/outbox.cif.g09.slc.cpg/sg33_1_cif.got.tgz:643.got - 2010.04.14 01:49:19.
