data_PCOD8171627
_publ_section_title
;
Structure prediction by ZEFSAII (Michael W. Deem and Ramdas Pophale) SiO2 
 PCOD8171627
Probable space group: P N A 21
;
_chemical_formula_sum "Si O2"
_cell_formula_units_Z 24
_cell_length_a 12.181617
_cell_length_b 15.201313
_cell_length_c 5.038837
_cell_angle_alpha 90.000000
_cell_angle_beta 90.000000
_cell_angle_gamma 90.000000
_cell_volume 933.074567
_symmetry_space_group_name_H-M "P N A 21"
_symmetry_group_IT_number 33
_symmetry_cell_setting 'orthorhombic'
loop_
_space_group_symop_operation_xyz
x,y,z
-x,-y,1/2+z
1/2-x,1/2+y,1/2+z
1/2+x,1/2-y,z
loop_
_atom_site_type_symbol
_atom_site_label
_atom_site_fract_x
_atom_site_fract_y
_atom_site_fract_z
Si Si1 0.749024 0.067548 0.968860
Si Si2 0.402043 0.728207 0.644651
Si Si3 0.004630 0.607484 0.546627
Si Si4 0.233737 0.269371 0.641903
Si Si5 0.973786 0.055319 0.175984
Si Si6 0.358778 0.100133 0.539297
O O1 0.624824 0.086785 0.054036
O O2 0.773400 0.130042 0.710666
O O3 0.748061 0.959815 0.956068
O O4 0.846381 0.088084 0.180213
O O5 0.505708 0.785506 0.539434
O O6 0.311889 0.722914 0.410130
O O7 0.443748 0.634014 0.735382
O O8 0.354157 0.776454 0.906665
O O9 0.052648 0.573194 0.820327
O O10 0.079879 0.570883 0.309273
O O11 0.329295 0.203466 0.540305
O O12 0.999136 0.978825 0.381832
#
# Coordination Sequence:
#
# PCOD8171627 Si02
#       6
#     4   4   4   4   4   4
#     4  11  26  46  72 104 143 190 242 294 359 431
#     4  11  23  46  68 101 141 184 238 295 359 434
#     4  11  25  43  68 100 137 185 238 298 359 424
#     4  11  25  44  72 104 140 187 235 294 362 433
#     4  12  27  45  71 104 143 190 239 296 359 429
#     4  12  24  44  69 103 142 184 236 299 360 427
#
# _framework density 25.721416999999999
#
# number of rings (size 3 to 8) (size 9 to 14) (size 15 to 20)
#    0.000    0.667    0.000    8.000    0.000   10.667 
#    0.000    0.000    0.000    0.000    0.000    0.000 
#    0.000    0.000    0.000    0.000    0.000    0.000 
#
# Total GULP energy -297318.603968 kJ/mol
# GULP energy per Si atom -12388.275165 kJ/mol
# Density = 2.566287 g / cm^3
# Si number density = 25.721417 Si / 1000 Ang^3
#
#
#
# Elastic Constant Matrix: (Units=GPa)
#
#
# Indices 1 2 3 4 5 6 
#
# 1 78.9385 31.0061 31.8040 0.0000 0.0000 0.0000
# 2 31.0061 109.7669 30.0319 0.0000 0.0000 0.0000
# 3 31.8040 30.0319 132.4474 0.0000 0.0000 0.0000
# 4 0.0000 0.0000 0.0000 29.2484 0.0000 0.0000
# 5 0.0000 0.0000 0.0000 0.0000 34.2621 0.0000
# 6 0.0000 0.0000 0.0000 0.0000 0.0000 46.2162
#
#
#
# Elastic Compliance Matrix: (Units=1/GPa)
#
#
# Indices 1 2 3 4 5 6 
#
# 1 0.015197 -0.003512 -0.002853 0.000000 0.000000 0.000000
# 2 -0.003512 0.010524 -0.001543 0.000000 0.000000 0.000000
# 3 -0.002853 -0.001543 0.008585 0.000000 0.000000 0.000000
# 4 0.000000 0.000000 0.000000 0.034190 0.000000 0.000000
# 5 0.000000 0.000000 0.000000 0.000000 0.029187 0.000000
# 6 0.000000 0.000000 0.000000 0.000000 0.000000 0.021637
#
#
# Mechanical properties :
#
#
# Convention : Reuss Voigt Hill
#
# Bulk Modulus (GPa) = 54.08182 56.31521 55.19851
# Shear Modulus (GPa) = 35.38564 37.16607 36.27585
#
# Velocity S-wave (km/s) = 3.71310 3.80537 3.75952
# Velocity P-wave (km/s) = 6.28128 6.42258 6.35233
#
# Compressibility (1/GPa) = 0.01849050
#
# Stress axis : x y z
#
# Youngs Moduli (GPa) = 65.80228 95.01653 116.48126
#
# Poissons Ratio (x) = 0.33372 0.33230
# Poissons Ratio (y) = 0.23111 0.17973
# Poissons Ratio (z) = 0.18772 0.14661
#
# Static dielectric constant tensor:
#      x y z
#    x 4.579160 0.000000 0.000000 
#    y 0.000000 5.566160 0.000000 
#    z 0.000000 0.000000 4.489710 
# 
# 
# High freq. dielectric constant tensor:
#      x y z
#    x 2.026410 0.000000 0.000000 
#    y 0.000000 2.050530 0.000000 
#    z 0.000000 0.000000 2.023800 
# 
# From -- ./inp_files/850.got.cif
#   From: 2010.03.12/outbox.cif.g09.slc.cpg/sg33_1_cif.got.tgz:850.got - 2010.04.14 01:49:19.
