data_PCOD8171611
_publ_section_title
;
Structure prediction by ZEFSAII (Michael W. Deem and Ramdas Pophale) SiO2 
 PCOD8171611
Probable space group: P N A 21
;
_chemical_formula_sum "Si O2"
_cell_formula_units_Z 32
_cell_length_a 8.711098
_cell_length_b 11.677519
_cell_length_c 14.078750
_cell_angle_alpha 90.000000
_cell_angle_beta 90.000000
_cell_angle_gamma 90.000000
_cell_volume 1432.146940
_symmetry_space_group_name_H-M "P N A 21"
_symmetry_group_IT_number 33
_symmetry_cell_setting 'orthorhombic'
loop_
_space_group_symop_operation_xyz
x,y,z
-x,-y,1/2+z
1/2-x,1/2+y,1/2+z
1/2+x,1/2-y,z
loop_
_atom_site_type_symbol
_atom_site_label
_atom_site_fract_x
_atom_site_fract_y
_atom_site_fract_z
Si Si1 0.981440 0.860823 0.586770
Si Si2 0.765991 0.129608 0.817187
Si Si3 0.573709 0.764251 0.904865
Si Si4 0.855355 0.099036 0.564768
Si Si5 0.680327 0.149055 0.027800
Si Si6 0.982207 0.264915 0.716101
Si Si7 0.005303 0.433554 0.567657
Si Si8 0.831655 0.868683 0.787942
O O1 0.904288 0.769505 0.516862
O O2 0.903619 0.832329 0.687874
O O3 0.165350 0.845311 0.591008
O O4 0.944847 0.982841 0.539492
O O5 0.900639 0.225924 0.813913
O O6 0.649210 0.191915 0.745144
O O7 0.820688 0.005788 0.780832
O O8 0.713778 0.106584 0.922544
O O9 0.666983 0.811221 0.813029
O O10 0.438102 0.681064 0.871095
O O11 0.669820 0.682144 0.974886
O O12 0.516175 0.874448 0.964643
O O13 0.963620 0.154328 0.646745
O O14 0.684107 0.065259 0.597699
O O15 0.559341 0.060912 0.072251
O O16 0.911431 0.367012 0.651332
#
# Coordination Sequence:
#
# PCOD8171611 Si02
#       8
#     4   4   4   4   4   4   4   4
#     4  12  26  46  72 102 150 193 245 307 377 440
#     4  12  25  46  70 107 149 187 251 301 368 442
#     4  11  24  42  75 102 147 186 244 301 363 440
#     4  11  23  44  72 107 139 188 240 304 374 438
#     4  12  27  47  70 104 147 200 239 309 379 440
#     4  11  24  42  72 105 140 184 238 303 355 442
#     4  11  23  44  73 105 140 190 245 300 378 437
#     4  12  24  47  70 110 146 196 250 305 366 441
#
# _framework density 22.344076999999999
#
# number of rings (size 3 to 8) (size 9 to 14) (size 15 to 20)
#    0.000    0.500    5.000    3.000    1.750    1.000 
#    0.000    2.500    0.000    0.000    0.000    0.000 
#    0.000    0.000    0.000    0.000    0.000    0.000 
#
# Total GULP energy -396491.542244 kJ/mol
# GULP energy per Si atom -12390.360695 kJ/mol
# Density = 2.229322 g / cm^3
# Si number density = 22.344077 Si / 1000 Ang^3
#
#
#
# Elastic Constant Matrix: (Units=GPa)
#
#
# Indices 1 2 3 4 5 6 
#
# 1 108.1020 53.8228 20.4520 0.0000 0.0000 0.0000
# 2 53.8228 117.9161 26.6576 0.0000 0.0000 0.0000
# 3 20.4520 26.6576 59.3746 0.0000 0.0000 0.0000
# 4 0.0000 0.0000 0.0000 37.1125 0.0000 0.0000
# 5 0.0000 0.0000 0.0000 0.0000 33.5815 0.0000
# 6 0.0000 0.0000 0.0000 0.0000 0.0000 39.8427
#
#
#
# Elastic Compliance Matrix: (Units=1/GPa)
#
#
# Indices 1 2 3 4 5 6 
#
# 1 0.012158 -0.005123 -0.001888 0.000000 0.000000 0.000000
# 2 -0.005123 0.011597 -0.003442 0.000000 0.000000 0.000000
# 3 -0.001888 -0.003442 0.019038 0.000000 0.000000 0.000000
# 4 0.000000 0.000000 0.000000 0.026945 0.000000 0.000000
# 5 0.000000 0.000000 0.000000 0.000000 0.029778 0.000000
# 6 0.000000 0.000000 0.000000 0.000000 0.000000 0.025099
#
#
# Mechanical properties :
#
#
# Convention : Reuss Voigt Hill
#
# Bulk Modulus (GPa) = 45.68845 54.13972 49.91409
# Shear Modulus (GPa) = 32.71878 34.40468 33.56173
#
# Velocity S-wave (km/s) = 3.83079 3.92824 3.87982
# Velocity P-wave (km/s) = 6.32919 6.69757 6.51598
#
# Compressibility (1/GPa) = 0.02188737
#
# Stress axis : x y z
#
# Youngs Moduli (GPa) = 82.24819 86.22838 52.52652
#
# Poissons Ratio (x) = 0.44173 0.09917
# Poissons Ratio (y) = 0.42134 0.18081
# Poissons Ratio (z) = 0.15528 0.29681
#
# Static dielectric constant tensor:
#      x y z
#    x 4.009260 0.000000 0.000000 
#    y 0.000000 4.090480 0.000000 
#    z 0.000000 0.000000 3.923380 
# 
# 
# High freq. dielectric constant tensor:
#      x y z
#    x 1.874980 0.000000 0.000000 
#    y 0.000000 1.891490 0.000000 
#    z 0.000000 0.000000 1.882370 
# 
# From -- ./inp_files/7671.got.cif
#   From: 2010.03.12/outbox.cif.g09.slc.cpg/sg33_4_cif.got.tgz:7671.got - 2010.04.14 01:49:19.
