data_PCOD8171006
_publ_section_title
;
Structure prediction by ZEFSAII (Michael W. Deem and Ramdas Pophale) SiO2 
 PCOD8171006
Probable space group: P N A 21
;
_chemical_formula_sum "Si O2"
_cell_formula_units_Z 16
_cell_length_a 8.650915
_cell_length_b 13.418682
_cell_length_c 7.457591
_cell_angle_alpha 90.000000
_cell_angle_beta 90.000000
_cell_angle_gamma 90.000000
_cell_volume 865.706079
_symmetry_space_group_name_H-M "P N A 21"
_symmetry_group_IT_number 33
_symmetry_cell_setting 'orthorhombic'
loop_
_space_group_symop_operation_xyz
x,y,z
-x,-y,1/2+z
1/2-x,1/2+y,1/2+z
1/2+x,1/2-y,z
loop_
_atom_site_type_symbol
_atom_site_label
_atom_site_fract_x
_atom_site_fract_y
_atom_site_fract_z
Si Si1 0.811089 0.354928 0.685320
Si Si2 0.325458 0.859776 0.161828
Si Si3 0.334089 0.505215 0.893522
Si Si4 0.176497 0.039072 0.005813
O O1 0.743272 0.248882 0.633115
O O2 0.731335 0.438492 0.563978
O O3 0.773997 0.381176 0.891796
O O4 0.991686 0.354292 0.651564
O O5 0.269638 0.906470 0.352620
O O6 0.261032 0.930493 0.001188
O O7 0.330863 0.575177 0.714256
O O8 0.506897 0.468553 0.924607
#
# Coordination Sequence:
#
# PCOD8171006 Si02
#       4
#     4   4   4   4
#     4  12  20  44  59  86 129 150 206 246 298 356
#     4  10  24  38  63  90 117 164 196 254 290 358
#     4  10  21  39  62  89 119 158 196 246 301 350
#     4  10  21  39  62  89 119 158 196 246 301 350
#
# _framework density 18.482023999999999
#
# number of rings (size 3 to 8) (size 9 to 14) (size 15 to 20)
#    1.500    0.000    2.500    4.500    0.000    0.000 
#    4.500    0.000    0.000    0.000    0.000    0.000 
#    0.000    0.000    0.000    0.000    0.000    0.000 
#
# Total GULP energy -198303.229287 kJ/mol
# GULP energy per Si atom -12393.951830 kJ/mol
# Density = 1.843996 g / cm^3
# Si number density = 18.482024 Si / 1000 Ang^3
#
#
#
# Elastic Constant Matrix: (Units=GPa)
#
#
# Indices 1 2 3 4 5 6 
#
# 1 101.4125 31.5468 5.2636 0.0000 0.0000 0.0000
# 2 31.5468 70.0384 -7.9055 0.0000 0.0000 0.0000
# 3 5.2636 -7.9055 56.0244 0.0000 0.0000 0.0000
# 4 0.0000 0.0000 0.0000 32.4731 0.0000 0.0000
# 5 0.0000 0.0000 0.0000 0.0000 31.0508 0.0000
# 6 0.0000 0.0000 0.0000 0.0000 0.0000 13.6382
#
#
#
# Elastic Compliance Matrix: (Units=1/GPa)
#
#
# Indices 1 2 3 4 5 6 
#
# 1 0.011656 -0.005461 -0.001866 0.000000 0.000000 0.000000
# 2 -0.005461 0.017067 0.002921 0.000000 0.000000 0.000000
# 3 -0.001866 0.002921 0.018437 0.000000 0.000000 0.000000
# 4 0.000000 0.000000 0.000000 0.030795 0.000000 0.000000
# 5 0.000000 0.000000 0.000000 0.000000 0.032205 0.000000
# 6 0.000000 0.000000 0.000000 0.000000 0.000000 0.073324
#
#
# Mechanical properties :
#
#
# Convention : Reuss Voigt Hill
#
# Bulk Modulus (GPa) = 26.07546 31.69833 28.88689
# Shear Modulus (GPa) = 24.38100 28.67045 26.52573
#
# Velocity S-wave (km/s) = 3.63598 3.94288 3.79254
# Velocity P-wave (km/s) = 5.63616 6.15764 5.90266
#
# Compressibility (1/GPa) = 0.03835024
#
# Stress axis : x y z
#
# Youngs Moduli (GPa) = 85.79078 58.59155 54.23909
#
# Poissons Ratio (x) = 0.31996 0.10119
# Poissons Ratio (y) = 0.46849 -0.15845
# Poissons Ratio (z) = 0.16006 -0.17117
#
# Static dielectric constant tensor:
#      x y z
#    x 3.505850 0.000000 0.000000 
#    y 0.000000 3.061270 0.000000 
#    z 0.000000 0.000000 3.342010 
# 
# 
# High freq. dielectric constant tensor:
#      x y z
#    x 1.738330 0.000000 0.000000 
#    y 0.000000 1.700310 0.000000 
#    z 0.000000 0.000000 1.709610 
# 
# From -- ./inp_files/2895.got.cif
#   From: 2010.03.12/outbox.cif.g09.slc.cpg/sg33_2_cif.got.tgz:2895.got - 2010.04.14 01:49:19.
