data_PCOD8171287
_publ_section_title
;
Structure prediction by ZEFSAII (Michael W. Deem and Ramdas Pophale) SiO2 
 PCOD8171287
Probable space group: P N A 21
;
_chemical_formula_sum "Si O2"
_cell_formula_units_Z 28
_cell_length_a 15.070990
_cell_length_b 5.190914
_cell_length_c 17.000340
_cell_angle_alpha 90.000000
_cell_angle_beta 90.000000
_cell_angle_gamma 90.000000
_cell_volume 1329.974220
_symmetry_space_group_name_H-M "P N A 21"
_symmetry_group_IT_number 33
_symmetry_cell_setting 'orthorhombic'
loop_
_space_group_symop_operation_xyz
x,y,z
-x,-y,1/2+z
1/2-x,1/2+y,1/2+z
1/2+x,1/2-y,z
loop_
_atom_site_type_symbol
_atom_site_label
_atom_site_fract_x
_atom_site_fract_y
_atom_site_fract_z
Si Si1 0.138521 0.974179 0.960160
Si Si2 0.915254 0.715608 0.606977
Si Si3 0.559388 0.712498 0.739826
Si Si4 0.811034 0.635491 0.033871
Si Si5 0.281300 0.369195 0.132931
Si Si6 0.054090 0.274489 0.840329
Si Si7 0.002638 0.419060 0.472554
O O1 0.063768 0.777440 0.928050
O O2 0.141745 0.202317 0.894068
O O3 0.234812 0.844580 0.967404
O O4 0.107859 0.053785 0.047708
O O5 0.823838 0.644302 0.652421
O O6 0.990494 0.789989 0.668396
O O7 0.954163 0.485620 0.554479
O O8 0.659720 0.654869 0.711206
O O9 0.524183 0.479550 0.793725
O O10 0.566049 0.990045 0.780741
O O11 0.811696 0.349097 0.070878
O O12 0.798125 0.847074 0.100210
O O13 0.902343 0.700390 0.990407
O O14 0.983306 0.347903 0.909590
#
# Coordination Sequence:
#
# PCOD8171287 Si02
#       7
#     4   4   4   4   4   4   4
#     4  10  22  45  67  97 131 169 225 269 323 380
#     4  10  23  40  73  96 127 169 222 276 313 388
#     4  12  24  44  64  95 137 175 213 268 337 383
#     4  11  23  38  73  98 123 162 224 273 320 378
#     4  11  23  41  65 104 122 167 215 275 328 375
#     4  11  26  43  62  91 139 181 207 268 328 394
#     4  11  21  45  68  97 127 173 222 269 319 384
#
# _framework density 21.053038999999998
#
# number of rings (size 3 to 8) (size 9 to 14) (size 15 to 20)
#    0.000    1.143    4.286    1.714    4.000    0.000 
#    5.143    0.000    0.000    0.000    0.000    0.000 
#    0.000    0.000    0.000    0.000    0.000    0.000 
#
# Total GULP energy -346974.217825 kJ/mol
# GULP energy per Si atom -12391.936351 kJ/mol
# Density = 2.100512 g / cm^3
# Si number density = 21.053039 Si / 1000 Ang^3
#
#
#
# Elastic Constant Matrix: (Units=GPa)
#
#
# Indices 1 2 3 4 5 6 
#
# 1 120.1007 14.4560 10.7472 0.0000 0.0000 0.0000
# 2 14.4560 87.1346 5.3266 0.0000 0.0000 0.0000
# 3 10.7472 5.3266 45.6936 0.0000 0.0000 0.0000
# 4 0.0000 0.0000 0.0000 44.6397 0.0000 0.0000
# 5 0.0000 0.0000 0.0000 0.0000 6.5704 0.0000
# 6 0.0000 0.0000 0.0000 0.0000 0.0000 24.3194
#
#
#
# Elastic Compliance Matrix: (Units=1/GPa)
#
#
# Indices 1 2 3 4 5 6 
#
# 1 0.008654 -0.001321 -0.001881 0.000000 0.000000 0.000000
# 2 -0.001321 0.011760 -0.001060 0.000000 0.000000 0.000000
# 3 -0.001881 -0.001060 0.022451 0.000000 0.000000 0.000000
# 4 0.000000 0.000000 0.000000 0.022402 0.000000 0.000000
# 5 0.000000 0.000000 0.000000 0.000000 0.152197 0.000000
# 6 0.000000 0.000000 0.000000 0.000000 0.000000 0.041119
#
#
# Mechanical properties :
#
#
# Convention : Reuss Voigt Hill
#
# Bulk Modulus (GPa) = 29.12025 34.88759 32.00392
# Shear Modulus (GPa) = 17.94981 29.93253 23.94117
#
# Velocity S-wave (km/s) = 2.92310 3.77472 3.37587
# Velocity P-wave (km/s) = 5.02539 5.96702 5.51633
#
# Compressibility (1/GPa) = 0.03434036
#
# Stress axis : x y z
#
# Youngs Moduli (GPa) = 115.55794 85.03102 44.54140
#
# Poissons Ratio (x) = 0.11230 0.08380
# Poissons Ratio (y) = 0.15261 0.04723
# Poissons Ratio (z) = 0.21741 0.09016
#
# Static dielectric constant tensor:
#      x y z
#    x 3.891610 0.000000 0.000000 
#    y 0.000000 3.923040 0.000000 
#    z 0.000000 0.000000 3.836710 
# 
# 
# High freq. dielectric constant tensor:
#      x y z
#    x 1.812110 0.000000 0.000000 
#    y 0.000000 1.837990 0.000000 
#    z 0.000000 0.000000 1.820020 
# 
# From -- ./inp_files/8744.got.cif
#   From: 2010.03.12/outbox.cif.g09.slc.cpg/sg33_5_cif.got.tgz:8744.got - 2010.04.14 01:49:19.
