data_PCOD8171484
_publ_section_title
;
Structure prediction by ZEFSAII (Michael W. Deem and Ramdas Pophale) SiO2 
 PCOD8171484
Probable space group: P N A 21
;
_chemical_formula_sum "Si O2"
_cell_formula_units_Z 32
_cell_length_a 15.228852
_cell_length_b 10.937516
_cell_length_c 9.340036
_cell_angle_alpha 90.000000
_cell_angle_beta 90.000000
_cell_angle_gamma 90.000000
_cell_volume 1555.730684
_symmetry_space_group_name_H-M "P N A 21"
_symmetry_group_IT_number 33
_symmetry_cell_setting 'orthorhombic'
loop_
_space_group_symop_operation_xyz
x,y,z
-x,-y,1/2+z
1/2-x,1/2+y,1/2+z
1/2+x,1/2-y,z
loop_
_atom_site_type_symbol
_atom_site_label
_atom_site_fract_x
_atom_site_fract_y
_atom_site_fract_z
Si Si1 0.960289 0.621540 0.308380
Si Si2 0.081341 0.481873 0.507541
Si Si3 0.063854 0.800745 0.141171
Si Si4 0.895806 0.780377 0.951199
Si Si5 0.730985 0.868950 0.128466
Si Si6 0.153945 0.045268 0.206120
Si Si7 0.764024 0.349048 0.960231
Si Si8 0.222414 0.413192 0.924023
O O1 0.957476 0.552517 0.159121
O O2 0.863992 0.655547 0.364217
O O3 0.999127 0.527080 0.418931
O O4 0.021062 0.741255 0.284807
O O5 0.123232 0.363534 0.428502
O O6 0.150721 0.589125 0.527216
O O7 0.154100 0.730190 0.099649
O O8 0.082648 0.941621 0.174097
O O9 0.994186 0.796661 0.012109
O O10 0.890956 0.849281 0.800615
O O11 0.823426 0.827574 0.063039
O O12 0.746710 0.891482 0.296173
O O13 0.703168 0.997511 0.056695
O O14 0.235265 0.987095 0.292641
O O15 0.182509 0.105888 0.056426
O O16 0.780827 0.202731 0.972619
#
# Coordination Sequence:
#
# PCOD8171484 Si02
#       8
#     4   4   4   4   4   4   4   4
#     4  11  22  39  67  91 135 167 230 280 333 406
#     4  11  22  40  62  98 124 178 221 277 337 400
#     4  11  22  43  66  97 130 183 220 284 349 398
#     4  10  25  42  67  94 138 176 223 282 343 408
#     4  11  23  44  68  98 138 180 223 285 347 407
#     4  11  24  43  67  96 137 173 231 278 340 415
#     4  12  23  41  68  95 132 180 224 275 341 409
#     4  11  23  42  63 101 130 177 222 283 342 405
#
# _framework density 20.569113999999999
#
# number of rings (size 3 to 8) (size 9 to 14) (size 15 to 20)
#    0.000    1.000    3.750    3.750    1.750    2.000 
#    0.000    2.500    0.000    0.000    0.000    0.000 
#    0.000    0.000    0.000    0.000    0.000    0.000 
#
# Total GULP energy -396813.610304 kJ/mol
# GULP energy per Si atom -12400.425322 kJ/mol
# Density = 2.052230 g / cm^3
# Si number density = 20.569114 Si / 1000 Ang^3
#
#
#
# Elastic Constant Matrix: (Units=GPa)
#
#
# Indices 1 2 3 4 5 6 
#
# 1 86.0282 31.0000 46.8462 0.0000 0.0000 0.0000
# 2 31.0000 88.3764 28.9830 0.0000 0.0000 0.0000
# 3 46.8462 28.9830 98.6548 0.0000 0.0000 0.0000
# 4 0.0000 0.0000 0.0000 31.0724 0.0000 0.0000
# 5 0.0000 0.0000 0.0000 0.0000 28.9892 0.0000
# 6 0.0000 0.0000 0.0000 0.0000 0.0000 36.1146
#
#
#
# Elastic Compliance Matrix: (Units=1/GPa)
#
#
# Indices 1 2 3 4 5 6 
#
# 1 0.016649 -0.003594 -0.006850 0.000000 0.000000 0.000000
# 2 -0.003594 0.013297 -0.002200 0.000000 0.000000 0.000000
# 3 -0.006850 -0.002200 0.014036 0.000000 0.000000 0.000000
# 4 0.000000 0.000000 0.000000 0.032183 0.000000 0.000000
# 5 0.000000 0.000000 0.000000 0.000000 0.034496 0.000000
# 6 0.000000 0.000000 0.000000 0.000000 0.000000 0.027690
#
#
# Mechanical properties :
#
#
# Convention : Reuss Voigt Hill
#
# Bulk Modulus (GPa) = 53.49210 54.07978 53.78594
# Shear Modulus (GPa) = 29.43439 30.31724 29.87581
#
# Velocity S-wave (km/s) = 3.78696 3.84333 3.81525
# Velocity P-wave (km/s) = 6.72190 6.78556 6.75380
#
# Compressibility (1/GPa) = 0.01869435
#
# Stress axis : x y z
#
# Youngs Moduli (GPa) = 60.06275 75.20331 71.24785
#
# Poissons Ratio (x) = 0.27025 0.48806
# Poissons Ratio (y) = 0.21584 0.15675
# Poissons Ratio (z) = 0.41144 0.16545
#
# Static dielectric constant tensor:
#      x y z
#    x 3.759690 0.000000 0.000000 
#    y 0.000000 4.057000 0.000000 
#    z 0.000000 0.000000 3.756080 
# 
# 
# High freq. dielectric constant tensor:
#      x y z
#    x 1.807370 0.000000 0.000000 
#    y 0.000000 1.813120 0.000000 
#    z 0.000000 0.000000 1.802110 
# 
# From -- ./inp_files/4436.got.cif
#   From: 2010.03.12/outbox.cif.g09.slc.cpg/sg33_3_cif.got.tgz:4436.got - 2010.04.14 01:49:19.
