data_PCOD8171708
_publ_section_title
;
Structure prediction by ZEFSAII (Michael W. Deem and Ramdas Pophale) SiO2 
 PCOD8171708
Probable space group: P N A 21
;
_chemical_formula_sum "Si O2"
_cell_formula_units_Z 24
_cell_length_a 16.025042
_cell_length_b 12.924285
_cell_length_c 5.095190
_cell_angle_alpha 90.000000
_cell_angle_beta 90.000000
_cell_angle_gamma 90.000000
_cell_volume 1055.276061
_symmetry_space_group_name_H-M "P N A 21"
_symmetry_group_IT_number 33
_symmetry_cell_setting 'orthorhombic'
loop_
_space_group_symop_operation_xyz
x,y,z
-x,-y,1/2+z
1/2-x,1/2+y,1/2+z
1/2+x,1/2-y,z
loop_
_atom_site_type_symbol
_atom_site_label
_atom_site_fract_x
_atom_site_fract_y
_atom_site_fract_z
Si Si1 0.208537 0.576148 0.800850
Si Si2 0.645447 0.303966 0.535920
Si Si3 0.951345 0.531866 0.475119
Si Si4 0.146467 0.788794 0.586307
Si Si5 0.266878 0.373443 0.574278
Si Si6 0.454197 0.727734 0.540072
O O1 0.169218 0.669144 0.632772
O O2 0.246793 0.494599 0.594815
O O3 0.279130 0.615176 0.001857
O O4 0.138174 0.523534 0.980649
O O5 0.681382 0.187515 0.511390
O O6 0.577367 0.321147 0.310216
O O7 0.599664 0.324548 0.809991
O O8 0.939535 0.650343 0.547571
O O9 0.990747 0.525061 0.185928
O O10 0.201254 0.830812 0.350732
O O11 0.050590 0.800361 0.506387
O O12 0.165135 0.855658 0.846732
#
# Coordination Sequence:
#
# PCOD8171708 Si02
#       6
#     4   4   4   4   4   4
#     4  11  26  44  73 103 142 181 233 283 349 407
#     4  11  25  43  69 101 139 184 228 283 343 414
#     4  12  26  40  69 109 138 172 224 292 355 399
#     4  11  26  44  71 101 140 182 228 287 347 405
#     4  11  25  45  67 105 140 182 227 286 344 414
#     4  12  24  46  67 103 141 179 230 289 342 405
#
# _framework density 22.742863
#
# number of rings (size 3 to 8) (size 9 to 14) (size 15 to 20)
#    0.000    0.667    3.333    4.000    4.667    5.333 
#    0.000    3.333    0.000    0.000    0.000    0.000 
#    0.000    0.000    0.000    0.000    0.000    0.000 
#
# Total GULP energy -297784.068131 kJ/mol
# GULP energy per Si atom -12407.669505 kJ/mol
# Density = 2.269110 g / cm^3
# Si number density = 22.742863 Si / 1000 Ang^3
#
#
#
# Elastic Constant Matrix: (Units=GPa)
#
#
# Indices 1 2 3 4 5 6 
#
# 1 132.9579 40.6167 31.8667 0.0000 0.0000 0.0000
# 2 40.6167 57.5472 19.9057 0.0000 0.0000 0.0000
# 3 31.8667 19.9057 112.1859 0.0000 0.0000 0.0000
# 4 0.0000 0.0000 0.0000 27.4881 0.0000 0.0000
# 5 0.0000 0.0000 0.0000 0.0000 42.0497 0.0000
# 6 0.0000 0.0000 0.0000 0.0000 0.0000 33.4583
#
#
#
# Elastic Compliance Matrix: (Units=1/GPa)
#
#
# Indices 1 2 3 4 5 6 
#
# 1 0.009874 -0.006391 -0.001671 0.000000 0.000000 0.000000
# 2 -0.006391 0.022650 -0.002204 0.000000 0.000000 0.000000
# 3 -0.001671 -0.002204 0.009779 0.000000 0.000000 0.000000
# 4 0.000000 0.000000 0.000000 0.036379 0.000000 0.000000
# 5 0.000000 0.000000 0.000000 0.000000 0.023781 0.000000
# 6 0.000000 0.000000 0.000000 0.000000 0.000000 0.029888
#
#
# Mechanical properties :
#
#
# Convention : Reuss Voigt Hill
#
# Bulk Modulus (GPa) = 45.92907 54.16322 50.04615
# Shear Modulus (GPa) = 31.22260 34.61935 32.92097
#
# Velocity S-wave (km/s) = 3.70922 3.90578 3.80877
# Velocity P-wave (km/s) = 6.21154 6.64886 6.43392
#
# Compressibility (1/GPa) = 0.02177270
#
# Stress axis : x y z
#
# Youngs Moduli (GPa) = 101.27599 44.14991 102.25650
#
# Poissons Ratio (x) = 0.28217 0.17084
# Poissons Ratio (y) = 0.64727 0.22532
# Poissons Ratio (z) = 0.16920 0.09728
#
# Static dielectric constant tensor:
#      x y z
#    x 4.278930 0.000000 0.000000 
#    y 0.000000 4.166450 0.000000 
#    z 0.000000 0.000000 4.298870 
# 
# 
# High freq. dielectric constant tensor:
#      x y z
#    x 1.910130 0.000000 0.000000 
#    y 0.000000 1.885580 0.000000 
#    z 0.000000 0.000000 1.908150 
# 
# From -- ./inp_files/1311.got.cif
#   From: 2010.03.12/outbox.cif.g09.slc.cpg/sg33_1_cif.got.tgz:1311.got - 2010.04.14 01:49:19.
