data_PCOD8171757
_publ_section_title
;
Structure prediction by ZEFSAII (Michael W. Deem and Ramdas Pophale) SiO2 
 PCOD8171757
Probable space group: P N A 21
;
_chemical_formula_sum "Si O2"
_cell_formula_units_Z 20
_cell_length_a 16.590778
_cell_length_b 11.118333
_cell_length_c 4.988043
_cell_angle_alpha 90.000000
_cell_angle_beta 90.000000
_cell_angle_gamma 90.000000
_cell_volume 920.103363
_symmetry_space_group_name_H-M "P N A 21"
_symmetry_group_IT_number 33
_symmetry_cell_setting 'orthorhombic'
loop_
_space_group_symop_operation_xyz
x,y,z
-x,-y,1/2+z
1/2-x,1/2+y,1/2+z
1/2+x,1/2-y,z
loop_
_atom_site_type_symbol
_atom_site_label
_atom_site_fract_x
_atom_site_fract_y
_atom_site_fract_z
Si Si1 0.622518 0.673197 0.029290
Si Si2 0.947796 0.524490 0.967822
Si Si3 0.674647 0.814755 0.532536
Si Si4 0.148342 0.100959 0.027457
Si Si5 0.936148 0.799960 0.029639
O O1 0.636225 0.718549 0.330596
O O2 0.658321 0.541106 0.991608
O O3 0.528317 0.672780 0.959477
O O4 0.668714 0.762849 0.831117
O O5 0.872021 0.440286 0.021790
O O6 0.916879 0.659349 0.006076
O O7 0.021455 0.494576 0.165904
O O8 0.767229 0.836557 0.460840
O O9 0.120700 0.126570 0.329415
O O10 0.081578 0.155499 0.829289
#
# Coordination Sequence:
#
# PCOD8171757 Si02
#       5
#     4   4   4   4   4
#     4  12  25  49  70  99 141 179 232 279 336 417
#     4  12  23  45  72 101 135 179 231 278 330 410
#     4  12  26  44  69 104 138 179 227 287 344 392
#     4  12  28  43  70 103 140 182 222 289 346 400
#     4  12  24  47  73 101 134 183 236 273 342 405
#
# _framework density 21.736691
#
# number of rings (size 3 to 8) (size 9 to 14) (size 15 to 20)
#    0.000    0.000    4.000    6.000    5.600    0.000 
#    0.000    0.000    0.000    0.000    0.000    0.000 
#    0.000    0.000    0.000    0.000    0.000    0.000 
#
# Total GULP energy -248246.917354 kJ/mol
# GULP energy per Si atom -12412.345868 kJ/mol
# Density = 2.168722 g / cm^3
# Si number density = 21.736691 Si / 1000 Ang^3
#
#
#
# Elastic Constant Matrix: (Units=GPa)
#
#
# Indices 1 2 3 4 5 6 
#
# 1 88.9413 53.7861 20.9523 0.0000 0.0000 0.0000
# 2 53.7861 101.4959 14.7672 0.0000 0.0000 0.0000
# 3 20.9523 14.7672 84.5448 0.0000 0.0000 0.0000
# 4 0.0000 0.0000 0.0000 38.9690 0.0000 0.0000
# 5 0.0000 0.0000 0.0000 0.0000 30.3063 0.0000
# 6 0.0000 0.0000 0.0000 0.0000 0.0000 29.0314
#
#
#
# Elastic Compliance Matrix: (Units=1/GPa)
#
#
# Indices 1 2 3 4 5 6 
#
# 1 0.017139 -0.008685 -0.002730 0.000000 0.000000 0.000000
# 2 -0.008685 0.014511 -0.000382 0.000000 0.000000 0.000000
# 3 -0.002730 -0.000382 0.012571 0.000000 0.000000 0.000000
# 4 0.000000 0.000000 0.000000 0.025661 0.000000 0.000000
# 5 0.000000 0.000000 0.000000 0.000000 0.032996 0.000000
# 6 0.000000 0.000000 0.000000 0.000000 0.000000 0.034445
#
#
# Mechanical properties :
#
#
# Convention : Reuss Voigt Hill
#
# Bulk Modulus (GPa) = 48.48348 50.44369 49.46359
# Shear Modulus (GPa) = 29.79823 32.02642 30.91232
#
# Velocity S-wave (km/s) = 3.70655 3.84263 3.77520
# Velocity P-wave (km/s) = 6.37741 6.55323 6.46591
#
# Compressibility (1/GPa) = 0.02062558
#
# Stress axis : x y z
#
# Youngs Moduli (GPa) = 58.34698 68.91423 79.54519
#
# Poissons Ratio (x) = 0.59853 0.21719
# Poissons Ratio (y) = 0.50675 0.03040
# Poissons Ratio (z) = 0.15931 0.02634
#
# Static dielectric constant tensor:
#      x y z
#    x 3.773420 0.000000 0.000000 
#    y 0.000000 4.034570 0.000000 
#    z 0.000000 0.000000 4.070780 
# 
# 
# High freq. dielectric constant tensor:
#      x y z
#    x 1.854180 0.000000 0.000000 
#    y 0.000000 1.870200 0.000000 
#    z 0.000000 0.000000 1.868070 
# 
# From -- ./inp_files/1231.got.cif
#   From: 2010.03.12/outbox.cif.g09.slc.cpg/sg33_1_cif.got.tgz:1231.got - 2010.04.14 01:49:19.
