data_PCOD8171646
_publ_section_title
;
Structure prediction by ZEFSAII (Michael W. Deem and Ramdas Pophale) SiO2 
 PCOD8171646
Probable space group: P N A 21
;
_chemical_formula_sum "Si O2"
_cell_formula_units_Z 24
_cell_length_a 14.831673
_cell_length_b 12.126926
_cell_length_c 5.451340
_cell_angle_alpha 90.000000
_cell_angle_beta 90.000000
_cell_angle_gamma 90.000000
_cell_volume 980.492191
_symmetry_space_group_name_H-M "P N A 21"
_symmetry_group_IT_number 33
_symmetry_cell_setting 'orthorhombic'
loop_
_space_group_symop_operation_xyz
x,y,z
-x,-y,1/2+z
1/2-x,1/2+y,1/2+z
1/2+x,1/2-y,z
loop_
_atom_site_type_symbol
_atom_site_label
_atom_site_fract_x
_atom_site_fract_y
_atom_site_fract_z
Si Si1 0.971248 0.225014 0.746960
Si Si2 0.546423 0.963754 0.106422
Si Si3 0.724683 0.965514 0.890490
Si Si4 0.179688 0.742402 0.611708
Si Si5 0.670471 0.347130 0.785078
Si Si6 0.833147 0.080987 0.516773
O O1 0.949503 0.332000 0.585657
O O2 0.931995 0.122428 0.593706
O O3 0.077607 0.218952 0.781041
O O4 0.918918 0.228615 0.006259
O O5 0.512074 0.993402 0.377850
O O6 0.649402 0.009314 0.083685
O O7 0.671496 0.881770 0.712933
O O8 0.765827 0.073018 0.753006
O O9 0.801898 0.890653 0.016695
O O10 0.254266 0.735398 0.394561
O O11 0.207797 0.838330 0.806942
O O12 0.654964 0.454873 0.946626
#
# Coordination Sequence:
#
# PCOD8171646 Si02
#       6
#     4   4   4   4   4   4
#     4  12  27  50  75 118 152 208 267 331 396 482
#     4  12  28  52  83 117 165 211 266 334 402 493
#     4  11  25  52  71 115 155 209 267 330 406 477
#     4  11  23  51  75 109 159 207 260 341 390 486
#     4  11  27  47  81 112 153 208 270 327 411 477
#     4  11  26  44  83 107 160 201 264 335 401 475
#
# _framework density 24.477499999999999
#
# number of rings (size 3 to 8) (size 9 to 14) (size 15 to 20)
#    0.000    0.667    3.333    2.000    7.000    5.333 
#    6.000    0.000    0.000    0.000    0.000    0.000 
#    0.000    0.000    0.000    0.000    0.000    0.000 
#
# Total GULP energy -297565.473569 kJ/mol
# GULP energy per Si atom -12398.561399 kJ/mol
# Density = 2.442179 g / cm^3
# Si number density = 24.477500 Si / 1000 Ang^3
#
#
#
# Elastic Constant Matrix: (Units=GPa)
#
#
# Indices 1 2 3 4 5 6 
#
# 1 139.9156 25.5863 48.8791 0.0000 0.0000 0.0000
# 2 25.5863 57.7777 27.8975 0.0000 0.0000 0.0000
# 3 48.8791 27.8975 125.3301 0.0000 0.0000 0.0000
# 4 0.0000 0.0000 0.0000 54.1081 0.0000 0.0000
# 5 0.0000 0.0000 0.0000 0.0000 32.9585 0.0000
# 6 0.0000 0.0000 0.0000 0.0000 0.0000 39.6687
#
#
#
# Elastic Compliance Matrix: (Units=1/GPa)
#
#
# Indices 1 2 3 4 5 6 
#
# 1 0.008572 -0.002445 -0.002799 0.000000 0.000000 0.000000
# 2 -0.002445 0.020089 -0.003518 0.000000 0.000000 0.000000
# 3 -0.002799 -0.003518 0.009854 0.000000 0.000000 0.000000
# 4 0.000000 0.000000 0.000000 0.018482 0.000000 0.000000
# 5 0.000000 0.000000 0.000000 0.000000 0.030341 0.000000
# 6 0.000000 0.000000 0.000000 0.000000 0.000000 0.025209
#
#
# Mechanical properties :
#
#
# Convention : Reuss Voigt Hill
#
# Bulk Modulus (GPa) = 47.63925 58.63882 53.13903
# Shear Modulus (GPa) = 36.47855 40.05777 38.26816
#
# Velocity S-wave (km/s) = 3.86461 4.04977 3.95828
# Velocity P-wave (km/s) = 6.27841 6.77317 6.53047
#
# Compressibility (1/GPa) = 0.02099110
#
# Stress axis : x y z
#
# Youngs Moduli (GPa) = 116.65870 49.77839 101.48503
#
# Poissons Ratio (x) = 0.12169 0.28405
# Poissons Ratio (y) = 0.28518 0.35705
# Poissons Ratio (z) = 0.32652 0.17513
#
# Static dielectric constant tensor:
#      x y z
#    x 4.406470 0.000000 0.000000 
#    y 0.000000 4.403140 0.000000 
#    z 0.000000 0.000000 4.664380 
# 
# 
# High freq. dielectric constant tensor:
#      x y z
#    x 1.965450 0.000000 0.000000 
#    y 0.000000 1.985100 0.000000 
#    z 0.000000 0.000000 1.982440 
# 
# From -- ./inp_files/1331.got.cif
#   From: 2010.03.12/outbox.cif.g09.slc.cpg/sg33_1_cif.got.tgz:1331.got - 2010.04.14 01:49:19.
