data_PCOD8171296
_publ_section_title
;
Structure prediction by ZEFSAII (Michael W. Deem and Ramdas Pophale) SiO2 
 PCOD8171296
Probable space group: P N A 21
;
_chemical_formula_sum "Si O2"
_cell_formula_units_Z 28
_cell_length_a 10.422603
_cell_length_b 12.366103
_cell_length_c 9.812234
_cell_angle_alpha 90.000000
_cell_angle_beta 90.000000
_cell_angle_gamma 90.000000
_cell_volume 1264.669229
_symmetry_space_group_name_H-M "P N A 21"
_symmetry_group_IT_number 33
_symmetry_cell_setting 'orthorhombic'
loop_
_space_group_symop_operation_xyz
x,y,z
-x,-y,1/2+z
1/2-x,1/2+y,1/2+z
1/2+x,1/2-y,z
loop_
_atom_site_type_symbol
_atom_site_label
_atom_site_fract_x
_atom_site_fract_y
_atom_site_fract_z
Si Si1 0.615746 0.275899 0.587100
Si Si2 0.616067 0.810062 0.958928
Si Si3 0.632697 0.040300 0.008307
Si Si4 0.796880 0.558032 0.205271
Si Si5 0.994095 0.058202 0.772185
Si Si6 0.411045 0.398057 0.066077
Si Si7 0.912262 0.340256 0.145408
O O1 0.474808 0.284458 0.517107
O O2 0.731025 0.303177 0.483839
O O3 0.638947 0.152377 0.621747
O O4 0.601019 0.356856 0.715460
O O5 0.573158 0.921683 0.031860
O O6 0.586965 0.807647 0.800826
O O7 0.777691 0.039887 0.059277
O O8 0.553120 0.126861 0.094281
O O9 0.626306 0.059429 0.846887
O O10 0.649371 0.588675 0.227599
O O11 0.814094 0.441776 0.126617
O O12 0.999271 0.063146 0.937340
O O13 0.023788 0.939322 0.707506
O O14 0.380563 0.269375 0.061744
#
# Coordination Sequence:
#
# PCOD8171296 Si02
#       7
#     4   4   4   4   4   4   4
#     4  12  22  45  66 103 135 190 232 289 356 419
#     4  11  25  40  72  99 142 179 237 292 350 428
#     4  10  22  46  63 100 133 179 235 292 349 419
#     4  10  23  42  69  96 138 178 235 293 352 423
#     4  11  25  45  68 102 145 184 234 293 357 419
#     4  11  26  43  71  99 144 185 233 295 355 426
#     4  11  25  43  69 101 135 185 234 294 353 422
#
# _framework density 22.140177999999999
#
# number of rings (size 3 to 8) (size 9 to 14) (size 15 to 20)
#    0.000    1.143    4.286    0.857    6.000    0.000 
#    0.000    0.000    0.000    0.000    0.000    0.000 
#    0.000    0.000    0.000    0.000    0.000    0.000 
#
# Total GULP energy -346925.282588 kJ/mol
# GULP energy per Si atom -12390.188664 kJ/mol
# Density = 2.208979 g / cm^3
# Si number density = 22.140178 Si / 1000 Ang^3
#
#
#
# Elastic Constant Matrix: (Units=GPa)
#
#
# Indices 1 2 3 4 5 6 
#
# 1 64.5693 12.9262 32.0146 0.0000 0.0000 0.0000
# 2 12.9262 117.4406 48.0842 0.0000 0.0000 0.0000
# 3 32.0146 48.0842 100.6121 0.0000 0.0000 0.0000
# 4 0.0000 0.0000 0.0000 28.7101 0.0000 0.0000
# 5 0.0000 0.0000 0.0000 0.0000 34.6708 0.0000
# 6 0.0000 0.0000 0.0000 0.0000 0.0000 29.7211
#
#
#
# Elastic Compliance Matrix: (Units=1/GPa)
#
#
# Indices 1 2 3 4 5 6 
#
# 1 0.018409 0.000463 -0.006079 0.000000 0.000000 0.000000
# 2 0.000463 0.010598 -0.005212 0.000000 0.000000 0.000000
# 3 -0.006079 -0.005212 0.014364 0.000000 0.000000 0.000000
# 4 0.000000 0.000000 0.000000 0.034831 0.000000 0.000000
# 5 0.000000 0.000000 0.000000 0.000000 0.028843 0.000000
# 6 0.000000 0.000000 0.000000 0.000000 0.000000 0.033646
#
#
# Mechanical properties :
#
#
# Convention : Reuss Voigt Hill
#
# Bulk Modulus (GPa) = 46.05211 52.07468 49.06340
# Shear Modulus (GPa) = 29.48367 31.26020 30.37194
#
# Velocity S-wave (km/s) = 3.65318 3.76163 3.70780
# Velocity P-wave (km/s) = 6.21608 6.51445 6.36701
#
# Compressibility (1/GPa) = 0.02171453
#
# Stress axis : x y z
#
# Youngs Moduli (GPa) = 54.32267 94.35671 69.61656
#
# Poissons Ratio (x) = -0.04366 0.42318
# Poissons Ratio (y) = -0.02513 0.36286
# Poissons Ratio (z) = 0.33021 0.49181
#
# Static dielectric constant tensor:
#      x y z
#    x 3.970540 0.000000 0.000000 
#    y 0.000000 4.290440 0.000000 
#    z 0.000000 0.000000 3.883260 
# 
# 
# High freq. dielectric constant tensor:
#      x y z
#    x 1.868190 0.000000 0.000000 
#    y 0.000000 1.885360 0.000000 
#    z 0.000000 0.000000 1.858990 
# 
# From -- ./inp_files/3855.got.cif
#   From: 2010.03.12/outbox.cif.g09.slc.cpg/sg33_2_cif.got.tgz:3855.got - 2010.04.14 01:49:19.
