data_PCOD8171378
_publ_section_title
;
Structure prediction by ZEFSAII (Michael W. Deem and Ramdas Pophale) SiO2 
 PCOD8171378
Probable space group: P N A 21
;
_chemical_formula_sum "Si O2"
_cell_formula_units_Z 28
_cell_length_a 11.981546
_cell_length_b 11.690611
_cell_length_c 8.638419
_cell_angle_alpha 90.000000
_cell_angle_beta 90.000000
_cell_angle_gamma 90.000000
_cell_volume 1209.997114
_symmetry_space_group_name_H-M "P N A 21"
_symmetry_group_IT_number 33
_symmetry_cell_setting 'orthorhombic'
loop_
_space_group_symop_operation_xyz
x,y,z
-x,-y,1/2+z
1/2-x,1/2+y,1/2+z
1/2+x,1/2-y,z
loop_
_atom_site_type_symbol
_atom_site_label
_atom_site_fract_x
_atom_site_fract_y
_atom_site_fract_z
Si Si1 0.353369 0.781334 0.845320
Si Si2 0.085661 0.114528 0.858083
Si Si3 0.482690 0.594229 0.036303
Si Si4 0.917080 0.638695 0.330631
Si Si5 0.493619 0.939302 0.638644
Si Si6 0.235641 0.629120 0.600517
Si Si7 0.278576 0.376854 0.631604
O O1 0.425975 0.679260 0.916379
O O2 0.435745 0.878128 0.782448
O O3 0.278778 0.733340 0.705355
O O4 0.275513 0.844483 0.967502
O O5 0.100134 0.070611 0.681152
O O6 0.023882 0.239010 0.862895
O O7 0.208334 0.130175 0.931042
O O8 0.011109 0.025083 0.954377
O O9 0.591409 0.654927 0.115543
O O10 0.914507 0.560748 0.485953
O O11 0.792099 0.677985 0.272934
O O12 0.976426 0.569004 0.190103
O O13 0.602250 0.866655 0.587702
O O14 0.270960 0.510054 0.677696
#
# Coordination Sequence:
#
# PCOD8171378 Si02
#       7
#     4   4   4   4   4   4   4
#     4  12  22  46  70 104 138 188 228 294 344 420
#     4  11  23  45  68 103 139 180 235 283 344 424
#     4  11  24  43  72  99 145 178 231 289 352 404
#     4  11  23  45  68 103 139 180 235 283 344 424
#     4  11  24  43  72  99 145 178 231 289 352 404
#     4  10  23  44  65 101 139 179 234 283 341 419
#     4  10  23  44  65 101 139 179 234 283 341 419
#
# _framework density 23.140550000000001
#
# number of rings (size 3 to 8) (size 9 to 14) (size 15 to 20)
#    0.000    1.143    2.857    4.286    0.000    1.143 
#    0.000    7.143    0.000    0.000    0.000    0.000 
#    0.000    0.000    0.000    0.000    0.000    0.000 
#
# Total GULP energy -347021.656551 kJ/mol
# GULP energy per Si atom -12393.630591 kJ/mol
# Density = 2.308788 g / cm^3
# Si number density = 23.140550 Si / 1000 Ang^3
#
#
#
# Elastic Constant Matrix: (Units=GPa)
#
#
# Indices 1 2 3 4 5 6 
#
# 1 85.6734 10.5684 31.8988 0.0000 0.0000 0.0000
# 2 10.5684 101.7457 15.9710 0.0000 0.0000 0.0000
# 3 31.8988 15.9710 105.1715 0.0000 0.0000 0.0000
# 4 0.0000 0.0000 0.0000 45.3622 0.0000 0.0000
# 5 0.0000 0.0000 0.0000 0.0000 28.6789 0.0000
# 6 0.0000 0.0000 0.0000 0.0000 0.0000 18.9681
#
#
#
# Elastic Compliance Matrix: (Units=1/GPa)
#
#
# Indices 1 2 3 4 5 6 
#
# 1 0.013216 -0.000762 -0.003893 0.000000 0.000000 0.000000
# 2 -0.000762 0.010112 -0.001305 0.000000 0.000000 0.000000
# 3 -0.003893 -0.001305 0.010887 0.000000 0.000000 0.000000
# 4 0.000000 0.000000 0.000000 0.022045 0.000000 0.000000
# 5 0.000000 0.000000 0.000000 0.000000 0.034869 0.000000
# 6 0.000000 0.000000 0.000000 0.000000 0.000000 0.052720
#
#
# Mechanical properties :
#
#
# Convention : Reuss Voigt Hill
#
# Bulk Modulus (GPa) = 44.84897 45.49633 45.17265
# Shear Modulus (GPa) = 30.63747 34.21200 32.42473
#
# Velocity S-wave (km/s) = 3.64259 3.84922 3.74733
# Velocity P-wave (km/s) = 6.09217 6.28163 6.18763
#
# Compressibility (1/GPa) = 0.02229705
#
# Stress axis : x y z
#
# Youngs Moduli (GPa) = 75.66845 98.88923 91.85235
#
# Poissons Ratio (x) = 0.07532 0.35755
# Poissons Ratio (y) = 0.05763 0.11983
# Poissons Ratio (z) = 0.29455 0.12901
#
# Static dielectric constant tensor:
#      x y z
#    x 4.222350 0.000000 0.000000 
#    y 0.000000 4.277050 0.000000 
#    z 0.000000 0.000000 4.294720 
# 
# 
# High freq. dielectric constant tensor:
#      x y z
#    x 1.897390 0.000000 0.000000 
#    y 0.000000 1.918690 0.000000 
#    z 0.000000 0.000000 1.926340 
# 
# From -- ./inp_files/3858.got.cif
#   From: 2010.03.12/outbox.cif.g09.slc.cpg/sg33_2_cif.got.tgz:3858.got - 2010.04.14 01:49:19.
