data_PCOD8171000
_publ_section_title
;
Structure prediction by ZEFSAII (Michael W. Deem and Ramdas Pophale) SiO2 
 PCOD8171000
Probable space group: P N A 21
;
_chemical_formula_sum "Si O2"
_cell_formula_units_Z 32
_cell_length_a 12.561472
_cell_length_b 14.230499
_cell_length_c 8.731156
_cell_angle_alpha 90.000000
_cell_angle_beta 90.000000
_cell_angle_gamma 90.000000
_cell_volume 1560.746651
_symmetry_space_group_name_H-M "P N A 21"
_symmetry_group_IT_number 33
_symmetry_cell_setting 'orthorhombic'
loop_
_space_group_symop_operation_xyz
x,y,z
-x,-y,1/2+z
1/2-x,1/2+y,1/2+z
1/2+x,1/2-y,z
loop_
_atom_site_type_symbol
_atom_site_label
_atom_site_fract_x
_atom_site_fract_y
_atom_site_fract_z
Si Si1 0.677771 0.479404 0.109590
Si Si2 0.648918 0.646436 0.896712
Si Si3 0.312067 0.824435 0.647770
Si Si4 0.495744 0.081082 0.980618
Si Si5 0.793211 0.768147 0.096094
Si Si6 0.086077 0.156131 0.332096
Si Si7 0.717515 0.815377 0.428118
Si Si8 0.609854 0.073839 0.667599
O O1 0.600694 0.443414 0.245072
O O2 0.777020 0.525378 0.196929
O O3 0.622330 0.556936 0.002898
O O4 0.707971 0.394230 0.999558
O O5 0.731630 0.618771 0.760246
O O6 0.537831 0.681795 0.829930
O O7 0.694063 0.731965 0.996685
O O8 0.410329 0.888712 0.595845
O O9 0.353619 0.736510 0.741445
O O10 0.246853 0.786228 0.500171
O O11 0.447638 0.981126 0.029991
O O12 0.405789 0.162055 0.966203
O O13 0.539896 0.060716 0.815200
O O14 0.743236 0.813066 0.248039
O O15 0.875571 0.682882 0.126775
O O16 0.861188 0.846505 0.002440
#
# Coordination Sequence:
#
# PCOD8171000 Si02
#       8
#     4   4   4   4   4   4   4   4
#     4   9  22  43  56  84 127 154 208 253 301 376
#     4  10  22  40  61  86 122 162 200 256 307 363
#     4  10  21  41  62  90 124 162 203 257 308 368
#     4  11  23  37  66  90 125 165 204 256 319 372
#     4  10  22  40  61  91 128 153 208 259 302 374
#     4  10  22  40  63  87 120 167 203 250 310 373
#     4  10  21  39  60  92 121 161 203 256 305 376
#     4  10  23  40  59  94 123 158 205 257 308 372
#
# _framework density 20.503005999999999
#
# number of rings (size 3 to 8) (size 9 to 14) (size 15 to 20)
#    0.000    2.000    1.250    0.750    8.750    3.000 
#    2.250    2.500    0.000    0.000    0.000    0.000 
#    0.000    0.000    0.000    0.000    0.000    0.000 
#
# Total GULP energy -396775.911424 kJ/mol
# GULP energy per Si atom -12399.247232 kJ/mol
# Density = 2.045634 g / cm^3
# Si number density = 20.503006 Si / 1000 Ang^3
#
#
#
# Elastic Constant Matrix: (Units=GPa)
#
#
# Indices 1 2 3 4 5 6 
#
# 1 102.3664 17.2832 57.8479 0.0000 0.0000 0.0000
# 2 17.2832 56.7919 24.9949 0.0000 0.0000 0.0000
# 3 57.8479 24.9949 113.9417 0.0000 0.0000 0.0000
# 4 0.0000 0.0000 0.0000 21.4296 0.0000 0.0000
# 5 0.0000 0.0000 0.0000 0.0000 35.7530 0.0000
# 6 0.0000 0.0000 0.0000 0.0000 0.0000 11.4154
#
#
#
# Elastic Compliance Matrix: (Units=1/GPa)
#
#
# Indices 1 2 3 4 5 6 
#
# 1 0.013777 -0.001233 -0.006724 0.000000 0.000000 0.000000
# 2 -0.001233 0.019600 -0.003673 0.000000 0.000000 0.000000
# 3 -0.006724 -0.003673 0.012996 0.000000 0.000000 0.000000
# 4 0.000000 0.000000 0.000000 0.046664 0.000000 0.000000
# 5 0.000000 0.000000 0.000000 0.000000 0.027970 0.000000
# 6 0.000000 0.000000 0.000000 0.000000 0.000000 0.087601
#
#
# Mechanical properties :
#
#
# Convention : Reuss Voigt Hill
#
# Bulk Modulus (GPa) = 43.26834 52.59469 47.93151
# Shear Modulus (GPa) = 20.87046 25.25119 23.06083
#
# Velocity S-wave (km/s) = 3.19395 3.51320 3.35737
# Velocity P-wave (km/s) = 5.89500 6.49343 6.20144
#
# Compressibility (1/GPa) = 0.02311159
#
# Stress axis : x y z
#
# Youngs Moduli (GPa) = 72.58596 51.01978 76.94709
#
# Poissons Ratio (x) = 0.06293 0.51738
# Poissons Ratio (y) = 0.08952 0.28266
# Poissons Ratio (z) = 0.48806 0.18742
#
# Static dielectric constant tensor:
#      x y z
#    x 3.731670 0.000000 0.000000 
#    y 0.000000 3.616210 0.000000 
#    z 0.000000 0.000000 3.953670 
# 
# 
# High freq. dielectric constant tensor:
#      x y z
#    x 1.801650 0.000000 0.000000 
#    y 0.000000 1.785060 0.000000 
#    z 0.000000 0.000000 1.813260 
# 
# From -- ./inp_files/3933.got.cif
#   From: 2010.03.12/outbox.cif.g09.slc.cpg/sg33_2_cif.got.tgz:3933.got - 2010.04.14 01:49:19.
