data_PCOD8171501
_publ_section_title
;
Structure prediction by ZEFSAII (Michael W. Deem and Ramdas Pophale) SiO2 
 PCOD8171501
Probable space group: P N A 21
;
_chemical_formula_sum "Si O2"
_cell_formula_units_Z 20
_cell_length_a 8.933341
_cell_length_b 5.068482
_cell_length_c 17.413195
_cell_angle_alpha 90.000000
_cell_angle_beta 90.000000
_cell_angle_gamma 90.000000
_cell_volume 788.442968
_symmetry_space_group_name_H-M "P N A 21"
_symmetry_group_IT_number 33
_symmetry_cell_setting 'orthorhombic'
loop_
_space_group_symop_operation_xyz
x,y,z
-x,-y,1/2+z
1/2-x,1/2+y,1/2+z
1/2+x,1/2-y,z
loop_
_atom_site_type_symbol
_atom_site_label
_atom_site_fract_x
_atom_site_fract_y
_atom_site_fract_z
Si Si1 0.667068 0.058247 0.277100
Si Si2 0.668508 0.407183 0.407960
Si Si3 0.835398 0.528941 0.600358
Si Si4 0.668910 0.026110 0.544270
Si Si5 0.422822 0.754245 0.361837
O O1 0.519556 0.890567 0.295210
O O2 0.813768 0.934894 0.315364
O O3 0.647905 0.341861 0.317632
O O4 0.686858 0.116216 0.187850
O O5 0.658144 0.136296 0.456888
O O6 0.529143 0.604051 0.424630
O O7 0.831428 0.542118 0.416535
O O8 0.761057 0.243318 0.591533
O O9 0.008765 0.511220 0.581873
O O10 0.752433 0.743088 0.545725
#
# Coordination Sequence:
#
# PCOD8171501 Si02
#       5
#     4   4   4   4   4
#     4  11  25  45  81 110 156 204 269 326 401 480
#     4  11  27  46  80 113 159 207 274 331 401 480
#     4  12  30  52  82 118 166 213 266 330 414 482
#     4  12  31  53  80 117 167 213 265 334 409 483
#     4  10  25  46  79 114 154 205 276 331 395 469
#
# _framework density 25.366451000000001
#
# number of rings (size 3 to 8) (size 9 to 14) (size 15 to 20)
#    0.000    0.800    0.000    3.600   22.400    0.000 
#    0.000    0.000    0.000    0.000    0.000    0.000 
#    0.000    0.000    0.000    0.000    0.000    0.000 
#
# Total GULP energy -248077.730390 kJ/mol
# GULP energy per Si atom -12403.886520 kJ/mol
# Density = 2.530872 g / cm^3
# Si number density = 25.366451 Si / 1000 Ang^3
#
#
#
# Elastic Constant Matrix: (Units=GPa)
#
#
# Indices 1 2 3 4 5 6 
#
# 1 157.5746 32.6560 6.9353 0.0000 0.0000 0.0000
# 2 32.6560 61.9305 -14.9841 0.0000 0.0000 0.0000
# 3 6.9353 -14.9841 92.3873 0.0000 0.0000 0.0000
# 4 0.0000 0.0000 0.0000 29.5933 0.0000 0.0000
# 5 0.0000 0.0000 0.0000 0.0000 22.8529 0.0000
# 6 0.0000 0.0000 0.0000 0.0000 0.0000 16.3912
#
#
#
# Elastic Compliance Matrix: (Units=1/GPa)
#
#
# Indices 1 2 3 4 5 6 
#
# 1 0.007253 -0.004118 -0.001212 0.000000 0.000000 0.000000
# 2 -0.004118 0.019144 0.003414 0.000000 0.000000 0.000000
# 3 -0.001212 0.003414 0.011469 0.000000 0.000000 0.000000
# 4 0.000000 0.000000 0.000000 0.033791 0.000000 0.000000
# 5 0.000000 0.000000 0.000000 0.000000 0.043758 0.000000
# 6 0.000000 0.000000 0.000000 0.000000 0.000000 0.061008
#
#
# Mechanical properties :
#
#
# Convention : Reuss Voigt Hill
#
# Bulk Modulus (GPa) = 29.38225 40.12299 34.75262
# Shear Modulus (GPa) = 26.09592 32.91982 29.50787
#
# Velocity S-wave (km/s) = 3.21090 3.60637 3.41437
# Velocity P-wave (km/s) = 5.03536 5.76132 5.41053
#
# Compressibility (1/GPa) = 0.03403415
#
# Stress axis : x y z
#
# Youngs Moduli (GPa) = 137.87525 52.23435 87.19363
#
# Poissons Ratio (x) = 0.21509 0.10571
# Poissons Ratio (y) = 0.56774 -0.29769
# Poissons Ratio (z) = 0.16715 -0.17833
#
# Static dielectric constant tensor:
#      x y z
#    x 4.836790 0.000000 0.000000 
#    y 0.000000 4.857760 0.000000 
#    z 0.000000 0.000000 4.506450 
# 
# 
# High freq. dielectric constant tensor:
#      x y z
#    x 2.038750 0.000000 0.000000 
#    y 0.000000 2.026340 0.000000 
#    z 0.000000 0.000000 2.008100 
# 
# From -- ./inp_files/8401.got.cif
#   From: 2010.03.12/outbox.cif.g09.slc.cpg/sg33_5_cif.got.tgz:8401.got - 2010.04.14 01:49:19.
