data_PCOD8171237
_publ_section_title
;
Structure prediction by ZEFSAII (Michael W. Deem and Ramdas Pophale) SiO2 
 PCOD8171237
Probable space group: P N A 21
;
_chemical_formula_sum "Si O2"
_cell_formula_units_Z 28
_cell_length_a 22.262972
_cell_length_b 6.737262
_cell_length_c 7.987514
_cell_angle_alpha 90.000000
_cell_angle_beta 90.000000
_cell_angle_gamma 90.000000
_cell_volume 1198.059009
_symmetry_space_group_name_H-M "P N A 21"
_symmetry_group_IT_number 33
_symmetry_cell_setting 'orthorhombic'
loop_
_space_group_symop_operation_xyz
x,y,z
-x,-y,1/2+z
1/2-x,1/2+y,1/2+z
1/2+x,1/2-y,z
loop_
_atom_site_type_symbol
_atom_site_label
_atom_site_fract_x
_atom_site_fract_y
_atom_site_fract_z
Si Si1 0.869954 0.605514 0.379420
Si Si2 0.273429 0.564604 0.384798
Si Si3 0.602805 0.585432 0.431656
Si Si4 0.308145 0.203426 0.172352
Si Si5 0.571125 0.151226 0.377452
Si Si6 0.342775 0.133017 0.708678
Si Si7 0.007366 0.342929 0.025206
O O1 0.834667 0.811842 0.379827
O O2 0.853655 0.474494 0.218476
O O3 0.853232 0.456053 0.528937
O O4 0.939902 0.659811 0.385964
O O5 0.285540 0.332354 0.335345
O O6 0.247053 0.599031 0.572546
O O7 0.227790 0.652076 0.246089
O O8 0.656281 0.644677 0.555678
O O9 0.598498 0.351444 0.447256
O O10 0.622957 0.656068 0.242850
O O11 0.537705 0.666549 0.481774
O O12 0.627998 0.008388 0.350819
O O13 0.526475 0.054787 0.513697
O O14 0.534624 0.188775 0.207228
#
# Coordination Sequence:
#
# PCOD8171237 Si02
#       7
#     4   4   4   4   4   4   4
#     4  11  24  42  67  97 141 172 227 294 342 419
#     4  11  24  44  65 101 137 182 225 286 353 424
#     4  10  23  43  70  97 135 183 229 278 356 417
#     4  11  26  42  70 104 134 183 237 281 358 428
#     4  10  22  42  69  90 142 174 223 288 337 408
#     4   9  22  43  62  99 130 180 226 276 344 408
#     4  10  23  42  65 104 133 178 227 287 346 408
#
# _framework density 23.371134999999999
#
# number of rings (size 3 to 8) (size 9 to 14) (size 15 to 20)
#    0.000    1.714    1.429    0.857    2.000   14.857 
#    0.000    0.000    0.000    0.000    0.000    0.000 
#    0.000    0.000    0.000    0.000    0.000    0.000 
#
# Total GULP energy -347122.883119 kJ/mol
# GULP energy per Si atom -12397.245826 kJ/mol
# Density = 2.331794 g / cm^3
# Si number density = 23.371135 Si / 1000 Ang^3
#
#
#
# Elastic Constant Matrix: (Units=GPa)
#
#
# Indices 1 2 3 4 5 6 
#
# 1 93.1042 32.4160 -0.2117 0.0000 0.0000 0.0000
# 2 32.4160 90.6552 7.1456 0.0000 0.0000 0.0000
# 3 -0.2117 7.1456 52.2427 0.0000 0.0000 0.0000
# 4 0.0000 0.0000 0.0000 36.4104 0.0000 0.0000
# 5 0.0000 0.0000 0.0000 0.0000 31.3600 0.0000
# 6 0.0000 0.0000 0.0000 0.0000 0.0000 33.7679
#
#
#
# Elastic Compliance Matrix: (Units=1/GPa)
#
#
# Indices 1 2 3 4 5 6 
#
# 1 0.012290 -0.004447 0.000658 0.000000 0.000000 0.000000
# 2 -0.004447 0.012760 -0.001763 0.000000 0.000000 0.000000
# 3 0.000658 -0.001763 0.019385 0.000000 0.000000 0.000000
# 4 0.000000 0.000000 0.000000 0.027465 0.000000 0.000000
# 5 0.000000 0.000000 0.000000 0.000000 0.031888 0.000000
# 6 0.000000 0.000000 0.000000 0.000000 0.000000 0.029614
#
#
# Mechanical properties :
#
#
# Convention : Reuss Voigt Hill
#
# Bulk Modulus (GPa) = 30.00152 34.96690 32.48421
# Shear Modulus (GPa) = 32.13038 33.41780 32.77409
#
# Velocity S-wave (km/s) = 3.71184 3.78547 3.74883
# Velocity P-wave (km/s) = 5.58884 5.83956 5.71558
#
# Compressibility (1/GPa) = 0.03333164
#
# Stress axis : x y z
#
# Youngs Moduli (GPa) = 81.36494 78.37130 51.58560
#
# Poissons Ratio (x) = 0.34848 -0.03394
# Poissons Ratio (y) = 0.36180 0.09096
# Poissons Ratio (z) = -0.05354 0.13819
#
# Static dielectric constant tensor:
#      x y z
#    x 4.362690 0.000000 0.000000 
#    y 0.000000 4.120100 0.000000 
#    z 0.000000 0.000000 4.169120 
# 
# 
# High freq. dielectric constant tensor:
#      x y z
#    x 1.937830 0.000000 0.000000 
#    y 0.000000 1.918690 0.000000 
#    z 0.000000 0.000000 1.921090 
# 
# From -- ./inp_files/5138.got.cif
#   From: 2010.03.12/outbox.cif.g09.slc.cpg/sg33_3_cif.got.tgz:5138.got - 2010.04.14 01:49:19.
