data_PCOD8171550
_publ_section_title
;
Structure prediction by ZEFSAII (Michael W. Deem and Ramdas Pophale) SiO2 
 PCOD8171550
Probable space group: P N A 21
;
_chemical_formula_sum "Si O2"
_cell_formula_units_Z 28
_cell_length_a 14.803469
_cell_length_b 14.640408
_cell_length_c 5.362048
_cell_angle_alpha 90.000000
_cell_angle_beta 90.000000
_cell_angle_gamma 90.000000
_cell_volume 1162.110368
_symmetry_space_group_name_H-M "P N A 21"
_symmetry_group_IT_number 33
_symmetry_cell_setting 'orthorhombic'
loop_
_space_group_symop_operation_xyz
x,y,z
-x,-y,1/2+z
1/2-x,1/2+y,1/2+z
1/2+x,1/2-y,z
loop_
_atom_site_type_symbol
_atom_site_label
_atom_site_fract_x
_atom_site_fract_y
_atom_site_fract_z
Si Si1 0.054041 0.139641 0.406500
Si Si2 0.948337 0.485014 0.580142
Si Si3 0.774223 0.571530 0.467779
Si Si4 0.095687 0.986395 0.744745
Si Si5 0.913827 0.281091 0.460948
Si Si6 0.306254 0.241558 0.951301
Si Si7 0.286991 0.571385 0.623512
O O1 0.157399 0.139903 0.307676
O O2 0.980742 0.090353 0.227435
O O3 0.016313 0.241841 0.446636
O O4 0.052906 0.082627 0.661743
O O5 0.861648 0.549918 0.637524
O O6 0.917938 0.388909 0.467925
O O7 0.995431 0.470271 0.849571
O O8 0.677163 0.544548 0.571170
O O9 0.771152 0.680378 0.419146
O O10 0.785839 0.500050 0.236681
O O11 0.137016 0.003965 0.014929
O O12 0.855649 0.250089 0.219835
O O13 0.871290 0.243162 0.716358
O O14 0.262684 0.139634 0.929676
#
# Coordination Sequence:
#
# PCOD8171550 Si02
#       7
#     4   4   4   4   4   4   4
#     4  11  24  39  71 108 145 185 238 304 375 432
#     4  12  29  51  77 105 148 201 254 306 367 447
#     4  11  26  46  74 105 146 200 251 306 384 450
#     4  11  22  42  70 105 146 185 235 304 381 435
#     4  12  27  50  73 107 149 193 251 307 371 440
#     4  12  27  46  75 106 144 200 246 307 370 446
#     4  11  25  44  72 106 148 192 245 308 368 456
#
# _framework density 24.094094999999999
#
# number of rings (size 3 to 8) (size 9 to 14) (size 15 to 20)
#    0.000    0.571    4.286    2.571   10.000    1.143 
#    0.000    0.000    0.000    0.000    0.000    0.000 
#    0.000    0.000    0.000    0.000    0.000    0.000 
#
# Total GULP energy -346950.457729 kJ/mol
# GULP energy per Si atom -12391.087776 kJ/mol
# Density = 2.403926 g / cm^3
# Si number density = 24.094095 Si / 1000 Ang^3
#
#
#
# Elastic Constant Matrix: (Units=GPa)
#
#
# Indices 1 2 3 4 5 6 
#
# 1 34.9377 -6.3373 6.6873 0.0000 0.0000 0.0000
# 2 -6.3373 99.7981 2.0936 0.0000 0.0000 0.0000
# 3 6.6873 2.0936 97.7190 0.0000 0.0000 0.0000
# 4 0.0000 0.0000 0.0000 23.7454 0.0000 0.0000
# 5 0.0000 0.0000 0.0000 0.0000 19.8979 0.0000
# 6 0.0000 0.0000 0.0000 0.0000 0.0000 42.9241
#
#
#
# Elastic Compliance Matrix: (Units=1/GPa)
#
#
# Indices 1 2 3 4 5 6 
#
# 1 0.029361 0.001907 -0.002050 0.000000 0.000000 0.000000
# 2 0.001907 0.010149 -0.000348 0.000000 0.000000 0.000000
# 3 -0.002050 -0.000348 0.010381 0.000000 0.000000 0.000000
# 4 0.000000 0.000000 0.000000 0.042113 0.000000 0.000000
# 5 0.000000 0.000000 0.000000 0.000000 0.050257 0.000000
# 6 0.000000 0.000000 0.000000 0.000000 0.000000 0.023297
#
#
# Mechanical properties :
#
#
# Convention : Reuss Voigt Hill
#
# Bulk Modulus (GPa) = 20.44603 26.37135 23.40869
# Shear Modulus (GPa) = 27.34601 32.64755 29.99678
#
# Velocity S-wave (km/s) = 3.37258 3.68503 3.53226
# Velocity P-wave (km/s) = 4.86519 5.39211 5.13541
#
# Compressibility (1/GPa) = 0.04890924
#
# Stress axis : x y z
#
# Youngs Moduli (GPa) = 34.05909 98.53518 96.32816
#
# Poissons Ratio (x) = -0.18795 0.19749
# Poissons Ratio (y) = -0.06497 0.03352
# Poissons Ratio (z) = 0.06983 0.03429
#
# Static dielectric constant tensor:
#      x y z
#    x 4.451600 0.000000 0.000000 
#    y 0.000000 4.479730 0.000000 
#    z 0.000000 0.000000 4.289530 
# 
# 
# High freq. dielectric constant tensor:
#      x y z
#    x 1.960140 0.000000 0.000000 
#    y 0.000000 1.957670 0.000000 
#    z 0.000000 0.000000 1.948320 
# 
# From -- ./inp_files/1421.got.cif
#   From: 2010.03.12/outbox.cif.g09.slc.cpg/sg33_1_cif.got.tgz:1421.got - 2010.04.14 01:49:19.
