data_PCOD8171005
_publ_section_title
;
Structure prediction by ZEFSAII (Michael W. Deem and Ramdas Pophale) SiO2 
 PCOD8171005
Probable space group: P N A 21
;
_chemical_formula_sum "Si O2"
_cell_formula_units_Z 24
_cell_length_a 9.362287
_cell_length_b 13.504986
_cell_length_c 8.122262
_cell_angle_alpha 90.000000
_cell_angle_beta 90.000000
_cell_angle_gamma 90.000000
_cell_volume 1026.958947
_symmetry_space_group_name_H-M "P N A 21"
_symmetry_group_IT_number 33
_symmetry_cell_setting 'orthorhombic'
loop_
_space_group_symop_operation_xyz
x,y,z
-x,-y,1/2+z
1/2-x,1/2+y,1/2+z
1/2+x,1/2-y,z
loop_
_atom_site_type_symbol
_atom_site_label
_atom_site_fract_x
_atom_site_fract_y
_atom_site_fract_z
Si Si1 0.232283 0.709416 0.480260
Si Si2 0.455502 0.859708 0.984424
Si Si3 0.614027 0.509408 0.304375
Si Si4 0.527777 0.636088 0.589173
Si Si5 0.664059 0.703536 0.127640
Si Si6 0.911601 0.452991 0.183320
O O1 0.401123 0.701716 0.509825
O O2 0.211713 0.736092 0.290005
O O3 0.151836 0.607887 0.527943
O O4 0.167551 0.795187 0.599264
O O5 0.475863 0.891632 0.793468
O O6 0.560094 0.769459 0.019624
O O7 0.295544 0.821566 0.008720
O O8 0.488531 0.950962 0.107601
O O9 0.563047 0.538698 0.483861
O O10 0.522377 0.410839 0.261363
O O11 0.586592 0.602053 0.181526
O O12 0.782095 0.484129 0.304065
#
# Coordination Sequence:
#
# PCOD8171005 Si02
#       6
#     4   4   4   4   4   4
#     4  10  21  40  62  88 124 165 210 260 314 378
#     4  11  23  41  64  93 127 166 212 265 324 389
#     4   9  21  39  60  89 123 161 207 257 314 377
#     4  10  21  39  62  88 120 158 203 254 311 372
#     4  10  21  39  62  90 125 166 211 263 320 379
#     4  10  23  40  62  94 129 168 215 263 321 389
#
# _framework density 23.369972000000001
#
# number of rings (size 3 to 8) (size 9 to 14) (size 15 to 20)
#    0.000    2.000    0.000    3.000    0.000    9.333 
#    0.000    3.333    0.000    0.000    0.000    0.000 
#    0.000    0.000    0.000    0.000    0.000    0.000 
#
# Total GULP energy -297613.493388 kJ/mol
# GULP energy per Si atom -12400.562225 kJ/mol
# Density = 2.331678 g / cm^3
# Si number density = 23.369972 Si / 1000 Ang^3
#
#
#
# Elastic Constant Matrix: (Units=GPa)
#
#
# Indices 1 2 3 4 5 6 
#
# 1 50.0411 18.6287 6.0868 0.0000 0.0000 0.0000
# 2 18.6287 73.7344 -4.2893 0.0000 0.0000 0.0000
# 3 6.0868 -4.2893 23.9333 0.0000 0.0000 0.0000
# 4 0.0000 0.0000 0.0000 44.2393 0.0000 0.0000
# 5 0.0000 0.0000 0.0000 0.0000 23.0041 0.0000
# 6 0.0000 0.0000 0.0000 0.0000 0.0000 31.1038
#
#
#
# Elastic Compliance Matrix: (Units=1/GPa)
#
#
# Indices 1 2 3 4 5 6 
#
# 1 0.023168 -0.006261 -0.007014 0.000000 0.000000 0.000000
# 2 -0.006261 0.015397 0.004352 0.000000 0.000000 0.000000
# 3 -0.007014 0.004352 0.044347 0.000000 0.000000 0.000000
# 4 0.000000 0.000000 0.000000 0.022604 0.000000 0.000000
# 5 0.000000 0.000000 0.000000 0.000000 0.043470 0.000000
# 6 0.000000 0.000000 0.000000 0.000000 0.000000 0.032150
#
#
# Mechanical properties :
#
#
# Convention : Reuss Voigt Hill
#
# Bulk Modulus (GPa) = 15.36941 20.95125 18.16033
# Shear Modulus (GPa) = 22.65806 28.15494 25.40650
#
# Velocity S-wave (km/s) = 3.11712 3.47471 3.30076
# Velocity P-wave (km/s) = 4.42109 5.00826 4.72381
#
# Compressibility (1/GPa) = 0.06506432
#
# Stress axis : x y z
#
# Youngs Moduli (GPa) = 43.16375 64.94677 22.54962
#
# Poissons Ratio (x) = 0.40665 0.15817
# Poissons Ratio (y) = 0.27026 -0.09813
# Poissons Ratio (z) = 0.30276 -0.28264
#
# Static dielectric constant tensor:
#      x y z
#    x 4.066290 0.000000 0.000000 
#    y 0.000000 4.423420 0.000000 
#    z 0.000000 0.000000 3.900080 
# 
# 
# High freq. dielectric constant tensor:
#      x y z
#    x 1.917340 0.000000 0.000000 
#    y 0.000000 1.942650 0.000000 
#    z 0.000000 0.000000 1.907240 
# 
# From -- ./inp_files/3067.got.cif
#   From: 2010.03.12/outbox.cif.g09.slc.cpg/sg33_2_cif.got.tgz:3067.got - 2010.04.14 01:49:19.
