data_PCOD8171963
_publ_section_title
;
Structure prediction by ZEFSAII (Michael W. Deem and Ramdas Pophale) SiO2 
 PCOD8171963
Probable space group: P N N 2
;
_chemical_formula_sum "Si O2"
_cell_formula_units_Z 24
_cell_length_a 14.144309
_cell_length_b 13.422287
_cell_length_c 6.253462
_cell_angle_alpha 90.000000
_cell_angle_beta 90.000000
_cell_angle_gamma 90.000000
_cell_volume 1187.213350
_symmetry_space_group_name_H-M "P N N 2"
_symmetry_group_IT_number 34
_symmetry_cell_setting 'orthorhombic'
loop_
_space_group_symop_operation_xyz
x,y,z
-x,-y,z
1/2-x,1/2+y,1/2+z
1/2+x,1/2-y,1/2+z
loop_
_atom_site_type_symbol
_atom_site_label
_atom_site_fract_x
_atom_site_fract_y
_atom_site_fract_z
Si Si1 0.235448 0.947851 0.475240
Si Si2 0.057462 0.231218 0.020987
Si Si3 0.586120 0.074539 0.237804
Si Si4 0.145255 0.852188 0.092886
Si Si5 0.676700 0.176267 0.853926
Si Si6 0.397430 0.533608 0.287292
O O1 0.320381 0.985246 0.321115
O O2 0.166124 0.875192 0.340991
O O3 0.282326 0.888819 0.665460
O O4 0.172703 0.035143 0.582207
O O5 0.116749 0.235018 0.243420
O O6 0.948580 0.212678 0.077677
O O7 0.063046 0.333581 0.892273
O O8 0.102236 0.144567 0.878196
O O9 0.500000 0.000000 0.233679
O O10 0.604548 0.112248 0.998085
O O11 0.233560 0.788164 0.996784
O O12 0.135962 0.957491 0.970819
O O13 0.500000 0.500000 0.203949
#
# Coordination Sequence:
#
# PCOD8171963 Si02
#       6
#     4   4   4   4   4   4
#     4   9  19  39  62  84 120 156 197 249 301 359
#     4  10  21  38  62  90 120 159 203 249 305 362
#     4  10  22  42  60  83 121 165 206 248 295 358
#     4   9  19  38  59  89 123 157 195 247 307 365
#     4   9  20  38  58  83 124 154 205 250 296 358
#     4   9  19  35  61  93 121 151 195 246 311 362
#
# _framework density 20.215403999999999
#
# number of rings (size 3 to 8) (size 9 to 14) (size 15 to 20)
#    0.000    2.667    0.000    0.000    0.000   10.000 
#   18.000    0.000    0.000    0.000    0.000    0.000 
#    0.000    0.000    0.000    0.000    0.000    0.000 
#
# Total GULP energy -297456.409730 kJ/mol
# GULP energy per Si atom -12394.017072 kJ/mol
# Density = 2.016939 g / cm^3
# Si number density = 20.215404 Si / 1000 Ang^3
#
#
#
# Elastic Constant Matrix: (Units=GPa)
#
#
# Indices 1 2 3 4 5 6 
#
# 1 164.0150 74.7690 79.0368 0.0000 0.0000 0.0000
# 2 74.7690 84.1590 44.4432 0.0000 0.0000 0.0000
# 3 79.0368 44.4432 122.9445 0.0000 0.0000 0.0000
# 4 0.0000 0.0000 0.0000 20.1101 0.0000 0.0000
# 5 0.0000 0.0000 0.0000 0.0000 26.1999 0.0000
# 6 0.0000 0.0000 0.0000 0.0000 0.0000 34.5241
#
#
#
# Elastic Compliance Matrix: (Units=1/GPa)
#
#
# Indices 1 2 3 4 5 6 
#
# 1 0.012216 -0.008288 -0.004857 0.000000 0.000000 0.000000
# 2 -0.008288 0.020309 -0.002013 0.000000 0.000000 0.000000
# 3 -0.004857 -0.002013 0.011984 0.000000 0.000000 0.000000
# 4 0.000000 0.000000 0.000000 0.049726 0.000000 0.000000
# 5 0.000000 0.000000 0.000000 0.000000 0.038168 0.000000
# 6 0.000000 0.000000 0.000000 0.000000 0.000000 0.028965
#
#
# Mechanical properties :
#
#
# Convention : Reuss Voigt Hill
#
# Bulk Modulus (GPa) = 70.46355 85.29074 77.87715
# Shear Modulus (GPa) = 25.45628 27.69146 26.57387
#
# Velocity S-wave (km/s) = 3.55244 3.70512 3.62959
# Velocity P-wave (km/s) = 7.19434 7.78373 7.49483
#
# Compressibility (1/GPa) = 0.01419173
#
# Stress axis : x y z
#
# Youngs Moduli (GPa) = 81.86179 49.24024 83.44426
#
# Poissons Ratio (x) = 0.40809 0.40530
# Poissons Ratio (y) = 0.67845 0.16801
# Poissons Ratio (z) = 0.39761 0.09914
#
# Static dielectric constant tensor:
#      x y z
#    x 4.230430 0.000000 0.000000 
#    y 0.000000 3.313970 0.000000 
#    z 0.000000 0.000000 4.020240 
# 
# 
# High freq. dielectric constant tensor:
#      x y z
#    x 1.810530 0.000000 0.000000 
#    y 0.000000 1.749400 0.000000 
#    z 0.000000 0.000000 1.804750 
# 
# From -- ./inp_files/1244.got.cif
#   From: 2010.03.12/outbox.cif.g09.slc.cpg/sg34_1_cif.got.tgz:1244.got - 2010.04.14 01:56:33.
