data_PCOD8171755
_publ_section_title
;
Structure prediction by ZEFSAII (Michael W. Deem and Ramdas Pophale) SiO2 
 PCOD8171755
Probable space group: P N A 21
;
_chemical_formula_sum "Si O2"
_cell_formula_units_Z 20
_cell_length_a 15.302133
_cell_length_b 12.059554
_cell_length_c 4.987445
_cell_angle_alpha 90.000000
_cell_angle_beta 90.000000
_cell_angle_gamma 90.000000
_cell_volume 920.367635
_symmetry_space_group_name_H-M "P N A 21"
_symmetry_group_IT_number 33
_symmetry_cell_setting 'orthorhombic'
loop_
_space_group_symop_operation_xyz
x,y,z
-x,-y,1/2+z
1/2-x,1/2+y,1/2+z
1/2+x,1/2-y,z
loop_
_atom_site_type_symbol
_atom_site_label
_atom_site_fract_x
_atom_site_fract_y
_atom_site_fract_z
Si Si1 0.286136 0.900038 0.508000
Si Si2 0.049114 0.542875 0.943557
Si Si3 0.511306 0.705697 0.021606
Si Si4 0.175538 0.942473 0.010922
Si Si5 0.104603 0.182118 0.018713
O O1 0.251738 0.903808 0.810874
O O2 0.333926 0.785041 0.450546
O O3 0.351817 0.001353 0.454816
O O4 0.204140 0.911322 0.310555
O O5 0.050797 0.671728 0.013175
O O6 0.011053 0.526671 0.646680
O O7 0.585551 0.618641 0.942612
O O8 0.430508 0.691055 0.820419
O O9 0.477678 0.680810 0.319525
O O10 0.162657 0.073346 0.982425
#
# Coordination Sequence:
#
# PCOD8171755 Si02
#       5
#     4   4   4   4   4
#     4  12  26  44  66 104 134 175 220 282 337 387
#     4  12  23  44  67  98 131 178 223 270 323 399
#     4  12  24  46  72  98 130 183 230 269 334 400
#     4  12  28  43  70  99 140 174 220 283 341 393
#     4  12  25  47  69  97 137 176 227 274 329 409
#
# _framework density 21.730446000000001
#
# number of rings (size 3 to 8) (size 9 to 14) (size 15 to 20)
#    0.000    0.000    4.000    6.000    5.600    0.000 
#    0.000    0.000    0.000    0.000    0.000    0.000 
#    0.000    0.000    0.000    0.000    0.000    0.000 
#
# Total GULP energy -248250.353614 kJ/mol
# GULP energy per Si atom -12412.517681 kJ/mol
# Density = 2.168099 g / cm^3
# Si number density = 21.730446 Si / 1000 Ang^3
#
#
#
# Elastic Constant Matrix: (Units=GPa)
#
#
# Indices 1 2 3 4 5 6 
#
# 1 89.1619 47.3921 17.6356 0.0000 0.0000 0.0000
# 2 47.3921 82.7494 26.0966 0.0000 0.0000 0.0000
# 3 17.6356 26.0966 85.0455 0.0000 0.0000 0.0000
# 4 0.0000 0.0000 0.0000 25.9470 0.0000 0.0000
# 5 0.0000 0.0000 0.0000 0.0000 53.8173 0.0000
# 6 0.0000 0.0000 0.0000 0.0000 0.0000 20.5409
#
#
#
# Elastic Compliance Matrix: (Units=1/GPa)
#
#
# Indices 1 2 3 4 5 6 
#
# 1 0.016148 -0.009070 -0.000565 0.000000 0.000000 0.000000
# 2 -0.009070 0.018474 -0.003788 0.000000 0.000000 0.000000
# 3 -0.000565 -0.003788 0.013038 0.000000 0.000000 0.000000
# 4 0.000000 0.000000 0.000000 0.038540 0.000000 0.000000
# 5 0.000000 0.000000 0.000000 0.000000 0.018581 0.000000
# 6 0.000000 0.000000 0.000000 0.000000 0.000000 0.048683
#
#
# Mechanical properties :
#
#
# Convention : Reuss Voigt Hill
#
# Bulk Modulus (GPa) = 48.04629 48.80061 48.42345
# Shear Modulus (GPa) = 26.70223 31.11652 28.90937
#
# Velocity S-wave (km/s) = 3.50922 3.78819 3.65137
# Velocity P-wave (km/s) = 6.21109 6.45290 6.33315
#
# Compressibility (1/GPa) = 0.02081326
#
# Stress axis : x y z
#
# Youngs Moduli (GPa) = 61.92539 54.13025 76.69876
#
# Poissons Ratio (x) = 0.49097 0.04337
# Poissons Ratio (y) = 0.56168 0.29053
# Poissons Ratio (z) = 0.03501 0.20504
#
# Static dielectric constant tensor:
#      x y z
#    x 3.782700 0.000000 0.000000 
#    y 0.000000 4.031760 0.000000 
#    z 0.000000 0.000000 3.974260 
# 
# 
# High freq. dielectric constant tensor:
#      x y z
#    x 1.856380 0.000000 0.000000 
#    y 0.000000 1.868580 0.000000 
#    z 0.000000 0.000000 1.868920 
# 
# From -- ./inp_files/681.got.cif
#   From: 2010.03.12/outbox.cif.g09.slc.cpg/sg33_1_cif.got.tgz:681.got - 2010.04.14 01:49:19.
