data_PCOD8171806
_publ_section_title
;
Structure prediction by ZEFSAII (Michael W. Deem and Ramdas Pophale) SiO2 
 PCOD8171806
Probable space group: P N A 21
;
_chemical_formula_sum "Si O2"
_cell_formula_units_Z 28
_cell_length_a 16.363881
_cell_length_b 6.656228
_cell_length_c 11.330414
_cell_angle_alpha 90.000000
_cell_angle_beta 90.000000
_cell_angle_gamma 90.000000
_cell_volume 1234.128214
_symmetry_space_group_name_H-M "P N A 21"
_symmetry_group_IT_number 33
_symmetry_cell_setting 'orthorhombic'
loop_
_space_group_symop_operation_xyz
x,y,z
-x,-y,1/2+z
1/2-x,1/2+y,1/2+z
1/2+x,1/2-y,z
loop_
_atom_site_type_symbol
_atom_site_label
_atom_site_fract_x
_atom_site_fract_y
_atom_site_fract_z
Si Si1 0.387077 0.978770 0.752770
Si Si2 0.809831 0.606472 0.214845
Si Si3 0.298242 0.277333 0.912659
Si Si4 0.562163 0.689192 0.064656
Si Si5 0.439211 0.184725 0.302374
Si Si6 0.188524 0.150958 0.098412
Si Si7 0.110039 0.016603 0.613195
O O1 0.347407 0.080835 0.868042
O O2 0.414202 0.138592 0.655348
O O3 0.464631 0.853418 0.796966
O O4 0.322170 0.827684 0.693762
O O5 0.729172 0.597673 0.298090
O O6 0.892662 0.521320 0.270990
O O7 0.776853 0.458630 0.113779
O O8 0.822717 0.831274 0.166244
O O9 0.208178 0.236839 0.968652
O O10 0.355700 0.407553 0.997467
O O11 0.608923 0.485705 0.097223
O O12 0.466358 0.647943 0.071715
O O13 0.586892 0.754486 0.933635
O O14 0.414605 0.360282 0.213437
#
# Coordination Sequence:
#
# PCOD8171806 Si02
#       7
#     4   4   4   4   4   4   4
#     4  12  28  51  73 116 148 202 256 308 381 462
#     4  12  27  48  74 109 151 195 249 314 382 444
#     4  12  28  46  80 108 156 190 254 318 374 452
#     4  12  28  48  79 105 153 199 250 311 379 458
#     4  12  28  48  79 105 153 199 250 311 379 458
#     4  12  27  48  74 109 151 195 249 314 382 444
#     4  12  28  51  73 116 148 202 256 308 381 462
#
# _framework density 22.688078000000001
#
# number of rings (size 3 to 8) (size 9 to 14) (size 15 to 20)
#    0.000    0.000    5.714    2.571   12.000    1.143 
#    0.000    0.000    0.000    0.000    0.000    0.000 
#    0.000    0.000    0.000    0.000    0.000    0.000 
#
# Total GULP energy -347291.320797 kJ/mol
# GULP energy per Si atom -12403.261457 kJ/mol
# Density = 2.263644 g / cm^3
# Si number density = 22.688078 Si / 1000 Ang^3
#
#
#
# Elastic Constant Matrix: (Units=GPa)
#
#
# Indices 1 2 3 4 5 6 
#
# 1 99.5028 44.8175 37.2916 0.0000 0.0000 0.0000
# 2 44.8175 129.1934 54.0215 0.0000 0.0000 0.0000
# 3 37.2916 54.0215 115.2859 0.0000 0.0000 0.0000
# 4 0.0000 0.0000 0.0000 38.8721 0.0000 0.0000
# 5 0.0000 0.0000 0.0000 0.0000 43.7387 0.0000
# 6 0.0000 0.0000 0.0000 0.0000 0.0000 49.6118
#
#
#
# Elastic Compliance Matrix: (Units=1/GPa)
#
#
# Indices 1 2 3 4 5 6 
#
# 1 0.012462 -0.003280 -0.002494 0.000000 0.000000 0.000000
# 2 -0.003280 0.010490 -0.003854 0.000000 0.000000 0.000000
# 3 -0.002494 -0.003854 0.011287 0.000000 0.000000 0.000000
# 4 0.000000 0.000000 0.000000 0.025725 0.000000 0.000000
# 5 0.000000 0.000000 0.000000 0.000000 0.022863 0.000000
# 6 0.000000 0.000000 0.000000 0.000000 0.000000 0.020156
#
#
# Mechanical properties :
#
#
# Convention : Reuss Voigt Hill
#
# Bulk Modulus (GPa) = 66.74831 68.47147 67.60989
# Shear Modulus (GPa) = 39.29726 40.30129 39.79928
#
# Velocity S-wave (km/s) = 4.16633 4.21921 4.19285
# Velocity P-wave (km/s) = 7.25453 7.34716 7.30099
#
# Compressibility (1/GPa) = 0.01498165
#
# Stress axis : x y z
#
# Youngs Moduli (GPa) = 80.24288 95.32925 88.59788
#
# Poissons Ratio (x) = 0.31271 0.22097
# Poissons Ratio (y) = 0.26322 0.34149
# Poissons Ratio (z) = 0.20013 0.36744
#
# Static dielectric constant tensor:
#      x y z
#    x 4.093570 0.000000 0.000000 
#    y 0.000000 4.097820 0.000000 
#    z 0.000000 0.000000 4.149600 
# 
# 
# High freq. dielectric constant tensor:
#      x y z
#    x 1.905970 0.000000 0.000000 
#    y 0.000000 1.905240 0.000000 
#    z 0.000000 0.000000 1.910160 
# 
# From -- ./inp_files/6964.got.cif
#   From: 2010.03.12/outbox.cif.g09.slc.cpg/sg33_4_cif.got.tgz:6964.got - 2010.04.14 01:49:19.
