data_PCOD8171347
_publ_section_title
;
Structure prediction by ZEFSAII (Michael W. Deem and Ramdas Pophale) SiO2 
 PCOD8171347
Probable space group: P N A 21
;
_chemical_formula_sum "Si O2"
_cell_formula_units_Z 32
_cell_length_a 8.544269
_cell_length_b 11.436812
_cell_length_c 15.498141
_cell_angle_alpha 90.000000
_cell_angle_beta 90.000000
_cell_angle_gamma 90.000000
_cell_volume 1514.465913
_symmetry_space_group_name_H-M "P N A 21"
_symmetry_group_IT_number 33
_symmetry_cell_setting 'orthorhombic'
loop_
_space_group_symop_operation_xyz
x,y,z
-x,-y,1/2+z
1/2-x,1/2+y,1/2+z
1/2+x,1/2-y,z
loop_
_atom_site_type_symbol
_atom_site_label
_atom_site_fract_x
_atom_site_fract_y
_atom_site_fract_z
Si Si1 0.396454 0.583713 0.467670
Si Si2 0.350507 0.404822 0.328566
Si Si3 0.731021 0.691828 0.433660
Si Si4 0.365848 0.737359 0.748518
Si Si5 0.905814 0.583222 0.594527
Si Si6 0.760118 0.452236 0.135683
Si Si7 0.291895 0.101295 0.712402
Si Si8 0.852560 0.660477 0.246082
O O1 0.391573 0.455519 0.422995
O O2 0.551548 0.657019 0.446103
O O3 0.252763 0.667528 0.437122
O O4 0.387216 0.559409 0.570476
O O5 0.496500 0.342699 0.283764
O O6 0.211634 0.308231 0.328823
O O7 0.300681 0.518063 0.276319
O O8 0.831600 0.636742 0.510226
O O9 0.789186 0.644118 0.342522
O O10 0.414020 0.829527 0.675621
O O11 0.238535 0.652248 0.705095
O O12 0.811700 0.465319 0.620925
O O13 0.085638 0.551767 0.575586
O O14 0.754091 0.572466 0.187257
O O15 0.181869 0.213838 0.703899
O O16 0.462550 0.136211 0.748827
#
# Coordination Sequence:
#
# PCOD8171347 Si02
#       8
#     4   4   4   4   4   4   4   4
#     4  12  26  41  66 104 137 180 228 289 342 407
#     4  11  25  44  68 101 135 178 231 287 343 414
#     4  12  24  41  69 104 135 174 232 291 337 401
#     4  11  22  43  70  96 134 178 233 281 346 406
#     4  10  23  42  67 101 131 174 230 289 331 404
#     4  11  24  42  68  99 137 183 222 282 342 411
#     4  10  24  41  68  99 136 179 220 280 350 411
#     4  11  24  44  66 102 139 180 224 281 355 414
#
# _framework density 21.129560999999999
#
# number of rings (size 3 to 8) (size 9 to 14) (size 15 to 20)
#    0.000    1.000    3.750    2.250    7.000    0.000 
#    0.000    5.000    0.000    0.000    0.000    0.000 
#    0.000    0.000    0.000    0.000    0.000    0.000 
#
# Total GULP energy -396724.766898 kJ/mol
# GULP energy per Si atom -12397.648966 kJ/mol
# Density = 2.108147 g / cm^3
# Si number density = 21.129561 Si / 1000 Ang^3
#
#
#
# Elastic Constant Matrix: (Units=GPa)
#
#
# Indices 1 2 3 4 5 6 
#
# 1 77.3913 56.1628 45.4785 0.0000 0.0000 0.0000
# 2 56.1628 131.5764 68.2418 0.0000 0.0000 0.0000
# 3 45.4785 68.2418 90.5948 0.0000 0.0000 0.0000
# 4 0.0000 0.0000 0.0000 36.6683 0.0000 0.0000
# 5 0.0000 0.0000 0.0000 0.0000 25.1538 0.0000
# 6 0.0000 0.0000 0.0000 0.0000 0.0000 39.9165
#
#
#
# Elastic Compliance Matrix: (Units=1/GPa)
#
#
# Indices 1 2 3 4 5 6 
#
# 1 0.020586 -0.005625 -0.006097 0.000000 0.000000 0.000000
# 2 -0.005625 0.014010 -0.007730 0.000000 0.000000 0.000000
# 3 -0.006097 -0.007730 0.019921 0.000000 0.000000 0.000000
# 4 0.000000 0.000000 0.000000 0.027272 0.000000 0.000000
# 5 0.000000 0.000000 0.000000 0.000000 0.039755 0.000000
# 6 0.000000 0.000000 0.000000 0.000000 0.000000 0.025052
#
#
# Mechanical properties :
#
#
# Convention : Reuss Voigt Hill
#
# Bulk Modulus (GPa) = 64.04390 71.03652 67.54021
# Shear Modulus (GPa) = 26.21846 28.99300 27.60573
#
# Velocity S-wave (km/s) = 3.52638 3.70828 3.61847
# Velocity P-wave (km/s) = 6.85247 7.21301 7.03505
#
# Compressibility (1/GPa) = 0.01561429
#
# Stress axis : x y z
#
# Youngs Moduli (GPa) = 48.57585 71.37759 50.19717
#
# Poissons Ratio (x) = 0.40149 0.30607
# Poissons Ratio (y) = 0.27323 0.38800
# Poissons Ratio (z) = 0.29619 0.55172
#
# Static dielectric constant tensor:
#      x y z
#    x 3.894890 0.000000 0.000000 
#    y 0.000000 4.166950 0.000000 
#    z 0.000000 0.000000 3.776610 
# 
# 
# High freq. dielectric constant tensor:
#      x y z
#    x 1.837300 0.000000 0.000000 
#    y 0.000000 1.837770 0.000000 
#    z 0.000000 0.000000 1.812450 
# 
# From -- ./inp_files/7620.got.cif
#   From: 2010.03.12/outbox.cif.g09.slc.cpg/sg33_4_cif.got.tgz:7620.got - 2010.04.14 01:49:19.
