data_PCOD8171661
_publ_section_title
;
Structure prediction by ZEFSAII (Michael W. Deem and Ramdas Pophale) SiO2 
 PCOD8171661
Probable space group: P N A 21
;
_chemical_formula_sum "Si O2"
_cell_formula_units_Z 24
_cell_length_a 18.114946
_cell_length_b 7.284877
_cell_length_c 7.728711
_cell_angle_alpha 90.000000
_cell_angle_beta 90.000000
_cell_angle_gamma 90.000000
_cell_volume 1019.920533
_symmetry_space_group_name_H-M "P N A 21"
_symmetry_group_IT_number 33
_symmetry_cell_setting 'orthorhombic'
loop_
_space_group_symop_operation_xyz
x,y,z
-x,-y,1/2+z
1/2-x,1/2+y,1/2+z
1/2+x,1/2-y,z
loop_
_atom_site_type_symbol
_atom_site_label
_atom_site_fract_x
_atom_site_fract_y
_atom_site_fract_z
Si Si1 0.475568 0.669411 0.357810
Si Si2 0.411309 0.058066 0.795078
Si Si3 0.655550 0.841992 0.632654
Si Si4 0.272198 0.940915 0.593101
Si Si5 0.316937 0.772886 0.239539
Si Si6 0.994523 0.232336 0.256008
O O1 0.524043 0.801884 0.229659
O O2 0.390548 0.671540 0.301806
O O3 0.481688 0.735748 0.555067
O O4 0.506633 0.463844 0.343204
O O5 0.355442 0.979582 0.652224
O O6 0.455138 0.876834 0.862124
O O7 0.370501 0.188814 0.935227
O O8 0.727410 0.723591 0.689121
O O9 0.591363 0.793535 0.769638
O O10 0.669152 0.058362 0.613675
O O11 0.229139 0.129743 0.625843
O O12 0.273204 0.871201 0.396488
#
# Coordination Sequence:
#
# PCOD8171661 Si02
#       6
#     4   4   4   4   4   4
#     4  11  25  43  70 104 137 186 237 292 350 428
#     4  11  25  45  69 104 141 183 237 294 352 425
#     4  11  26  44  70 101 141 186 234 298 355 434
#     4  12  26  47  68 106 141 188 236 294 366 434
#     4  12  26  46  72 100 144 187 239 296 366 434
#     4  11  24  43  71 101 140 180 239 290 357 423
#
# _framework density 23.531245999999999
#
# number of rings (size 3 to 8) (size 9 to 14) (size 15 to 20)
#    0.000    0.667    6.667    0.000    4.667    2.667 
#    0.000    0.000    0.000    0.000    0.000    0.000 
#    0.000    0.000    0.000    0.000    0.000    0.000 
#
# Total GULP energy -297382.044163 kJ/mol
# GULP energy per Si atom -12390.918507 kJ/mol
# Density = 2.347769 g / cm^3
# Si number density = 23.531246 Si / 1000 Ang^3
#
#
#
# Elastic Constant Matrix: (Units=GPa)
#
#
# Indices 1 2 3 4 5 6 
#
# 1 119.9646 57.6635 26.1208 0.0000 0.0000 0.0000
# 2 57.6635 177.1543 7.6451 0.0000 0.0000 0.0000
# 3 26.1208 7.6451 33.2174 0.0000 0.0000 0.0000
# 4 0.0000 0.0000 0.0000 37.2098 0.0000 0.0000
# 5 0.0000 0.0000 0.0000 0.0000 16.9157 0.0000
# 6 0.0000 0.0000 0.0000 0.0000 0.0000 49.5641
#
#
#
# Elastic Compliance Matrix: (Units=1/GPa)
#
#
# Indices 1 2 3 4 5 6 
#
# 1 0.011875 -0.003497 -0.008533 0.000000 0.000000 0.000000
# 2 -0.003497 0.006731 0.001201 0.000000 0.000000 0.000000
# 3 -0.008533 0.001201 0.036538 0.000000 0.000000 0.000000
# 4 0.000000 0.000000 0.000000 0.026875 0.000000 0.000000
# 5 0.000000 0.000000 0.000000 0.000000 0.059117 0.000000
# 6 0.000000 0.000000 0.000000 0.000000 0.000000 0.020176
#
#
# Mechanical properties :
#
#
# Convention : Reuss Voigt Hill
#
# Bulk Modulus (GPa) = 29.86341 57.02169 43.44255
# Shear Modulus (GPa) = 25.75572 36.66504 31.21038
#
# Velocity S-wave (km/s) = 3.31196 3.95161 3.64584
# Velocity P-wave (km/s) = 5.22915 6.71605 6.01869
#
# Compressibility (1/GPa) = 0.03348579
#
# Stress axis : x y z
#
# Youngs Moduli (GPa) = 84.21341 148.56132 27.36851
#
# Poissons Ratio (x) = 0.51951 0.23353
# Poissons Ratio (y) = 0.29449 -0.03286
# Poissons Ratio (z) = 0.71858 -0.17837
#
# Static dielectric constant tensor:
#      x y z
#    x 4.554810 0.000000 0.000000 
#    y 0.000000 4.363880 0.000000 
#    z 0.000000 0.000000 3.772440 
# 
# 
# High freq. dielectric constant tensor:
#      x y z
#    x 1.947600 0.000000 0.000000 
#    y 0.000000 1.948110 0.000000 
#    z 0.000000 0.000000 1.901430 
# 
# From -- ./inp_files/4627.got.cif
#   From: 2010.03.12/outbox.cif.g09.slc.cpg/sg33_3_cif.got.tgz:4627.got - 2010.04.14 01:49:19.
