data_PCOD8171473
_publ_section_title
;
Structure prediction by ZEFSAII (Michael W. Deem and Ramdas Pophale) SiO2 
 PCOD8171473
Probable space group: P N A 21
;
_chemical_formula_sum "Si O2"
_cell_formula_units_Z 32
_cell_length_a 12.348406
_cell_length_b 6.661635
_cell_length_c 17.739969
_cell_angle_alpha 90.000000
_cell_angle_beta 90.000000
_cell_angle_gamma 90.000000
_cell_volume 1459.300026
_symmetry_space_group_name_H-M "P N A 21"
_symmetry_group_IT_number 33
_symmetry_cell_setting 'orthorhombic'
loop_
_space_group_symop_operation_xyz
x,y,z
-x,-y,1/2+z
1/2-x,1/2+y,1/2+z
1/2+x,1/2-y,z
loop_
_atom_site_type_symbol
_atom_site_label
_atom_site_fract_x
_atom_site_fract_y
_atom_site_fract_z
Si Si1 0.171188 0.989158 0.446180
Si Si2 0.660497 0.170916 0.326378
Si Si3 0.942851 0.941119 0.516786
Si Si4 0.032659 0.400332 0.774074
Si Si5 0.688960 0.344264 0.877158
Si Si6 0.232334 0.596196 0.698071
Si Si7 0.605394 0.723633 0.149432
Si Si8 0.190844 0.390515 0.084723
O O1 0.156264 0.201688 0.404077
O O2 0.216214 0.818155 0.390698
O O3 0.255701 0.008591 0.515019
O O4 0.057613 0.913852 0.477761
O O5 0.681290 0.319564 0.257753
O O6 0.549803 0.048344 0.316487
O O7 0.760877 0.016910 0.325460
O O8 0.850007 0.956892 0.452973
O O9 0.913819 0.741333 0.562881
O O10 0.945868 0.133066 0.572704
O O11 0.089551 0.265704 0.837293
O O12 0.115532 0.548688 0.731706
O O13 0.981566 0.236532 0.716972
O O14 0.285403 0.391237 0.670058
O O15 0.220856 0.751740 0.628216
O O16 0.641669 0.951748 0.141813
#
# Coordination Sequence:
#
# PCOD8171473 Si02
#       8
#     4   4   4   4   4   4   4   4
#     4  11  25  43  71 102 141 185 239 294 357 423
#     4  12  26  45  70 104 139 184 236 293 361 423
#     4  10  25  43  72  99 138 184 240 285 356 426
#     4  12  26  43  77 100 142 191 236 290 366 424
#     4  11  25  47  66 103 143 182 232 301 348 428
#     4  11  26  44  68 107 141 180 238 295 349 427
#     4  11  25  46  68 105 136 188 235 287 358 426
#     4  10  24  47  68  98 146 182 234 299 347 421
#
# _framework density 21.928322999999999
#
# number of rings (size 3 to 8) (size 9 to 14) (size 15 to 20)
#    0.000    1.000    2.500    2.250    7.000    3.000 
#    0.000    0.000    0.000    0.000    0.000    0.000 
#    0.000    0.000    0.000    0.000    0.000    0.000 
#
# Total GULP energy -396891.987460 kJ/mol
# GULP energy per Si atom -12402.874608 kJ/mol
# Density = 2.187841 g / cm^3
# Si number density = 21.928323 Si / 1000 Ang^3
#
#
#
# Elastic Constant Matrix: (Units=GPa)
#
#
# Indices 1 2 3 4 5 6 
#
# 1 93.2362 50.1126 33.3774 0.0000 0.0000 0.0000
# 2 50.1126 106.7670 54.9538 0.0000 0.0000 0.0000
# 3 33.3774 54.9538 104.4430 0.0000 0.0000 0.0000
# 4 0.0000 0.0000 0.0000 47.5704 0.0000 0.0000
# 5 0.0000 0.0000 0.0000 0.0000 44.7729 0.0000
# 6 0.0000 0.0000 0.0000 0.0000 0.0000 19.1001
#
#
#
# Elastic Compliance Matrix: (Units=1/GPa)
#
#
# Indices 1 2 3 4 5 6 
#
# 1 0.014501 -0.006063 -0.001444 0.000000 0.000000 0.000000
# 2 -0.006063 0.015380 -0.006155 0.000000 0.000000 0.000000
# 3 -0.001444 -0.006155 0.013274 0.000000 0.000000 0.000000
# 4 0.000000 0.000000 0.000000 0.021021 0.000000 0.000000
# 5 0.000000 0.000000 0.000000 0.000000 0.022335 0.000000
# 6 0.000000 0.000000 0.000000 0.000000 0.000000 0.052356
#
#
# Mechanical properties :
#
#
# Convention : Reuss Voigt Hill
#
# Bulk Modulus (GPa) = 63.16380 64.59265 63.87822
# Shear Modulus (GPa) = 29.15991 33.35552 31.25772
#
# Velocity S-wave (km/s) = 3.65058 3.90438 3.77961
# Velocity P-wave (km/s) = 6.82907 7.06015 6.94557
#
# Compressibility (1/GPa) = 0.01583185
#
# Stress axis : x y z
#
# Youngs Moduli (GPa) = 68.95995 65.02032 75.33280
#
# Poissons Ratio (x) = 0.39422 0.10879
# Poissons Ratio (y) = 0.41811 0.46365
# Poissons Ratio (z) = 0.09958 0.40018
#
# Static dielectric constant tensor:
#      x y z
#    x 3.798000 0.000000 0.000000 
#    y 0.000000 3.927920 0.000000 
#    z 0.000000 0.000000 4.184140 
# 
# 
# High freq. dielectric constant tensor:
#      x y z
#    x 1.858280 0.000000 0.000000 
#    y 0.000000 1.868130 0.000000 
#    z 0.000000 0.000000 1.878450 
# 
# From -- ./inp_files/9156.got.cif
#   From: 2010.03.12/outbox.cif.g09.slc.cpg/sg33_5_cif.got.tgz:9156.got - 2010.04.14 01:49:19.
