data_PCOD8171946
_publ_section_title
;
Structure prediction by ZEFSAII (Michael W. Deem and Ramdas Pophale) SiO2 
 PCOD8171946
Probable space group: P N N 2
;
_chemical_formula_sum "Si O2"
_cell_formula_units_Z 20
_cell_length_a 15.997869
_cell_length_b 8.463329
_cell_length_c 6.559941
_cell_angle_alpha 90.000000
_cell_angle_beta 90.000000
_cell_angle_gamma 90.000000
_cell_volume 888.184712
_symmetry_space_group_name_H-M "P N N 2"
_symmetry_group_IT_number 34
_symmetry_cell_setting 'orthorhombic'
loop_
_space_group_symop_operation_xyz
x,y,z
-x,-y,z
1/2-x,1/2+y,1/2+z
1/2+x,1/2-y,1/2+z
loop_
_atom_site_type_symbol
_atom_site_label
_atom_site_fract_x
_atom_site_fract_y
_atom_site_fract_z
Si Si1 0.268714 0.316312 0.968900
Si Si2 0.110186 0.253883 0.204021
Si Si3 0.000000 0.500000 0.992739
Si Si4 0.500000 0.500000 0.498306
Si Si5 0.108234 0.757941 0.778657
Si Si6 0.232147 0.189417 0.526373
O O1 0.253720 0.277057 0.735154
O O2 0.193849 0.221836 0.076290
O O3 0.362418 0.257906 0.039578
O O4 0.262000 0.500582 0.028777
O O5 0.140177 0.245564 0.441652
O O6 0.044726 0.117700 0.153597
O O7 0.067073 0.419014 0.142607
O O8 0.951481 0.385988 0.837812
O O9 0.435655 0.419373 0.343864
O O10 0.197611 0.758471 0.882599
#
# Coordination Sequence:
#
# PCOD8171946 Si02
#       6
#     4   4   2   2   4   4
#     4  11  23  43  71 102 137 191 240 289 352 435
#     4  10  22  41  70  98 145 177 233 292 353 423
#     4  10  20  46  66 110 138 180 228 300 356 414
#     4  10  20  42  70 106 144 186 228 300 360 422
#     4  10  22  41  70  98 145 177 233 292 353 423
#     4  11  23  43  71 102 137 191 240 289 352 435
#
# _framework density 22.517838999999999
#
# number of rings (size 3 to 8) (size 9 to 14) (size 15 to 20)
#    0.000    1.600    2.000    2.400    0.000    4.800 
#    0.000   21.000    0.000    0.000    0.000    0.000 
#    0.000    0.000    0.000    0.000    0.000    0.000 
#
# Total GULP energy -247826.640449 kJ/mol
# GULP energy per Si atom -12391.332022 kJ/mol
# Density = 2.246659 g / cm^3
# Si number density = 22.517839 Si / 1000 Ang^3
#
#
#
# Elastic Constant Matrix: (Units=GPa)
#
#
# Indices 1 2 3 4 5 6 
#
# 1 100.9768 15.7621 39.7411 0.0000 0.0000 0.0000
# 2 15.7621 77.7942 7.5414 0.0000 0.0000 0.0000
# 3 39.7411 7.5414 90.8754 0.0000 0.0000 0.0000
# 4 0.0000 0.0000 0.0000 12.0310 0.0000 0.0000
# 5 0.0000 0.0000 0.0000 0.0000 51.3352 0.0000
# 6 0.0000 0.0000 0.0000 0.0000 0.0000 44.5532
#
#
#
# Elastic Compliance Matrix: (Units=1/GPa)
#
#
# Indices 1 2 3 4 5 6 
#
# 1 0.012257 -0.001980 -0.005196 0.000000 0.000000 0.000000
# 2 -0.001980 0.013278 -0.000236 0.000000 0.000000 0.000000
# 3 -0.005196 -0.000236 0.013296 0.000000 0.000000 0.000000
# 4 0.000000 0.000000 0.000000 0.083119 0.000000 0.000000
# 5 0.000000 0.000000 0.000000 0.000000 0.019480 0.000000
# 6 0.000000 0.000000 0.000000 0.000000 0.000000 0.022445
#
#
# Mechanical properties :
#
#
# Convention : Reuss Voigt Hill
#
# Bulk Modulus (GPa) = 41.65305 43.97065 42.81185
# Shear Modulus (GPa) = 26.78071 35.35734 31.06902
#
# Velocity S-wave (km/s) = 3.45238 3.96686 3.71853
# Velocity P-wave (km/s) = 5.86770 6.36795 6.12293
#
# Compressibility (1/GPa) = 0.02400785
#
# Stress axis : x y z
#
# Youngs Moduli (GPa) = 81.58427 75.30998 75.21091
#
# Poissons Ratio (x) = 0.14910 0.39079
# Poissons Ratio (y) = 0.16152 0.01776
# Poissons Ratio (z) = 0.42391 0.01778
#
# Static dielectric constant tensor:
#      x y z
#    x 4.778200 0.000000 0.000000 
#    y 0.000000 4.064120 0.000000 
#    z 0.000000 0.000000 4.380840 
# 
# 
# High freq. dielectric constant tensor:
#      x y z
#    x 1.905770 0.000000 0.000000 
#    y 0.000000 1.890720 0.000000 
#    z 0.000000 0.000000 1.878690 
# 
# From -- ./inp_files/396.got.cif
#   From: 2010.03.12/outbox.cif.g09.slc.cpg/sg34_1_cif.got.tgz:396.got - 2010.04.14 01:56:33.
