data_PCOD8171931
_publ_section_title
;
Structure prediction by ZEFSAII (Michael W. Deem and Ramdas Pophale) SiO2 
 PCOD8171931
Probable space group: P N N 2
;
_chemical_formula_sum "Si O2"
_cell_formula_units_Z 26
_cell_length_a 24.969305
_cell_length_b 5.111574
_cell_length_c 8.734697
_cell_angle_alpha 90.000000
_cell_angle_beta 90.000000
_cell_angle_gamma 90.000000
_cell_volume 1114.830780
_symmetry_space_group_name_H-M "P N N 2"
_symmetry_group_IT_number 34
_symmetry_cell_setting 'orthorhombic'
loop_
_space_group_symop_operation_xyz
x,y,z
-x,-y,z
1/2-x,1/2+y,1/2+z
1/2+x,1/2-y,1/2+z
loop_
_atom_site_type_symbol
_atom_site_label
_atom_site_fract_x
_atom_site_fract_y
_atom_site_fract_z
Si Si1 0.089866 0.349396 0.666510
Si Si2 0.000000 0.000000 0.303980
Si Si3 0.248710 0.276717 0.891453
Si Si4 0.133262 0.334543 0.982374
Si Si5 0.500000 0.500000 0.305874
Si Si6 0.500000 0.000000 0.989802
Si Si7 0.926220 0.185267 0.049221
Si Si8 0.796197 0.734761 0.544975
O O1 0.116231 0.461391 0.819642
O O2 0.139475 0.257144 0.562041
O O3 0.046225 0.120928 0.700086
O O4 0.053230 0.576593 0.589064
O O5 0.019771 0.248720 0.398081
O O6 0.949301 0.092006 0.208832
O O7 0.196656 0.329659 0.996420
O O8 0.233708 0.249302 0.711018
O O9 0.285476 0.524138 0.930586
O O10 0.278094 0.019626 0.951858
O O11 0.104771 0.544938 0.093470
O O12 0.114605 0.037333 0.993826
O O13 0.526764 0.716764 0.421453
#
# Coordination Sequence:
#
# PCOD8171931 Si02
#       8
#     4   2   4   4   2   2   4   4
#     4  10  23  41  68  96 130 173 221 275 331 400
#     4  11  25  40  54  88 143 169 200 270 312 419
#     4  11  24  46  69 102 138 179 232 298 340 413
#     4  10  21  40  69  94 118 168 228 277 321 385
#     4   9  19  38  70  98 123 167 228 278 326 395
#     4  12  24  42  58  90 132 174 212 254 334 394
#     4  10  20  39  63  94 125 167 220 268 330 377
#     4  11  25  47  71 102 141 179 235 288 354 407
#
# _framework density 23.321926999999999
#
# number of rings (size 3 to 8) (size 9 to 14) (size 15 to 20)
#    0.000    1.538    0.000    4.154    0.000   14.154 
#   16.615    0.000    0.000    0.000    0.000    0.000 
#    0.000    0.000    0.000    0.000    0.000    0.000 
#
# Total GULP energy -322212.011477 kJ/mol
# GULP energy per Si atom -12392.769672 kJ/mol
# Density = 2.326885 g / cm^3
# Si number density = 23.321927 Si / 1000 Ang^3
#
#
#
# Elastic Constant Matrix: (Units=GPa)
#
#
# Indices 1 2 3 4 5 6 
#
# 1 133.9514 36.4502 27.7834 0.0000 0.0000 0.0000
# 2 36.4502 131.6153 27.2458 0.0000 0.0000 0.0000
# 3 27.7834 27.2458 74.9152 0.0000 0.0000 0.0000
# 4 0.0000 0.0000 0.0000 15.7800 0.0000 0.0000
# 5 0.0000 0.0000 0.0000 0.0000 -8.0264 0.0000
# 6 0.0000 0.0000 0.0000 0.0000 0.0000 37.1230
#
#
#
# Elastic Compliance Matrix: (Units=1/GPa)
#
#
# Indices 1 2 3 4 5 6 
#
# 1 0.008479 -0.001835 -0.002477 0.000000 0.000000 0.000000
# 2 -0.001835 0.008614 -0.002452 0.000000 0.000000 0.000000
# 3 -0.002477 -0.002452 0.015159 0.000000 0.000000 0.000000
# 4 0.000000 0.000000 0.000000 0.063371 0.000000 0.000000
# 5 0.000000 0.000000 0.000000 0.000000 -0.124590 0.000000
# 6 0.000000 0.000000 0.000000 0.000000 0.000000 0.026937
#
#
# Mechanical properties :
#
#
# Convention : Reuss Voigt Hill
#
# Bulk Modulus (GPa) = 53.41162 58.16009 55.78586
# Shear Modulus (GPa) = 281.85038 25.57549 153.71294
#
# Velocity S-wave (km/s) = 11.00520 3.31513 8.12726
# Velocity P-wave (km/s) = 13.58078 6.29647 10.58497
#
# Compressibility (1/GPa) = 0.01872252
#
# Stress axis : x y z
#
# Youngs Moduli (GPa) = 117.94452 116.09274 65.96825
#
# Poissons Ratio (x) = 0.21307 0.16340
# Poissons Ratio (y) = 0.21647 0.16176
# Poissons Ratio (z) = 0.29214 0.28467
#
# Static dielectric constant tensor:
#      x y z
#    x 4.938590 0.000000 0.000000 
#    y 0.000000 3.963130 0.000000 
#    z 0.000000 0.000000 4.438800 
# 
# 
# High freq. dielectric constant tensor:
#      x y z
#    x 1.931080 0.000000 0.000000 
#    y 0.000000 1.918620 0.000000 
#    z 0.000000 0.000000 1.921220 
# 
# From -- ./inp_files/2133.got.cif
#   From: 2010.03.12/outbox.cif.g09.slc.cpg/sg34_2_cif.got.tgz:2133.got - 2010.04.14 01:56:33.
