data_PCOD8171902
_publ_section_title
;
Structure prediction by ZEFSAII (Michael W. Deem and Ramdas Pophale) SiO2 
 PCOD8171902
Probable space group: P N N 2
;
_chemical_formula_sum "Si O2"
_cell_formula_units_Z 32
_cell_length_a 20.154545
_cell_length_b 10.594302
_cell_length_c 8.174563
_cell_angle_alpha 90.000000
_cell_angle_beta 90.000000
_cell_angle_gamma 90.000000
_cell_volume 1745.459965
_symmetry_space_group_name_H-M "P N N 2"
_symmetry_group_IT_number 34
_symmetry_cell_setting 'orthorhombic'
loop_
_space_group_symop_operation_xyz
x,y,z
-x,-y,z
1/2-x,1/2+y,1/2+z
1/2+x,1/2-y,1/2+z
loop_
_atom_site_type_symbol
_atom_site_label
_atom_site_fract_x
_atom_site_fract_y
_atom_site_fract_z
Si Si1 0.268858 0.529479 0.322960
Si Si2 0.347024 0.110053 0.038397
Si Si3 0.507192 0.858817 0.951831
Si Si4 0.250315 0.761369 0.742364
Si Si5 0.449163 0.615360 0.788748
Si Si6 0.325447 0.629180 0.001950
Si Si7 0.362607 0.714206 0.509460
Si Si8 0.610652 0.145423 0.186072
O O1 0.195973 0.579277 0.375244
O O2 0.269377 0.380072 0.354046
O O3 0.288111 0.541186 0.131800
O O4 0.323941 0.597106 0.430473
O O5 0.312467 0.220718 0.138090
O O6 0.356636 0.991147 0.159292
O O7 0.416359 0.168764 0.984835
O O8 0.482802 0.748394 0.834040
O O9 0.500000 0.000000 0.872467
O O10 0.464662 0.855297 0.119659
O O11 0.313572 0.794100 0.626389
O O12 0.271891 0.647213 0.859301
O O13 0.500000 0.500000 0.777788
O O14 0.420432 0.644934 0.609726
O O15 0.393048 0.573459 0.921423
O O16 0.342550 0.761748 0.084718
O O17 0.391462 0.811561 0.375362
#
# Coordination Sequence:
#
# PCOD8171902 Si02
#       8
#     4   4   4   4   4   4   4   4
#     4  10  20  37  56  84 114 146 186 236 285 339
#     4  10  20  35  56  87 111 141 192 243 275 339
#     4   9  20  38  60  81 110 151 191 238 286 341
#     4  10  20  34  56  85 113 144 186 233 282 338
#     4  10  21  40  60  84 115 153 192 237 286 346
#     4   9  19  36  58  79 110 153 179 221 295 342
#     4   9  21  38  56  80 113 156 183 228 292 343
#     4   9  17  38  58  74 113 151 182 225 288 337
#
# _framework density 18.333276000000001
#
# number of rings (size 3 to 8) (size 9 to 14) (size 15 to 20)
#    0.000    2.500    1.250    0.000    5.250    0.000 
#    4.500    3.125    0.000    0.000    0.000    0.000 
#    0.000    0.000    0.000    0.000    0.000    0.000 
#
# Total GULP energy -396621.367321 kJ/mol
# GULP energy per Si atom -12394.417729 kJ/mol
# Density = 1.829155 g / cm^3
# Si number density = 18.333276 Si / 1000 Ang^3
#
#
#
# Elastic Constant Matrix: (Units=GPa)
#
#
# Indices 1 2 3 4 5 6 
#
# 1 120.6327 42.3740 48.1746 0.0000 0.0000 0.0000
# 2 42.3740 80.9427 30.7388 0.0000 0.0000 0.0000
# 3 48.1746 30.7388 99.7603 0.0000 0.0000 0.0000
# 4 0.0000 0.0000 0.0000 26.2394 0.0000 0.0000
# 5 0.0000 0.0000 0.0000 0.0000 18.6626 0.0000
# 6 0.0000 0.0000 0.0000 0.0000 0.0000 19.1018
#
#
#
# Elastic Compliance Matrix: (Units=1/GPa)
#
#
# Indices 1 2 3 4 5 6 
#
# 1 0.011525 -0.004439 -0.004198 0.000000 0.000000 0.000000
# 2 -0.004439 0.015702 -0.002694 0.000000 0.000000 0.000000
# 3 -0.004198 -0.002694 0.012881 0.000000 0.000000 0.000000
# 4 0.000000 0.000000 0.000000 0.038111 0.000000 0.000000
# 5 0.000000 0.000000 0.000000 0.000000 0.053583 0.000000
# 6 0.000000 0.000000 0.000000 0.000000 0.000000 0.052351
#
#
# Mechanical properties :
#
#
# Convention : Reuss Voigt Hill
#
# Bulk Modulus (GPa) = 57.32163 60.43452 58.87807
# Shear Modulus (GPa) = 23.51488 24.80398 24.15943
#
# Velocity S-wave (km/s) = 3.58527 3.68224 3.63408
# Velocity P-wave (km/s) = 6.96227 7.14944 7.05647
#
# Compressibility (1/GPa) = 0.01744542
#
# Stress axis : x y z
#
# Youngs Moduli (GPa) = 86.76466 63.68738 77.63186
#
# Poissons Ratio (x) = 0.28274 0.32588
# Poissons Ratio (y) = 0.38519 0.20916
# Poissons Ratio (z) = 0.36422 0.17159
#
# Static dielectric constant tensor:
#      x y z
#    x 3.437260 0.000000 0.000000 
#    y 0.000000 3.261270 0.000000 
#    z 0.000000 0.000000 3.435700 
# 
# 
# High freq. dielectric constant tensor:
#      x y z
#    x 1.714320 0.000000 0.000000 
#    y 0.000000 1.706050 0.000000 
#    z 0.000000 0.000000 1.702730 
# 
# From -- ./inp_files/3432.got.cif
#   From: 2010.03.12/outbox.cif.g09.slc.cpg/sg34_2_cif.got.tgz:3432.got - 2010.04.14 01:56:33.
