data_PCOD8171995
_publ_section_title
;
Structure prediction by ZEFSAII (Michael W. Deem and Ramdas Pophale) SiO2 
 PCOD8171995
Probable space group: P N N 2
;
_chemical_formula_sum "Si O2"
_cell_formula_units_Z 24
_cell_length_a 13.276075
_cell_length_b 12.636221
_cell_length_c 6.199667
_cell_angle_alpha 90.000000
_cell_angle_beta 90.000000
_cell_angle_gamma 90.000000
_cell_volume 1040.052526
_symmetry_space_group_name_H-M "P N N 2"
_symmetry_group_IT_number 34
_symmetry_cell_setting 'orthorhombic'
loop_
_space_group_symop_operation_xyz
x,y,z
-x,-y,z
1/2-x,1/2+y,1/2+z
1/2+x,1/2-y,1/2+z
loop_
_atom_site_type_symbol
_atom_site_label
_atom_site_fract_x
_atom_site_fract_y
_atom_site_fract_z
Si Si1 0.349503 0.346676 0.742060
Si Si2 0.582957 0.326158 0.233122
Si Si3 0.099895 0.699854 0.596579
Si Si4 0.218950 0.250114 0.378617
Si Si5 0.500000 0.000000 0.267990
Si Si6 0.836397 0.632265 0.991041
Si Si7 0.500000 0.500000 0.515173
O O1 0.286473 0.319988 0.533257
O O2 0.441510 0.421740 0.676449
O O3 0.388965 0.236072 0.847731
O O4 0.276852 0.403524 0.920260
O O5 0.466952 0.290449 0.211426
O O6 0.644212 0.241874 0.369383
O O7 0.579167 0.437467 0.360545
O O8 0.642102 0.330323 0.001617
O O9 0.207494 0.686412 0.716218
O O10 0.041923 0.588952 0.607559
O O11 0.156384 0.339101 0.244380
O O12 0.414482 0.958348 0.429287
#
# Coordination Sequence:
#
# PCOD8171995 Si02
#       7
#     4   4   4   4   2   4   2
#     4  10  23  42  67 102 147 178 235 292 347 424
#     4  10  23  41  67  99 139 180 236 290 344 421
#     4  10  22  44  66  98 140 184 232 294 348 420
#     4  10  21  43  66  97 150 183 225 296 357 405
#     4  10  22  44  76 104 134 186 248 278 360 422
#     4   9  22  44  67 102 141 184 229 293 345 426
#     4  12  24  42  72 108 136 192 242 284 362 418
#
# _framework density 23.075759999999999
#
# number of rings (size 3 to 8) (size 9 to 14) (size 15 to 20)
#    0.000    2.000    1.667    0.000    2.333    6.000 
#    0.000   11.667    0.000    0.000    0.000    0.000 
#    0.000    0.000    0.000    0.000    0.000    0.000 
#
# Total GULP energy -297496.201079 kJ/mol
# GULP energy per Si atom -12395.675045 kJ/mol
# Density = 2.302324 g / cm^3
# Si number density = 23.075760 Si / 1000 Ang^3
#
#
#
# Elastic Constant Matrix: (Units=GPa)
#
#
# Indices 1 2 3 4 5 6 
#
# 1 121.8131 49.6142 56.7867 0.0000 0.0000 0.0000
# 2 49.6142 101.2839 55.6300 0.0000 0.0000 0.0000
# 3 56.7867 55.6300 136.2034 0.0000 0.0000 0.0000
# 4 0.0000 0.0000 0.0000 32.7277 0.0000 0.0000
# 5 0.0000 0.0000 0.0000 0.0000 24.3625 0.0000
# 6 0.0000 0.0000 0.0000 0.0000 0.0000 30.3331
#
#
#
# Elastic Compliance Matrix: (Units=1/GPa)
#
#
# Indices 1 2 3 4 5 6 
#
# 1 0.011204 -0.003768 -0.003132 0.000000 0.000000 0.000000
# 2 -0.003768 0.013996 -0.004145 0.000000 0.000000 0.000000
# 3 -0.003132 -0.004145 0.010341 0.000000 0.000000 0.000000
# 4 0.000000 0.000000 0.000000 0.030555 0.000000 0.000000
# 5 0.000000 0.000000 0.000000 0.000000 0.041047 0.000000
# 6 0.000000 0.000000 0.000000 0.000000 0.000000 0.032967
#
#
# Mechanical properties :
#
#
# Convention : Reuss Voigt Hill
#
# Bulk Modulus (GPa) = 74.35146 75.92912 75.14029
# Shear Modulus (GPa) = 29.99670 30.63595 30.31633
#
# Velocity S-wave (km/s) = 3.60936 3.64761 3.62853
# Velocity P-wave (km/s) = 7.04702 7.12150 7.08436
#
# Compressibility (1/GPa) = 0.01344964
#
# Stress axis : x y z
#
# Youngs Moduli (GPa) = 89.25205 71.44976 96.70206
#
# Poissons Ratio (x) = 0.26922 0.30291
# Poissons Ratio (y) = 0.33630 0.40087
# Poissons Ratio (z) = 0.27957 0.29619
#
# Static dielectric constant tensor:
#      x y z
#    x 4.492720 0.000000 0.000000 
#    y 0.000000 3.783070 0.000000 
#    z 0.000000 0.000000 4.396220 
# 
# 
# High freq. dielectric constant tensor:
#      x y z
#    x 1.928390 0.000000 0.000000 
#    y 0.000000 1.879160 0.000000 
#    z 0.000000 0.000000 1.915980 
# 
# From -- ./inp_files/900.got.cif
#   From: 2010.03.12/outbox.cif.g09.slc.cpg/sg34_1_cif.got.tgz:900.got - 2010.04.14 01:56:33.
