data_PCOD8171087
_publ_section_title
;
Structure prediction by ZEFSAII (Michael W. Deem and Ramdas Pophale) SiO2 
 PCOD8171087
Probable space group: P N A 21
;
_chemical_formula_sum "Si O2"
_cell_formula_units_Z 32
_cell_length_a 14.575536
_cell_length_b 12.098984
_cell_length_c 8.663841
_cell_angle_alpha 90.000000
_cell_angle_beta 90.000000
_cell_angle_gamma 90.000000
_cell_volume 1527.861229
_symmetry_space_group_name_H-M "P N A 21"
_symmetry_group_IT_number 33
_symmetry_cell_setting 'orthorhombic'
loop_
_space_group_symop_operation_xyz
x,y,z
-x,-y,1/2+z
1/2-x,1/2+y,1/2+z
1/2+x,1/2-y,z
loop_
_atom_site_type_symbol
_atom_site_label
_atom_site_fract_x
_atom_site_fract_y
_atom_site_fract_z
Si Si1 0.599420 0.450508 0.256550
Si Si2 0.096634 0.302443 0.291853
Si Si3 0.692973 0.686419 0.774077
Si Si4 0.893464 0.644400 0.135543
Si Si5 0.186515 0.849668 0.124025
Si Si6 0.065422 0.942176 0.558547
Si Si7 0.954524 0.260257 0.849527
Si Si8 0.915444 0.385584 0.137671
O O1 0.602507 0.321539 0.228319
O O2 0.680264 0.521587 0.177554
O O3 0.506986 0.496732 0.175467
O O4 0.600077 0.464772 0.441158
O O5 0.199771 0.343719 0.263503
O O6 0.067454 0.318199 0.469687
O O7 0.020042 0.365678 0.193786
O O8 0.650886 0.599881 0.655934
O O9 0.659875 0.810768 0.729359
O O10 0.656733 0.663091 0.946268
O O11 0.790292 0.690129 0.150885
O O12 0.891978 0.512908 0.158331
O O13 0.952969 0.700035 0.268463
O O14 0.122109 0.771587 0.225361
O O15 0.020547 0.842945 0.459115
O O16 0.912502 0.357747 0.955399
#
# Coordination Sequence:
#
# PCOD8171087 Si02
#       8
#     4   4   4   4   4   4   4   4
#     4  11  21  39  62  94 118 165 204 263 311 375
#     4  11  23  40  66  89 126 167 210 256 319 371
#     4  10  21  42  62  93 127 163 206 263 311 377
#     4  11  24  42  63  91 126 169 209 259 308 377
#     4  10  23  41  63  94 126 159 213 257 315 376
#     4  10  22  37  64  90 126 159 206 260 318 363
#     4  10  22  39  62  92 126 164 205 258 313 371
#     4  11  22  42  64  91 123 170 205 260 313 374
#
# _framework density 20.944310000000002
#
# number of rings (size 3 to 8) (size 9 to 14) (size 15 to 20)
#    0.000    1.500    2.500    3.000    3.500    3.000 
#    2.250    7.500    0.000    0.000    0.000    0.000 
#    0.000    0.000    0.000    0.000    0.000    0.000 
#
# Total GULP energy -396744.734728 kJ/mol
# GULP energy per Si atom -12398.272960 kJ/mol
# Density = 2.089664 g / cm^3
# Si number density = 20.944310 Si / 1000 Ang^3
#
#
#
# Elastic Constant Matrix: (Units=GPa)
#
#
# Indices 1 2 3 4 5 6 
#
# 1 71.5738 18.6801 38.3267 0.0000 0.0000 0.0000
# 2 18.6801 47.7006 26.3404 0.0000 0.0000 0.0000
# 3 38.3267 26.3404 133.1246 0.0000 0.0000 0.0000
# 4 0.0000 0.0000 0.0000 28.0517 0.0000 0.0000
# 5 0.0000 0.0000 0.0000 0.0000 30.9178 0.0000
# 6 0.0000 0.0000 0.0000 0.0000 0.0000 26.9946
#
#
#
# Elastic Compliance Matrix: (Units=1/GPa)
#
#
# Indices 1 2 3 4 5 6 
#
# 1 0.017349 -0.004531 -0.004098 0.000000 0.000000 0.000000
# 2 -0.004531 0.024719 -0.003587 0.000000 0.000000 0.000000
# 3 -0.004098 -0.003587 0.009401 0.000000 0.000000 0.000000
# 4 0.000000 0.000000 0.000000 0.035649 0.000000 0.000000
# 5 0.000000 0.000000 0.000000 0.000000 0.032344 0.000000
# 6 0.000000 0.000000 0.000000 0.000000 0.000000 0.037044
#
#
# Mechanical properties :
#
#
# Convention : Reuss Voigt Hill
#
# Bulk Modulus (GPa) = 36.98548 46.56593 41.77571
# Shear Modulus (GPa) = 26.32281 28.46294 27.39288
#
# Velocity S-wave (km/s) = 3.54898 3.69044 3.62040
# Velocity P-wave (km/s) = 5.87291 6.35929 6.12093
#
# Compressibility (1/GPa) = 0.02703764
#
# Stress axis : x y z
#
# Youngs Moduli (GPa) = 57.64145 40.45486 106.36867
#
# Poissons Ratio (x) = 0.18330 0.43592
# Poissons Ratio (y) = 0.26117 0.38149
# Poissons Ratio (z) = 0.23623 0.14509
#
# Static dielectric constant tensor:
#      x y z
#    x 3.835770 0.000000 0.000000 
#    y 0.000000 3.685560 0.000000 
#    z 0.000000 0.000000 4.144130 
# 
# 
# High freq. dielectric constant tensor:
#      x y z
#    x 1.819300 0.000000 0.000000 
#    y 0.000000 1.811660 0.000000 
#    z 0.000000 0.000000 1.836310 
# 
# From -- ./inp_files/4373.got.cif
#   From: 2010.03.12/outbox.cif.g09.slc.cpg/sg33_3_cif.got.tgz:4373.got - 2010.04.14 01:49:19.
