data_PCOD8171487
_publ_section_title
;
Structure prediction by ZEFSAII (Michael W. Deem and Ramdas Pophale) SiO2 
 PCOD8171487
Probable space group: P N A 21
;
_chemical_formula_sum "Si O2"
_cell_formula_units_Z 20
_cell_length_a 9.191486
_cell_length_b 18.415687
_cell_length_c 5.118657
_cell_angle_alpha 90.000000
_cell_angle_beta 90.000000
_cell_angle_gamma 90.000000
_cell_volume 866.422423
_symmetry_space_group_name_H-M "P N A 21"
_symmetry_group_IT_number 33
_symmetry_cell_setting 'orthorhombic'
loop_
_space_group_symop_operation_xyz
x,y,z
-x,-y,1/2+z
1/2-x,1/2+y,1/2+z
1/2+x,1/2-y,z
loop_
_atom_site_type_symbol
_atom_site_label
_atom_site_fract_x
_atom_site_fract_y
_atom_site_fract_z
Si Si1 0.643046 0.120025 0.041330
Si Si2 0.882872 0.786892 0.664062
Si Si3 0.787048 0.058173 0.553325
Si Si4 0.437103 0.637584 0.165059
Si Si5 0.689042 0.903131 0.492503
O O1 0.644897 0.203085 0.124054
O O2 0.719314 0.073579 0.268469
O O3 0.723659 0.113106 0.767097
O O4 0.482874 0.089513 0.978228
O O5 0.985676 0.822459 0.437059
O O6 0.729409 0.831577 0.662845
O O7 0.950904 0.799440 0.948174
O O8 0.960592 0.071386 0.570809
O O9 0.754551 0.975160 0.629296
O O10 0.272583 0.605745 0.210211
#
# Coordination Sequence:
#
# PCOD8171487 Si02
#       5
#     4   4   4   4   4
#     4  12  27  45  71 103 146 186 237 297 366 424
#     4  10  25  43  72  99 139 183 241 286 350 421
#     4  12  27  44  73 106 145 183 240 295 365 425
#     4  10  25  42  73  97 139 179 240 284 352 417
#     4  10  28  44  75  99 149 183 242 288 361 427
#
# _framework density 23.083428000000001
#
# number of rings (size 3 to 8) (size 9 to 14) (size 15 to 20)
#    1.200    0.000    0.000    3.600   14.000    0.000 
#    0.000    0.000    0.000    0.000    0.000    0.000 
#    0.000    0.000    0.000    0.000    0.000    0.000 
#
# Total GULP energy -247844.117450 kJ/mol
# GULP energy per Si atom -12392.205872 kJ/mol
# Density = 2.303089 g / cm^3
# Si number density = 23.083428 Si / 1000 Ang^3
#
#
#
# Elastic Constant Matrix: (Units=GPa)
#
#
# Indices 1 2 3 4 5 6 
#
# 1 95.4100 6.6674 36.9233 0.0000 0.0000 0.0000
# 2 6.6674 102.9882 15.8673 0.0000 0.0000 0.0000
# 3 36.9233 15.8673 135.0048 0.0000 0.0000 0.0000
# 4 0.0000 0.0000 0.0000 25.9490 0.0000 0.0000
# 5 0.0000 0.0000 0.0000 0.0000 32.1744 0.0000
# 6 0.0000 0.0000 0.0000 0.0000 0.0000 27.6261
#
#
#
# Elastic Compliance Matrix: (Units=1/GPa)
#
#
# Indices 1 2 3 4 5 6 
#
# 1 0.011729 -0.000270 -0.003176 0.000000 0.000000 0.000000
# 2 -0.000270 0.009895 -0.001089 0.000000 0.000000 0.000000
# 3 -0.003176 -0.001089 0.008404 0.000000 0.000000 0.000000
# 4 0.000000 0.000000 0.000000 0.038537 0.000000 0.000000
# 5 0.000000 0.000000 0.000000 0.000000 0.031081 0.000000
# 6 0.000000 0.000000 0.000000 0.000000 0.000000 0.036198
#
#
# Mechanical properties :
#
#
# Convention : Reuss Voigt Hill
#
# Bulk Modulus (GPa) = 47.71560 50.25766 48.98663
# Shear Modulus (GPa) = 32.91642 35.41289 34.16466
#
# Velocity S-wave (km/s) = 3.78031 3.92104 3.85132
# Velocity P-wave (km/s) = 6.30635 6.50530 6.40660
#
# Compressibility (1/GPa) = 0.02095751
#
# Stress axis : x y z
#
# Youngs Moduli (GPa) = 85.25805 101.05983 118.99358
#
# Poissons Ratio (x) = 0.02729 0.37794
# Poissons Ratio (y) = 0.02302 0.12960
# Poissons Ratio (z) = 0.27079 0.11007
#
# Static dielectric constant tensor:
#      x y z
#    x 4.147400 0.000000 0.000000 
#    y 0.000000 3.959900 0.000000 
#    z 0.000000 0.000000 4.128430 
# 
# 
# High freq. dielectric constant tensor:
#      x y z
#    x 1.900400 0.000000 0.000000 
#    y 0.000000 1.916420 0.000000 
#    z 0.000000 0.000000 1.913610 
# 
# From -- ./inp_files/378.got.cif
#   From: 2010.03.12/outbox.cif.g09.slc.cpg/sg33_1_cif.got.tgz:378.got - 2010.04.14 01:49:19.
