data_PCOD8171266
_publ_section_title
;
Structure prediction by ZEFSAII (Michael W. Deem and Ramdas Pophale) SiO2 
 PCOD8171266
Probable space group: P N A 21
;
_chemical_formula_sum "Si O2"
_cell_formula_units_Z 28
_cell_length_a 25.452677
_cell_length_b 8.591735
_cell_length_c 5.236118
_cell_angle_alpha 90.000000
_cell_angle_beta 90.000000
_cell_angle_gamma 90.000000
_cell_volume 1145.048190
_symmetry_space_group_name_H-M "P N A 21"
_symmetry_group_IT_number 33
_symmetry_cell_setting 'orthorhombic'
loop_
_space_group_symop_operation_xyz
x,y,z
-x,-y,1/2+z
1/2-x,1/2+y,1/2+z
1/2+x,1/2-y,z
loop_
_atom_site_type_symbol
_atom_site_label
_atom_site_fract_x
_atom_site_fract_y
_atom_site_fract_z
Si Si1 0.396031 0.940922 0.962090
Si Si2 0.717423 0.551790 0.298335
Si Si3 0.869051 0.973922 0.409563
Si Si4 0.880258 0.196970 0.005631
Si Si5 0.804609 0.754938 0.059877
Si Si6 0.939237 0.700963 0.478636
Si Si7 0.480031 0.420094 0.804679
O O1 0.437434 0.903742 0.735102
O O2 0.387249 0.122426 0.983954
O O3 0.339663 0.862175 0.885008
O O4 0.414382 0.889395 0.241649
O O5 0.681366 0.653775 0.486983
O O6 0.769942 0.648572 0.247141
O O7 0.731641 0.378034 0.403324
O O8 0.683128 0.529545 0.047808
O O9 0.849053 0.854802 0.195366
O O10 0.911985 0.867867 0.557360
O O11 0.897783 0.123516 0.278634
O O12 0.916239 0.107652 0.789214
O O13 0.998346 0.751303 0.404004
O O14 0.494356 0.545109 0.028489
#
# Coordination Sequence:
#
# PCOD8171266 Si02
#       7
#     4   4   4   4   4   4   4
#     4  11  26  45  69 102 149 179 231 293 364 413
#     4  11  24  43  68  94 140 180 243 284 355 419
#     4  10  22  44  65  95 136 178 235 283 348 416
#     4  11  27  43  68 106 135 185 237 300 348 437
#     4  10  25  40  65  97 132 190 226 291 347 423
#     4  11  23  46  71 100 142 187 226 293 354 423
#     4  12  25  43  78 104 138 185 242 286 360 427
#
# _framework density 24.453118
#
# number of rings (size 3 to 8) (size 9 to 14) (size 15 to 20)
#    0.000    1.143    2.857    1.714    8.000    3.429 
#    0.000    0.000    0.000    0.000    0.000    0.000 
#    0.000    0.000    0.000    0.000    0.000    0.000 
#
# Total GULP energy -346968.608599 kJ/mol
# GULP energy per Si atom -12391.736021 kJ/mol
# Density = 2.439746 g / cm^3
# Si number density = 24.453118 Si / 1000 Ang^3
#
#
#
# Elastic Constant Matrix: (Units=GPa)
#
#
# Indices 1 2 3 4 5 6 
#
# 1 61.7214 0.4186 -24.0402 0.0000 0.0000 0.0000
# 2 0.4186 134.2223 19.4107 0.0000 0.0000 0.0000
# 3 -24.0402 19.4107 70.1417 0.0000 0.0000 0.0000
# 4 0.0000 0.0000 0.0000 33.4619 0.0000 0.0000
# 5 0.0000 0.0000 0.0000 0.0000 26.5565 0.0000
# 6 0.0000 0.0000 0.0000 0.0000 0.0000 25.0842
#
#
#
# Elastic Compliance Matrix: (Units=1/GPa)
#
#
# Indices 1 2 3 4 5 6 
#
# 1 0.018835 -0.001034 0.006741 0.000000 0.000000 0.000000
# 2 -0.001034 0.007818 -0.002518 0.000000 0.000000 0.000000
# 3 0.006741 -0.002518 0.017264 0.000000 0.000000 0.000000
# 4 0.000000 0.000000 0.000000 0.029885 0.000000 0.000000
# 5 0.000000 0.000000 0.000000 0.000000 0.037656 0.000000
# 6 0.000000 0.000000 0.000000 0.000000 0.000000 0.039866
#
#
# Mechanical properties :
#
#
# Convention : Reuss Voigt Hill
#
# Bulk Modulus (GPa) = 19.88213 28.62929 24.25571
# Shear Modulus (GPa) = 30.91998 35.04028 32.98013
#
# Velocity S-wave (km/s) = 3.55978 3.78955 3.67646
# Velocity P-wave (km/s) = 5.00444 5.55705 5.28797
#
# Compressibility (1/GPa) = 0.05029641
#
# Stress axis : x y z
#
# Youngs Moduli (GPa) = 53.09383 127.91561 57.92356
#
# Poissons Ratio (x) = 0.13222 -0.39048
# Poissons Ratio (y) = 0.05488 0.14583
# Poissons Ratio (z) = -0.35793 0.32205
#
# Static dielectric constant tensor:
#      x y z
#    x 4.508360 0.000000 0.000000 
#    y 0.000000 4.548320 0.000000 
#    z 0.000000 0.000000 4.320010 
# 
# 
# High freq. dielectric constant tensor:
#      x y z
#    x 1.966930 0.000000 0.000000 
#    y 0.000000 1.981700 0.000000 
#    z 0.000000 0.000000 1.969290 
# 
# From -- ./inp_files/2252.got.cif
#   From: 2010.03.12/outbox.cif.g09.slc.cpg/sg33_2_cif.got.tgz:2252.got - 2010.04.14 01:49:19.
