data_PCOD8171140
_publ_section_title
;
Structure prediction by ZEFSAII (Michael W. Deem and Ramdas Pophale) SiO2 
 PCOD8171140
Probable space group: P N A 21
;
_chemical_formula_sum "Si O2"
_cell_formula_units_Z 28
_cell_length_a 9.808303
_cell_length_b 16.502715
_cell_length_c 8.794287
_cell_angle_alpha 90.000000
_cell_angle_beta 90.000000
_cell_angle_gamma 90.000000
_cell_volume 1423.475209
_symmetry_space_group_name_H-M "P N A 21"
_symmetry_group_IT_number 33
_symmetry_cell_setting 'orthorhombic'
loop_
_space_group_symop_operation_xyz
x,y,z
-x,-y,1/2+z
1/2-x,1/2+y,1/2+z
1/2+x,1/2-y,z
loop_
_atom_site_type_symbol
_atom_site_label
_atom_site_fract_x
_atom_site_fract_y
_atom_site_fract_z
Si Si1 0.818856 0.992539 0.565240
Si Si2 0.709096 0.497090 0.605429
Si Si3 0.620667 0.913141 0.335303
Si Si4 0.515260 0.576943 0.806468
Si Si5 0.194588 0.758470 0.215561
Si Si6 0.306180 0.914680 0.319129
Si Si7 0.571223 0.327717 0.559545
O O1 0.709418 0.936351 0.481716
O O2 0.884033 0.948288 0.710056
O O3 0.938867 0.019202 0.449403
O O4 0.731432 0.065275 0.642851
O O5 0.847555 0.470855 0.690366
O O6 0.644917 0.574723 0.694200
O O7 0.728363 0.524448 0.432870
O O8 0.611567 0.417931 0.617549
O O9 0.653713 0.819949 0.308470
O O10 0.462234 0.924821 0.365020
O O11 0.474284 0.663781 0.881436
O O12 0.262664 0.820711 0.335722
O O13 0.303212 0.734419 0.082261
O O14 0.058905 0.798032 0.150505
#
# Coordination Sequence:
#
# PCOD8171140 Si02
#       7
#     4   4   4   4   4   4   4
#     4  11  21  36  67  94 124 164 219 278 316 386
#     4  10  22  37  68  98 122 166 228 276 316 393
#     4  10  24  40  61  96 132 169 214 269 337 389
#     4  11  19  38  63  98 121 160 217 269 317 377
#     4  11  23  40  66  93 130 175 211 263 336 404
#     4  12  20  41  67  93 128 172 222 273 326 387
#     4  11  21  40  64  94 127 170 215 264 328 394
#
# _framework density 19.670172000000001
#
# number of rings (size 3 to 8) (size 9 to 14) (size 15 to 20)
#    0.000    1.143    5.714    0.857    0.000    1.143 
#    0.000    1.429    0.000    0.000    0.000    0.000 
#    0.000    0.000    0.000    0.000    0.000    0.000 
#
# Total GULP energy -346868.138657 kJ/mol
# GULP energy per Si atom -12388.147809 kJ/mol
# Density = 1.962540 g / cm^3
# Si number density = 19.670172 Si / 1000 Ang^3
#
#
#
# Elastic Constant Matrix: (Units=GPa)
#
#
# Indices 1 2 3 4 5 6 
#
# 1 129.2013 48.2869 53.1731 0.0000 0.0000 0.0000
# 2 48.2869 89.4645 53.1503 0.0000 0.0000 0.0000
# 3 53.1731 53.1503 117.5603 0.0000 0.0000 0.0000
# 4 0.0000 0.0000 0.0000 29.9720 0.0000 0.0000
# 5 0.0000 0.0000 0.0000 0.0000 31.5838 0.0000
# 6 0.0000 0.0000 0.0000 0.0000 0.0000 30.9083
#
#
#
# Elastic Compliance Matrix: (Units=1/GPa)
#
#
# Indices 1 2 3 4 5 6 
#
# 1 0.010399 -0.003853 -0.002961 0.000000 0.000000 0.000000
# 2 -0.003853 0.016710 -0.005812 0.000000 0.000000 0.000000
# 3 -0.002961 -0.005812 0.012473 0.000000 0.000000 0.000000
# 4 0.000000 0.000000 0.000000 0.033364 0.000000 0.000000
# 5 0.000000 0.000000 0.000000 0.000000 0.031662 0.000000
# 6 0.000000 0.000000 0.000000 0.000000 0.000000 0.032354
#
#
# Mechanical properties :
#
#
# Convention : Reuss Voigt Hill
#
# Bulk Modulus (GPa) = 69.78777 71.71630 70.75204
# Shear Modulus (GPa) = 29.94159 30.60054 30.27107
#
# Velocity S-wave (km/s) = 3.90575 3.94849 3.92718
# Velocity P-wave (km/s) = 7.47635 7.57140 7.52402
#
# Compressibility (1/GPa) = 0.01432916
#
# Stress axis : x y z
#
# Youngs Moduli (GPa) = 96.16626 59.84363 80.17084
#
# Poissons Ratio (x) = 0.23059 0.23741
# Poissons Ratio (y) = 0.37055 0.46596
# Poissons Ratio (z) = 0.28478 0.34781
#
# Static dielectric constant tensor:
#      x y z
#    x 3.823900 0.000000 0.000000 
#    y 0.000000 3.566350 0.000000 
#    z 0.000000 0.000000 3.718990 
# 
# 
# High freq. dielectric constant tensor:
#      x y z
#    x 1.787870 0.000000 0.000000 
#    y 0.000000 1.743630 0.000000 
#    z 0.000000 0.000000 1.760580 
# 
# From -- ./inp_files/3314.got.cif
#   From: 2010.03.12/outbox.cif.g09.slc.cpg/sg33_2_cif.got.tgz:3314.got - 2010.04.14 01:49:19.
