data_PCOD8171226
_publ_section_title
;
Structure prediction by ZEFSAII (Michael W. Deem and Ramdas Pophale) SiO2 
 PCOD8171226
Probable space group: P N A 21
;
_chemical_formula_sum "Si O2"
_cell_formula_units_Z 32
_cell_length_a 18.136617
_cell_length_b 9.814301
_cell_length_c 8.710563
_cell_angle_alpha 90.000000
_cell_angle_beta 90.000000
_cell_angle_gamma 90.000000
_cell_volume 1550.464695
_symmetry_space_group_name_H-M "P N A 21"
_symmetry_group_IT_number 33
_symmetry_cell_setting 'orthorhombic'
loop_
_space_group_symop_operation_xyz
x,y,z
-x,-y,1/2+z
1/2-x,1/2+y,1/2+z
1/2+x,1/2-y,z
loop_
_atom_site_type_symbol
_atom_site_label
_atom_site_fract_x
_atom_site_fract_y
_atom_site_fract_z
Si Si1 0.702586 0.457118 0.957950
Si Si2 0.441431 0.604793 0.320925
Si Si3 0.775372 0.685307 0.792529
Si Si4 0.529184 0.377085 0.465450
Si Si5 0.826454 0.970062 0.802174
Si Si6 0.944516 0.606095 0.799997
Si Si7 0.188896 0.779326 0.494978
Si Si8 0.970799 0.335426 0.990924
O O1 0.647408 0.395638 0.830046
O O2 0.735317 0.606081 0.928409
O O3 0.660152 0.464918 0.119890
O O4 0.773913 0.362579 0.954658
O O5 0.460257 0.460337 0.400203
O O6 0.471642 0.734223 0.412155
O O7 0.469422 0.612726 0.148067
O O8 0.859306 0.637814 0.761712
O O9 0.727296 0.654304 0.642425
O O10 0.771894 0.844343 0.841438
O O11 0.598188 0.452658 0.391953
O O12 0.524147 0.219655 0.416805
O O13 0.795385 0.115543 0.855547
O O14 0.993117 0.607560 0.646126
O O15 0.952529 0.459304 0.877381
O O16 0.102803 0.750857 0.527047
#
# Coordination Sequence:
#
# PCOD8171226 Si02
#       8
#     4   4   4   4   4   4   4   4
#     4  11  24  43  67  99 135 177 223 279 345 404
#     4  12  24  41  70  99 132 179 227 279 342 403
#     4  10  23  45  65  99 135 176 222 287 335 406
#     4  11  23  42  67  98 131 171 225 281 332 405
#     4  10  22  42  66  95 133 170 223 276 329 405
#     4  11  25  46  68  97 143 174 230 280 343 403
#     4  11  23  43  66  99 134 178 226 275 338 402
#     4  12  24  46  67 100 137 185 228 283 336 410
#
# _framework density 20.638971999999999
#
# number of rings (size 3 to 8) (size 9 to 14) (size 15 to 20)
#    0.000    1.000    2.500    5.250    1.750    3.000 
#    9.000    0.000    0.000    0.000    0.000    0.000 
#    0.000    0.000    0.000    0.000    0.000    0.000 
#
# Total GULP energy -396827.721559 kJ/mol
# GULP energy per Si atom -12400.866299 kJ/mol
# Density = 2.059200 g / cm^3
# Si number density = 20.638972 Si / 1000 Ang^3
#
#
#
# Elastic Constant Matrix: (Units=GPa)
#
#
# Indices 1 2 3 4 5 6 
#
# 1 84.8309 35.0890 44.1054 0.0000 0.0000 0.0000
# 2 35.0890 117.2180 47.1270 0.0000 0.0000 0.0000
# 3 44.1054 47.1270 101.9326 0.0000 0.0000 0.0000
# 4 0.0000 0.0000 0.0000 38.2408 0.0000 0.0000
# 5 0.0000 0.0000 0.0000 0.0000 34.8951 0.0000
# 6 0.0000 0.0000 0.0000 0.0000 0.0000 28.1324
#
#
#
# Elastic Compliance Matrix: (Units=1/GPa)
#
#
# Indices 1 2 3 4 5 6 
#
# 1 0.015752 -0.002426 -0.005694 0.000000 0.000000 0.000000
# 2 -0.002426 0.010853 -0.003968 0.000000 0.000000 0.000000
# 3 -0.005694 -0.003968 0.014109 0.000000 0.000000 0.000000
# 4 0.000000 0.000000 0.000000 0.026150 0.000000 0.000000
# 5 0.000000 0.000000 0.000000 0.000000 0.028657 0.000000
# 6 0.000000 0.000000 0.000000 0.000000 0.000000 0.035546
#
#
# Mechanical properties :
#
#
# Convention : Reuss Voigt Hill
#
# Bulk Modulus (GPa) = 60.46912 61.84714 61.15813
# Shear Modulus (GPa) = 31.10312 32.09768 31.60040
#
# Velocity S-wave (km/s) = 3.88623 3.94788 3.91718
# Velocity P-wave (km/s) = 7.03557 7.12827 7.08207
#
# Compressibility (1/GPa) = 0.01653737
#
# Stress axis : x y z
#
# Youngs Moduli (GPa) = 63.48319 92.14400 70.87832
#
# Poissons Ratio (x) = 0.22355 0.40360
# Poissons Ratio (y) = 0.15401 0.28123
# Poissons Ratio (z) = 0.36149 0.36561
#
# Static dielectric constant tensor:
#      x y z
#    x 3.752570 0.000000 0.000000 
#    y 0.000000 3.928340 0.000000 
#    z 0.000000 0.000000 3.756060 
# 
# 
# High freq. dielectric constant tensor:
#      x y z
#    x 1.809860 0.000000 0.000000 
#    y 0.000000 1.822100 0.000000 
#    z 0.000000 0.000000 1.808110 
# 
# From -- ./inp_files/5020.got.cif
#   From: 2010.03.12/outbox.cif.g09.slc.cpg/sg33_3_cif.got.tgz:5020.got - 2010.04.14 01:49:19.
