data_PCOD8171647
_publ_section_title
;
Structure prediction by ZEFSAII (Michael W. Deem and Ramdas Pophale) SiO2 
 PCOD8171647
Probable space group: P N A 21
;
_chemical_formula_sum "Si O2"
_cell_formula_units_Z 24
_cell_length_a 9.133309
_cell_length_b 13.270302
_cell_length_c 7.032265
_cell_angle_alpha 90.000000
_cell_angle_beta 90.000000
_cell_angle_gamma 90.000000
_cell_volume 852.322956
_symmetry_space_group_name_H-M "P N A 21"
_symmetry_group_IT_number 33
_symmetry_cell_setting 'orthorhombic'
loop_
_space_group_symop_operation_xyz
x,y,z
-x,-y,1/2+z
1/2-x,1/2+y,1/2+z
1/2+x,1/2-y,z
loop_
_atom_site_type_symbol
_atom_site_label
_atom_site_fract_x
_atom_site_fract_y
_atom_site_fract_z
Si Si1 0.964720 0.584478 0.133990
Si Si2 0.827403 0.132027 0.967467
Si Si3 0.722971 0.410747 0.483083
Si Si4 0.905936 0.369679 0.043553
Si Si5 0.363463 0.706886 0.347967
Si Si6 0.844780 0.708819 0.801412
O O1 0.108311 0.559846 0.007757
O O2 0.878672 0.478418 0.141779
O O3 0.025739 0.624318 0.333251
O O4 0.872766 0.668526 0.015703
O O5 0.969055 0.200341 0.918957
O O6 0.779921 0.143369 0.190764
O O7 0.859166 0.014801 0.925260
O O8 0.696517 0.174676 0.823576
O O9 0.651148 0.367993 0.674813
O O10 0.705123 0.326039 0.321407
O O11 0.008098 0.299889 0.176458
O O12 0.744326 0.319836 0.024689
#
# Coordination Sequence:
#
# PCOD8171647 Si02
#       6
#     4   4   4   4   4   4
#     4  11  24  50  86 124 174 225 287 348 438 510
#     4  12  28  56  83 130 169 225 292 348 439 512
#     4  11  29  53  84 131 169 223 287 363 431 510
#     4  11  23  51  88 124 162 232 284 351 429 516
#     4  11  29  53  85 117 177 222 286 357 424 521
#     4  12  27  49  88 124 169 225 282 353 431 505
#
# _framework density 28.158342000000001
#
# number of rings (size 3 to 8) (size 9 to 14) (size 15 to 20)
#    0.000    0.667    3.333    2.000   11.667    2.667 
#    6.000    1.667    0.000    0.000    0.000    0.000 
#    0.000    0.000    0.000    0.000    0.000    0.000 
#
# Total GULP energy -297446.056812 kJ/mol
# GULP energy per Si atom -12393.585701 kJ/mol
# Density = 2.809425 g / cm^3
# Si number density = 28.158342 Si / 1000 Ang^3
#
#
#
# Elastic Constant Matrix: (Units=GPa)
#
#
# Indices 1 2 3 4 5 6 
#
# 1 142.3330 23.7724 -0.0521 0.0000 0.0000 0.0000
# 2 23.7724 213.1083 4.5999 0.0000 0.0000 0.0000
# 3 -0.0521 4.5999 132.5531 0.0000 0.0000 0.0000
# 4 0.0000 0.0000 0.0000 43.6199 0.0000 0.0000
# 5 0.0000 0.0000 0.0000 0.0000 32.4805 0.0000
# 6 0.0000 0.0000 0.0000 0.0000 0.0000 40.2308
#
#
#
# Elastic Compliance Matrix: (Units=1/GPa)
#
#
# Indices 1 2 3 4 5 6 
#
# 1 0.007159 -0.000799 0.000031 0.000000 0.000000 0.000000
# 2 -0.000799 0.004785 -0.000166 0.000000 0.000000 0.000000
# 3 0.000031 -0.000166 0.007550 0.000000 0.000000 0.000000
# 4 0.000000 0.000000 0.000000 0.022925 0.000000 0.000000
# 5 0.000000 0.000000 0.000000 0.000000 0.030788 0.000000
# 6 0.000000 0.000000 0.000000 0.000000 0.000000 0.024857
#
#
# Mechanical properties :
#
#
# Convention : Reuss Voigt Hill
#
# Bulk Modulus (GPa) = 56.74014 60.51499 58.62756
# Shear Modulus (GPa) = 47.25499 53.91120 50.58310
#
# Velocity S-wave (km/s) = 4.10101 4.38033 4.24297
# Velocity P-wave (km/s) = 6.52829 6.86445 6.69848
#
# Compressibility (1/GPa) = 0.01762421
#
# Stress axis : x y z
#
# Youngs Moduli (GPa) = 139.67879 208.97764 132.45154
#
# Poissons Ratio (x) = 0.16703 -0.00405
# Poissons Ratio (y) = 0.11164 0.02204
# Poissons Ratio (z) = -0.00427 0.03477
#
# Static dielectric constant tensor:
#      x y z
#    x 5.506620 0.000000 0.000000 
#    y 0.000000 5.521280 0.000000 
#    z 0.000000 0.000000 5.789390 
# 
# 
# High freq. dielectric constant tensor:
#      x y z
#    x 2.139660 0.000000 0.000000 
#    y 0.000000 2.167160 0.000000 
#    z 0.000000 0.000000 2.182690 
# 
# From -- ./inp_files/3768.got.cif
#   From: 2010.03.12/outbox.cif.g09.slc.cpg/sg33_2_cif.got.tgz:3768.got - 2010.04.14 01:49:19.
