data_PCOD8171413
_publ_section_title
;
Structure prediction by ZEFSAII (Michael W. Deem and Ramdas Pophale) SiO2 
 PCOD8171413
Probable space group: P N A 21
;
_chemical_formula_sum "Si O2"
_cell_formula_units_Z 24
_cell_length_a 11.974776
_cell_length_b 14.307245
_cell_length_c 6.531011
_cell_angle_alpha 90.000000
_cell_angle_beta 90.000000
_cell_angle_gamma 90.000000
_cell_volume 1118.932344
_symmetry_space_group_name_H-M "P N A 21"
_symmetry_group_IT_number 33
_symmetry_cell_setting 'orthorhombic'
loop_
_space_group_symop_operation_xyz
x,y,z
-x,-y,1/2+z
1/2-x,1/2+y,1/2+z
1/2+x,1/2-y,z
loop_
_atom_site_type_symbol
_atom_site_label
_atom_site_fract_x
_atom_site_fract_y
_atom_site_fract_z
Si Si1 0.107038 0.885478 0.424760
Si Si2 0.718632 0.928340 0.282006
Si Si3 0.324605 0.867494 0.682813
Si Si4 0.248199 0.688399 0.870468
Si Si5 0.106903 0.044604 0.111974
Si Si6 0.062858 0.690863 0.548015
O O1 0.228125 0.866726 0.515165
O O2 0.056873 0.782015 0.400750
O O3 0.025816 0.940552 0.582656
O O4 0.121085 0.942136 0.213092
O O5 0.837594 0.950257 0.387438
O O6 0.630719 0.888062 0.436535
O O7 0.659020 0.026045 0.242147
O O8 0.735933 0.857897 0.092727
O O9 0.298519 0.794441 0.869461
O O10 0.436303 0.836812 0.572633
O O11 0.336617 0.624046 0.750139
O O12 0.126135 0.700184 0.766738
#
# Coordination Sequence:
#
# PCOD8171413 Si02
#       6
#     4   4   4   4   4   4
#     4  11  23  44  71  97 138 182 226 294 347 405
#     4  11  25  43  70 102 136 186 230 286 355 419
#     4  11  23  45  70  98 139 185 227 287 349 418
#     4  10  23  47  65  97 139 178 234 286 343 420
#     4  11  23  45  68 102 136 175 238 288 344 415
#     4  10  25  44  66 100 140 176 229 289 346 425
#
# _framework density 21.449020000000001
#
# number of rings (size 3 to 8) (size 9 to 14) (size 15 to 20)
#    0.000    1.333    3.333    1.000    4.667    0.000 
#    3.000    0.000    0.000    0.000    0.000    0.000 
#    0.000    0.000    0.000    0.000    0.000    0.000 
#
# Total GULP energy -297398.998526 kJ/mol
# GULP energy per Si atom -12391.624939 kJ/mol
# Density = 2.140020 g / cm^3
# Si number density = 21.449020 Si / 1000 Ang^3
#
#
#
# Elastic Constant Matrix: (Units=GPa)
#
#
# Indices 1 2 3 4 5 6 
#
# 1 162.0604 72.8472 44.8432 0.0000 0.0000 0.0000
# 2 72.8472 205.5909 38.7370 0.0000 0.0000 0.0000
# 3 44.8432 38.7370 85.5510 0.0000 0.0000 0.0000
# 4 0.0000 0.0000 0.0000 40.4913 0.0000 0.0000
# 5 0.0000 0.0000 0.0000 0.0000 -3.9954 0.0000
# 6 0.0000 0.0000 0.0000 0.0000 0.0000 -5.4422
#
#
#
# Elastic Compliance Matrix: (Units=1/GPa)
#
#
# Indices 1 2 3 4 5 6 
#
# 1 0.008073 -0.002256 -0.003210 0.000000 0.000000 0.000000
# 2 -0.002256 0.005948 -0.001511 0.000000 0.000000 0.000000
# 3 -0.003210 -0.001511 0.014056 0.000000 0.000000 0.000000
# 4 0.000000 0.000000 0.000000 0.024697 0.000000 0.000000
# 5 0.000000 0.000000 0.000000 0.000000 -0.250290 0.000000
# 6 0.000000 0.000000 0.000000 0.000000 0.000000 -0.183750
#
#
# Mechanical properties :
#
#
# Convention : Reuss Voigt Hill
#
# Bulk Modulus (GPa) = 70.80583 85.11746 77.96165
# Shear Modulus (GPa) = -13.78907 25.99574 6.10334
#
# Velocity S-wave (km/s) = -2.53825 3.48512 1.68869
# Velocity P-wave (km/s) = 4.94900 7.48095 6.34260
#
# Compressibility (1/GPa) = 0.01412313
#
# Stress axis : x y z
#
# Youngs Moduli (GPa) = 123.87432 168.12596 71.14541
#
# Poissons Ratio (x) = 0.37922 0.22839
# Poissons Ratio (y) = 0.27941 0.10749
# Poissons Ratio (z) = 0.39766 0.25402
#
# Static dielectric constant tensor:
#      x y z
#    x 4.095410 0.000000 0.000000 
#    y 0.000000 4.805120 0.000000 
#    z 0.000000 0.000000 3.704620 
# 
# 
# High freq. dielectric constant tensor:
#      x y z
#    x 1.855480 0.000000 0.000000 
#    y 0.000000 1.865610 0.000000 
#    z 0.000000 0.000000 1.817090 
# 
# From -- ./inp_files/787.got.cif
#   From: 2010.03.12/outbox.cif.g09.slc.cpg/sg33_1_cif.got.tgz:787.got - 2010.04.14 01:49:19.
