data_PCOD8171282
_publ_section_title
;
Structure prediction by ZEFSAII (Michael W. Deem and Ramdas Pophale) SiO2 
 PCOD8171282
Probable space group: P N A 21
;
_chemical_formula_sum "Si O2"
_cell_formula_units_Z 24
_cell_length_a 10.239417
_cell_length_b 17.700593
_cell_length_c 5.094170
_cell_angle_alpha 90.000000
_cell_angle_beta 90.000000
_cell_angle_gamma 90.000000
_cell_volume 923.286489
_symmetry_space_group_name_H-M "P N A 21"
_symmetry_group_IT_number 33
_symmetry_cell_setting 'orthorhombic'
loop_
_space_group_symop_operation_xyz
x,y,z
-x,-y,1/2+z
1/2-x,1/2+y,1/2+z
1/2+x,1/2-y,z
loop_
_atom_site_type_symbol
_atom_site_label
_atom_site_fract_x
_atom_site_fract_y
_atom_site_fract_z
Si Si1 0.491728 0.858335 0.057060
Si Si2 0.427856 0.403789 0.613617
Si Si3 0.337165 0.150533 0.061241
Si Si4 0.297563 0.935587 0.737241
Si Si5 0.268600 0.801317 0.354493
Si Si6 0.676262 0.455550 0.390252
O O1 0.578479 0.875863 0.312890
O O2 0.378790 0.796338 0.125321
O O3 0.580403 0.826782 0.820159
O O4 0.412630 0.934095 0.958045
O O5 0.345538 0.423477 0.356255
O O6 0.373629 0.325839 0.739297
O O7 0.580834 0.396001 0.538288
O O8 0.410405 0.471492 0.821619
O O9 0.240649 0.081478 0.133421
O O10 0.246802 0.221703 0.994033
O O11 0.326909 0.865428 0.544949
O O12 0.294371 0.015618 0.580568
#
# Coordination Sequence:
#
# PCOD8171282 Si02
#       6
#     4   4   4   4   4   4
#     4  11  26  52  71 115 159 207 260 316 403 475
#     4  10  22  44  76 113 158 202 256 331 391 469
#     4  12  29  47  81 119 150 210 269 322 392 485
#     4  10  22  49  75 106 156 211 246 329 404 458
#     4  10  25  50  77 109 161 207 252 333 409 456
#     4  11  24  46  76 118 154 203 271 321 395 471
#
# _framework density 25.994095999999999
#
# number of rings (size 3 to 8) (size 9 to 14) (size 15 to 20)
#    0.000    1.333    3.333    0.000    7.000    2.667 
#    9.000    0.000    0.000    0.000    0.000    0.000 
#    0.000    0.000    0.000    0.000    0.000    0.000 
#
# Total GULP energy -297555.982613 kJ/mol
# GULP energy per Si atom -12398.165942 kJ/mol
# Density = 2.593493 g / cm^3
# Si number density = 25.994096 Si / 1000 Ang^3
#
#
#
# Elastic Constant Matrix: (Units=GPa)
#
#
# Indices 1 2 3 4 5 6 
#
# 1 121.8812 32.5622 51.0866 0.0000 0.0000 0.0000
# 2 32.5622 78.8996 33.8088 0.0000 0.0000 0.0000
# 3 51.0866 33.8088 149.5097 0.0000 0.0000 0.0000
# 4 0.0000 0.0000 0.0000 45.1063 0.0000 0.0000
# 5 0.0000 0.0000 0.0000 0.0000 62.4179 0.0000
# 6 0.0000 0.0000 0.0000 0.0000 0.0000 19.2738
#
#
#
# Elastic Compliance Matrix: (Units=1/GPa)
#
#
# Indices 1 2 3 4 5 6 
#
# 1 0.010180 -0.003002 -0.002800 0.000000 0.000000 0.000000
# 2 -0.003002 0.014919 -0.002348 0.000000 0.000000 0.000000
# 3 -0.002800 -0.002348 0.008176 0.000000 0.000000 0.000000
# 4 0.000000 0.000000 0.000000 0.022170 0.000000 0.000000
# 5 0.000000 0.000000 0.000000 0.000000 0.016021 0.000000
# 6 0.000000 0.000000 0.000000 0.000000 0.000000 0.051884
#
#
# Mechanical properties :
#
#
# Convention : Reuss Voigt Hill
#
# Bulk Modulus (GPa) = 58.90443 65.02284 61.96363
# Shear Modulus (GPa) = 34.40960 40.88179 37.64570
#
# Velocity S-wave (km/s) = 3.64228 3.97007 3.80970
# Velocity P-wave (km/s) = 6.35595 6.78853 6.57580
#
# Compressibility (1/GPa) = 0.01697665
#
# Stress axis : x y z
#
# Youngs Moduli (GPa) = 98.23029 67.02730 122.30705
#
# Poissons Ratio (x) = 0.20120 0.34243
# Poissons Ratio (y) = 0.29486 0.28718
# Poissons Ratio (z) = 0.27502 0.15738
#
# Static dielectric constant tensor:
#      x y z
#    x 4.661510 0.000000 0.000000 
#    y 0.000000 4.162660 0.000000 
#    z 0.000000 0.000000 5.056560 
# 
# 
# High freq. dielectric constant tensor:
#      x y z
#    x 2.045040 0.000000 0.000000 
#    y 0.000000 2.004140 0.000000 
#    z 0.000000 0.000000 2.060610 
# 
# From -- ./inp_files/878.got.cif
#   From: 2010.03.12/outbox.cif.g09.slc.cpg/sg33_1_cif.got.tgz:878.got - 2010.04.14 01:49:19.
