data_PCOD8171387
_publ_section_title
;
Structure prediction by ZEFSAII (Michael W. Deem and Ramdas Pophale) SiO2 
 PCOD8171387
Probable space group: P N A 21
;
_chemical_formula_sum "Si O2"
_cell_formula_units_Z 28
_cell_length_a 5.394834
_cell_length_b 18.708186
_cell_length_c 11.540168
_cell_angle_alpha 90.000000
_cell_angle_beta 90.000000
_cell_angle_gamma 90.000000
_cell_volume 1164.720974
_symmetry_space_group_name_H-M "P N A 21"
_symmetry_group_IT_number 33
_symmetry_cell_setting 'orthorhombic'
loop_
_space_group_symop_operation_xyz
x,y,z
-x,-y,1/2+z
1/2-x,1/2+y,1/2+z
1/2+x,1/2-y,z
loop_
_atom_site_type_symbol
_atom_site_label
_atom_site_fract_x
_atom_site_fract_y
_atom_site_fract_z
Si Si1 0.848636 0.972260 0.924400
Si Si2 0.086951 0.207322 0.052965
Si Si3 0.972229 0.486857 0.756680
Si Si4 0.869260 0.113577 0.242565
Si Si5 0.696401 0.205311 0.432917
Si Si6 0.849037 0.091445 0.612422
Si Si7 0.909612 0.884974 0.336180
O O1 0.946802 0.908623 0.843916
O O2 0.564979 0.982179 0.882684
O O3 0.985447 0.046727 0.903738
O O4 0.903004 0.944791 0.054811
O O5 0.860393 0.261724 0.076663
O O6 0.035702 0.140303 0.135986
O O7 0.094109 0.182745 0.919635
O O8 0.789072 0.545274 0.700374
O O9 0.856637 0.409515 0.787038
O O10 0.185556 0.474884 0.661092
O O11 0.698782 0.176198 0.299968
O O12 0.441501 0.247112 0.454402
O O13 0.694517 0.139901 0.524212
O O14 0.928706 0.137623 0.724341
#
# Coordination Sequence:
#
# PCOD8171387 Si02
#       7
#     4   4   4   4   4   4   4
#     4   9  22  42  70 106 138 178 239 319 373 424
#     4  12  30  48  72 102 149 202 241 292 352 453
#     4  10  23  44  75 106 146 190 240 332 376 448
#     4  10  24  46  73 106 139 187 254 309 376 428
#     4  11  26  45  74 106 145 197 245 306 362 443
#     4  10  24  44  69 107 144 189 249 304 381 437
#     4  10  25  43  67 103 141 191 244 294 372 441
#
# _framework density 24.040092000000001
#
# number of rings (size 3 to 8) (size 9 to 14) (size 15 to 20)
#    0.000    1.714    0.000    0.857   18.000    3.429 
#    5.143    0.000    0.000    0.000    0.000    0.000 
#    0.000    0.000    0.000    0.000    0.000    0.000 
#
# Total GULP energy -347044.343471 kJ/mol
# GULP energy per Si atom -12394.440838 kJ/mol
# Density = 2.398538 g / cm^3
# Si number density = 24.040092 Si / 1000 Ang^3
#
#
#
# Elastic Constant Matrix: (Units=GPa)
#
#
# Indices 1 2 3 4 5 6 
#
# 1 96.2435 29.4952 12.9689 0.0000 0.0000 0.0000
# 2 29.4952 64.8859 34.9384 0.0000 0.0000 0.0000
# 3 12.9689 34.9384 99.0198 0.0000 0.0000 0.0000
# 4 0.0000 0.0000 0.0000 44.3354 0.0000 0.0000
# 5 0.0000 0.0000 0.0000 0.0000 31.5410 0.0000
# 6 0.0000 0.0000 0.0000 0.0000 0.0000 31.0530
#
#
#
# Elastic Compliance Matrix: (Units=1/GPa)
#
#
# Indices 1 2 3 4 5 6 
#
# 1 0.012088 -0.005731 0.000439 0.000000 0.000000 0.000000
# 2 -0.005731 0.021744 -0.006922 0.000000 0.000000 0.000000
# 3 0.000439 -0.006922 0.012484 0.000000 0.000000 0.000000
# 4 0.000000 0.000000 0.000000 0.022555 0.000000 0.000000
# 5 0.000000 0.000000 0.000000 0.000000 0.031705 0.000000
# 6 0.000000 0.000000 0.000000 0.000000 0.000000 0.032203
#
#
# Mechanical properties :
#
#
# Convention : Reuss Voigt Hill
#
# Bulk Modulus (GPa) = 45.68727 46.10602 45.89665
# Shear Modulus (GPa) = 30.39492 33.56899 31.98195
#
# Velocity S-wave (km/s) = 3.55962 3.74086 3.65137
# Velocity P-wave (km/s) = 5.99503 6.15461 6.07534
#
# Compressibility (1/GPa) = 0.02188793
#
# Stress axis : x y z
#
# Youngs Moduli (GPa) = 82.73007 45.99018 80.10452
#
# Poissons Ratio (x) = 0.26357 -0.03517
# Poissons Ratio (y) = 0.47413 0.55444
# Poissons Ratio (z) = -0.03632 0.31832
#
# Static dielectric constant tensor:
#      x y z
#    x 4.349420 0.000000 0.000000 
#    y 0.000000 4.186010 0.000000 
#    z 0.000000 0.000000 4.548230 
# 
# 
# High freq. dielectric constant tensor:
#      x y z
#    x 1.950710 0.000000 0.000000 
#    y 0.000000 1.941500 0.000000 
#    z 0.000000 0.000000 1.961810 
# 
# From -- ./inp_files/5498.got.cif
#   From: 2010.03.12/outbox.cif.g09.slc.cpg/sg33_3_cif.got.tgz:5498.got - 2010.04.14 01:49:19.
