data_PCOD8171178
_publ_section_title
;
Structure prediction by ZEFSAII (Michael W. Deem and Ramdas Pophale) SiO2 
 PCOD8171178
Probable space group: P N A 21
;
_chemical_formula_sum "Si O2"
_cell_formula_units_Z 20
_cell_length_a 12.516390
_cell_length_b 6.168409
_cell_length_c 11.383346
_cell_angle_alpha 90.000000
_cell_angle_beta 90.000000
_cell_angle_gamma 90.000000
_cell_volume 878.865033
_symmetry_space_group_name_H-M "P N A 21"
_symmetry_group_IT_number 33
_symmetry_cell_setting 'orthorhombic'
loop_
_space_group_symop_operation_xyz
x,y,z
-x,-y,1/2+z
1/2-x,1/2+y,1/2+z
1/2+x,1/2-y,z
loop_
_atom_site_type_symbol
_atom_site_label
_atom_site_fract_x
_atom_site_fract_y
_atom_site_fract_z
Si Si1 0.065179 0.505746 0.475850
Si Si2 0.197620 0.380883 0.261969
Si Si3 0.865182 0.791559 0.178716
Si Si4 0.875480 0.413676 0.338735
Si Si5 0.007374 0.171962 0.147571
O O1 0.124870 0.522689 0.350474
O O2 0.137375 0.367669 0.566497
O O3 0.036032 0.749251 0.519795
O O4 0.947437 0.395038 0.456510
O O5 0.267596 0.536493 0.177663
O O6 0.268140 0.227197 0.347695
O O7 0.132309 0.222867 0.172814
O O8 0.854305 0.664659 0.302408
O O9 0.978106 0.921598 0.170716
O O10 0.945115 0.327498 0.233187
#
# Coordination Sequence:
#
# PCOD8171178 Si02
#       5
#     4   4   4   4   4
#     4  10  22  40  64  94 128 165 217 259 328 377
#     4  10  22  40  65  95 128 166 218 261 316 391
#     4  10  22  42  62  90 134 166 207 274 309 383
#     4   9  21  40  59  93 124 166 212 253 320 378
#     4   9  21  40  60  94 126 163 210 257 317 381
#
# _framework density 22.756623000000001
#
# number of rings (size 3 to 8) (size 9 to 14) (size 15 to 20)
#    0.000    2.400    0.000    0.000    2.800   11.200 
#   14.400    0.000    0.000    0.000    0.000    0.000 
#    0.000    0.000    0.000    0.000    0.000    0.000 
#
# Total GULP energy -247768.299608 kJ/mol
# GULP energy per Si atom -12388.414980 kJ/mol
# Density = 2.270483 g / cm^3
# Si number density = 22.756623 Si / 1000 Ang^3
#
#
#
# Elastic Constant Matrix: (Units=GPa)
#
#
# Indices 1 2 3 4 5 6 
#
# 1 85.1318 19.7590 18.4103 0.0000 0.0000 0.0000
# 2 19.7590 67.7907 11.1919 0.0000 0.0000 0.0000
# 3 18.4103 11.1919 63.7876 0.0000 0.0000 0.0000
# 4 0.0000 0.0000 0.0000 28.9442 0.0000 0.0000
# 5 0.0000 0.0000 0.0000 0.0000 35.6743 0.0000
# 6 0.0000 0.0000 0.0000 0.0000 0.0000 19.9790
#
#
#
# Elastic Compliance Matrix: (Units=1/GPa)
#
#
# Indices 1 2 3 4 5 6 
#
# 1 0.013216 -0.003318 -0.003232 0.000000 0.000000 0.000000
# 2 -0.003318 0.016025 -0.001854 0.000000 0.000000 0.000000
# 3 -0.003232 -0.001854 0.016935 0.000000 0.000000 0.000000
# 4 0.000000 0.000000 0.000000 0.034549 0.000000 0.000000
# 5 0.000000 0.000000 0.000000 0.000000 0.028031 0.000000
# 6 0.000000 0.000000 0.000000 0.000000 0.000000 0.050053
#
#
# Mechanical properties :
#
#
# Convention : Reuss Voigt Hill
#
# Bulk Modulus (GPa) = 34.05209 35.04803 34.55006
# Shear Modulus (GPa) = 26.96784 28.07609 27.52196
#
# Velocity S-wave (km/s) = 3.44620 3.51629 3.48142
# Velocity P-wave (km/s) = 5.55258 5.64982 5.60141
#
# Compressibility (1/GPa) = 0.02936678
#
# Stress axis : x y z
#
# Youngs Moduli (GPa) = 75.66802 62.40419 59.04883
#
# Poissons Ratio (x) = 0.20708 0.19085
# Poissons Ratio (y) = 0.25109 0.10947
# Poissons Ratio (z) = 0.24456 0.11569
#
# Static dielectric constant tensor:
#      x y z
#    x 4.479540 0.000000 0.000000 
#    y 0.000000 4.161670 0.000000 
#    z 0.000000 0.000000 4.094720 
# 
# 
# High freq. dielectric constant tensor:
#      x y z
#    x 1.900020 0.000000 0.000000 
#    y 0.000000 1.885340 0.000000 
#    z 0.000000 0.000000 1.879370 
# 
# From -- ./inp_files/6189.got.cif
#   From: 2010.03.12/outbox.cif.g09.slc.cpg/sg33_4_cif.got.tgz:6189.got - 2010.04.14 01:49:19.
