data_PCOD8171514
_publ_section_title
;
Structure prediction by ZEFSAII (Michael W. Deem and Ramdas Pophale) SiO2 
 PCOD8171514
Probable space group: P N A 21
;
_chemical_formula_sum "Si O2"
_cell_formula_units_Z 32
_cell_length_a 8.260846
_cell_length_b 11.591285
_cell_length_c 14.061538
_cell_angle_alpha 90.000000
_cell_angle_beta 90.000000
_cell_angle_gamma 90.000000
_cell_volume 1346.445983
_symmetry_space_group_name_H-M "P N A 21"
_symmetry_group_IT_number 33
_symmetry_cell_setting 'orthorhombic'
loop_
_space_group_symop_operation_xyz
x,y,z
-x,-y,1/2+z
1/2-x,1/2+y,1/2+z
1/2+x,1/2-y,z
loop_
_atom_site_type_symbol
_atom_site_label
_atom_site_fract_x
_atom_site_fract_y
_atom_site_fract_z
Si Si1 0.033008 0.708387 0.535440
Si Si2 0.047504 0.300695 0.255959
Si Si3 0.636101 0.426332 0.982269
Si Si4 0.722319 0.138672 0.891143
Si Si5 0.412126 0.436428 0.656665
Si Si6 0.767436 0.916361 0.801988
Si Si7 0.288608 0.501146 0.270499
Si Si8 0.569671 0.790052 0.272096
O O1 0.204036 0.647915 0.511097
O O2 0.008009 0.705760 0.647685
O O3 0.022280 0.844305 0.501970
O O4 0.878080 0.645404 0.488357
O O5 0.085793 0.174762 0.298979
O O6 0.208678 0.375733 0.270207
O O7 0.903814 0.354604 0.317735
O O8 0.641300 0.464396 0.873471
O O9 0.615425 0.543360 0.044403
O O10 0.609232 0.168234 0.799049
O O11 0.862204 0.234957 0.871887
O O12 0.792850 0.008298 0.887534
O O13 0.263853 0.504325 0.706952
O O14 0.570533 0.502690 0.693767
O O15 0.426215 0.301973 0.685404
O O16 0.162879 0.597746 0.236489
#
# Coordination Sequence:
#
# PCOD8171514 Si02
#       8
#     4   4   4   4   4   4   4   4
#     4  12  21  40  68 106 134 174 246 295 342 411
#     4  12  23  40  65 100 142 185 225 290 353 415
#     4  12  25  43  70 108 138 187 235 301 346 431
#     4  11  21  40  68 102 133 176 233 291 343 410
#     4  11  24  42  67 101 141 178 230 294 356 420
#     4  11  23  41  65  97 141 182 223 278 358 413
#     4  12  25  44  70 100 142 186 236 291 361 413
#     4  11  20  40  69  98 133 178 224 286 351 409
#
# _framework density 23.766269000000001
#
# number of rings (size 3 to 8) (size 9 to 14) (size 15 to 20)
#    0.000    0.500    7.500    0.750    1.750    0.000 
#    0.000    1.250    2.750    0.000    0.000    0.000 
#    0.000    0.000    0.000    0.000    0.000    0.000 
#
# Total GULP energy -396641.534399 kJ/mol
# GULP energy per Si atom -12395.047950 kJ/mol
# Density = 2.371218 g / cm^3
# Si number density = 23.766269 Si / 1000 Ang^3
#
#
#
# Elastic Constant Matrix: (Units=GPa)
#
#
# Indices 1 2 3 4 5 6 
#
# 1 56.7365 0.9719 -3.3695 0.0000 0.0000 0.0000
# 2 0.9719 119.4366 16.1574 0.0000 0.0000 0.0000
# 3 -3.3695 16.1574 50.0574 0.0000 0.0000 0.0000
# 4 0.0000 0.0000 0.0000 43.9948 0.0000 0.0000
# 5 0.0000 0.0000 0.0000 0.0000 26.0780 0.0000
# 6 0.0000 0.0000 0.0000 0.0000 0.0000 44.6647
#
#
#
# Elastic Compliance Matrix: (Units=1/GPa)
#
#
# Indices 1 2 3 4 5 6 
#
# 1 0.017708 -0.000319 0.001295 0.000000 0.000000 0.000000
# 2 -0.000319 0.008761 -0.002849 0.000000 0.000000 0.000000
# 3 0.001295 -0.002849 0.020984 0.000000 0.000000 0.000000
# 4 0.000000 0.000000 0.000000 0.022730 0.000000 0.000000
# 5 0.000000 0.000000 0.000000 0.000000 0.038347 0.000000
# 6 0.000000 0.000000 0.000000 0.000000 0.000000 0.022389
#
#
# Mechanical properties :
#
#
# Convention : Reuss Voigt Hill
#
# Bulk Modulus (GPa) = 22.88054 28.19447 25.53750
# Shear Modulus (GPa) = 33.50458 37.11220 35.30839
#
# Velocity S-wave (km/s) = 3.75874 3.95593 3.85860
# Velocity P-wave (km/s) = 5.33720 5.72318 5.53356
#
# Compressibility (1/GPa) = 0.04370526
#
# Stress axis : x y z
#
# Youngs Moduli (GPa) = 56.47252 114.14624 47.65555
#
# Poissons Ratio (x) = 0.03645 -0.06171
# Poissons Ratio (y) = 0.01803 0.13578
# Poissons Ratio (z) = -0.07313 0.32523
#
# Static dielectric constant tensor:
#      x y z
#    x 4.695920 0.000000 0.000000 
#    y 0.000000 4.502860 0.000000 
#    z 0.000000 0.000000 3.998670 
# 
# 
# High freq. dielectric constant tensor:
#      x y z
#    x 1.967880 0.000000 0.000000 
#    y 0.000000 1.948940 0.000000 
#    z 0.000000 0.000000 1.910630 
# 
# From -- ./inp_files/7679.got.cif
#   From: 2010.03.12/outbox.cif.g09.slc.cpg/sg33_4_cif.got.tgz:7679.got - 2010.04.14 01:49:19.
