data_PCOD8171267
_publ_section_title
;
Structure prediction by ZEFSAII (Michael W. Deem and Ramdas Pophale) SiO2 
 PCOD8171267
Probable space group: P N A 21
;
_chemical_formula_sum "Si O2"
_cell_formula_units_Z 20
_cell_length_a 21.857823
_cell_length_b 8.176364
_cell_length_c 5.028393
_cell_angle_alpha 90.000000
_cell_angle_beta 90.000000
_cell_angle_gamma 90.000000
_cell_volume 898.661912
_symmetry_space_group_name_H-M "P N A 21"
_symmetry_group_IT_number 33
_symmetry_cell_setting 'orthorhombic'
loop_
_space_group_symop_operation_xyz
x,y,z
-x,-y,1/2+z
1/2-x,1/2+y,1/2+z
1/2+x,1/2-y,z
loop_
_atom_site_type_symbol
_atom_site_label
_atom_site_fract_x
_atom_site_fract_y
_atom_site_fract_z
Si Si1 0.677075 0.746282 0.856870
Si Si2 0.776830 0.941932 0.131556
Si Si3 0.077704 0.552655 0.573929
Si Si4 0.944391 0.653919 0.571904
Si Si5 0.852878 0.929454 0.610266
O O1 0.727788 0.636747 0.698456
O O2 0.636935 0.839458 0.638383
O O3 0.710544 0.873300 0.053887
O O4 0.635417 0.621275 0.033645
O O5 0.804779 0.852966 0.394249
O O6 0.824984 0.912746 0.899296
O O7 0.083873 0.477774 0.279327
O O8 0.017508 0.666015 0.604208
O O9 0.073165 0.403213 0.778093
O O10 0.917038 0.834193 0.612205
#
# Coordination Sequence:
#
# PCOD8171267 Si02
#       5
#     4   4   4   4   4
#     4  10  26  44  67  99 131 179 222 273 333 397
#     4  10  25  39  67  95 133 174 222 269 334 388
#     4  10  23  41  72  96 132 177 216 278 331 408
#     4  10  22  44  66 100 132 172 223 270 342 391
#     4  10  24  42  64  98 126 182 211 286 312 406
#
# _framework density 22.255310999999999
#
# number of rings (size 3 to 8) (size 9 to 14) (size 15 to 20)
#    1.200    0.800    0.000    1.200    8.400    1.600 
#    3.600    0.000    0.000    0.000    0.000    0.000 
#    0.000    0.000    0.000    0.000    0.000    0.000 
#
# Total GULP energy -247883.037006 kJ/mol
# GULP energy per Si atom -12394.151850 kJ/mol
# Density = 2.220466 g / cm^3
# Si number density = 22.255311 Si / 1000 Ang^3
#
#
#
# Elastic Constant Matrix: (Units=GPa)
#
#
# Indices 1 2 3 4 5 6 
#
# 1 69.8393 43.5472 1.8774 0.0000 0.0000 0.0000
# 2 43.5472 81.0969 1.6239 0.0000 0.0000 0.0000
# 3 1.8774 1.6239 78.4921 0.0000 0.0000 0.0000
# 4 0.0000 0.0000 0.0000 23.3437 0.0000 0.0000
# 5 0.0000 0.0000 0.0000 0.0000 33.8046 0.0000
# 6 0.0000 0.0000 0.0000 0.0000 0.0000 46.2234
#
#
#
# Elastic Compliance Matrix: (Units=1/GPa)
#
#
# Indices 1 2 3 4 5 6 
#
# 1 0.021532 -0.011557 -0.000276 0.000000 0.000000 0.000000
# 2 -0.011557 0.018539 -0.000107 0.000000 0.000000 0.000000
# 3 -0.000276 -0.000107 0.012749 0.000000 0.000000 0.000000
# 4 0.000000 0.000000 0.000000 0.042838 0.000000 0.000000
# 5 0.000000 0.000000 0.000000 0.000000 0.029582 0.000000
# 6 0.000000 0.000000 0.000000 0.000000 0.000000 0.021634
#
#
# Mechanical properties :
#
#
# Convention : Reuss Voigt Hill
#
# Bulk Modulus (GPa) = 34.55395 35.94727 35.25061
# Shear Modulus (GPa) = 27.71624 32.83300 30.27462
#
# Velocity S-wave (km/s) = 3.53282 3.84512 3.69227
# Velocity P-wave (km/s) = 5.67459 5.99170 5.83530
#
# Compressibility (1/GPa) = 0.02894025
#
# Stress axis : x y z
#
# Youngs Moduli (GPa) = 46.44259 53.94114 78.43780
#
# Poissons Ratio (x) = 0.62338 0.02164
# Poissons Ratio (y) = 0.53672 0.00840
# Poissons Ratio (z) = 0.01281 0.00578
#
# Static dielectric constant tensor:
#      x y z
#    x 3.689850 0.000000 0.000000 
#    y 0.000000 3.787310 0.000000 
#    z 0.000000 0.000000 4.117010 
# 
# 
# High freq. dielectric constant tensor:
#      x y z
#    x 1.854980 0.000000 0.000000 
#    y 0.000000 1.859550 0.000000 
#    z 0.000000 0.000000 1.895470 
# 
# From -- ./inp_files/1637.got.cif
#   From: 2010.03.12/outbox.cif.g09.slc.cpg/sg33_1_cif.got.tgz:1637.got - 2010.04.14 01:49:19.
