data_PCOD8171960
_publ_section_title
;
Structure prediction by ZEFSAII (Michael W. Deem and Ramdas Pophale) SiO2 
 PCOD8171960
Probable space group: P N N 2
;
_chemical_formula_sum "Si O2"
_cell_formula_units_Z 24
_cell_length_a 5.205872
_cell_length_b 7.600167
_cell_length_c 25.639633
_cell_angle_alpha 90.000000
_cell_angle_beta 90.000000
_cell_angle_gamma 90.000000
_cell_volume 1014.444812
_symmetry_space_group_name_H-M "P N N 2"
_symmetry_group_IT_number 34
_symmetry_cell_setting 'orthorhombic'
loop_
_space_group_symop_operation_xyz
x,y,z
-x,-y,z
1/2-x,1/2+y,1/2+z
1/2+x,1/2-y,1/2+z
loop_
_atom_site_type_symbol
_atom_site_label
_atom_site_fract_x
_atom_site_fract_y
_atom_site_fract_z
Si Si1 0.990735 0.792036 0.439720
Si Si2 0.685500 0.193838 0.828605
Si Si3 0.519379 0.210662 0.173089
Si Si4 0.992702 0.706691 0.001062
Si Si5 0.685774 0.303389 0.286371
Si Si6 0.483266 0.699443 0.618012
O O1 0.921826 0.689301 0.387081
O O2 0.770317 0.733894 0.480311
O O3 0.267001 0.731010 0.461744
O O4 0.000000 0.000000 0.428821
O O5 0.463121 0.291830 0.793643
O O6 0.962773 0.290153 0.822318
O O7 0.749766 0.999755 0.806643
O O8 0.580017 0.300247 0.228078
O O9 0.253786 0.287697 0.149487
O O10 0.743251 0.281194 0.134337
O O11 0.500000 0.000000 0.178262
O O12 0.000000 0.500000 0.008619
O O13 0.935338 0.792077 0.056547
O O14 0.500000 0.500000 0.636173
#
# Coordination Sequence:
#
# PCOD8171960 Si02
#       6
#     4   4   4   4   4   4
#     4  10  21  38  62  84 120 164 202 247 311 367
#     4  10  21  38  56  84 123 153 202 249 296 363
#     4  10  21  38  62  84 120 164 202 247 311 367
#     4  10  21  40  60  90 120 155 206 255 305 372
#     4  10  21  38  56  84 123 153 202 249 296 363
#     4  10  21  40  60  90 120 155 206 255 305 372
#
# _framework density 23.658263000000002
#
# number of rings (size 3 to 8) (size 9 to 14) (size 15 to 20)
#    0.000    2.000    0.000    3.000    0.000    1.333 
#   18.000    0.000    0.000    0.000    0.000    0.000 
#    0.000    0.000    0.000    0.000    0.000    0.000 
#
# Total GULP energy -297350.219612 kJ/mol
# GULP energy per Si atom -12389.592484 kJ/mol
# Density = 2.360442 g / cm^3
# Si number density = 23.658263 Si / 1000 Ang^3
#
#
#
# Elastic Constant Matrix: (Units=GPa)
#
#
# Indices 1 2 3 4 5 6 
#
# 1 245.8113 21.2887 77.4143 0.0000 0.0000 0.0000
# 2 21.2887 33.1760 22.5781 0.0000 0.0000 0.0000
# 3 77.4143 22.5781 166.4898 0.0000 0.0000 0.0000
# 4 0.0000 0.0000 0.0000 32.1609 0.0000 0.0000
# 5 0.0000 0.0000 0.0000 0.0000 55.7692 0.0000
# 6 0.0000 0.0000 0.0000 0.0000 0.0000 7.3152
#
#
#
# Elastic Compliance Matrix: (Units=1/GPa)
#
#
# Indices 1 2 3 4 5 6 
#
# 1 0.004856 -0.001740 -0.002022 0.000000 0.000000 0.000000
# 2 -0.001740 0.033830 -0.003779 0.000000 0.000000 0.000000
# 3 -0.002022 -0.003779 0.007459 0.000000 0.000000 0.000000
# 4 0.000000 0.000000 0.000000 0.031094 0.000000 0.000000
# 5 0.000000 0.000000 0.000000 0.000000 0.017931 0.000000
# 6 0.000000 0.000000 0.000000 0.000000 0.000000 0.136701
#
#
# Mechanical properties :
#
#
# Convention : Reuss Voigt Hill
#
# Bulk Modulus (GPa) = 32.19167 76.44882 54.32025
# Shear Modulus (GPa) = 19.43207 40.66213 30.04710
#
# Velocity S-wave (km/s) = 2.86906 4.15025 3.56764
# Velocity P-wave (km/s) = 4.96103 7.43976 6.32305
#
# Compressibility (1/GPa) = 0.03106394
#
# Stress axis : x y z
#
# Youngs Moduli (GPa) = 205.94887 29.55923 134.06755
#
# Poissons Ratio (x) = 0.05143 0.27106
# Poissons Ratio (y) = 0.35832 0.50662
# Poissons Ratio (z) = 0.41639 0.11170
#
# Static dielectric constant tensor:
#      x y z
#    x -18.427550 0.000000 0.000000 
#    y 0.000000 3.609070 0.000000 
#    z 0.000000 0.000000 4.077690 
# 
# 
# High freq. dielectric constant tensor:
#      x y z
#    x 1.979100 0.000000 0.000000 
#    y 0.000000 1.898940 0.000000 
#    z 0.000000 0.000000 1.934890 
# 
# From -- ./inp_files/8270.got.cif
#   From: 2010.03.12/outbox.cif.g09.slc.cpg/sg34_5_cif.got.tgz:8270.got - 2010.04.14 01:56:33.
