data_PCOD8171316
_publ_section_title
;
Structure prediction by ZEFSAII (Michael W. Deem and Ramdas Pophale) SiO2 
 PCOD8171316
Probable space group: P N A 21
;
_chemical_formula_sum "Si O2"
_cell_formula_units_Z 32
_cell_length_a 9.481278
_cell_length_b 13.754847
_cell_length_c 11.483941
_cell_angle_alpha 90.000000
_cell_angle_beta 90.000000
_cell_angle_gamma 90.000000
_cell_volume 1497.661264
_symmetry_space_group_name_H-M "P N A 21"
_symmetry_group_IT_number 33
_symmetry_cell_setting 'orthorhombic'
loop_
_space_group_symop_operation_xyz
x,y,z
-x,-y,1/2+z
1/2-x,1/2+y,1/2+z
1/2+x,1/2-y,z
loop_
_atom_site_type_symbol
_atom_site_label
_atom_site_fract_x
_atom_site_fract_y
_atom_site_fract_z
Si Si1 0.295448 0.150035 0.813550
Si Si2 0.631964 0.023802 0.167882
Si Si3 0.128317 0.032956 0.221773
Si Si4 0.377840 0.357935 0.110331
Si Si5 0.311154 0.205513 0.298698
Si Si6 0.466054 0.340008 0.850786
Si Si7 0.107257 0.349090 0.385636
Si Si8 0.148371 0.520167 0.537137
O O1 0.339922 0.089087 0.698169
O O2 0.376925 0.251167 0.799165
O O3 0.343329 0.096394 0.931942
O O4 0.128527 0.169838 0.813953
O O5 0.748736 0.068327 0.079636
O O6 0.662627 0.079442 0.286594
O O7 0.475508 0.052292 0.125444
O O8 0.241114 0.100290 0.287148
O O9 0.983528 0.090167 0.200543
O O10 0.099172 0.939023 0.300041
O O11 0.199936 0.007284 0.097997
O O12 0.321680 0.258395 0.171598
O O13 0.456270 0.334622 0.990529
O O14 0.220358 0.263631 0.393744
O O15 0.459765 0.198669 0.358950
O O16 0.100118 0.411917 0.502072
#
# Coordination Sequence:
#
# PCOD8171316 Si02
#       8
#     4   4   4   4   4   4   4   4
#     4  11  26  46  66  99 137 177 231 279 340 409
#     4  10  23  43  66  94 135 171 221 281 332 403
#     4  12  24  46  65  98 141 174 222 282 339 404
#     4  11  24  42  70  98 130 177 225 276 342 398
#     4  11  22  41  68 100 129 171 220 282 326 402
#     4  12  28  42  69 101 135 182 228 281 340 414
#     4  10  23  40  66  96 130 168 222 276 328 397
#     4  11  24  44  68  96 133 180 221 277 343 399
#
# _framework density 21.366645999999999
#
# number of rings (size 3 to 8) (size 9 to 14) (size 15 to 20)
#    0.000    1.000    5.000    0.750    5.250    0.000 
#    2.250    0.000    0.000    0.000    0.000    0.000 
#    0.000    0.000    0.000    0.000    0.000    0.000 
#
# Total GULP energy -396812.423825 kJ/mol
# GULP energy per Si atom -12400.388245 kJ/mol
# Density = 2.131801 g / cm^3
# Si number density = 21.366646 Si / 1000 Ang^3
#
#
#
# Elastic Constant Matrix: (Units=GPa)
#
#
# Indices 1 2 3 4 5 6 
#
# 1 126.6843 47.3615 7.3594 0.0000 0.0000 0.0000
# 2 47.3615 128.2888 17.2999 0.0000 0.0000 0.0000
# 3 7.3594 17.2999 23.2378 0.0000 0.0000 0.0000
# 4 0.0000 0.0000 0.0000 27.5606 0.0000 0.0000
# 5 0.0000 0.0000 0.0000 0.0000 24.0408 0.0000
# 6 0.0000 0.0000 0.0000 0.0000 0.0000 44.2059
#
#
#
# Elastic Compliance Matrix: (Units=1/GPa)
#
#
# Indices 1 2 3 4 5 6 
#
# 1 0.009161 -0.003325 -0.000426 0.000000 0.000000 0.000000
# 2 -0.003325 0.009871 -0.006296 0.000000 0.000000 0.000000
# 3 -0.000426 -0.006296 0.047856 0.000000 0.000000 0.000000
# 4 0.000000 0.000000 0.000000 0.036284 0.000000 0.000000
# 5 0.000000 0.000000 0.000000 0.000000 0.041596 0.000000
# 6 0.000000 0.000000 0.000000 0.000000 0.000000 0.022621
#
#
# Mechanical properties :
#
#
# Convention : Reuss Voigt Hill
#
# Bulk Modulus (GPa) = 21.37010 46.91696 34.14353
# Shear Modulus (GPa) = 24.62067 32.90748 28.76408
#
# Velocity S-wave (km/s) = 3.39823 3.92871 3.67306
# Velocity P-wave (km/s) = 5.04189 6.52575 5.83121
#
# Compressibility (1/GPa) = 0.04679436
#
# Stress axis : x y z
#
# Youngs Moduli (GPa) = 109.15414 101.30331 20.89619
#
# Poissons Ratio (x) = 0.33680 0.00891
# Poissons Ratio (y) = 0.36290 0.13156
# Poissons Ratio (z) = 0.04653 0.63781
#
# Static dielectric constant tensor:
#      x y z
#    x 3.938490 0.000000 0.000000 
#    y 0.000000 4.037910 0.000000 
#    z 0.000000 0.000000 3.677640 
# 
# 
# High freq. dielectric constant tensor:
#      x y z
#    x 1.857160 0.000000 0.000000 
#    y 0.000000 1.847960 0.000000 
#    z 0.000000 0.000000 1.812300 
# 
# From -- ./inp_files/5999.got.cif
#   From: 2010.03.12/outbox.cif.g09.slc.cpg/sg33_3_cif.got.tgz:5999.got - 2010.04.14 01:49:19.
