data_PCOD8171974
_publ_section_title
;
Structure prediction by ZEFSAII (Michael W. Deem and Ramdas Pophale) SiO2 
 PCOD8171974
Probable space group: P N N 2
;
_chemical_formula_sum "Si O2"
_cell_formula_units_Z 24
_cell_length_a 4.981658
_cell_length_b 24.911047
_cell_length_c 8.345020
_cell_angle_alpha 90.000000
_cell_angle_beta 90.000000
_cell_angle_gamma 90.000000
_cell_volume 1035.602934
_symmetry_space_group_name_H-M "P N N 2"
_symmetry_group_IT_number 34
_symmetry_cell_setting 'orthorhombic'
loop_
_space_group_symop_operation_xyz
x,y,z
-x,-y,z
1/2-x,1/2+y,1/2+z
1/2+x,1/2-y,1/2+z
loop_
_atom_site_type_symbol
_atom_site_label
_atom_site_fract_x
_atom_site_fract_y
_atom_site_fract_z
Si Si1 0.098474 0.151640 0.964170
Si Si2 0.750870 0.465668 0.477845
Si Si3 0.260880 0.034334 0.354395
Si Si4 0.566065 0.688990 0.795083
Si Si5 0.905478 0.349900 0.971577
Si Si6 0.070650 0.307035 0.296969
O O1 0.371506 0.185773 0.948396
O O2 0.872566 0.180328 0.853814
O O3 0.188507 0.092649 0.901965
O O4 0.004358 0.148676 0.148778
O O5 0.500000 0.500000 0.430358
O O6 0.790984 0.457174 0.665767
O O7 0.000000 0.500000 0.406227
O O8 0.288589 0.091354 0.437943
O O9 0.500000 0.000000 0.425932
O O10 0.000000 0.000000 0.400570
O O11 0.862354 0.672354 0.852722
O O12 0.507794 0.748547 0.727057
O O13 0.358826 0.685980 0.943411
O O14 0.002710 0.347953 0.153735
#
# Coordination Sequence:
#
# PCOD8171974 Si02
#       6
#     4   4   4   4   4   4
#     4  12  25  44  69 101 136 180 227 282 342 403
#     4  10  21  39  67  99 125 165 226 284 328 393
#     4  10  21  39  67  99 125 165 226 284 327 393
#     4  12  24  43  70  97 134 187 238 268 327 412
#     4  12  25  44  69 101 136 180 227 282 342 403
#     4  12  26  43  64 101 146 179 218 284 346 406
#
# _framework density 23.174904999999999
#
# number of rings (size 3 to 8) (size 9 to 14) (size 15 to 20)
#    0.000    0.667    1.667    7.000    4.667    0.000 
#    0.000    3.333    0.000    0.000    0.000    0.000 
#    0.000    0.000    0.000    0.000    0.000    0.000 
#
# Total GULP energy -297415.595687 kJ/mol
# GULP energy per Si atom -12392.316487 kJ/mol
# Density = 2.312216 g / cm^3
# Si number density = 23.174905 Si / 1000 Ang^3
#
#
#
# Elastic Constant Matrix: (Units=GPa)
#
#
# Indices 1 2 3 4 5 6 
#
# 1 108.5674 40.8259 19.1037 0.0000 0.0000 0.0000
# 2 40.8259 128.2302 8.1048 0.0000 0.0000 0.0000
# 3 19.1037 8.1048 50.8572 0.0000 0.0000 0.0000
# 4 0.0000 0.0000 0.0000 29.9249 0.0000 0.0000
# 5 0.0000 0.0000 0.0000 0.0000 29.0197 0.0000
# 6 0.0000 0.0000 0.0000 0.0000 0.0000 42.8658
#
#
#
# Elastic Compliance Matrix: (Units=1/GPa)
#
#
# Indices 1 2 3 4 5 6 
#
# 1 0.011093 -0.003302 -0.003641 0.000000 0.000000 0.000000
# 2 -0.003302 0.008861 -0.000172 0.000000 0.000000 0.000000
# 3 -0.003641 -0.000172 0.021058 0.000000 0.000000 0.000000
# 4 0.000000 0.000000 0.000000 0.033417 0.000000 0.000000
# 5 0.000000 0.000000 0.000000 0.000000 0.034459 0.000000
# 6 0.000000 0.000000 0.000000 0.000000 0.000000 0.023329
#
#
# Mechanical properties :
#
#
# Convention : Reuss Voigt Hill
#
# Bulk Modulus (GPa) = 37.33722 47.08040 42.20881
# Shear Modulus (GPa) = 32.18070 35.00344 33.59207
#
# Velocity S-wave (km/s) = 3.73044 3.89061 3.81136
# Velocity P-wave (km/s) = 5.89075 6.36724 6.13362
#
# Compressibility (1/GPa) = 0.02678292
#
# Stress axis : x y z
#
# Youngs Moduli (GPa) = 90.14634 112.86003 47.48819
#
# Poissons Ratio (x) = 0.37263 0.17289
# Poissons Ratio (y) = 0.29764 0.00816
# Poissons Ratio (z) = 0.32820 0.01939
#
# Static dielectric constant tensor:
#      x y z
#    x 4.371740 0.000000 0.000000 
#    y 0.000000 4.118890 0.000000 
#    z 0.000000 0.000000 3.840290 
# 
# 
# High freq. dielectric constant tensor:
#      x y z
#    x 1.935610 0.000000 0.000000 
#    y 0.000000 1.930930 0.000000 
#    z 0.000000 0.000000 1.889370 
# 
# From -- ./inp_files/2106.got.cif
#   From: 2010.03.12/outbox.cif.g09.slc.cpg/sg34_2_cif.got.tgz:2106.got - 2010.04.14 01:56:33.
