data_PCOD8171374
_publ_section_title
;
Structure prediction by ZEFSAII (Michael W. Deem and Ramdas Pophale) SiO2 
 PCOD8171374
Probable space group: P N A 21
;
_chemical_formula_sum "Si O2"
_cell_formula_units_Z 20
_cell_length_a 11.709879
_cell_length_b 13.633640
_cell_length_c 4.852134
_cell_angle_alpha 90.000000
_cell_angle_beta 90.000000
_cell_angle_gamma 90.000000
_cell_volume 774.634822
_symmetry_space_group_name_H-M "P N A 21"
_symmetry_group_IT_number 33
_symmetry_cell_setting 'orthorhombic'
loop_
_space_group_symop_operation_xyz
x,y,z
-x,-y,1/2+z
1/2-x,1/2+y,1/2+z
1/2+x,1/2-y,z
loop_
_atom_site_type_symbol
_atom_site_label
_atom_site_fract_x
_atom_site_fract_y
_atom_site_fract_z
Si Si1 0.276924 0.089966 0.570500
Si Si2 0.978361 0.933974 0.105326
Si Si3 0.824250 0.205013 0.780066
Si Si4 0.972903 0.437110 0.177446
Si Si5 0.700236 0.126590 0.279596
O O1 0.332666 0.177996 0.747617
O O2 0.345380 0.087901 0.279304
O O3 0.143478 0.110575 0.509130
O O4 0.282020 0.988599 0.732256
O O5 0.054435 0.844548 0.217113
O O6 0.961112 0.014944 0.344827
O O7 0.726610 0.154481 0.593690
O O8 0.787564 0.188462 0.094452
O O9 0.024873 0.527489 0.362354
O O10 0.065855 0.348935 0.217495
#
# Coordination Sequence:
#
# PCOD8171374 Si02
#       5
#     4   4   4   4   4
#     4  11  26  47  76 103 151 191 246 307 366 447
#     4  12  25  49  74 104 150 196 248 308 372 437
#     4  12  26  45  73 109 141 198 244 294 376 437
#     4  10  23  43  72 104 140 188 237 298 371 420
#     4  11  24  48  69 104 148 183 243 305 357 441
#
# _framework density 25.818619999999999
#
# number of rings (size 3 to 8) (size 9 to 14) (size 15 to 20)
#    0.000    0.800    4.000    2.400    2.800    6.400 
#    3.600    0.000    0.000    0.000    0.000    0.000 
#    0.000    0.000    0.000    0.000    0.000    0.000 
#
# Total GULP energy -247984.470989 kJ/mol
# GULP energy per Si atom -12399.223549 kJ/mol
# Density = 2.575986 g / cm^3
# Si number density = 25.818620 Si / 1000 Ang^3
#
#
#
# Elastic Constant Matrix: (Units=GPa)
#
#
# Indices 1 2 3 4 5 6 
#
# 1 151.9173 0.3606 -1.5758 0.0000 0.0000 0.0000
# 2 0.3606 120.2772 4.3186 0.0000 0.0000 0.0000
# 3 -1.5758 4.3186 56.0503 0.0000 0.0000 0.0000
# 4 0.0000 0.0000 0.0000 16.3877 0.0000 0.0000
# 5 0.0000 0.0000 0.0000 0.0000 36.8305 0.0000
# 6 0.0000 0.0000 0.0000 0.0000 0.0000 24.0841
#
#
#
# Elastic Compliance Matrix: (Units=1/GPa)
#
#
# Indices 1 2 3 4 5 6 
#
# 1 0.006585 -0.000026 0.000187 0.000000 0.000000 0.000000
# 2 -0.000026 0.008337 -0.000643 0.000000 0.000000 0.000000
# 3 0.000187 -0.000643 0.017896 0.000000 0.000000 0.000000
# 4 0.000000 0.000000 0.000000 0.061021 0.000000 0.000000
# 5 0.000000 0.000000 0.000000 0.000000 0.027151 0.000000
# 6 0.000000 0.000000 0.000000 0.000000 0.000000 0.041521
#
#
# Mechanical properties :
#
#
# Convention : Reuss Voigt Hill
#
# Bulk Modulus (GPa) = 31.39432 37.16130 34.27781
# Shear Modulus (GPa) = 28.72012 37.13658 32.92835
#
# Velocity S-wave (km/s) = 3.33885 3.79669 3.57511
# Velocity P-wave (km/s) = 5.20095 5.80037 5.50882
#
# Compressibility (1/GPa) = 0.03185290
#
# Stress axis : x y z
#
# Youngs Moduli (GPa) = 151.87109 119.94291 55.87867
#
# Poissons Ratio (x) = 0.00317 -0.01046
# Poissons Ratio (y) = 0.00402 0.03594
# Poissons Ratio (z) = -0.02842 0.07714
#
# Static dielectric constant tensor:
#      x y z
#    x 5.302470 0.000000 0.000000 
#    y 0.000000 4.399060 0.000000 
#    z 0.000000 0.000000 4.480620 
# 
# 
# High freq. dielectric constant tensor:
#      x y z
#    x 2.058170 0.000000 0.000000 
#    y 0.000000 2.013180 0.000000 
#    z 0.000000 0.000000 2.033420 
# 
# From -- ./inp_files/746.got.cif
#   From: 2010.03.12/outbox.cif.g09.slc.cpg/sg33_1_cif.got.tgz:746.got - 2010.04.14 01:49:19.
