data_PCOD8171817
_publ_section_title
;
Structure prediction by ZEFSAII (Michael W. Deem and Ramdas Pophale) SiO2 
 PCOD8171817
Probable space group: P N A 21
;
_chemical_formula_sum "Si O2"
_cell_formula_units_Z 20
_cell_length_a 13.614560
_cell_length_b 9.261213
_cell_length_c 9.349714
_cell_angle_alpha 90.000000
_cell_angle_beta 90.000000
_cell_angle_gamma 90.000000
_cell_volume 1178.880569
_symmetry_space_group_name_H-M "P N A 21"
_symmetry_group_IT_number 33
_symmetry_cell_setting 'orthorhombic'
loop_
_space_group_symop_operation_xyz
x,y,z
-x,-y,1/2+z
1/2-x,1/2+y,1/2+z
1/2+x,1/2-y,z
loop_
_atom_site_type_symbol
_atom_site_label
_atom_site_fract_x
_atom_site_fract_y
_atom_site_fract_z
Si Si1 0.616569 0.731711 0.635570
Si Si2 0.885442 0.772113 0.617964
Si Si3 0.259769 0.989603 0.116465
Si Si4 0.741002 0.065125 0.939106
Si Si5 0.751315 0.740409 0.883590
O O1 0.501160 0.718887 0.624929
O O2 0.661398 0.626745 0.514875
O O3 0.655206 0.688234 0.794245
O O4 0.650741 0.896750 0.612851
O O5 0.853419 0.646446 0.506919
O O6 0.842914 0.744438 0.775659
O O7 0.840727 0.927400 0.572283
O O8 0.252087 0.908651 0.268933
O O9 0.283242 0.870489 0.001950
O O10 0.732134 0.893057 0.962308
#
# Coordination Sequence:
#
# PCOD8171817 Si02
#       5
#     4   4   4   4   4
#     4   9  19  35  52  72 100 131 163 201 244 290
#     4   9  19  35  52  72 100 131 163 201 244 290
#     4   9  19  33  50  74 100 129 165 201 242 290
#     4   8  18  34  50  72 100 126 164 204 242 290
#     4   9  19  35  52  72 100 131 163 201 244 290
#
# _framework density 16.965247000000002
#
# number of rings (size 3 to 8) (size 9 to 14) (size 15 to 20)
#    0.000    4.000    0.000    0.000    0.000   12.800 
#    0.000    2.000    0.000    0.000    0.000    0.000 
#    0.000    0.000    0.000    0.000    0.000    0.000 
#
# Total GULP energy -247808.954942 kJ/mol
# GULP energy per Si atom -12390.447747 kJ/mol
# Density = 1.692663 g / cm^3
# Si number density = 16.965247 Si / 1000 Ang^3
#
#
#
# Elastic Constant Matrix: (Units=GPa)
#
#
# Indices 1 2 3 4 5 6 
#
# 1 118.6619 -2.7275 4.6433 0.0000 0.0000 0.0000
# 2 -2.7275 55.4182 46.4755 0.0000 0.0000 0.0000
# 3 4.6433 46.4755 71.8514 0.0000 0.0000 0.0000
# 4 0.0000 0.0000 0.0000 39.8996 0.0000 0.0000
# 5 0.0000 0.0000 0.0000 0.0000 11.7903 0.0000
# 6 0.0000 0.0000 0.0000 0.0000 0.0000 12.1658
#
#
#
# Elastic Compliance Matrix: (Units=1/GPa)
#
#
# Indices 1 2 3 4 5 6 
#
# 1 0.008542 0.001931 -0.001801 0.000000 0.000000 0.000000
# 2 0.001931 0.039874 -0.025916 0.000000 0.000000 0.000000
# 3 -0.001801 -0.025916 0.030797 0.000000 0.000000 0.000000
# 4 0.000000 0.000000 0.000000 0.025063 0.000000 0.000000
# 5 0.000000 0.000000 0.000000 0.000000 0.084815 0.000000
# 6 0.000000 0.000000 0.000000 0.000000 0.000000 0.082198
#
#
# Mechanical properties :
#
#
# Convention : Reuss Voigt Hill
#
# Bulk Modulus (GPa) = 36.17885 38.07934 37.12910
# Shear Modulus (GPa) = 15.05681 25.94048 20.49865
#
# Velocity S-wave (km/s) = 2.98234 3.91453 3.47979
# Velocity P-wave (km/s) = 5.76461 6.55177 6.17075
#
# Compressibility (1/GPa) = 0.02764046
#
# Stress axis : x y z
#
# Youngs Moduli (GPa) = 117.06656 25.07907 32.47031
#
# Poissons Ratio (x) = -0.04842 0.05847
# Poissons Ratio (y) = -0.22601 0.84151
# Poissons Ratio (z) = 0.21082 0.64996
#
# Static dielectric constant tensor:
#      x y z
#    x 2.950990 0.000000 0.000000 
#    y 0.000000 3.202280 0.000000 
#    z 0.000000 0.000000 3.205600 
# 
# 
# High freq. dielectric constant tensor:
#      x y z
#    x 1.637210 0.000000 0.000000 
#    y 0.000000 1.655860 0.000000 
#    z 0.000000 0.000000 1.658990 
# 
# From -- ./inp_files/4166.got.cif
#   From: 2010.03.12/outbox.cif.g09.slc.cpg/sg33_3_cif.got.tgz:4166.got - 2010.04.14 01:49:19.
