data_PCOD8171384
_publ_section_title
;
Structure prediction by ZEFSAII (Michael W. Deem and Ramdas Pophale) SiO2 
 PCOD8171384
Probable space group: P N A 21
;
_chemical_formula_sum "Si O2"
_cell_formula_units_Z 28
_cell_length_a 21.260235
_cell_length_b 5.096403
_cell_length_c 12.232314
_cell_angle_alpha 90.000000
_cell_angle_beta 90.000000
_cell_angle_gamma 90.000000
_cell_volume 1325.380096
_symmetry_space_group_name_H-M "P N A 21"
_symmetry_group_IT_number 33
_symmetry_cell_setting 'orthorhombic'
loop_
_space_group_symop_operation_xyz
x,y,z
-x,-y,1/2+z
1/2-x,1/2+y,1/2+z
1/2+x,1/2-y,z
loop_
_atom_site_type_symbol
_atom_site_label
_atom_site_fract_x
_atom_site_fract_y
_atom_site_fract_z
Si Si1 0.786704 0.928084 0.226690
Si Si2 0.861475 0.165983 0.406928
Si Si3 0.495439 0.618224 0.914289
Si Si4 0.424894 0.749683 0.697426
Si Si5 0.147187 0.575818 0.692090
Si Si6 0.029730 0.643415 0.538856
Si Si7 0.847183 0.251863 0.656640
O O1 0.827796 0.710598 0.163098
O O2 0.715266 0.833937 0.221916
O O3 0.811080 0.960184 0.353173
O O4 0.799371 0.203423 0.163733
O O5 0.867121 0.412259 0.322860
O O6 0.837183 0.261378 0.525353
O O7 0.930988 0.041047 0.410959
O O8 0.469434 0.718645 0.800512
O O9 0.455880 0.353762 0.943093
O O10 0.484620 0.849650 0.001349
O O11 0.468521 0.721113 0.592052
O O12 0.368450 0.539018 0.692289
O O13 0.398750 0.043799 0.697641
O O14 0.085686 0.636691 0.624212
#
# Coordination Sequence:
#
# PCOD8171384 Si02
#       7
#     4   4   4   4   4   4   4
#     4  10  24  44  65  95 131 182 226 276 316 405
#     4  10  24  41  73  92 128 179 225 265 334 406
#     4  12  25  41  67 103 137 173 223 272 353 395
#     4  12  24  43  66 101 137 170 218 286 330 406
#     4  10  23  44  68  96 132 171 228 273 325 397
#     4  12  23  42  68 101 133 177 219 280 336 406
#     4  12  25  45  67  98 138 176 225 274 340 391
#
# _framework density 21.126014000000001
#
# number of rings (size 3 to 8) (size 9 to 14) (size 15 to 20)
#    0.857    0.000    4.286    2.571    4.000    1.143 
#    7.714    0.000    0.000    0.000    0.000    0.000 
#    0.000    0.000    0.000    0.000    0.000    0.000 
#
# Total GULP energy -347028.516473 kJ/mol
# GULP energy per Si atom -12393.875588 kJ/mol
# Density = 2.107793 g / cm^3
# Si number density = 21.126014 Si / 1000 Ang^3
#
#
#
# Elastic Constant Matrix: (Units=GPa)
#
#
# Indices 1 2 3 4 5 6 
#
# 1 83.7463 16.3320 33.5531 0.0000 0.0000 0.0000
# 2 16.3320 92.3440 14.2641 0.0000 0.0000 0.0000
# 3 33.5531 14.2641 75.8677 0.0000 0.0000 0.0000
# 4 0.0000 0.0000 0.0000 26.3664 0.0000 0.0000
# 5 0.0000 0.0000 0.0000 0.0000 29.2982 0.0000
# 6 0.0000 0.0000 0.0000 0.0000 0.0000 28.4476
#
#
#
# Elastic Compliance Matrix: (Units=1/GPa)
#
#
# Indices 1 2 3 4 5 6 
#
# 1 0.014752 -0.001649 -0.006214 0.000000 0.000000 0.000000
# 2 -0.001649 0.011337 -0.001402 0.000000 0.000000 0.000000
# 3 -0.006214 -0.001402 0.016193 0.000000 0.000000 0.000000
# 4 0.000000 0.000000 0.000000 0.037927 0.000000 0.000000
# 5 0.000000 0.000000 0.000000 0.000000 0.034132 0.000000
# 6 0.000000 0.000000 0.000000 0.000000 0.000000 0.035152
#
#
# Mechanical properties :
#
#
# Convention : Reuss Voigt Hill
#
# Bulk Modulus (GPa) = 42.10331 42.25070 42.17701
# Shear Modulus (GPa) = 28.41850 29.34302 28.88076
#
# Velocity S-wave (km/s) = 3.67166 3.73091 3.70140
# Velocity P-wave (km/s) = 6.16017 6.21308 6.18668
#
# Compressibility (1/GPa) = 0.02375110
#
# Stress axis : x y z
#
# Youngs Moduli (GPa) = 67.78659 88.20408 61.75598
#
# Poissons Ratio (x) = 0.14547 0.38376
# Poissons Ratio (y) = 0.11179 0.08659
# Poissons Ratio (z) = 0.42124 0.12368
#
# Static dielectric constant tensor:
#      x y z
#    x 3.692930 0.000000 0.000000 
#    y 0.000000 3.881130 0.000000 
#    z 0.000000 0.000000 3.740040 
# 
# 
# High freq. dielectric constant tensor:
#      x y z
#    x 1.820900 0.000000 0.000000 
#    y 0.000000 1.839330 0.000000 
#    z 0.000000 0.000000 1.818350 
# 
# From -- ./inp_files/7170.got.cif
#   From: 2010.03.12/outbox.cif.g09.slc.cpg/sg33_4_cif.got.tgz:7170.got - 2010.04.14 01:49:19.
