data_PCOD8171746
_publ_section_title
;
Structure prediction by ZEFSAII (Michael W. Deem and Ramdas Pophale) SiO2 
 PCOD8171746
Probable space group: P N A 21
;
_chemical_formula_sum "Si O2"
_cell_formula_units_Z 28
_cell_length_a 9.678897
_cell_length_b 10.870297
_cell_length_c 11.372057
_cell_angle_alpha 90.000000
_cell_angle_beta 90.000000
_cell_angle_gamma 90.000000
_cell_volume 1196.482377
_symmetry_space_group_name_H-M "P N A 21"
_symmetry_group_IT_number 33
_symmetry_cell_setting 'orthorhombic'
loop_
_space_group_symop_operation_xyz
x,y,z
-x,-y,1/2+z
1/2-x,1/2+y,1/2+z
1/2+x,1/2-y,z
loop_
_atom_site_type_symbol
_atom_site_label
_atom_site_fract_x
_atom_site_fract_y
_atom_site_fract_z
Si Si1 0.065258 0.074507 0.812000
Si Si2 0.250000 0.518077 0.112049
Si Si3 0.710906 0.949537 0.484663
Si Si4 0.589677 0.202027 0.220568
Si Si5 0.210906 0.050463 0.239436
Si Si6 0.589677 0.702027 0.503530
Si Si7 0.565258 0.925493 0.912099
O O1 0.171486 0.000816 0.897067
O O2 0.003054 0.190091 0.884288
O O3 0.155250 0.106808 0.694689
O O4 0.943032 0.985454 0.774058
O O5 0.152655 0.431613 0.192336
O O6 0.347345 0.431613 0.031763
O O7 0.155250 0.606808 0.029409
O O8 0.750000 0.001881 0.612049
O O9 0.712111 0.799819 0.481090
O O10 0.556968 0.985454 0.450041
O O11 0.712111 0.299819 0.243008
O O12 0.496946 0.190091 0.339811
O O13 0.500000 0.250000 0.112049
O O14 0.328514 0.000816 0.327032
#
# Coordination Sequence:
#
# PCOD8171746 Si02
#       7
#     4   4   4   4   4   4   4
#     4  12  25  42  73 106 148 181 239 300 356 420
#     4  12  22  42  68 108 140 184 236 296 354 410
#     4  12  25  44  74 108 139 191 242 292 350 428
#     4  12  22  44  75 102 138 191 243 282 353 437
#     4  12  25  44  74 108 139 191 242 292 350 428
#     4  12  22  44  75 102 138 191 243 282 353 437
#     4  12  25  42  73 106 148 181 239 300 356 420
#
# _framework density 23.401934000000001
#
# number of rings (size 3 to 8) (size 9 to 14) (size 15 to 20)
#    0.000    0.000   10.000    0.000    0.000    0.000 
#    0.000    1.429    6.286    0.000    0.000    0.000 
#    0.000    0.000    0.000    0.000    0.000    0.000 
#
# Total GULP energy -347007.907500 kJ/mol
# GULP energy per Si atom -12393.139554 kJ/mol
# Density = 2.334867 g / cm^3
# Si number density = 23.401934 Si / 1000 Ang^3
#
#
#
# Elastic Constant Matrix: (Units=GPa)
#
#
# Indices 1 2 3 4 5 6 
#
# 1 154.5596 18.8946 84.5862 0.0000 0.0000 0.0000
# 2 18.8946 40.2338 37.5877 0.0000 0.0000 0.0000
# 3 84.5862 37.5877 168.9206 0.0000 0.0000 0.0000
# 4 0.0000 0.0000 0.0000 33.9730 0.0000 0.0000
# 5 0.0000 0.0000 0.0000 0.0000 69.8177 0.0000
# 6 0.0000 0.0000 0.0000 0.0000 0.0000 29.4275
#
#
#
# Elastic Compliance Matrix: (Units=1/GPa)
#
#
# Indices 1 2 3 4 5 6 
#
# 1 0.008912 -0.000020 -0.004458 0.000000 0.000000 0.000000
# 2 -0.000020 0.031378 -0.006972 0.000000 0.000000 0.000000
# 3 -0.004458 -0.006972 0.009704 0.000000 0.000000 0.000000
# 4 0.000000 0.000000 0.000000 0.029435 0.000000 0.000000
# 5 0.000000 0.000000 0.000000 0.000000 0.014323 0.000000
# 6 0.000000 0.000000 0.000000 0.000000 0.000000 0.033982
#
#
# Mechanical properties :
#
#
# Convention : Reuss Voigt Hill
#
# Bulk Modulus (GPa) = 36.91022 71.76123 54.33573
# Shear Modulus (GPa) = 31.31543 41.48668 36.40105
#
# Velocity S-wave (km/s) = 3.66205 4.21502 3.94823
# Velocity P-wave (km/s) = 5.80408 7.37697 6.63728
#
# Compressibility (1/GPa) = 0.02709277
#
# Stress axis : x y z
#
# Youngs Moduli (GPa) = 112.20326 31.86982 103.05258
#
# Poissons Ratio (x) = 0.00065 0.45944
# Poissons Ratio (y) = 0.00228 0.71847
# Poissons Ratio (z) = 0.50024 0.22219
#
# Static dielectric constant tensor:
#      x y z
#    x 4.593570 0.000000 0.000000 
#    y 0.000000 3.879630 0.000000 
#    z 0.000000 0.000000 4.671190 
# 
# 
# High freq. dielectric constant tensor:
#      x y z
#    x 1.958780 0.000000 0.000000 
#    y 0.000000 1.857180 0.000000 
#    z 0.000000 0.000000 1.945390 
# 
# From -- ./inp_files/5830.got.cif
#   From: 2010.03.12/outbox.cif.g09.slc.cpg/sg33_3_cif.got.tgz:5830.got - 2010.04.14 01:49:19.
