data_PCOD8171392
_publ_section_title
;
Structure prediction by ZEFSAII (Michael W. Deem and Ramdas Pophale) SiO2 
 PCOD8171392
Probable space group: P N A 21
;
_chemical_formula_sum "Si O2"
_cell_formula_units_Z 32
_cell_length_a 14.263677
_cell_length_b 8.727967
_cell_length_c 11.160086
_cell_angle_alpha 90.000000
_cell_angle_beta 90.000000
_cell_angle_gamma 90.000000
_cell_volume 1389.351494
_symmetry_space_group_name_H-M "P N A 21"
_symmetry_group_IT_number 33
_symmetry_cell_setting 'orthorhombic'
loop_
_space_group_symop_operation_xyz
x,y,z
-x,-y,1/2+z
1/2-x,1/2+y,1/2+z
1/2+x,1/2-y,z
loop_
_atom_site_type_symbol
_atom_site_label
_atom_site_fract_x
_atom_site_fract_y
_atom_site_fract_z
Si Si1 0.479632 0.433881 0.797630
Si Si2 0.493506 0.224796 0.262751
Si Si3 0.682939 0.128059 0.155459
Si Si4 0.060281 0.697176 0.502665
Si Si5 0.583233 0.934663 0.981724
Si Si6 0.678898 0.388417 0.743708
Si Si7 0.267182 0.609880 0.499006
Si Si8 0.171548 0.822045 0.124732
O O1 0.484871 0.614963 0.831265
O O2 0.568601 0.394891 0.710031
O O3 0.381495 0.409667 0.730616
O O4 0.482139 0.327579 0.916266
O O5 0.589244 0.127769 0.237747
O O6 0.442346 0.263677 0.137533
O O7 0.422304 0.121699 0.343563
O O8 0.703834 0.302085 0.120083
O O9 0.768805 0.052528 0.227444
O O10 0.670414 0.040878 0.025642
O O11 0.162923 0.653113 0.460440
O O12 0.008574 0.534397 0.504539
O O13 0.592202 0.787495 0.067966
O O14 0.735581 0.262158 0.671520
O O15 0.671772 0.346575 0.884048
O O16 0.285122 0.432272 0.524944
#
# Coordination Sequence:
#
# PCOD8171392 Si02
#       8
#     4   4   4   4   4   4   4   4
#     4  12  25  46  70 101 144 188 244 294 361 433
#     4  11  23  44  70 103 143 190 238 303 355 436
#     4  10  23  45  66 105 143 184 241 294 362 427
#     4  11  26  43  73 106 141 194 238 300 371 426
#     4  10  24  43  69  98 142 182 237 288 358 425
#     4  11  24  45  70  99 147 188 233 301 354 435
#     4  12  23  45  68 102 144 180 239 300 361 425
#     4  11  26  45  70 108 136 190 238 300 356 443
#
# _framework density 23.032328
#
# number of rings (size 3 to 8) (size 9 to 14) (size 15 to 20)
#    0.000    1.000    2.500    3.750    7.000    1.000 
#    0.000    2.500    0.000    0.000    0.000    0.000 
#    0.000    0.000    0.000    0.000    0.000    0.000 
#
# Total GULP energy -396552.849537 kJ/mol
# GULP energy per Si atom -12392.276548 kJ/mol
# Density = 2.297991 g / cm^3
# Si number density = 23.032328 Si / 1000 Ang^3
#
#
#
# Elastic Constant Matrix: (Units=GPa)
#
#
# Indices 1 2 3 4 5 6 
#
# 1 92.0630 26.4641 21.9126 0.0000 0.0000 0.0000
# 2 26.4641 111.8573 31.9175 0.0000 0.0000 0.0000
# 3 21.9126 31.9175 90.6431 0.0000 0.0000 0.0000
# 4 0.0000 0.0000 0.0000 37.8916 0.0000 0.0000
# 5 0.0000 0.0000 0.0000 0.0000 34.7930 0.0000
# 6 0.0000 0.0000 0.0000 0.0000 0.0000 32.6308
#
#
#
# Elastic Compliance Matrix: (Units=1/GPa)
#
#
# Indices 1 2 3 4 5 6 
#
# 1 0.012009 -0.002238 -0.002115 0.000000 0.000000 0.000000
# 2 -0.002238 0.010355 -0.003105 0.000000 0.000000 0.000000
# 3 -0.002115 -0.003105 0.012637 0.000000 0.000000 0.000000
# 4 0.000000 0.000000 0.000000 0.026391 0.000000 0.000000
# 5 0.000000 0.000000 0.000000 0.000000 0.028741 0.000000
# 6 0.000000 0.000000 0.000000 0.000000 0.000000 0.030646
#
#
# Mechanical properties :
#
#
# Convention : Reuss Voigt Hill
#
# Bulk Modulus (GPa) = 49.78862 50.57244 50.18053
# Shear Modulus (GPa) = 35.11454 35.34770 35.23112
#
# Velocity S-wave (km/s) = 3.90882 3.92177 3.91530
# Velocity P-wave (km/s) = 6.48349 6.52012 6.50183
#
# Compressibility (1/GPa) = 0.02008491
#
# Stress axis : x y z
#
# Youngs Moduli (GPa) = 83.27241 96.56736 79.13200
#
# Poissons Ratio (x) = 0.21608 0.16738
# Poissons Ratio (y) = 0.18633 0.24574
# Poissons Ratio (z) = 0.17613 0.29989
#
# Static dielectric constant tensor:
#      x y z
#    x 4.072120 0.000000 0.000000 
#    y 0.000000 4.249730 0.000000 
#    z 0.000000 0.000000 4.034820 
# 
# 
# High freq. dielectric constant tensor:
#      x y z
#    x 1.909180 0.000000 0.000000 
#    y 0.000000 1.920510 0.000000 
#    z 0.000000 0.000000 1.896920 
# 
# From -- ./inp_files/6817.got.cif
#   From: 2010.03.12/outbox.cif.g09.slc.cpg/sg33_4_cif.got.tgz:6817.got - 2010.04.14 01:49:19.
