data_PCOD8171716
_publ_section_title
;
Structure prediction by ZEFSAII (Michael W. Deem and Ramdas Pophale) SiO2 
 PCOD8171716
Probable space group: P N A 21
;
_chemical_formula_sum "Si O2"
_cell_formula_units_Z 20
_cell_length_a 7.365271
_cell_length_b 20.504244
_cell_length_c 5.322317
_cell_angle_alpha 90.000000
_cell_angle_beta 90.000000
_cell_angle_gamma 90.000000
_cell_volume 803.772661
_symmetry_space_group_name_H-M "P N A 21"
_symmetry_group_IT_number 33
_symmetry_cell_setting 'orthorhombic'
loop_
_space_group_symop_operation_xyz
x,y,z
-x,-y,1/2+z
1/2-x,1/2+y,1/2+z
1/2+x,1/2-y,z
loop_
_atom_site_type_symbol
_atom_site_label
_atom_site_fract_x
_atom_site_fract_y
_atom_site_fract_z
Si Si1 0.130673 0.563003 0.970900
Si Si2 0.284182 0.935749 0.243158
Si Si3 0.437759 0.300479 0.203462
Si Si4 0.453097 0.840419 0.615365
Si Si5 0.559711 0.362825 0.690112
O O1 0.248558 0.497723 0.924015
O O2 0.094694 0.609176 0.733750
O O3 0.241456 0.604481 0.179153
O O4 0.930098 0.538198 0.043907
O O5 0.379403 0.870520 0.355816
O O6 0.092526 0.916988 0.121404
O O7 0.434469 0.226815 0.096349
O O8 0.233134 0.324368 0.267611
O O9 0.546874 0.308115 0.467838
O O10 0.530569 0.340622 0.976126
#
# Coordination Sequence:
#
# PCOD8171716 Si02
#       5
#     4   4   4   4   4
#     4  12  25  45  76 101 148 194 239 304 366 428
#     4  11  26  46  69 109 144 191 245 300 362 441
#     4  11  26  47  71 109 144 190 240 302 354 439
#     4  11  25  45  72 103 149 186 244 296 363 427
#     4  11  28  47  74 108 145 187 246 294 367 427
#
# _framework density 24.882659
#
# number of rings (size 3 to 8) (size 9 to 14) (size 15 to 20)
#    0.000    0.800    4.000    1.200    8.400    6.400 
#    0.000    0.000    0.000    0.000    0.000    0.000 
#    0.000    0.000    0.000    0.000    0.000    0.000 
#
# Total GULP energy -247836.167939 kJ/mol
# GULP energy per Si atom -12391.808397 kJ/mol
# Density = 2.482602 g / cm^3
# Si number density = 24.882659 Si / 1000 Ang^3
#
#
#
# Elastic Constant Matrix: (Units=GPa)
#
#
# Indices 1 2 3 4 5 6 
#
# 1 85.2433 15.9973 8.4615 0.0000 0.0000 0.0000
# 2 15.9973 111.0510 2.1508 0.0000 0.0000 0.0000
# 3 8.4615 2.1508 70.2316 0.0000 0.0000 0.0000
# 4 0.0000 0.0000 0.0000 31.1534 0.0000 0.0000
# 5 0.0000 0.0000 0.0000 0.0000 37.9317 0.0000
# 6 0.0000 0.0000 0.0000 0.0000 0.0000 36.4250
#
#
#
# Elastic Compliance Matrix: (Units=1/GPa)
#
#
# Indices 1 2 3 4 5 6 
#
# 1 0.012196 -0.001729 -0.001416 0.000000 0.000000 0.000000
# 2 -0.001729 0.009255 -0.000075 0.000000 0.000000 0.000000
# 3 -0.001416 -0.000075 0.014412 0.000000 0.000000 0.000000
# 4 0.000000 0.000000 0.000000 0.032099 0.000000 0.000000
# 5 0.000000 0.000000 0.000000 0.000000 0.026363 0.000000
# 6 0.000000 0.000000 0.000000 0.000000 0.000000 0.027454
#
#
# Mechanical properties :
#
#
# Convention : Reuss Voigt Hill
#
# Bulk Modulus (GPa) = 33.98897 35.52722 34.75809
# Shear Modulus (GPa) = 36.22440 37.09643 36.66042
#
# Velocity S-wave (km/s) = 3.81965 3.86535 3.84256
# Velocity P-wave (km/s) = 5.75693 5.85065 5.80398
#
# Compressibility (1/GPa) = 0.02942131
#
# Stress axis : x y z
#
# Youngs Moduli (GPa) = 81.99214 108.04425 69.38873
#
# Poissons Ratio (x) = 0.18686 0.09828
# Poissons Ratio (y) = 0.14180 0.00521
# Poissons Ratio (z) = 0.11614 0.00811
#
# Static dielectric constant tensor:
#      x y z
#    x 4.697060 0.000000 0.000000 
#    y 0.000000 4.630350 0.000000 
#    z 0.000000 0.000000 4.069260 
# 
# 
# High freq. dielectric constant tensor:
#      x y z
#    x 2.002670 0.000000 0.000000 
#    y 0.000000 1.994270 0.000000 
#    z 0.000000 0.000000 1.969810 
# 
# From -- ./inp_files/414.got.cif
#   From: 2010.03.12/outbox.cif.g09.slc.cpg/sg33_1_cif.got.tgz:414.got - 2010.04.14 01:49:19.
