data_PCOD8171941
_publ_section_title
;
Structure prediction by ZEFSAII (Michael W. Deem and Ramdas Pophale) SiO2 
 PCOD8171941
Probable space group: P N N 2
;
_chemical_formula_sum "Si O2"
_cell_formula_units_Z 32
_cell_length_a 9.487844
_cell_length_b 13.666069
_cell_length_c 11.483042
_cell_angle_alpha 90.000000
_cell_angle_beta 90.000000
_cell_angle_gamma 90.000000
_cell_volume 1488.908804
_symmetry_space_group_name_H-M "P N N 2"
_symmetry_group_IT_number 34
_symmetry_cell_setting 'orthorhombic'
loop_
_space_group_symop_operation_xyz
x,y,z
-x,-y,z
1/2-x,1/2+y,1/2+z
1/2+x,1/2-y,1/2+z
loop_
_atom_site_type_symbol
_atom_site_label
_atom_site_fract_x
_atom_site_fract_y
_atom_site_fract_z
Si Si1 0.985245 0.204266 0.782390
Si Si2 0.658738 0.966881 0.041262
Si Si3 0.231772 0.845811 0.593346
Si Si4 0.655200 0.956870 0.530509
Si Si5 0.092973 0.904656 0.006819
Si Si6 0.614559 0.916756 0.287219
Si Si7 0.785146 0.290247 0.374007
Si Si8 0.468100 0.220369 0.662548
O O1 0.914988 0.181091 0.657055
O O2 0.959202 0.315371 0.817425
O O3 0.154033 0.194905 0.785593
O O4 0.916152 0.131188 0.874696
O O5 0.697050 0.913016 0.164127
O O6 0.500000 0.000000 0.027251
O O7 0.745985 0.067152 0.031525
O O8 0.698333 0.892639 0.939537
O O9 0.236383 0.798095 0.465100
O O10 0.368682 0.811141 0.665550
O O11 0.239521 0.964079 0.586844
O O12 0.713963 0.936520 0.399349
O O13 0.639174 0.859451 0.607201
O O14 0.500000 0.000000 0.512888
O O15 0.041979 0.821307 0.093909
O O16 0.000000 0.000000 0.028658
O O17 0.500000 0.000000 0.267564
O O18 0.921627 0.265321 0.296404
#
# Coordination Sequence:
#
# PCOD8171941 Si02
#       8
#     4   4   4   4   4   4   4   4
#     4  12  24  44  72  98 144 185 228 299 359 416
#     4  11  26  42  69 103 139 186 243 292 345 435
#     4  11  24  45  68 102 138 185 232 295 355 419
#     4   9  19  40  68  95 131 175 230 278 347 413
#     4  12  25  46  69 101 145 188 230 295 373 411
#     4  10  20  41  70  99 133 181 235 286 350 420
#     4  12  25  46  68 105 141 182 236 290 354 426
#     4  11  25  43  70 100 136 183 235 289 350 431
#
# _framework density 21.492249000000001
#
# number of rings (size 3 to 8) (size 9 to 14) (size 15 to 20)
#    0.000    1.000    5.000    1.500    8.750    0.500 
#    0.000    0.000    0.000    0.750    0.000    0.000 
#    0.000    0.000    0.000    0.000    0.000    0.000 
#
# Total GULP energy -396763.329271 kJ/mol
# GULP energy per Si atom -12398.854040 kJ/mol
# Density = 2.144333 g / cm^3
# Si number density = 21.492249 Si / 1000 Ang^3
#
#
#
# Elastic Constant Matrix: (Units=GPa)
#
#
# Indices 1 2 3 4 5 6 
#
# 1 87.4303 30.0712 46.3778 0.0000 0.0000 0.0000
# 2 30.0712 136.4563 30.0152 0.0000 0.0000 0.0000
# 3 46.3778 30.0152 110.9988 0.0000 0.0000 0.0000
# 4 0.0000 0.0000 0.0000 27.6124 0.0000 0.0000
# 5 0.0000 0.0000 0.0000 0.0000 -176.1535 0.0000
# 6 0.0000 0.0000 0.0000 0.0000 0.0000 28.1330
#
#
#
# Elastic Compliance Matrix: (Units=1/GPa)
#
#
# Indices 1 2 3 4 5 6 
#
# 1 0.015230 -0.002080 -0.005801 0.000000 0.000000 0.000000
# 2 -0.002080 0.008076 -0.001315 0.000000 0.000000 0.000000
# 3 -0.005801 -0.001315 0.011788 0.000000 0.000000 0.000000
# 4 0.000000 0.000000 0.000000 0.036216 0.000000 0.000000
# 5 0.000000 0.000000 0.000000 0.000000 -0.005677 0.000000
# 6 0.000000 0.000000 0.000000 0.000000 0.000000 0.035545
#
#
# Mechanical properties :
#
#
# Convention : Reuss Voigt Hill
#
# Bulk Modulus (GPa) = 59.87040 60.86820 60.36930
# Shear Modulus (GPa) = 39.95568 -8.85354 15.55107
#
# Velocity S-wave (km/s) = 4.31638 -2.03184 2.69284
# Velocity P-wave (km/s) = 7.26352 4.78310 6.14966
#
# Compressibility (1/GPa) = 0.01670275
#
# Stress axis : x y z
#
# Youngs Moduli (GPa) = 65.65812 123.82415 84.82911
#
# Poissons Ratio (x) = 0.25760 0.49210
# Poissons Ratio (y) = 0.13659 0.11152
# Poissons Ratio (z) = 0.38089 0.16278
#
# Static dielectric constant tensor:
#      x y z
#    x 6.087300 0.000000 0.000000 
#    y 0.000000 4.091760 0.000000 
#    z 0.000000 0.000000 4.075440 
# 
# 
# High freq. dielectric constant tensor:
#      x y z
#    x 1.819860 0.000000 0.000000 
#    y 0.000000 1.859820 0.000000 
#    z 0.000000 0.000000 1.850320 
# 
# From -- ./inp_files/5102.got.cif
#   From: 2010.03.12/outbox.cif.g09.slc.cpg/sg34_3_cif.got.tgz:5102.got - 2010.04.14 01:56:33.
