data_PCOD8171936
_publ_section_title
;
Structure prediction by ZEFSAII (Michael W. Deem and Ramdas Pophale) SiO2 
 PCOD8171936
Probable space group: P N N 2
;
_chemical_formula_sum "Si O2"
_cell_formula_units_Z 32
_cell_length_a 7.911544
_cell_length_b 12.108401
_cell_length_c 15.807079
_cell_angle_alpha 90.000000
_cell_angle_beta 90.000000
_cell_angle_gamma 90.000000
_cell_volume 1514.257268
_symmetry_space_group_name_H-M "P N N 2"
_symmetry_group_IT_number 34
_symmetry_cell_setting 'orthorhombic'
loop_
_space_group_symop_operation_xyz
x,y,z
-x,-y,z
1/2-x,1/2+y,1/2+z
1/2+x,1/2-y,1/2+z
loop_
_atom_site_type_symbol
_atom_site_label
_atom_site_fract_x
_atom_site_fract_y
_atom_site_fract_z
Si Si1 0.347037 0.252500 0.607600
Si Si2 0.166526 0.357095 0.463266
Si Si3 0.365743 0.230822 0.319171
Si Si4 0.472718 0.630523 0.758208
Si Si5 0.455014 0.878007 0.467434
Si Si6 0.322178 0.548437 0.389126
Si Si7 0.906189 0.896539 0.712085
Si Si8 0.656332 0.733287 0.916315
O O1 0.236051 0.342768 0.557798
O O2 0.466244 0.318389 0.670689
O O3 0.464722 0.196974 0.538763
O O4 0.227718 0.160836 0.650632
O O5 0.282282 0.310547 0.387947
O O6 0.166638 0.487308 0.438118
O O7 0.988709 0.295001 0.467576
O O8 0.482230 0.145397 0.371311
O O9 0.468478 0.303227 0.250718
O O10 0.224019 0.159113 0.270510
O O11 0.500000 0.500000 0.759875
O O12 0.587220 0.687293 0.829034
O O13 0.249266 0.863970 0.468696
O O14 0.500000 0.000000 0.494199
O O15 0.500000 0.500000 0.423839
O O16 0.308255 0.537750 0.287496
O O17 0.310432 0.679485 0.404746
O O18 0.000000 0.000000 0.664225
#
# Coordination Sequence:
#
# PCOD8171936 Si02
#       8
#     4   4   4   4   4   4   4   4
#     4  11  25  42  59  96 141 161 217 280 339 385
#     4  10  22  38  63  96 125 173 214 269 325 395
#     4  10  20  40  65  89 119 167 231 254 319 405
#     4  11  24  42  64  94 125 174 213 280 330 396
#     4  11  23  41  63  92 128 176 214 279 337 393
#     4  11  18  38  68  97 122 169 221 266 324 392
#     4  11  21  40  69  97 130 174 215 273 328 393
#     4  11  22  41  67  92 127 168 236 263 317 410
#
# _framework density 21.132473000000001
#
# number of rings (size 3 to 8) (size 9 to 14) (size 15 to 20)
#    0.000    1.250    5.000    1.875    0.000    4.500 
#    0.000    2.500    0.000    0.000    0.000    0.000 
#    0.000    0.000    0.000    0.000    0.000    0.000 
#
# Total GULP energy -396577.303935 kJ/mol
# GULP energy per Si atom -12393.040748 kJ/mol
# Density = 2.108437 g / cm^3
# Si number density = 21.132473 Si / 1000 Ang^3
#
#
#
# Elastic Constant Matrix: (Units=GPa)
#
#
# Indices 1 2 3 4 5 6 
#
# 1 115.2272 42.0453 52.4844 0.0000 0.0000 0.0000
# 2 42.0453 114.2520 42.6722 0.0000 0.0000 0.0000
# 3 52.4844 42.6722 98.2214 0.0000 0.0000 0.0000
# 4 0.0000 0.0000 0.0000 28.5667 0.0000 0.0000
# 5 0.0000 0.0000 0.0000 0.0000 7.6695 0.0000
# 6 0.0000 0.0000 0.0000 0.0000 0.0000 38.5871
#
#
#
# Elastic Compliance Matrix: (Units=1/GPa)
#
#
# Indices 1 2 3 4 5 6 
#
# 1 0.012003 -0.002413 -0.005365 0.000000 0.000000 0.000000
# 2 -0.002413 0.010933 -0.003460 0.000000 0.000000 0.000000
# 3 -0.005365 -0.003460 0.014551 0.000000 0.000000 0.000000
# 4 0.000000 0.000000 0.000000 0.035006 0.000000 0.000000
# 5 0.000000 0.000000 0.000000 0.000000 0.130386 0.000000
# 6 0.000000 0.000000 0.000000 0.000000 0.000000 0.025915
#
#
# Mechanical properties :
#
#
# Convention : Reuss Voigt Hill
#
# Bulk Modulus (GPa) = 66.62417 66.90047 66.76232
# Shear Modulus (GPa) = 19.51026 27.66460 23.58743
#
# Velocity S-wave (km/s) = 3.04178 3.62208 3.34454
# Velocity P-wave (km/s) = 6.62811 7.01563 6.82462
#
# Compressibility (1/GPa) = 0.01500957
#
# Stress axis : x y z
#
# Youngs Moduli (GPa) = 83.31328 91.46557 68.72211
#
# Poissons Ratio (x) = 0.22073 0.36871
# Poissons Ratio (y) = 0.20105 0.23780
# Poissons Ratio (z) = 0.44700 0.31650
#
# Static dielectric constant tensor:
#      x y z
#    x 3.973650 0.000000 0.000000 
#    y 0.000000 3.980110 0.000000 
#    z 0.000000 0.000000 3.699180 
# 
# 
# High freq. dielectric constant tensor:
#      x y z
#    x 1.834820 0.000000 0.000000 
#    y 0.000000 1.838510 0.000000 
#    z 0.000000 0.000000 1.808040 
# 
# From -- ./inp_files/6567.got.cif
#   From: 2010.03.12/outbox.cif.g09.slc.cpg/sg34_4_cif.got.tgz:6567.got - 2010.04.14 01:56:33.
