data_PCOD8171498
_publ_section_title
;
Structure prediction by ZEFSAII (Michael W. Deem and Ramdas Pophale) SiO2 
 PCOD8171498
Probable space group: P N A 21
;
_chemical_formula_sum "Si O2"
_cell_formula_units_Z 28
_cell_length_a 27.524081
_cell_length_b 5.578750
_cell_length_c 7.845820
_cell_angle_alpha 90.000000
_cell_angle_beta 90.000000
_cell_angle_gamma 90.000000
_cell_volume 1204.725401
_symmetry_space_group_name_H-M "P N A 21"
_symmetry_group_IT_number 33
_symmetry_cell_setting 'orthorhombic'
loop_
_space_group_symop_operation_xyz
x,y,z
-x,-y,1/2+z
1/2-x,1/2+y,1/2+z
1/2+x,1/2-y,z
loop_
_atom_site_type_symbol
_atom_site_label
_atom_site_fract_x
_atom_site_fract_y
_atom_site_fract_z
Si Si1 0.538594 0.758089 0.095700
Si Si2 0.241604 0.747426 0.229045
Si Si3 0.627059 0.267370 0.415220
Si Si4 0.839193 0.000826 0.244158
Si Si5 0.522407 0.245421 0.276786
Si Si6 0.855874 0.130772 0.611847
Si Si7 0.306119 0.109507 0.042843
O O1 0.524006 0.501045 0.179141
O O2 0.596527 0.797619 0.112917
O O3 0.514145 0.003606 0.165644
O O4 0.523732 0.736478 0.899587
O O5 0.280563 0.532875 0.226221
O O6 0.193302 0.709440 0.110663
O O7 0.224501 0.791795 0.424077
O O8 0.268609 0.981081 0.165425
O O9 0.630551 0.332958 0.616741
O O10 0.571378 0.201399 0.383944
O O11 0.644906 0.464635 0.279892
O O12 0.664118 0.045162 0.401318
O O13 0.857902 0.972450 0.437324
O O14 0.845587 0.267185 0.167242
#
# Coordination Sequence:
#
# PCOD8171498 Si02
#       7
#     4   4   4   4   4   4   4
#     4  11  26  48  77 112 142 197 233 313 365 449
#     4  11  23  40  62  96 140 181 236 290 352 422
#     4  10  25  46  68  98 143 184 234 300 363 427
#     4  11  25  42  68 102 130 197 239 294 356 434
#     4  11  25  48  78 108 149 186 243 300 379 434
#     4  11  24  45  69 103 143 182 248 290 367 433
#     4  11  24  41  66  95 135 187 231 299 352 423
#
# _framework density 23.241807999999999
#
# number of rings (size 3 to 8) (size 9 to 14) (size 15 to 20)
#    0.000    1.143    2.857    1.714    8.000    1.143 
#   12.857    0.000    0.000    0.000    0.000    0.000 
#    0.000    0.000    0.000    0.000    0.000    0.000 
#
# Total GULP energy -346890.033576 kJ/mol
# GULP energy per Si atom -12388.929771 kJ/mol
# Density = 2.318891 g / cm^3
# Si number density = 23.241808 Si / 1000 Ang^3
#
#
#
# Elastic Constant Matrix: (Units=GPa)
#
#
# Indices 1 2 3 4 5 6 
#
# 1 48.3623 14.1734 -6.2517 0.0000 0.0000 0.0000
# 2 14.1734 88.1306 7.4663 0.0000 0.0000 0.0000
# 3 -6.2517 7.4663 86.0548 0.0000 0.0000 0.0000
# 4 0.0000 0.0000 0.0000 27.1327 0.0000 0.0000
# 5 0.0000 0.0000 0.0000 0.0000 36.3405 0.0000
# 6 0.0000 0.0000 0.0000 0.0000 0.0000 18.1690
#
#
#
# Elastic Compliance Matrix: (Units=1/GPa)
#
#
# Indices 1 2 3 4 5 6 
#
# 1 0.022011 -0.003702 0.001920 0.000000 0.000000 0.000000
# 2 -0.003702 0.012054 -0.001315 0.000000 0.000000 0.000000
# 3 0.001920 -0.001315 0.011874 0.000000 0.000000 0.000000
# 4 0.000000 0.000000 0.000000 0.036856 0.000000 0.000000
# 5 0.000000 0.000000 0.000000 0.000000 0.027518 0.000000
# 6 0.000000 0.000000 0.000000 0.000000 0.000000 0.055039
#
#
# Mechanical properties :
#
#
# Convention : Reuss Voigt Hill
#
# Bulk Modulus (GPa) = 25.16086 28.14708 26.65397
# Shear Modulus (GPa) = 27.05735 30.13908 28.59821
#
# Velocity S-wave (km/s) = 3.41569 3.60496 3.51160
# Velocity P-wave (km/s) = 5.13859 5.42812 5.28534
#
# Compressibility (1/GPa) = 0.03974427
#
# Stress axis : x y z
#
# Youngs Moduli (GPa) = 45.43271 82.96259 84.21707
#
# Poissons Ratio (x) = 0.30717 -0.16172
# Poissons Ratio (y) = 0.16821 0.11073
# Poissons Ratio (z) = -0.08724 0.10908
#
# Static dielectric constant tensor:
#      x y z
#    x 4.219700 0.000000 0.000000 
#    y 0.000000 4.080180 0.000000 
#    z 0.000000 0.000000 4.206580 
# 
# 
# High freq. dielectric constant tensor:
#      x y z
#    x 1.916110 0.000000 0.000000 
#    y 0.000000 1.908590 0.000000 
#    z 0.000000 0.000000 1.929700 
# 
# From -- ./inp_files/5278.got.cif
#   From: 2010.03.12/outbox.cif.g09.slc.cpg/sg33_3_cif.got.tgz:5278.got - 2010.04.14 01:49:19.
