data_PCOD8171510
_publ_section_title
;
Structure prediction by ZEFSAII (Michael W. Deem and Ramdas Pophale) SiO2 
 PCOD8171510
Probable space group: P N A 21
;
_chemical_formula_sum "Si O2"
_cell_formula_units_Z 32
_cell_length_a 18.917414
_cell_length_b 10.766435
_cell_length_c 8.064135
_cell_angle_alpha 90.000000
_cell_angle_beta 90.000000
_cell_angle_gamma 90.000000
_cell_volume 1642.447440
_symmetry_space_group_name_H-M "P N A 21"
_symmetry_group_IT_number 33
_symmetry_cell_setting 'orthorhombic'
loop_
_space_group_symop_operation_xyz
x,y,z
-x,-y,1/2+z
1/2-x,1/2+y,1/2+z
1/2+x,1/2-y,z
loop_
_atom_site_type_symbol
_atom_site_label
_atom_site_fract_x
_atom_site_fract_y
_atom_site_fract_z
Si Si1 0.698481 0.799006 0.060330
Si Si2 0.579641 0.630943 0.180886
Si Si3 0.254517 0.955447 0.744791
Si Si4 0.915565 0.822752 0.169829
Si Si5 0.322152 0.877539 0.048476
Si Si6 0.260116 0.094358 0.231372
Si Si7 0.340990 0.455813 0.971158
Si Si8 0.149887 0.083427 0.987545
O O1 0.621889 0.744626 0.099665
O O2 0.759793 0.708047 0.125485
O O3 0.708799 0.929290 0.152496
O O4 0.703098 0.811043 0.859004
O O5 0.498333 0.660239 0.156342
O O6 0.599053 0.625338 0.378670
O O7 0.594481 0.498849 0.093162
O O8 0.206490 0.880482 0.608365
O O9 0.200525 0.988503 0.891805
O O10 0.315154 0.880445 0.845506
O O11 0.896137 0.687644 0.095605
O O12 0.892380 0.827348 0.363080
O O13 0.874728 0.926616 0.064694
O O14 0.318952 0.015220 0.129357
O O15 0.212914 0.996182 0.330405
O O16 0.203452 0.161984 0.107209
#
# Coordination Sequence:
#
# PCOD8171510 Si02
#       8
#     4   4   4   4   4   4   4   4
#     4  11  19  37  56  82 111 147 188 235 279 328
#     4  11  21  35  56  85 122 152 177 227 294 342
#     4   9  18  34  56  84 105 138 197 237 264 317
#     4  11  21  35  56  85 122 152 177 227 294 342
#     4  11  19  37  56  82 111 147 188 235 279 328
#     4   9  18  34  56  84 105 138 197 237 264 317
#     4   9  17  34  55  84 111 140 185 243 273 322
#     4   9  17  34  55  84 111 140 185 243 273 322
#
# _framework density 19.483118999999999
#
# number of rings (size 3 to 8) (size 9 to 14) (size 15 to 20)
#    0.000    2.000    7.500    0.750    0.000    0.000 
#    9.000    1.250    0.000    0.000    0.000    0.000 
#    0.000    0.000    0.000    0.000    0.000    0.000 
#
# Total GULP energy -396455.640681 kJ/mol
# GULP energy per Si atom -12389.238771 kJ/mol
# Density = 1.943877 g / cm^3
# Si number density = 19.483119 Si / 1000 Ang^3
#
#
#
# Elastic Constant Matrix: (Units=GPa)
#
#
# Indices 1 2 3 4 5 6 
#
# 1 63.9602 19.1397 34.7200 0.0000 0.0000 0.0000
# 2 19.1397 39.2245 20.5576 0.0000 0.0000 0.0000
# 3 34.7200 20.5576 114.1586 0.0000 0.0000 0.0000
# 4 0.0000 0.0000 0.0000 36.7404 0.0000 0.0000
# 5 0.0000 0.0000 0.0000 0.0000 24.0366 0.0000
# 6 0.0000 0.0000 0.0000 0.0000 0.0000 26.0573
#
#
#
# Elastic Compliance Matrix: (Units=1/GPa)
#
#
# Indices 1 2 3 4 5 6 
#
# 1 0.020523 -0.007446 -0.004901 0.000000 0.000000 0.000000
# 2 -0.007446 0.030852 -0.003291 0.000000 0.000000 0.000000
# 3 -0.004901 -0.003291 0.010843 0.000000 0.000000 0.000000
# 4 0.000000 0.000000 0.000000 0.027218 0.000000 0.000000
# 5 0.000000 0.000000 0.000000 0.000000 0.041603 0.000000
# 6 0.000000 0.000000 0.000000 0.000000 0.000000 0.038377
#
#
# Mechanical properties :
#
#
# Convention : Reuss Voigt Hill
#
# Bulk Modulus (GPa) = 32.31808 40.68643 36.50226
# Shear Modulus (GPa) = 23.69582 26.89524 25.29553
#
# Velocity S-wave (km/s) = 3.49122 3.71946 3.60714
# Velocity P-wave (km/s) = 5.73370 6.27487 6.01038
#
# Compressibility (1/GPa) = 0.03094243
#
# Stress axis : x y z
#
# Youngs Moduli (GPa) = 48.72498 32.41231 92.22484
#
# Poissons Ratio (x) = 0.24133 0.45200
# Poissons Ratio (y) = 0.36280 0.30354
# Poissons Ratio (z) = 0.23881 0.10668
#
# Static dielectric constant tensor:
#      x y z
#    x 3.355950 0.000000 0.000000 
#    y 0.000000 3.296770 0.000000 
#    z 0.000000 0.000000 4.189760 
# 
# 
# High freq. dielectric constant tensor:
#      x y z
#    x 1.723230 0.000000 0.000000 
#    y 0.000000 1.728180 0.000000 
#    z 0.000000 0.000000 1.783440 
# 
# From -- ./inp_files/5078.got.cif
#   From: 2010.03.12/outbox.cif.g09.slc.cpg/sg33_3_cif.got.tgz:5078.got - 2010.04.14 01:49:19.
