data_PCOD8171815
_publ_section_title
;
Structure prediction by ZEFSAII (Michael W. Deem and Ramdas Pophale) SiO2 
 PCOD8171815
Probable space group: P N A 21
;
_chemical_formula_sum "Si O2"
_cell_formula_units_Z 12
_cell_length_a 9.982321
_cell_length_b 8.402694
_cell_length_c 5.007298
_cell_angle_alpha 90.000000
_cell_angle_beta 90.000000
_cell_angle_gamma 90.000000
_cell_volume 420.004088
_symmetry_space_group_name_H-M "P N A 21"
_symmetry_group_IT_number 33
_symmetry_cell_setting 'orthorhombic'
loop_
_space_group_symop_operation_xyz
x,y,z
-x,-y,1/2+z
1/2-x,1/2+y,1/2+z
1/2+x,1/2-y,z
loop_
_atom_site_type_symbol
_atom_site_label
_atom_site_fract_x
_atom_site_fract_y
_atom_site_fract_z
Si Si1 0.161869 0.168908 0.639890
Si Si2 0.886053 0.171374 0.965623
Si Si3 0.014085 0.397802 0.315043
O O1 0.293433 0.202940 0.810726
O O2 0.029187 0.157326 0.820696
O O3 0.148303 0.313922 0.427063
O O4 0.181977 0.000534 0.490816
O O5 0.908425 0.254645 0.256051
O O6 0.951804 0.517738 0.532755
#
# Coordination Sequence:
#
# PCOD8171815 Si02
#       3
#     4   4   4
#     4  12  30  58  94 136 189 247 318 388 471 563
#     4  12  30  58  94 136 189 247 318 388 471 563
#     4  12  28  56  90 136 182 242 306 384 470 554
#
# _framework density 28.571148999999998
#
# number of rings (size 3 to 8) (size 9 to 14) (size 15 to 20)
#    0.000    0.000    6.667    0.000    9.333    5.333 
#    0.000    3.333    0.000    0.000    0.000    0.000 
#    0.000    0.000    0.000    0.000    0.000    0.000 
#
# Total GULP energy -148862.508871 kJ/mol
# GULP energy per Si atom -12405.209073 kJ/mol
# Density = 2.850612 g / cm^3
# Si number density = 28.571149 Si / 1000 Ang^3
#
#
#
# Elastic Constant Matrix: (Units=GPa)
#
#
# Indices 1 2 3 4 5 6 
#
# 1 106.2165 -13.5643 13.0319 0.0000 0.0000 0.0000
# 2 -13.5643 142.5230 36.6576 0.0000 0.0000 0.0000
# 3 13.0319 36.6576 136.0244 0.0000 0.0000 0.0000
# 4 0.0000 0.0000 0.0000 81.4022 0.0000 0.0000
# 5 0.0000 0.0000 0.0000 0.0000 33.6632 0.0000
# 6 0.0000 0.0000 0.0000 0.0000 0.0000 1.0754
#
#
#
# Elastic Compliance Matrix: (Units=1/GPa)
#
#
# Indices 1 2 3 4 5 6 
#
# 1 0.009731 0.001253 -0.001270 0.000000 0.000000 0.000000
# 2 0.001253 0.007700 -0.002195 0.000000 0.000000 0.000000
# 3 -0.001270 -0.002195 0.008065 0.000000 0.000000 0.000000
# 4 0.000000 0.000000 0.000000 0.012285 0.000000 0.000000
# 5 0.000000 0.000000 0.000000 0.000000 0.029706 0.000000
# 6 0.000000 0.000000 0.000000 0.000000 0.000000 0.929866
#
#
# Mechanical properties :
#
#
# Convention : Reuss Voigt Hill
#
# Bulk Modulus (GPa) = 47.45867 50.77938 49.11903
# Shear Modulus (GPa) = 4.95638 46.47074 25.71356
#
# Velocity S-wave (km/s) = 1.31853 4.03735 3.00323
# Velocity P-wave (km/s) = 4.35486 6.28850 5.40879
#
# Compressibility (1/GPa) = 0.02107097
#
# Stress axis : x y z
#
# Youngs Moduli (GPa) = 102.76963 129.86600 123.99469
#
# Poissons Ratio (x) = -0.16268 0.15745
# Poissons Ratio (y) = -0.12874 0.27219
# Poissons Ratio (z) = 0.13050 0.28508
#
# Static dielectric constant tensor:
#      x y z
#    x 4.937100 0.000000 0.000000 
#    y 0.000000 5.979520 0.000000 
#    z 0.000000 0.000000 5.474600 
# 
# 
# High freq. dielectric constant tensor:
#      x y z
#    x 2.160240 0.000000 0.000000 
#    y 0.000000 2.184930 0.000000 
#    z 0.000000 0.000000 2.164630 
# 
# From -- ./inp_files/628.got.cif
#   From: 2010.03.12/outbox.cif.g09.slc.cpg/sg33_1_cif.got.tgz:628.got - 2010.04.14 01:49:19.
