data_PCOD8171491
_publ_section_title
;
Structure prediction by ZEFSAII (Michael W. Deem and Ramdas Pophale) SiO2 
 PCOD8171491
Probable space group: P N A 21
;
_chemical_formula_sum "Si O2"
_cell_formula_units_Z 32
_cell_length_a 30.280736
_cell_length_b 5.238218
_cell_length_c 8.235912
_cell_angle_alpha 90.000000
_cell_angle_beta 90.000000
_cell_angle_gamma 90.000000
_cell_volume 1306.356447
_symmetry_space_group_name_H-M "P N A 21"
_symmetry_group_IT_number 33
_symmetry_cell_setting 'orthorhombic'
loop_
_space_group_symop_operation_xyz
x,y,z
-x,-y,1/2+z
1/2-x,1/2+y,1/2+z
1/2+x,1/2-y,z
loop_
_atom_site_type_symbol
_atom_site_label
_atom_site_fract_x
_atom_site_fract_y
_atom_site_fract_z
Si Si1 0.500425 0.290637 0.826390
Si Si2 0.588823 0.399733 0.973244
Si Si3 0.292299 0.154244 0.550940
Si Si4 0.140889 0.977658 0.253517
Si Si5 0.874968 0.422414 0.987260
Si Si6 0.540178 0.228732 0.464065
Si Si7 0.628753 0.908988 0.846641
Si Si8 0.291807 0.855236 0.868222
O O1 0.536591 0.380245 0.959471
O O2 0.520035 0.275093 0.644416
O O3 0.465083 0.521243 0.849363
O O4 0.482432 0.016152 0.880290
O O5 0.602695 0.696190 0.949184
O O6 0.607331 0.189009 0.849834
O O7 0.607928 0.333210 0.153046
O O8 0.325220 0.356859 0.625628
O O9 0.320432 0.038659 0.400927
O O10 0.249762 0.292712 0.478588
O O11 0.278039 0.942774 0.685379
O O12 0.109541 0.782544 0.352636
O O13 0.173172 0.126607 0.372839
O O14 0.906703 0.672286 0.972797
O O15 0.822003 0.434448 0.954858
O O16 0.877165 0.304431 0.165549
#
# Coordination Sequence:
#
# PCOD8171491 Si02
#       8
#     4   4   4   4   4   4   4   4
#     4  12  28  50  78 113 151 200 250 316 379 452
#     4  11  24  49  76 103 148 193 245 297 376 446
#     4  10  25  44  66 106 141 194 248 303 371 441
#     4  10  25  45  70 103 146 193 246 301 376 439
#     4  11  28  46  72 109 144 197 247 312 373 449
#     4  12  29  50  76 112 153 194 256 313 383 454
#     4  11  24  46  76 103 147 192 244 306 365 449
#     4  11  25  44  70 101 146 191 248 306 369 444
#
# _framework density 24.495612999999999
#
# number of rings (size 3 to 8) (size 9 to 14) (size 15 to 20)
#    0.000    1.000    2.500    1.500   10.500    3.000 
#    0.000    0.000    0.000    0.000    0.000    0.000 
#    0.000    0.000    0.000    0.000    0.000    0.000 
#
# Total GULP energy -396466.029346 kJ/mol
# GULP energy per Si atom -12389.563417 kJ/mol
# Density = 2.443986 g / cm^3
# Si number density = 24.495613 Si / 1000 Ang^3
#
#
#
# Elastic Constant Matrix: (Units=GPa)
#
#
# Indices 1 2 3 4 5 6 
#
# 1 109.5846 24.7200 42.5258 0.0000 0.0000 0.0000
# 2 24.7200 108.2420 27.5831 0.0000 0.0000 0.0000
# 3 42.5258 27.5831 99.5568 0.0000 0.0000 0.0000
# 4 0.0000 0.0000 0.0000 22.0069 0.0000 0.0000
# 5 0.0000 0.0000 0.0000 0.0000 24.6463 0.0000
# 6 0.0000 0.0000 0.0000 0.0000 0.0000 23.9800
#
#
#
# Elastic Compliance Matrix: (Units=1/GPa)
#
#
# Indices 1 2 3 4 5 6 
#
# 1 0.011141 -0.001433 -0.004362 0.000000 0.000000 0.000000
# 2 -0.001433 0.010125 -0.002193 0.000000 0.000000 0.000000
# 3 -0.004362 -0.002193 0.012515 0.000000 0.000000 0.000000
# 4 0.000000 0.000000 0.000000 0.045440 0.000000 0.000000
# 5 0.000000 0.000000 0.000000 0.000000 0.040574 0.000000
# 6 0.000000 0.000000 0.000000 0.000000 0.000000 0.041701
#
#
# Mechanical properties :
#
#
# Convention : Reuss Voigt Hill
#
# Bulk Modulus (GPa) = 56.16271 56.33790 56.25030
# Shear Modulus (GPa) = 27.26157 28.96360 28.11259
#
# Velocity S-wave (km/s) = 3.33966 3.44233 3.39139
# Velocity P-wave (km/s) = 6.15212 6.23287 6.19262
#
# Compressibility (1/GPa) = 0.01780541
#
# Stress axis : x y z
#
# Youngs Moduli (GPa) = 89.75578 98.76893 79.90172
#
# Poissons Ratio (x) = 0.14152 0.34854
# Poissons Ratio (y) = 0.12861 0.17523
# Poissons Ratio (z) = 0.39152 0.21661
#
# Static dielectric constant tensor:
#      x y z
#    x 4.506720 0.000000 0.000000 
#    y 0.000000 4.401870 0.000000 
#    z 0.000000 0.000000 4.882680 
# 
# 
# High freq. dielectric constant tensor:
#      x y z
#    x 1.983490 0.000000 0.000000 
#    y 0.000000 1.971490 0.000000 
#    z 0.000000 0.000000 1.982910 
# 
# From -- ./inp_files/5347.got.cif
#   From: 2010.03.12/outbox.cif.g09.slc.cpg/sg33_3_cif.got.tgz:5347.got - 2010.04.14 01:49:19.
