data_PCOD8171615
_publ_section_title
;
Structure prediction by ZEFSAII (Michael W. Deem and Ramdas Pophale) SiO2 
 PCOD8171615
Probable space group: P N A 21
;
_chemical_formula_sum "Si O2"
_cell_formula_units_Z 24
_cell_length_a 27.739945
_cell_length_b 5.492554
_cell_length_c 6.810975
_cell_angle_alpha 90.000000
_cell_angle_beta 90.000000
_cell_angle_gamma 90.000000
_cell_volume 1037.741577
_symmetry_space_group_name_H-M "P N A 21"
_symmetry_group_IT_number 33
_symmetry_cell_setting 'orthorhombic'
loop_
_space_group_symop_operation_xyz
x,y,z
-x,-y,1/2+z
1/2-x,1/2+y,1/2+z
1/2+x,1/2-y,z
loop_
_atom_site_type_symbol
_atom_site_label
_atom_site_fract_x
_atom_site_fract_y
_atom_site_fract_z
Si Si1 0.537458 0.713911 0.065580
Si Si2 0.609101 0.329747 0.024167
Si Si3 0.392989 0.026496 0.850885
Si Si4 0.797640 0.951398 0.318471
Si Si5 0.202909 0.555524 0.574757
Si Si6 0.551556 0.066886 0.733727
O O1 0.489275 0.724978 0.196946
O O2 0.585542 0.801882 0.182399
O O3 0.555220 0.446157 0.012853
O O4 0.526743 0.856367 0.862949
O O5 0.656187 0.478377 0.961952
O O6 0.600644 0.137897 0.847360
O O7 0.615892 0.233078 0.245031
O O8 0.431987 0.026828 0.022866
O O9 0.341424 0.110022 0.929437
O O10 0.795237 0.211250 0.214536
O O11 0.801369 0.708776 0.181692
O O12 0.750887 0.930393 0.449652
#
# Coordination Sequence:
#
# PCOD8171615 Si02
#       6
#     4   4   4   4   4   4
#     4  11  25  41  69  95 143 189 242 303 360 437
#     4  11  27  42  70 102 142 184 245 298 363 435
#     4  11  25  45  69 102 141 187 239 298 364 428
#     4  12  27  49  76 110 146 190 240 300 366 436
#     4  12  27  48  78 107 150 188 240 303 363 437
#     4  11  23  45  62 102 138 188 242 298 366 427
#
# _framework density 23.127147000000001
#
# number of rings (size 3 to 8) (size 9 to 14) (size 15 to 20)
#    0.000    0.667    3.333    3.000    9.333    1.333 
#    0.000    0.000    0.000    0.000    0.000    0.000 
#    0.000    0.000    0.000    0.000    0.000    0.000 
#
# Total GULP energy -297338.145561 kJ/mol
# GULP energy per Si atom -12389.089398 kJ/mol
# Density = 2.307451 g / cm^3
# Si number density = 23.127147 Si / 1000 Ang^3
#
#
#
# Elastic Constant Matrix: (Units=GPa)
#
#
# Indices 1 2 3 4 5 6 
#
# 1 119.9760 3.4627 42.7408 0.0000 0.0000 0.0000
# 2 3.4627 70.0345 22.6343 0.0000 0.0000 0.0000
# 3 42.7408 22.6343 124.3451 0.0000 0.0000 0.0000
# 4 0.0000 0.0000 0.0000 33.9919 0.0000 0.0000
# 5 0.0000 0.0000 0.0000 0.0000 -306.0810 0.0000
# 6 0.0000 0.0000 0.0000 0.0000 0.0000 35.9733
#
#
#
# Elastic Compliance Matrix: (Units=1/GPa)
#
#
# Indices 1 2 3 4 5 6 
#
# 1 0.009524 0.000624 -0.003387 0.000000 0.000000 0.000000
# 2 0.000624 0.015212 -0.002983 0.000000 0.000000 0.000000
# 3 -0.003387 -0.002983 0.009749 0.000000 0.000000 0.000000
# 4 0.000000 0.000000 0.000000 0.029419 0.000000 0.000000
# 5 0.000000 0.000000 0.000000 0.000000 -0.003267 0.000000
# 6 0.000000 0.000000 0.000000 0.000000 0.000000 0.027798
#
#
# Mechanical properties :
#
#
# Convention : Reuss Voigt Hill
#
# Bulk Modulus (GPa) = 43.49404 50.22570 46.85987
# Shear Modulus (GPa) = 46.47164 -30.85531 7.80816
#
# Velocity S-wave (km/s) = 4.48749 -3.65658 1.83943
# Velocity P-wave (km/s) = 6.75999 1.98417 4.98169
#
# Compressibility (1/GPa) = 0.02299166
#
# Stress axis : x y z
#
# Youngs Moduli (GPa) = 105.00202 65.73739 102.57001
#
# Poissons Ratio (x) = -0.04101 0.34741
# Poissons Ratio (y) = -0.06550 0.30601
# Poissons Ratio (z) = 0.35565 0.19612
#
# Static dielectric constant tensor:
#      x y z
#    x 4.316050 0.000000 0.000000 
#    y 0.000000 4.111560 0.000000 
#    z 0.000000 0.000000 4.311850 
# 
# 
# High freq. dielectric constant tensor:
#      x y z
#    x 1.934060 0.000000 0.000000 
#    y 0.000000 1.900660 0.000000 
#    z 0.000000 0.000000 1.932990 
# 
# From -- ./inp_files/2372.got.cif
#   From: 2010.03.12/outbox.cif.g09.slc.cpg/sg33_2_cif.got.tgz:2372.got - 2010.04.14 01:49:19.
