data_PCOD8171036
_publ_section_title
;
Structure prediction by ZEFSAII (Michael W. Deem and Ramdas Pophale) SiO2 
 PCOD8171036
Probable space group: P N A 21
;
_chemical_formula_sum "Si O2"
_cell_formula_units_Z 32
_cell_length_a 12.991926
_cell_length_b 13.654831
_cell_length_c 9.100616
_cell_angle_alpha 90.000000
_cell_angle_beta 90.000000
_cell_angle_gamma 90.000000
_cell_volume 1614.472520
_symmetry_space_group_name_H-M "P N A 21"
_symmetry_group_IT_number 33
_symmetry_cell_setting 'orthorhombic'
loop_
_space_group_symop_operation_xyz
x,y,z
-x,-y,1/2+z
1/2-x,1/2+y,1/2+z
1/2+x,1/2-y,z
loop_
_atom_site_type_symbol
_atom_site_label
_atom_site_fract_x
_atom_site_fract_y
_atom_site_fract_z
Si Si1 0.340853 0.286246 0.096850
Si Si2 0.287051 0.745285 0.315932
Si Si3 0.873683 0.553482 0.228442
Si Si4 0.239383 0.119828 0.259750
Si Si5 0.424159 0.708190 0.561101
Si Si6 0.012089 0.435753 0.439897
Si Si7 0.841484 0.599160 0.680180
Si Si8 0.816896 0.379967 0.565304
O O1 0.457535 0.319068 0.075777
O O2 0.330365 0.182362 0.180064
O O3 0.277010 0.364245 0.196075
O O4 0.293737 0.285640 0.933905
O O5 0.345243 0.832320 0.230692
O O6 0.373945 0.679735 0.402015
O O7 0.219757 0.681438 0.203891
O O8 0.766883 0.493585 0.234444
O O9 0.949169 0.523454 0.361564
O O10 0.930996 0.521045 0.080755
O O11 0.129875 0.147417 0.191692
O O12 0.233659 0.136014 0.435951
O O13 0.401566 0.824664 0.573751
O O14 0.100514 0.392602 0.335415
O O15 0.929527 0.352055 0.495154
O O16 0.836578 0.491958 0.612614
#
# Coordination Sequence:
#
# PCOD8171036 Si02
#       8
#     4   4   4   4   4   4   4   4
#     4  10  22  41  63  87 128 163 214 254 329 381
#     4  10  25  37  62  94 131 157 207 272 313 382
#     4  11  23  38  64  95 126 158 212 267 317 367
#     4   9  21  37  61  88 123 159 209 263 310 382
#     4  10  21  40  64  86 121 174 207 248 328 389
#     4  11  22  36  70  90 122 163 217 258 323 364
#     4  10  22  39  64  90 121 168 207 269 308 377
#     4  11  22  40  60  96 128 156 211 271 312 376
#
# _framework density 19.820715
#
# number of rings (size 3 to 8) (size 9 to 14) (size 15 to 20)
#    0.000    2.000    1.250    4.500   10.500    0.000 
#    0.000    2.500    0.000    0.000    0.000    0.000 
#    0.000    0.000    0.000    0.000    0.000    0.000 
#
# Total GULP energy -396494.565976 kJ/mol
# GULP energy per Si atom -12390.455187 kJ/mol
# Density = 1.977560 g / cm^3
# Si number density = 19.820715 Si / 1000 Ang^3
#
#
#
# Elastic Constant Matrix: (Units=GPa)
#
#
# Indices 1 2 3 4 5 6 
#
# 1 166.9925 36.0658 63.1434 0.0000 0.0000 0.0000
# 2 36.0658 68.7724 40.8180 0.0000 0.0000 0.0000
# 3 63.1434 40.8180 125.0293 0.0000 0.0000 0.0000
# 4 0.0000 0.0000 0.0000 26.9803 0.0000 0.0000
# 5 0.0000 0.0000 0.0000 0.0000 41.8544 0.0000
# 6 0.0000 0.0000 0.0000 0.0000 0.0000 14.6984
#
#
#
# Elastic Compliance Matrix: (Units=1/GPa)
#
#
# Indices 1 2 3 4 5 6 
#
# 1 0.007645 -0.002131 -0.003166 0.000000 0.000000 0.000000
# 2 -0.002131 0.018629 -0.005006 0.000000 0.000000 0.000000
# 3 -0.003166 -0.005006 0.011231 0.000000 0.000000 0.000000
# 4 0.000000 0.000000 0.000000 0.037064 0.000000 0.000000
# 5 0.000000 0.000000 0.000000 0.000000 0.023892 0.000000
# 6 0.000000 0.000000 0.000000 0.000000 0.000000 0.068034
#
#
# Mechanical properties :
#
#
# Convention : Reuss Voigt Hill
#
# Bulk Modulus (GPa) = 59.16580 71.20541 65.18561
# Shear Modulus (GPa) = 25.94247 31.42443 28.68345
#
# Velocity S-wave (km/s) = 3.62174 3.98607 3.80826
# Velocity P-wave (km/s) = 6.88510 7.56226 7.23161
#
# Compressibility (1/GPa) = 0.01690165
#
# Stress axis : x y z
#
# Youngs Moduli (GPa) = 130.79737 53.67953 89.03873
#
# Poissons Ratio (x) = 0.11437 0.28186
# Poissons Ratio (y) = 0.27867 0.44571
# Poissons Ratio (z) = 0.41405 0.26871
#
# Static dielectric constant tensor:
#      x y z
#    x 3.740500 0.000000 0.000000 
#    y 0.000000 3.361570 0.000000 
#    z 0.000000 0.000000 3.878480 
# 
# 
# High freq. dielectric constant tensor:
#      x y z
#    x 1.768200 0.000000 0.000000 
#    y 0.000000 1.741330 0.000000 
#    z 0.000000 0.000000 1.788300 
# 
# From -- ./inp_files/4512.got.cif
#   From: 2010.03.12/outbox.cif.g09.slc.cpg/sg33_3_cif.got.tgz:4512.got - 2010.04.14 01:49:19.
