data_PCOD8171051
_publ_section_title
;
Structure prediction by ZEFSAII (Michael W. Deem and Ramdas Pophale) SiO2 
 PCOD8171051
Probable space group: P N A 21
;
_chemical_formula_sum "Si O2"
_cell_formula_units_Z 32
_cell_length_a 12.668935
_cell_length_b 13.164102
_cell_length_c 8.919787
_cell_angle_alpha 90.000000
_cell_angle_beta 90.000000
_cell_angle_gamma 90.000000
_cell_volume 1487.598838
_symmetry_space_group_name_H-M "P N A 21"
_symmetry_group_IT_number 33
_symmetry_cell_setting 'orthorhombic'
loop_
_space_group_symop_operation_xyz
x,y,z
-x,-y,1/2+z
1/2-x,1/2+y,1/2+z
1/2+x,1/2-y,z
loop_
_atom_site_type_symbol
_atom_site_label
_atom_site_fract_x
_atom_site_fract_y
_atom_site_fract_z
Si Si1 0.928786 0.146222 0.798160
Si Si2 0.486991 0.296127 0.109442
Si Si3 0.805959 0.894554 0.491306
Si Si4 0.930344 0.788804 0.063135
Si Si5 0.215554 0.696641 0.188289
Si Si6 0.531753 0.551620 0.863211
Si Si7 0.906527 0.423810 0.166282
Si Si8 0.541966 0.908458 0.000721
O O1 0.829532 0.188120 0.704191
O O2 0.030535 0.209947 0.736396
O O3 0.913415 0.175485 0.970126
O O4 0.948680 0.025777 0.784072
O O5 0.609860 0.321720 0.075705
O O6 0.437908 0.362768 0.243600
O O7 0.472707 0.178476 0.142858
O O8 0.752802 0.840916 0.349477
O O9 0.714812 0.919875 0.611647
O O10 0.865369 0.994905 0.428581
O O11 0.804691 0.790063 0.062764
O O12 0.973116 0.693206 0.969388
O O13 0.972729 0.895087 0.999955
O O14 0.132637 0.616427 0.121435
O O15 0.908694 0.448460 0.344396
O O16 0.965220 0.509123 0.071519
#
# Coordination Sequence:
#
# PCOD8171051 Si02
#       8
#     4   4   4   4   4   4   4   4
#     4  10  21  40  68  97 141 179 221 288 346 416
#     4  11  23  45  70 102 141 175 236 295 341 425
#     4  11  25  44  75 105 138 191 234 286 365 429
#     4  11  23  45  67 102 144 179 238 294 345 420
#     4  11  23  45  68 107 140 187 236 280 363 422
#     4  11  23  44  70 107 137 180 236 301 342 412
#     4  12  26  51  68 103 144 191 239 291 368 424
#     4  11  28  46  72  97 147 190 234 305 348 432
#
# _framework density 21.511177
#
# number of rings (size 3 to 8) (size 9 to 14) (size 15 to 20)
#    0.000    1.000    5.000    2.250    3.500    3.000 
#    6.750    0.000    0.000    0.000    0.000    0.000 
#    0.000    0.000    0.000    0.000    0.000    0.000 
#
# Total GULP energy -396688.146628 kJ/mol
# GULP energy per Si atom -12396.504582 kJ/mol
# Density = 2.146222 g / cm^3
# Si number density = 21.511177 Si / 1000 Ang^3
#
#
#
# Elastic Constant Matrix: (Units=GPa)
#
#
# Indices 1 2 3 4 5 6 
#
# 1 140.8171 59.5684 43.4401 0.0000 0.0000 0.0000
# 2 59.5684 129.4220 34.4491 0.0000 0.0000 0.0000
# 3 43.4401 34.4491 95.1501 0.0000 0.0000 0.0000
# 4 0.0000 0.0000 0.0000 37.5068 0.0000 0.0000
# 5 0.0000 0.0000 0.0000 0.0000 34.0066 0.0000
# 6 0.0000 0.0000 0.0000 0.0000 0.0000 34.5686
#
#
#
# Elastic Compliance Matrix: (Units=1/GPa)
#
#
# Indices 1 2 3 4 5 6 
#
# 1 0.009565 -0.003586 -0.003069 0.000000 0.000000 0.000000
# 2 -0.003586 0.009895 -0.001945 0.000000 0.000000 0.000000
# 3 -0.003069 -0.001945 0.012615 0.000000 0.000000 0.000000
# 4 0.000000 0.000000 0.000000 0.026662 0.000000 0.000000
# 5 0.000000 0.000000 0.000000 0.000000 0.029406 0.000000
# 6 0.000000 0.000000 0.000000 0.000000 0.000000 0.028928
#
#
# Mechanical properties :
#
#
# Convention : Reuss Voigt Hill
#
# Bulk Modulus (GPa) = 67.22507 71.14494 69.18501
# Shear Modulus (GPa) = 35.91230 36.41185 36.16208
#
# Velocity S-wave (km/s) = 4.09035 4.11870 4.10455
# Velocity P-wave (km/s) = 7.32305 7.46750 7.39563
#
# Compressibility (1/GPa) = 0.01487540
#
# Stress axis : x y z
#
# Youngs Moduli (GPa) = 104.55026 101.06314 79.27073
#
# Poissons Ratio (x) = 0.36237 0.24325
# Poissons Ratio (y) = 0.37487 0.15422
# Poissons Ratio (z) = 0.32082 0.19661
#
# Static dielectric constant tensor:
#      x y z
#    x 3.940700 0.000000 0.000000 
#    y 0.000000 3.880280 0.000000 
#    z 0.000000 0.000000 4.052070 
# 
# 
# High freq. dielectric constant tensor:
#      x y z
#    x 1.835620 0.000000 0.000000 
#    y 0.000000 1.845030 0.000000 
#    z 0.000000 0.000000 1.862300 
# 
# From -- ./inp_files/3981.got.cif
#   From: 2010.03.12/outbox.cif.g09.slc.cpg/sg33_2_cif.got.tgz:3981.got - 2010.04.14 01:49:19.
