data_PCOD8171442
_publ_section_title
;
Structure prediction by ZEFSAII (Michael W. Deem and Ramdas Pophale) SiO2 
 PCOD8171442
Probable space group: P N A 21
;
_chemical_formula_sum "Si O2"
_cell_formula_units_Z 28
_cell_length_a 8.539129
_cell_length_b 25.620607
_cell_length_c 5.063812
_cell_angle_alpha 90.000000
_cell_angle_beta 90.000000
_cell_angle_gamma 90.000000
_cell_volume 1107.848982
_symmetry_space_group_name_H-M "P N A 21"
_symmetry_group_IT_number 33
_symmetry_cell_setting 'orthorhombic'
loop_
_space_group_symop_operation_xyz
x,y,z
-x,-y,1/2+z
1/2-x,1/2+y,1/2+z
1/2+x,1/2-y,z
loop_
_atom_site_type_symbol
_atom_site_label
_atom_site_fract_x
_atom_site_fract_y
_atom_site_fract_z
Si Si1 0.544097 0.649225 0.362280
Si Si2 0.490568 0.844070 0.507567
Si Si3 0.728565 0.802941 0.870274
Si Si4 0.255653 0.100435 0.705264
Si Si5 0.777836 0.116056 0.344429
Si Si6 0.894479 0.004025 0.195196
Si Si7 0.545857 0.242274 0.660574
O O1 0.394825 0.611262 0.390649
O O2 0.617837 0.650641 0.650662
O O3 0.469499 0.705881 0.330770
O O4 0.672192 0.630071 0.143358
O O5 0.573595 0.890448 0.340024
O O6 0.401907 0.867865 0.766012
O O7 0.376294 0.806161 0.329608
O O8 0.633670 0.805733 0.598785
O O9 0.774598 0.862546 0.948765
O O10 0.623249 0.780960 0.106470
O O11 0.867746 0.759361 0.884550
O O12 0.239104 0.039434 0.632672
O O13 0.801332 0.055217 0.287400
O O14 0.012966 0.985579 0.424406
#
# Coordination Sequence:
#
# PCOD8171442 Si02
#       7
#     4   4   4   4   4   4   4
#     4  11  25  44  76 103 146 188 247 297 369 440
#     4  11  27  45  70 107 152 191 246 309 384 443
#     4  10  24  42  70  97 147 183 245 297 368 442
#     4  10  24  46  69 105 143 185 247 303 377 436
#     4  12  26  47  73 110 145 190 246 318 361 448
#     4  12  24  47  78 107 137 195 254 307 369 452
#     4  10  24  43  66 105 136 200 235 299 364 451
#
# _framework density 25.274204999999998
#
# number of rings (size 3 to 8) (size 9 to 14) (size 15 to 20)
#    0.000    1.143    2.857    0.857   14.000    2.286 
#    2.571    0.000    0.000    0.000    0.000    0.000 
#    0.000    0.000    0.000    0.000    0.000    0.000 
#
# Total GULP energy -346889.132822 kJ/mol
# GULP energy per Si atom -12388.897601 kJ/mol
# Density = 2.521668 g / cm^3
# Si number density = 25.274205 Si / 1000 Ang^3
#
#
#
# Elastic Constant Matrix: (Units=GPa)
#
#
# Indices 1 2 3 4 5 6 
#
# 1 75.1927 42.1176 9.2104 0.0000 0.0000 0.0000
# 2 42.1176 137.0461 7.6165 0.0000 0.0000 0.0000
# 3 9.2104 7.6165 61.0171 0.0000 0.0000 0.0000
# 4 0.0000 0.0000 0.0000 24.2138 0.0000 0.0000
# 5 0.0000 0.0000 0.0000 0.0000 46.0453 0.0000
# 6 0.0000 0.0000 0.0000 0.0000 0.0000 36.6028
#
#
#
# Elastic Compliance Matrix: (Units=1/GPa)
#
#
# Indices 1 2 3 4 5 6 
#
# 1 0.016268 -0.004897 -0.001844 0.000000 0.000000 0.000000
# 2 -0.004897 0.008822 -0.000362 0.000000 0.000000 0.000000
# 3 -0.001844 -0.000362 0.016712 0.000000 0.000000 0.000000
# 4 0.000000 0.000000 0.000000 0.041299 0.000000 0.000000
# 5 0.000000 0.000000 0.000000 0.000000 0.021718 0.000000
# 6 0.000000 0.000000 0.000000 0.000000 0.000000 0.027320
#
#
# Mechanical properties :
#
#
# Convention : Reuss Voigt Hill
#
# Bulk Modulus (GPa) = 36.23768 43.46054 39.84911
# Shear Modulus (GPa) = 32.14513 35.65983 33.90248
#
# Velocity S-wave (km/s) = 3.57018 3.76029 3.66647
# Velocity P-wave (km/s) = 5.60034 6.00716 5.80732
#
# Compressibility (1/GPa) = 0.02759559
#
# Stress axis : x y z
#
# Youngs Moduli (GPa) = 61.47005 113.35400 59.83567
#
# Poissons Ratio (x) = 0.55510 0.11036
# Poissons Ratio (y) = 0.30102 0.02166
# Poissons Ratio (z) = 0.11337 0.04103
#
# Static dielectric constant tensor:
#      x y z
#    x 4.698690 0.000000 0.000000 
#    y 0.000000 4.741680 0.000000 
#    z 0.000000 0.000000 4.354390 
# 
# 
# High freq. dielectric constant tensor:
#      x y z
#    x 2.004190 0.000000 0.000000 
#    y 0.000000 2.008730 0.000000 
#    z 0.000000 0.000000 2.004630 
# 
# From -- ./inp_files/494.got.cif
#   From: 2010.03.12/outbox.cif.g09.slc.cpg/sg33_1_cif.got.tgz:494.got - 2010.04.14 01:49:19.
