data_PCOD8171696
_publ_section_title
;
Structure prediction by ZEFSAII (Michael W. Deem and Ramdas Pophale) SiO2 
 PCOD8171696
Probable space group: P N A 21
;
_chemical_formula_sum "Si O2"
_cell_formula_units_Z 24
_cell_length_a 11.308898
_cell_length_b 9.412403
_cell_length_c 9.329712
_cell_angle_alpha 90.000000
_cell_angle_beta 90.000000
_cell_angle_gamma 90.000000
_cell_volume 993.090982
_symmetry_space_group_name_H-M "P N A 21"
_symmetry_group_IT_number 33
_symmetry_cell_setting 'orthorhombic'
loop_
_space_group_symop_operation_xyz
x,y,z
-x,-y,1/2+z
1/2-x,1/2+y,1/2+z
1/2+x,1/2-y,z
loop_
_atom_site_type_symbol
_atom_site_label
_atom_site_fract_x
_atom_site_fract_y
_atom_site_fract_z
Si Si1 0.566019 0.818455 0.966100
Si Si2 0.669450 0.305488 0.983430
Si Si3 0.984427 0.188780 0.761634
Si Si4 0.014526 0.894919 0.714705
Si Si5 0.254245 0.981592 0.594237
Si Si6 0.371786 0.038436 0.881248
O O1 0.569229 0.721726 0.823242
O O2 0.477965 0.952792 0.953108
O O3 0.517195 0.721534 0.092920
O O4 0.696993 0.882096 0.002232
O O5 0.617822 0.299977 0.822584
O O6 0.760399 0.440615 0.990211
O O7 0.565986 0.317189 0.099694
O O8 0.737204 0.159598 0.002173
O O9 0.904833 0.298583 0.848639
O O10 0.940901 0.024221 0.790009
O O11 0.116910 0.989125 0.637213
O O12 0.334862 0.960481 0.735695
#
# Coordination Sequence:
#
# PCOD8171696 Si02
#       6
#     4   4   4   4   4   4
#     4  11  26  49  78 108 154 201 259 319 386 467
#     4  12  24  46  76 106 154 194 251 315 383 464
#     4  11  25  45  73 107 148 193 251 318 380 452
#     4  12  26  50  76 114 149 202 256 321 393 459
#     4  11  25  46  76 111 150 198 258 313 386 461
#     4  11  24  48  73 110 151 202 255 314 384 459
#
# _framework density 24.166968000000001
#
# number of rings (size 3 to 8) (size 9 to 14) (size 15 to 20)
#    0.000    0.667    5.000    2.000    0.000    2.667 
#    6.000    0.000    0.000    0.000    0.000    0.000 
#    0.000    0.000    0.000    0.000    0.000    0.000 
#
# Total GULP energy -297469.835580 kJ/mol
# GULP energy per Si atom -12394.576482 kJ/mol
# Density = 2.411196 g / cm^3
# Si number density = 24.166968 Si / 1000 Ang^3
#
#
#
# Elastic Constant Matrix: (Units=GPa)
#
#
# Indices 1 2 3 4 5 6 
#
# 1 90.1037 35.2662 34.6912 0.0000 0.0000 0.0000
# 2 35.2662 125.0471 54.7034 0.0000 0.0000 0.0000
# 3 34.6912 54.7034 94.2874 0.0000 0.0000 0.0000
# 4 0.0000 0.0000 0.0000 42.9932 0.0000 0.0000
# 5 0.0000 0.0000 0.0000 0.0000 33.5765 0.0000
# 6 0.0000 0.0000 0.0000 0.0000 0.0000 39.3518
#
#
#
# Elastic Compliance Matrix: (Units=1/GPa)
#
#
# Indices 1 2 3 4 5 6 
#
# 1 0.013354 -0.002167 -0.003656 0.000000 0.000000 0.000000
# 2 -0.002167 0.011069 -0.005625 0.000000 0.000000 0.000000
# 3 -0.003656 -0.005625 0.015214 0.000000 0.000000 0.000000
# 4 0.000000 0.000000 0.000000 0.023260 0.000000 0.000000
# 5 0.000000 0.000000 0.000000 0.000000 0.029783 0.000000
# 6 0.000000 0.000000 0.000000 0.000000 0.000000 0.025412
#
#
# Mechanical properties :
#
#
# Convention : Reuss Voigt Hill
#
# Bulk Modulus (GPa) = 59.73017 62.08443 60.90730
# Shear Modulus (GPa) = 34.11413 35.50278 34.80845
#
# Velocity S-wave (km/s) = 3.76120 3.83699 3.79929
# Velocity P-wave (km/s) = 6.60541 6.73614 6.67110
#
# Compressibility (1/GPa) = 0.01674196
#
# Stress axis : x y z
#
# Youngs Moduli (GPa) = 74.88349 90.34599 65.72731
#
# Poissons Ratio (x) = 0.19575 0.24032
# Poissons Ratio (y) = 0.16225 0.36969
# Poissons Ratio (z) = 0.27380 0.50816
#
# Static dielectric constant tensor:
#      x y z
#    x 4.337800 0.000000 0.000000 
#    y 0.000000 4.533910 0.000000 
#    z 0.000000 0.000000 4.301010 
# 
# 
# High freq. dielectric constant tensor:
#      x y z
#    x 1.954490 0.000000 0.000000 
#    y 0.000000 1.973860 0.000000 
#    z 0.000000 0.000000 1.957510 
# 
# From -- ./inp_files/3722.got.cif
#   From: 2010.03.12/outbox.cif.g09.slc.cpg/sg33_2_cif.got.tgz:3722.got - 2010.04.14 01:49:19.
