data_PCOD8171218
_publ_section_title
;
Structure prediction by ZEFSAII (Michael W. Deem and Ramdas Pophale) SiO2 
 PCOD8171218
Probable space group: P N A 21
;
_chemical_formula_sum "Si O2"
_cell_formula_units_Z 32
_cell_length_a 11.815529
_cell_length_b 14.274715
_cell_length_c 8.770434
_cell_angle_alpha 90.000000
_cell_angle_beta 90.000000
_cell_angle_gamma 90.000000
_cell_volume 1479.250420
_symmetry_space_group_name_H-M "P N A 21"
_symmetry_group_IT_number 33
_symmetry_cell_setting 'orthorhombic'
loop_
_space_group_symop_operation_xyz
x,y,z
-x,-y,1/2+z
1/2-x,1/2+y,1/2+z
1/2+x,1/2-y,z
loop_
_atom_site_type_symbol
_atom_site_label
_atom_site_fract_x
_atom_site_fract_y
_atom_site_fract_z
Si Si1 0.943085 0.458731 0.184130
Si Si2 0.769728 0.298702 0.724292
Si Si3 0.194189 0.071257 0.194476
Si Si4 0.643960 0.156155 0.315675
Si Si5 0.338340 0.378703 0.538227
Si Si6 0.594422 0.344413 0.481755
Si Si7 0.981127 0.385057 0.866123
Si Si8 0.140499 0.243720 0.010579
O O1 0.826853 0.401016 0.202473
O O2 0.042622 0.415917 0.287975
O O3 0.931867 0.566550 0.244912
O O4 0.969725 0.458324 0.005019
O O5 0.820692 0.221734 0.613373
O O6 0.663464 0.350286 0.641842
O O7 0.865630 0.373048 0.771012
O O8 0.733559 0.249560 0.880373
O O9 0.150862 0.084396 0.364381
O O10 0.183665 0.963079 0.153111
O O11 0.127116 0.136696 0.071550
O O12 0.753259 0.108549 0.394581
O O13 0.594580 0.238416 0.421180
O O14 0.684506 0.195115 0.152233
O O15 0.468261 0.382588 0.492208
O O16 0.025256 0.285969 0.935850
#
# Coordination Sequence:
#
# PCOD8171218 Si02
#       8
#     4   4   4   4   4   4   4   4
#     4  11  23  42  68 102 131 169 231 286 332 398
#     4  11  23  43  65  97 134 179 227 280 335 401
#     4  11  24  44  66  96 140 175 222 276 344 408
#     4   9  23  41  72  99 128 175 221 280 341 404
#     4  11  24  44  67 100 135 178 226 279 335 421
#     4  10  25  42  66  95 134 184 218 274 345 408
#     4  11  24  40  69  99 132 177 223 287 336 401
#     4  10  22  42  63 100 134 173 218 270 352 401
#
# _framework density 21.632576
#
# number of rings (size 3 to 8) (size 9 to 14) (size 15 to 20)
#    0.000    1.500    1.250    2.250    7.000    5.000 
#    0.000    0.000    0.000    0.000    0.000    0.000 
#    0.000    0.000    0.000    0.000    0.000    0.000 
#
# Total GULP energy -396722.773223 kJ/mol
# GULP energy per Si atom -12397.586663 kJ/mol
# Density = 2.158334 g / cm^3
# Si number density = 21.632576 Si / 1000 Ang^3
#
#
#
# Elastic Constant Matrix: (Units=GPa)
#
#
# Indices 1 2 3 4 5 6 
#
# 1 126.9339 46.3248 52.2787 0.0000 0.0000 0.0000
# 2 46.3248 74.0084 45.2089 0.0000 0.0000 0.0000
# 3 52.2787 45.2089 110.3236 0.0000 0.0000 0.0000
# 4 0.0000 0.0000 0.0000 35.4895 0.0000 0.0000
# 5 0.0000 0.0000 0.0000 0.0000 42.2395 0.0000
# 6 0.0000 0.0000 0.0000 0.0000 0.0000 27.1765
#
#
#
# Elastic Compliance Matrix: (Units=1/GPa)
#
#
# Indices 1 2 3 4 5 6 
#
# 1 0.010991 -0.004933 -0.003187 0.000000 0.000000 0.000000
# 2 -0.004933 0.020238 -0.005956 0.000000 0.000000 0.000000
# 3 -0.003187 -0.005956 0.013015 0.000000 0.000000 0.000000
# 4 0.000000 0.000000 0.000000 0.028177 0.000000 0.000000
# 5 0.000000 0.000000 0.000000 0.000000 0.023675 0.000000
# 6 0.000000 0.000000 0.000000 0.000000 0.000000 0.036797
#
#
# Mechanical properties :
#
#
# Convention : Reuss Voigt Hill
#
# Bulk Modulus (GPa) = 62.13911 66.54339 64.34125
# Shear Modulus (GPa) = 30.04687 32.14468 31.09577
#
# Velocity S-wave (km/s) = 3.73092 3.85897 3.79549
# Velocity P-wave (km/s) = 6.88091 7.11920 7.00107
#
# Compressibility (1/GPa) = 0.01609292
#
# Stress axis : x y z
#
# Youngs Moduli (GPa) = 90.98436 49.41262 76.83537
#
# Poissons Ratio (x) = 0.24375 0.24486
# Poissons Ratio (y) = 0.44882 0.45760
# Poissons Ratio (z) = 0.28995 0.29428
#
# Static dielectric constant tensor:
#      x y z
#    x 3.940600 0.000000 0.000000 
#    y 0.000000 3.802210 0.000000 
#    z 0.000000 0.000000 4.099170 
# 
# 
# High freq. dielectric constant tensor:
#      x y z
#    x 1.846060 0.000000 0.000000 
#    y 0.000000 1.840290 0.000000 
#    z 0.000000 0.000000 1.867070 
# 
# From -- ./inp_files/3964.got.cif
#   From: 2010.03.12/outbox.cif.g09.slc.cpg/sg33_2_cif.got.tgz:3964.got - 2010.04.14 01:49:19.
