data_PCOD8171202
_publ_section_title
;
Structure prediction by ZEFSAII (Michael W. Deem and Ramdas Pophale) SiO2 
 PCOD8171202
Probable space group: P N A 21
;
_chemical_formula_sum "Si O2"
_cell_formula_units_Z 32
_cell_length_a 9.439832
_cell_length_b 11.846737
_cell_length_c 13.509315
_cell_angle_alpha 90.000000
_cell_angle_beta 90.000000
_cell_angle_gamma 90.000000
_cell_volume 1510.763003
_symmetry_space_group_name_H-M "P N A 21"
_symmetry_group_IT_number 33
_symmetry_cell_setting 'orthorhombic'
loop_
_space_group_symop_operation_xyz
x,y,z
-x,-y,1/2+z
1/2-x,1/2+y,1/2+z
1/2+x,1/2-y,z
loop_
_atom_site_type_symbol
_atom_site_label
_atom_site_fract_x
_atom_site_fract_y
_atom_site_fract_z
Si Si1 0.059737 0.688703 0.041260
Si Si2 0.504340 0.898211 0.246291
Si Si3 0.628491 0.387199 0.575169
Si Si4 0.421014 0.740730 0.417832
Si Si5 0.675979 0.447423 0.785755
Si Si6 0.950879 0.372790 0.325273
Si Si7 0.244208 0.815671 0.756166
Si Si8 0.823939 0.142954 0.031286
O O1 0.227808 0.686586 0.062548
O O2 0.970830 0.635005 0.132898
O O3 0.002299 0.817339 0.027625
O O4 0.023637 0.617013 0.943177
O O5 0.484464 0.792247 0.317779
O O6 0.663798 0.938872 0.250471
O O7 0.410520 0.004718 0.280925
O O8 0.586416 0.405674 0.690668
O O9 0.646940 0.509023 0.522446
O O10 0.353976 0.620945 0.385579
O O11 0.306234 0.827032 0.459899
O O12 0.540159 0.715510 0.498785
O O13 0.657215 0.580775 0.806713
O O14 0.813340 0.297449 0.305600
O O15 0.087969 0.318393 0.273817
O O16 0.216756 0.816559 0.639618
#
# Coordination Sequence:
#
# PCOD8171202 Si02
#       8
#     4   4   4   4   4   4   4   4
#     4  11  22  41  66  92 131 173 215 266 332 387
#     4  10  22  41  64  96 129 165 215 270 318 395
#     4  10  22  42  62  97 132 170 211 278 315 384
#     4  12  21  41  67  97 124 173 216 263 322 396
#     4   9  20  40  62  89 134 166 207 265 324 372
#     4  11  23  41  66  89 129 172 213 263 330 382
#     4  10  23  44  59  92 132 170 211 273 316 387
#     4  11  25  40  68  94 135 169 220 270 331 379
#
# _framework density 21.181352
#
# number of rings (size 3 to 8) (size 9 to 14) (size 15 to 20)
#    0.000    1.500    2.500    3.000    1.750    1.000 
#    0.000    1.250    0.000    0.000    0.000    0.000 
#    0.000    0.000    0.000    0.000    0.000    0.000 
#
# Total GULP energy -396789.814704 kJ/mol
# GULP energy per Si atom -12399.681709 kJ/mol
# Density = 2.113314 g / cm^3
# Si number density = 21.181352 Si / 1000 Ang^3
#
#
#
# Elastic Constant Matrix: (Units=GPa)
#
#
# Indices 1 2 3 4 5 6 
#
# 1 59.6636 22.5666 7.8852 0.0000 0.0000 0.0000
# 2 22.5666 85.4138 24.6070 0.0000 0.0000 0.0000
# 3 7.8852 24.6070 106.7263 0.0000 0.0000 0.0000
# 4 0.0000 0.0000 0.0000 36.2191 0.0000 0.0000
# 5 0.0000 0.0000 0.0000 0.0000 26.6114 0.0000
# 6 0.0000 0.0000 0.0000 0.0000 0.0000 34.5897
#
#
#
# Elastic Compliance Matrix: (Units=1/GPa)
#
#
# Indices 1 2 3 4 5 6 
#
# 1 0.018628 -0.004847 -0.000259 0.000000 0.000000 0.000000
# 2 -0.004847 0.013802 -0.002824 0.000000 0.000000 0.000000
# 3 -0.000259 -0.002824 0.010040 0.000000 0.000000 0.000000
# 4 0.000000 0.000000 0.000000 0.027610 0.000000 0.000000
# 5 0.000000 0.000000 0.000000 0.000000 0.037578 0.000000
# 6 0.000000 0.000000 0.000000 0.000000 0.000000 0.028910
#
#
# Mechanical properties :
#
#
# Convention : Reuss Voigt Hill
#
# Bulk Modulus (GPa) = 37.57949 40.21349 38.89649
# Shear Modulus (GPa) = 30.99855 32.60038 31.79946
#
# Velocity S-wave (km/s) = 3.82970 3.92740 3.87886
# Velocity P-wave (km/s) = 6.11030 6.29226 6.20195
#
# Compressibility (1/GPa) = 0.02661026
#
# Stress axis : x y z
#
# Youngs Moduli (GPa) = 53.68220 72.45370 99.60152
#
# Poissons Ratio (x) = 0.35119 0.02577
# Poissons Ratio (y) = 0.26020 0.28128
# Poissons Ratio (z) = 0.01389 0.20462
#
# Static dielectric constant tensor:
#      x y z
#    x 3.592350 0.000000 0.000000 
#    y 0.000000 4.013580 0.000000 
#    z 0.000000 0.000000 3.888630 
# 
# 
# High freq. dielectric constant tensor:
#      x y z
#    x 1.810590 0.000000 0.000000 
#    y 0.000000 1.836910 0.000000 
#    z 0.000000 0.000000 1.836920 
# 
# From -- ./inp_files/7694.got.cif
#   From: 2010.03.12/outbox.cif.g09.slc.cpg/sg33_4_cif.got.tgz:7694.got - 2010.04.14 01:49:19.
