data_PCOD8171495
_publ_section_title
;
Structure prediction by ZEFSAII (Michael W. Deem and Ramdas Pophale) SiO2 
 PCOD8171495
Probable space group: P N A 21
;
_chemical_formula_sum "Si O2"
_cell_formula_units_Z 32
_cell_length_a 8.790750
_cell_length_b 15.114074
_cell_length_c 10.589814
_cell_angle_alpha 90.000000
_cell_angle_beta 90.000000
_cell_angle_gamma 90.000000
_cell_volume 1407.005535
_symmetry_space_group_name_H-M "P N A 21"
_symmetry_group_IT_number 33
_symmetry_cell_setting 'orthorhombic'
loop_
_space_group_symop_operation_xyz
x,y,z
-x,-y,1/2+z
1/2-x,1/2+y,1/2+z
1/2+x,1/2-y,z
loop_
_atom_site_type_symbol
_atom_site_label
_atom_site_fract_x
_atom_site_fract_y
_atom_site_fract_z
Si Si1 0.825527 0.128297 0.273400
Si Si2 0.030616 0.981405 0.986001
Si Si3 0.151319 0.669832 0.051122
Si Si4 0.709511 0.020586 0.038259
Si Si5 0.983177 0.337810 0.015146
Si Si6 0.966710 0.825282 0.154137
Si Si7 0.648041 0.336422 0.937364
Si Si8 0.002874 0.296574 0.289275
O O1 0.866892 0.052810 0.372037
O O2 0.789037 0.080773 0.143409
O O3 0.970468 0.193125 0.262265
O O4 0.680396 0.186259 0.318249
O O5 0.097100 0.078311 0.018404
O O6 0.051794 0.914086 0.104539
O O7 0.850815 0.990990 0.948750
O O8 0.130818 0.567623 0.096759
O O9 0.328878 0.694587 0.058196
O O10 0.069169 0.737583 0.146416
O O11 0.096189 0.673351 0.907893
O O12 0.582837 0.078608 0.965107
O O13 0.950093 0.351579 0.164747
O O14 0.830762 0.330380 0.934007
O O15 0.084203 0.250138 0.004219
O O16 0.913196 0.843109 0.295378
#
# Coordination Sequence:
#
# PCOD8171495 Si02
#       8
#     4   4   4   4   4   4   4   4
#     4  11  23  42  71 103 140 187 238 301 364 427
#     4  11  23  42  67  98 144 182 238 291 363 430
#     4  11  23  44  68 104 142 181 236 298 368 428
#     4  10  25  45  68 104 145 183 242 300 358 447
#     4  11  25  47  71 102 137 191 242 300 364 434
#     4  11  25  43  68 102 139 189 228 301 358 437
#     4  12  25  45  72  99 142 192 243 299 367 442
#     4  11  23  42  73 100 137 181 241 302 356 435
#
# _framework density 22.743335999999999
#
# number of rings (size 3 to 8) (size 9 to 14) (size 15 to 20)
#    0.000    1.000    1.250    6.000    3.500    0.000 
#    6.750    0.000    2.750    0.000    0.000    0.000 
#    0.000    0.000    0.000    0.000    0.000    0.000 
#
# Total GULP energy -396735.409276 kJ/mol
# GULP energy per Si atom -12397.981540 kJ/mol
# Density = 2.269157 g / cm^3
# Si number density = 22.743336 Si / 1000 Ang^3
#
#
#
# Elastic Constant Matrix: (Units=GPa)
#
#
# Indices 1 2 3 4 5 6 
#
# 1 117.9696 80.6200 30.8520 0.0000 0.0000 0.0000
# 2 80.6200 183.9885 14.6005 0.0000 0.0000 0.0000
# 3 30.8520 14.6005 75.1870 0.0000 0.0000 0.0000
# 4 0.0000 0.0000 0.0000 29.4135 0.0000 0.0000
# 5 0.0000 0.0000 0.0000 0.0000 33.5932 0.0000
# 6 0.0000 0.0000 0.0000 0.0000 0.0000 54.6033
#
#
#
# Elastic Compliance Matrix: (Units=1/GPa)
#
#
# Indices 1 2 3 4 5 6 
#
# 1 0.013411 -0.005525 -0.004430 0.000000 0.000000 0.000000
# 2 -0.005525 0.007796 0.000753 0.000000 0.000000 0.000000
# 3 -0.004430 0.000753 0.014972 0.000000 0.000000 0.000000
# 4 0.000000 0.000000 0.000000 0.033998 0.000000 0.000000
# 5 0.000000 0.000000 0.000000 0.000000 0.029768 0.000000
# 6 0.000000 0.000000 0.000000 0.000000 0.000000 0.018314
#
#
# Mechanical properties :
#
#
# Convention : Reuss Voigt Hill
#
# Bulk Modulus (GPa) = 56.25815 69.92112 63.08963
# Shear Modulus (GPa) = 35.06609 40.26017 37.66313
#
# Velocity S-wave (km/s) = 3.93086 4.21193 4.07382
# Velocity P-wave (km/s) = 6.73736 7.37998 7.06598
#
# Compressibility (1/GPa) = 0.01777520
#
# Stress axis : x y z
#
# Youngs Moduli (GPa) = 74.56536 128.26673 66.79229
#
# Poissons Ratio (x) = 0.70866 0.29590
# Poissons Ratio (y) = 0.41197 -0.05030
# Poissons Ratio (z) = 0.33034 -0.09660
#
# Static dielectric constant tensor:
#      x y z
#    x 4.295690 0.000000 0.000000 
#    y 0.000000 4.457820 0.000000 
#    z 0.000000 0.000000 3.819850 
# 
# 
# High freq. dielectric constant tensor:
#      x y z
#    x 1.899820 0.000000 0.000000 
#    y 0.000000 1.916730 0.000000 
#    z 0.000000 0.000000 1.877820 
# 
# From -- ./inp_files/6018.got.cif
#   From: 2010.03.12/outbox.cif.g09.slc.cpg/sg33_4_cif.got.tgz:6018.got - 2010.04.14 01:49:19.
