data_PCOD8171139
_publ_section_title
;
Structure prediction by ZEFSAII (Michael W. Deem and Ramdas Pophale) SiO2 
 PCOD8171139
Probable space group: P N A 21
;
_chemical_formula_sum "Si O2"
_cell_formula_units_Z 28
_cell_length_a 8.375495
_cell_length_b 27.367028
_cell_length_c 5.126216
_cell_angle_alpha 90.000000
_cell_angle_beta 90.000000
_cell_angle_gamma 90.000000
_cell_volume 1174.992304
_symmetry_space_group_name_H-M "P N A 21"
_symmetry_group_IT_number 33
_symmetry_cell_setting 'orthorhombic'
loop_
_space_group_symop_operation_xyz
x,y,z
-x,-y,1/2+z
1/2-x,1/2+y,1/2+z
1/2+x,1/2-y,z
loop_
_atom_site_type_symbol
_atom_site_label
_atom_site_fract_x
_atom_site_fract_y
_atom_site_fract_z
Si Si1 0.516695 0.759497 0.366940
Si Si2 0.061396 0.634119 0.230644
Si Si3 0.004505 0.968470 0.609261
Si Si4 0.725264 0.609803 0.389450
Si Si5 0.738369 0.205762 0.177527
Si Si6 0.770868 0.883017 0.738029
Si Si7 0.017726 0.824594 0.042936
O O1 0.519092 0.808460 0.188056
O O2 0.440760 0.773455 0.653952
O O3 0.685805 0.736178 0.437761
O O4 0.422034 0.714798 0.219716
O O5 0.170522 0.632526 0.487787
O O6 0.897086 0.602796 0.247987
O O7 0.156465 0.611762 0.987877
O O8 0.855765 0.933962 0.678223
O O9 0.164339 0.940193 0.517870
O O10 0.948170 0.002761 0.371469
O O11 0.756172 0.647965 0.620170
O O12 0.583156 0.628174 0.197568
O O13 0.831012 0.209167 0.448627
O O14 0.906059 0.842165 0.804049
#
# Coordination Sequence:
#
# PCOD8171139 Si02
#       7
#     4   4   4   4   4   4   4
#     4  10  24  39  58 106 138 203 242 289 337 407
#     4  11  27  44  72 105 157 185 238 293 364 423
#     4  12  26  48  82 109 134 180 246 298 368 464
#     4  10  24  47  68 106 139 193 231 298 371 426
#     4  10  22  37  65  90 142 184 248 283 345 405
#     4  12  26  47  73 109 141 193 235 306 367 421
#     4  11  23  42  72  95 149 196 256 285 340 434
#
# _framework density 23.829941999999999
#
# number of rings (size 3 to 8) (size 9 to 14) (size 15 to 20)
#    0.000    1.143    1.429    3.429   10.000    2.286 
#    0.000    2.857    0.000    1.714    0.000    0.000 
#    0.000    0.000    0.000    0.000    0.000    0.000 
#
# Total GULP energy -347006.035915 kJ/mol
# GULP energy per Si atom -12393.072711 kJ/mol
# Density = 2.377570 g / cm^3
# Si number density = 23.829942 Si / 1000 Ang^3
#
#
#
# Elastic Constant Matrix: (Units=GPa)
#
#
# Indices 1 2 3 4 5 6 
#
# 1 105.6019 58.4787 40.0818 0.0000 0.0000 0.0000
# 2 58.4787 122.3650 48.6940 0.0000 0.0000 0.0000
# 3 40.0818 48.6940 121.1305 0.0000 0.0000 0.0000
# 4 0.0000 0.0000 0.0000 35.4226 0.0000 0.0000
# 5 0.0000 0.0000 0.0000 0.0000 46.3257 0.0000
# 6 0.0000 0.0000 0.0000 0.0000 0.0000 19.9052
#
#
#
# Elastic Compliance Matrix: (Units=1/GPa)
#
#
# Indices 1 2 3 4 5 6 
#
# 1 0.013355 -0.005504 -0.002206 0.000000 0.000000 0.000000
# 2 -0.005504 0.011997 -0.003001 0.000000 0.000000 0.000000
# 3 -0.002206 -0.003001 0.010192 0.000000 0.000000 0.000000
# 4 0.000000 0.000000 0.000000 0.028231 0.000000 0.000000
# 5 0.000000 0.000000 0.000000 0.000000 0.021586 0.000000
# 6 0.000000 0.000000 0.000000 0.000000 0.000000 0.050238
#
#
# Mechanical properties :
#
#
# Convention : Reuss Voigt Hill
#
# Bulk Modulus (GPa) = 70.82145 71.51181 71.16663
# Shear Modulus (GPa) = 30.91556 33.78691 32.35124
#
# Velocity S-wave (km/s) = 3.60577 3.76950 3.68854
# Velocity P-wave (km/s) = 6.86436 7.00142 6.93323
#
# Compressibility (1/GPa) = 0.01412002
#
# Stress axis : x y z
#
# Youngs Moduli (GPa) = 74.87739 83.35234 98.11394
#
# Poissons Ratio (x) = 0.45881 0.21648
# Poissons Ratio (y) = 0.41216 0.29448
# Poissons Ratio (z) = 0.16521 0.25018
#
# Static dielectric constant tensor:
#      x y z
#    x 4.491390 0.000000 0.000000 
#    y 0.000000 4.169720 0.000000 
#    z 0.000000 0.000000 4.288400 
# 
# 
# High freq. dielectric constant tensor:
#      x y z
#    x 1.950120 0.000000 0.000000 
#    y 0.000000 1.921650 0.000000 
#    z 0.000000 0.000000 1.957010 
# 
# From -- ./inp_files/567.got.cif
#   From: 2010.03.12/outbox.cif.g09.slc.cpg/sg33_1_cif.got.tgz:567.got - 2010.04.14 01:49:19.
