data_PCOD8171810
_publ_section_title
;
Structure prediction by ZEFSAII (Michael W. Deem and Ramdas Pophale) SiO2 
 PCOD8171810
Probable space group: P N A 21
;
_chemical_formula_sum "Si O2"
_cell_formula_units_Z 16
_cell_length_a 16.066899
_cell_length_b 7.453989
_cell_length_c 5.056873
_cell_angle_alpha 90.000000
_cell_angle_beta 90.000000
_cell_angle_gamma 90.000000
_cell_volume 605.623694
_symmetry_space_group_name_H-M "P N A 21"
_symmetry_group_IT_number 33
_symmetry_cell_setting 'orthorhombic'
loop_
_space_group_symop_operation_xyz
x,y,z
-x,-y,1/2+z
1/2-x,1/2+y,1/2+z
1/2+x,1/2-y,z
loop_
_atom_site_type_symbol
_atom_site_label
_atom_site_fract_x
_atom_site_fract_y
_atom_site_fract_z
Si Si1 0.949109 0.977109 0.239170
Si Si2 0.833191 0.150718 0.582019
Si Si3 0.160136 0.220292 0.390080
Si Si4 0.055904 0.522050 0.174107
O O1 0.870301 0.108105 0.289122
O O2 0.084936 0.204721 0.605322
O O3 0.986538 0.931845 0.532046
O O4 0.743319 0.235618 0.549968
O O5 0.900272 0.283763 0.719134
O O6 0.826090 0.968567 0.747281
O O7 0.131357 0.377267 0.193730
O O8 0.983049 0.492087 0.384368
#
# Coordination Sequence:
#
# PCOD8171810 Si02
#       4
#     4   4   4   4
#     4  12  27  52  89 120 166 228 276 344 421 488
#     4  12  31  56  85 124 175 223 277 351 427 504
#     4  12  31  56  85 124 175 223 277 351 427 504
#     4  12  33  52  89 128 164 222 294 342 417 506
#
# _framework density 26.419046000000002
#
# number of rings (size 3 to 8) (size 9 to 14) (size 15 to 20)
#    0.000    0.000    2.500    3.000   17.500    4.000 
#    0.000    0.000    0.000    0.000    0.000    0.000 
#    0.000    0.000    0.000    0.000    0.000    0.000 
#
# Total GULP energy -198401.615458 kJ/mol
# GULP energy per Si atom -12400.100966 kJ/mol
# Density = 2.635892 g / cm^3
# Si number density = 26.419046 Si / 1000 Ang^3
#
#
#
# Elastic Constant Matrix: (Units=GPa)
#
#
# Indices 1 2 3 4 5 6 
#
# 1 98.1988 7.9969 41.8261 0.0000 0.0000 0.0000
# 2 7.9969 147.1393 37.1447 0.0000 0.0000 0.0000
# 3 41.8261 37.1447 129.0264 0.0000 0.0000 0.0000
# 4 0.0000 0.0000 0.0000 38.8814 0.0000 0.0000
# 5 0.0000 0.0000 0.0000 0.0000 37.8187 0.0000
# 6 0.0000 0.0000 0.0000 0.0000 0.0000 39.2678
#
#
#
# Elastic Compliance Matrix: (Units=1/GPa)
#
#
# Indices 1 2 3 4 5 6 
#
# 1 0.011831 0.000351 -0.003936 0.000000 0.000000 0.000000
# 2 0.000351 0.007339 -0.002227 0.000000 0.000000 0.000000
# 3 -0.003936 -0.002227 0.009667 0.000000 0.000000 0.000000
# 4 0.000000 0.000000 0.000000 0.025719 0.000000 0.000000
# 5 0.000000 0.000000 0.000000 0.000000 0.026442 0.000000
# 6 0.000000 0.000000 0.000000 0.000000 0.000000 0.025466
#
#
# Mechanical properties :
#
#
# Convention : Reuss Voigt Hill
#
# Bulk Modulus (GPa) = 58.09311 60.92223 59.50767
# Shear Modulus (GPa) = 40.37866 42.35338 41.36602
#
# Velocity S-wave (km/s) = 3.91371 4.00826 3.96127
# Velocity P-wave (km/s) = 6.51611 6.67320 6.59512
#
# Compressibility (1/GPa) = 0.01721374
#
# Stress axis : x y z
#
# Youngs Moduli (GPa) = 84.52030 136.25274 103.44079
#
# Poissons Ratio (x) = -0.04778 0.40718
# Poissons Ratio (y) = -0.02964 0.23032
# Poissons Ratio (z) = 0.33270 0.30337
#
# Static dielectric constant tensor:
#      x y z
#    x 5.140350 0.000000 0.000000 
#    y 0.000000 4.983430 0.000000 
#    z 0.000000 0.000000 4.774980 
# 
# 
# High freq. dielectric constant tensor:
#      x y z
#    x 2.079120 0.000000 0.000000 
#    y 0.000000 2.069410 0.000000 
#    z 0.000000 0.000000 2.061190 
# 
# From -- ./inp_files/1588.got.cif
#   From: 2010.03.12/outbox.cif.g09.slc.cpg/sg33_1_cif.got.tgz:1588.got - 2010.04.14 01:49:19.
