data_PCOD8171179
_publ_section_title
;
Structure prediction by ZEFSAII (Michael W. Deem and Ramdas Pophale) SiO2 
 PCOD8171179
Probable space group: P N A 21
;
_chemical_formula_sum "Si O2"
_cell_formula_units_Z 20
_cell_length_a 11.065958
_cell_length_b 7.930163
_cell_length_c 9.887902
_cell_angle_alpha 90.000000
_cell_angle_beta 90.000000
_cell_angle_gamma 90.000000
_cell_volume 867.711364
_symmetry_space_group_name_H-M "P N A 21"
_symmetry_group_IT_number 33
_symmetry_cell_setting 'orthorhombic'
loop_
_space_group_symop_operation_xyz
x,y,z
-x,-y,1/2+z
1/2-x,1/2+y,1/2+z
1/2+x,1/2-y,z
loop_
_atom_site_type_symbol
_atom_site_label
_atom_site_fract_x
_atom_site_fract_y
_atom_site_fract_z
Si Si1 0.071606 0.274846 0.267990
Si Si2 0.996074 0.620318 0.288503
Si Si3 0.263578 0.066310 0.392284
Si Si4 0.448279 0.365024 0.020733
Si Si5 0.940516 0.203362 0.526163
O O1 0.190852 0.157967 0.268773
O O2 0.087786 0.473494 0.232742
O O3 0.964593 0.196057 0.175457
O O4 0.031135 0.291617 0.422763
O O5 0.862002 0.545043 0.312513
O O6 0.035477 0.701089 0.429294
O O7 0.005390 0.765733 0.175726
O O8 0.311310 0.211754 0.494759
O O9 0.181675 0.946234 0.487459
O O10 0.555623 0.502441 0.996570
#
# Coordination Sequence:
#
# PCOD8171179 Si02
#       5
#     4   4   4   4   4
#     4  10  22  40  64  97 130 167 219 265 321 397
#     4  11  24  43  66  99 132 171 225 271 322 400
#     4  10  24  44  70  96 136 178 210 278 340 374
#     4  11  24  43  66  99 132 171 225 271 322 400
#     4  10  22  40  64  97 130 167 219 265 321 397
#
# _framework density 23.049140000000001
#
# number of rings (size 3 to 8) (size 9 to 14) (size 15 to 20)
#    0.000    1.600    0.000    4.800    0.000   14.400 
#    0.000    0.000    0.000    0.000    0.000    0.000 
#    0.000    0.000    0.000    0.000    0.000    0.000 
#
# Total GULP energy -247765.342334 kJ/mol
# GULP energy per Si atom -12388.267117 kJ/mol
# Density = 2.299668 g / cm^3
# Si number density = 23.049140 Si / 1000 Ang^3
#
#
#
# Elastic Constant Matrix: (Units=GPa)
#
#
# Indices 1 2 3 4 5 6 
#
# 1 105.4366 43.4634 28.1060 0.0000 0.0000 0.0000
# 2 43.4634 121.0936 12.2768 0.0000 0.0000 0.0000
# 3 28.1060 12.2768 90.1880 0.0000 0.0000 0.0000
# 4 0.0000 0.0000 0.0000 37.4052 0.0000 0.0000
# 5 0.0000 0.0000 0.0000 0.0000 36.2629 0.0000
# 6 0.0000 0.0000 0.0000 0.0000 0.0000 25.0849
#
#
#
# Elastic Compliance Matrix: (Units=1/GPa)
#
#
# Indices 1 2 3 4 5 6 
#
# 1 0.011973 -0.003974 -0.003190 0.000000 0.000000 0.000000
# 2 -0.003974 0.009693 -0.000081 0.000000 0.000000 0.000000
# 3 -0.003190 -0.000081 0.012093 0.000000 0.000000 0.000000
# 4 0.000000 0.000000 0.000000 0.026734 0.000000 0.000000
# 5 0.000000 0.000000 0.000000 0.000000 0.027576 0.000000
# 6 0.000000 0.000000 0.000000 0.000000 0.000000 0.039865
#
#
# Mechanical properties :
#
#
# Convention : Reuss Voigt Hill
#
# Bulk Modulus (GPa) = 51.89851 53.82341 52.86096
# Shear Modulus (GPa) = 33.59150 35.27540 34.43345
#
# Velocity S-wave (km/s) = 3.82171 3.91633 3.86931
# Velocity P-wave (km/s) = 6.48378 6.62212 6.55331
#
# Compressibility (1/GPa) = 0.01926838
#
# Stress axis : x y z
#
# Youngs Moduli (GPa) = 83.52166 103.17117 82.69121
#
# Poissons Ratio (x) = 0.41000 0.26381
# Poissons Ratio (y) = 0.33191 0.00670
# Poissons Ratio (z) = 0.26646 0.00835
#
# Static dielectric constant tensor:
#      x y z
#    x 4.160590 0.000000 0.000000 
#    y 0.000000 4.639040 0.000000 
#    z 0.000000 0.000000 4.146110 
# 
# 
# High freq. dielectric constant tensor:
#      x y z
#    x 1.882760 0.000000 0.000000 
#    y 0.000000 1.932240 0.000000 
#    z 0.000000 0.000000 1.913420 
# 
# From -- ./inp_files/3674.got.cif
#   From: 2010.03.12/outbox.cif.g09.slc.cpg/sg33_2_cif.got.tgz:3674.got - 2010.04.14 01:49:19.
