data_PCOD8171721
_publ_section_title
;
Structure prediction by ZEFSAII (Michael W. Deem and Ramdas Pophale) SiO2 
 PCOD8171721
Probable space group: P N A 21
;
_chemical_formula_sum "Si O2"
_cell_formula_units_Z 20
_cell_length_a 10.456227
_cell_length_b 13.017096
_cell_length_c 4.713312
_cell_angle_alpha 90.000000
_cell_angle_beta 90.000000
_cell_angle_gamma 90.000000
_cell_volume 641.527533
_symmetry_space_group_name_H-M "P N A 21"
_symmetry_group_IT_number 33
_symmetry_cell_setting 'orthorhombic'
loop_
_space_group_symop_operation_xyz
x,y,z
-x,-y,1/2+z
1/2-x,1/2+y,1/2+z
1/2+x,1/2-y,z
loop_
_atom_site_type_symbol
_atom_site_label
_atom_site_fract_x
_atom_site_fract_y
_atom_site_fract_z
Si Si1 0.247141 0.756205 0.488240
Si Si2 0.419870 0.308929 0.506483
Si Si3 0.308497 0.037161 0.207491
Si Si4 0.575302 0.128301 0.350601
Si Si5 0.568593 0.529419 0.483552
O O1 0.132857 0.814059 0.672558
O O2 0.257794 0.636043 0.565474
O O3 0.375156 0.822182 0.553869
O O4 0.210570 0.765129 0.157490
O O5 0.531465 0.224419 0.541798
O O6 0.473411 0.397804 0.719748
O O7 0.312713 0.940616 0.991863
O O8 0.451692 0.056304 0.309222
O O9 0.218548 0.000956 0.471236
O O10 0.516238 0.562051 0.801680
#
# Coordination Sequence:
#
# PCOD8171721 Si02
#       5
#     4   4   4   4   4
#     4  11  25  46  75 110 160 202 259 331 408 478
#     4  11  25  47  72 111 156 204 258 329 404 481
#     4  11  26  46  79 118 154 208 268 326 407 481
#     4  11  25  47  81 120 160 210 272 348 400 503
#     4  12  27  48  75 107 156 204 259 320 399 483
#
# _framework density 31.175592000000002
#
# number of rings (size 3 to 8) (size 9 to 14) (size 15 to 20)
#    0.000    0.800    2.000    3.600    2.800    9.600 
#    0.000    0.000    0.000    0.000    0.000    0.000 
#    0.000    0.000    0.000    0.000    0.000    0.000 
#
# Total GULP energy -247892.861163 kJ/mol
# GULP energy per Si atom -12394.643058 kJ/mol
# Density = 3.110463 g / cm^3
# Si number density = 31.175592 Si / 1000 Ang^3
#
#
#
# Elastic Constant Matrix: (Units=GPa)
#
#
# Indices 1 2 3 4 5 6 
#
# 1 139.5164 16.3509 39.3919 0.0000 0.0000 0.0000
# 2 16.3509 120.5795 36.6494 0.0000 0.0000 0.0000
# 3 39.3919 36.6494 206.5869 0.0000 0.0000 0.0000
# 4 0.0000 0.0000 0.0000 26.1585 0.0000 0.0000
# 5 0.0000 0.0000 0.0000 0.0000 49.9713 0.0000
# 6 0.0000 0.0000 0.0000 0.0000 0.0000 76.1031
#
#
#
# Elastic Compliance Matrix: (Units=1/GPa)
#
#
# Indices 1 2 3 4 5 6 
#
# 1 0.007620 -0.000625 -0.001342 0.000000 0.000000 0.000000
# 2 -0.000625 0.008817 -0.001445 0.000000 0.000000 0.000000
# 3 -0.001342 -0.001445 0.005353 0.000000 0.000000 0.000000
# 4 0.000000 0.000000 0.000000 0.038229 0.000000 0.000000
# 5 0.000000 0.000000 0.000000 0.000000 0.020011 0.000000
# 6 0.000000 0.000000 0.000000 0.000000 0.000000 0.013140
#
#
# Mechanical properties :
#
#
# Convention : Reuss Voigt Hill
#
# Bulk Modulus (GPa) = 66.82168 72.38526 69.60347
# Shear Modulus (GPa) = 47.62673 55.39929 51.51301
#
# Velocity S-wave (km/s) = 3.91281 4.22003 4.06932
# Velocity P-wave (km/s) = 6.47255 6.85667 6.66738
#
# Compressibility (1/GPa) = 0.01496520
#
# Stress axis : x y z
#
# Youngs Moduli (GPa) = 131.23676 113.41371 186.81761
#
# Poissons Ratio (x) = 0.07093 0.25071
# Poissons Ratio (y) = 0.08207 0.26995
# Poissons Ratio (z) = 0.17612 0.16388
#
# Static dielectric constant tensor:
#      x y z
#    x 5.764040 0.000000 0.000000 
#    y 0.000000 6.861940 0.000000 
#    z 0.000000 0.000000 5.539240 
# 
# 
# High freq. dielectric constant tensor:
#      x y z
#    x 2.289050 0.000000 0.000000 
#    y 0.000000 2.337070 0.000000 
#    z 0.000000 0.000000 2.307970 
# 
# From -- ./inp_files/731.got.cif
#   From: 2010.03.12/outbox.cif.g09.slc.cpg/sg33_1_cif.got.tgz:731.got - 2010.04.14 01:49:19.
