data_PCOD8171726
_publ_section_title
;
Structure prediction by ZEFSAII (Michael W. Deem and Ramdas Pophale) SiO2 
 PCOD8171726
Probable space group: P N A 21
;
_chemical_formula_sum "Si O2"
_cell_formula_units_Z 32
_cell_length_a 14.550922
_cell_length_b 11.312276
_cell_length_c 8.540089
_cell_angle_alpha 90.000000
_cell_angle_beta 90.000000
_cell_angle_gamma 90.000000
_cell_volume 1405.733200
_symmetry_space_group_name_H-M "P N A 21"
_symmetry_group_IT_number 33
_symmetry_cell_setting 'orthorhombic'
loop_
_space_group_symop_operation_xyz
x,y,z
-x,-y,1/2+z
1/2-x,1/2+y,1/2+z
1/2+x,1/2-y,z
loop_
_atom_site_type_symbol
_atom_site_label
_atom_site_fract_x
_atom_site_fract_y
_atom_site_fract_z
Si Si1 0.444758 0.279612 0.276360
Si Si2 0.921837 0.243846 0.919520
Si Si3 0.224051 0.899259 0.260007
Si Si4 0.793735 0.363202 0.413183
Si Si5 0.628385 0.253398 0.917138
Si Si6 0.659620 0.519241 0.930854
Si Si7 0.143291 0.300321 0.261337
Si Si8 0.326014 0.054635 0.757003
O O1 0.390629 0.161972 0.329111
O O2 0.418611 0.389190 0.385531
O O3 0.553047 0.272783 0.303145
O O4 0.420380 0.301484 0.096166
O O5 0.878131 0.139528 0.814230
O O6 0.856885 0.358156 0.895919
O O7 0.024866 0.285053 0.869353
O O8 0.299710 0.792866 0.284786
O O9 0.253529 0.013085 0.358535
O O10 0.217883 0.934933 0.079435
O O11 0.725681 0.251961 0.370919
O O12 0.820693 0.371483 0.596006
O O13 0.615169 0.391803 0.953122
O O14 0.670190 0.204785 0.078485
O O15 0.726589 0.502975 0.784171
O O16 0.111730 0.437624 0.274871
#
# Coordination Sequence:
#
# PCOD8171726 Si02
#       8
#     4   4   4   4   4   4   4   4
#     4  11  26  46  68 106 145 186 241 297 354 430
#     4  11  26  46  68 106 145 186 241 297 354 430
#     4  12  24  46  73 103 143 189 236 296 360 426
#     4  12  24  46  73 103 143 189 236 296 360 426
#     4  11  25  47  74 107 142 189 237 295 365 425
#     4  12  25  46  72 102 143 189 239 290 359 425
#     4  11  25  47  74 107 142 189 237 295 365 425
#     4  12  25  46  72 102 143 189 239 290 359 425
#
# _framework density 22.763919000000001
#
# number of rings (size 3 to 8) (size 9 to 14) (size 15 to 20)
#    0.000    0.500    5.000    3.000    3.500    0.000 
#    9.000    0.000    0.000    0.000    0.000    0.000 
#    0.000    0.000    0.000    0.000    0.000    0.000 
#
# Total GULP energy -396607.550572 kJ/mol
# GULP energy per Si atom -12393.985955 kJ/mol
# Density = 2.271211 g / cm^3
# Si number density = 22.763919 Si / 1000 Ang^3
#
#
#
# Elastic Constant Matrix: (Units=GPa)
#
#
# Indices 1 2 3 4 5 6 
#
# 1 82.5122 13.4387 36.0177 0.0000 0.0000 0.0000
# 2 13.4387 115.5192 22.9402 0.0000 0.0000 0.0000
# 3 36.0177 22.9402 73.0706 0.0000 0.0000 0.0000
# 4 0.0000 0.0000 0.0000 41.6982 0.0000 0.0000
# 5 0.0000 0.0000 0.0000 0.0000 29.3649 0.0000
# 6 0.0000 0.0000 0.0000 0.0000 0.0000 33.0384
#
#
#
# Elastic Compliance Matrix: (Units=1/GPa)
#
#
# Indices 1 2 3 4 5 6 
#
# 1 0.015452 -0.000304 -0.007521 0.000000 0.000000 0.000000
# 2 -0.000304 0.009238 -0.002750 0.000000 0.000000 0.000000
# 3 -0.007521 -0.002750 0.018256 0.000000 0.000000 0.000000
# 4 0.000000 0.000000 0.000000 0.023982 0.000000 0.000000
# 5 0.000000 0.000000 0.000000 0.000000 0.034054 0.000000
# 6 0.000000 0.000000 0.000000 0.000000 0.000000 0.030268
#
#
# Mechanical properties :
#
#
# Convention : Reuss Voigt Hill
#
# Bulk Modulus (GPa) = 45.88162 46.21056 46.04609
# Shear Modulus (GPa) = 31.31533 34.06734 32.69134
#
# Velocity S-wave (km/s) = 3.71301 3.87272 3.79371
# Velocity P-wave (km/s) = 6.21137 6.35148 6.28181
#
# Compressibility (1/GPa) = 0.02179522
#
# Stress axis : x y z
#
# Youngs Moduli (GPa) = 64.71661 108.24709 54.77606
#
# Poissons Ratio (x) = 0.03291 0.41198
# Poissons Ratio (y) = 0.01967 0.15066
# Poissons Ratio (z) = 0.48674 0.29772
#
# Static dielectric constant tensor:
#      x y z
#    x 4.120280 0.000000 0.000000 
#    y 0.000000 4.714630 0.000000 
#    z 0.000000 0.000000 4.002860 
# 
# 
# High freq. dielectric constant tensor:
#      x y z
#    x 1.896990 0.000000 0.000000 
#    y 0.000000 1.917810 0.000000 
#    z 0.000000 0.000000 1.894540 
# 
# From -- ./inp_files/4458.got.cif
#   From: 2010.03.12/outbox.cif.g09.slc.cpg/sg33_3_cif.got.tgz:4458.got - 2010.04.14 01:49:19.
