data_PCOD8171641
_publ_section_title
;
Structure prediction by ZEFSAII (Michael W. Deem and Ramdas Pophale) SiO2 
 PCOD8171641
Probable space group: P N A 21
;
_chemical_formula_sum "Si O2"
_cell_formula_units_Z 28
_cell_length_a 9.065507
_cell_length_b 14.595023
_cell_length_c 9.077273
_cell_angle_alpha 90.000000
_cell_angle_beta 90.000000
_cell_angle_gamma 90.000000
_cell_volume 1201.025638
_symmetry_space_group_name_H-M "P N A 21"
_symmetry_group_IT_number 33
_symmetry_cell_setting 'orthorhombic'
loop_
_space_group_symop_operation_xyz
x,y,z
-x,-y,1/2+z
1/2-x,1/2+y,1/2+z
1/2+x,1/2-y,z
loop_
_atom_site_type_symbol
_atom_site_label
_atom_site_fract_x
_atom_site_fract_y
_atom_site_fract_z
Si Si1 0.646707 0.695909 0.878940
Si Si2 0.684883 0.345258 0.867381
Si Si3 0.734506 0.141962 0.863625
Si Si4 0.955376 0.097708 0.099051
Si Si5 0.462044 0.054149 0.757380
Si Si6 0.475025 0.874535 0.930478
Si Si7 0.038820 0.899342 0.145751
O O1 0.598413 0.674561 0.712780
O O2 0.608047 0.801584 0.913356
O O3 0.818686 0.678140 0.914105
O O4 0.541792 0.629382 0.976019
O O5 0.763816 0.248843 0.894519
O O6 0.796536 0.421545 0.806315
O O7 0.561659 0.330032 0.741119
O O8 0.608767 0.375683 0.019950
O O9 0.563423 0.115984 0.864886
O O10 0.794235 0.112420 0.703225
O O11 0.823111 0.083672 0.983928
O O12 0.979149 0.000721 0.176675
O O13 0.498799 0.073921 0.586341
O O14 0.486976 0.947280 0.796389
#
# Coordination Sequence:
#
# PCOD8171641 Si02
#       7
#     4   4   4   4   4   4   4
#     4  12  27  50  74 114 152 200 265 322 392 460
#     4  11  25  46  74 109 148 200 250 307 384 465
#     4  11  24  46  74 105 148 201 247 312 379 458
#     4  11  26  45  75 108 152 197 255 312 385 459
#     4  12  27  48  77 115 155 203 262 327 395 464
#     4  12  30  50  78 110 162 203 267 329 394 476
#     4  11  23  47  74 105 143 202 248 307 379 460
#
# _framework density 23.313407999999999
#
# number of rings (size 3 to 8) (size 9 to 14) (size 15 to 20)
#    0.000    0.571    1.429    6.857    8.000    2.286 
#    0.000    0.000    0.000    0.000    0.000    0.000 
#    0.000    0.000    0.000    0.000    0.000    0.000 
#
# Total GULP energy -347262.150878 kJ/mol
# GULP energy per Si atom -12402.219674 kJ/mol
# Density = 2.326035 g / cm^3
# Si number density = 23.313408 Si / 1000 Ang^3
#
#
#
# Elastic Constant Matrix: (Units=GPa)
#
#
# Indices 1 2 3 4 5 6 
#
# 1 114.2791 41.3854 54.9317 0.0000 0.0000 0.0000
# 2 41.3854 133.5833 43.4840 0.0000 0.0000 0.0000
# 3 54.9317 43.4840 116.3929 0.0000 0.0000 0.0000
# 4 0.0000 0.0000 0.0000 39.0406 0.0000 0.0000
# 5 0.0000 0.0000 0.0000 0.0000 31.9504 0.0000
# 6 0.0000 0.0000 0.0000 0.0000 0.0000 36.6083
#
#
#
# Elastic Compliance Matrix: (Units=1/GPa)
#
#
# Indices 1 2 3 4 5 6 
#
# 1 0.011814 -0.002101 -0.004791 0.000000 0.000000 0.000000
# 2 -0.002101 0.008896 -0.002332 0.000000 0.000000 0.000000
# 3 -0.004791 -0.002332 0.011724 0.000000 0.000000 0.000000
# 4 0.000000 0.000000 0.000000 0.025614 0.000000 0.000000
# 5 0.000000 0.000000 0.000000 0.000000 0.031299 0.000000
# 6 0.000000 0.000000 0.000000 0.000000 0.000000 0.027316
#
#
# Mechanical properties :
#
#
# Convention : Reuss Voigt Hill
#
# Bulk Modulus (GPa) = 71.49628 71.53971 71.51800
# Shear Modulus (GPa) = 35.77241 36.48346 36.12794
#
# Velocity S-wave (km/s) = 3.92141 3.96019 3.94085
# Velocity P-wave (km/s) = 7.15802 7.18773 7.17289
#
# Compressibility (1/GPa) = 0.01398674
#
# Stress axis : x y z
#
# Youngs Moduli (GPa) = 84.64453 112.41137 85.29569
#
# Poissons Ratio (x) = 0.23613 0.40864
# Poissons Ratio (y) = 0.17780 0.19892
# Poissons Ratio (z) = 0.40552 0.26215
#
# Static dielectric constant tensor:
#      x y z
#    x 4.263450 0.000000 0.000000 
#    y 0.000000 3.994770 0.000000 
#    z 0.000000 0.000000 4.126400 
# 
# 
# High freq. dielectric constant tensor:
#      x y z
#    x 1.932130 0.000000 0.000000 
#    y 0.000000 1.920540 0.000000 
#    z 0.000000 0.000000 1.925210 
# 
# From -- ./inp_files/3208.got.cif
#   From: 2010.03.12/outbox.cif.g09.slc.cpg/sg33_2_cif.got.tgz:3208.got - 2010.04.14 01:49:19.
