data_PCOD8171068
_publ_section_title
;
Structure prediction by ZEFSAII (Michael W. Deem and Ramdas Pophale) SiO2 
 PCOD8171068
Probable space group: P N A 21
;
_chemical_formula_sum "Si O2"
_cell_formula_units_Z 28
_cell_length_a 15.955065
_cell_length_b 8.234733
_cell_length_c 9.958201
_cell_angle_alpha 90.000000
_cell_angle_beta 90.000000
_cell_angle_gamma 90.000000
_cell_volume 1308.365212
_symmetry_space_group_name_H-M "P N A 21"
_symmetry_group_IT_number 33
_symmetry_cell_setting 'orthorhombic'
loop_
_space_group_symop_operation_xyz
x,y,z
-x,-y,1/2+z
1/2-x,1/2+y,1/2+z
1/2+x,1/2-y,z
loop_
_atom_site_type_symbol
_atom_site_label
_atom_site_fract_x
_atom_site_fract_y
_atom_site_fract_z
Si Si1 0.996308 0.673157 0.617810
Si Si2 0.334904 0.361083 0.049227
Si Si3 0.132691 0.095083 0.775833
Si Si4 0.680210 0.339579 0.051342
Si Si5 0.000092 0.299778 0.644817
Si Si6 0.632759 0.589690 0.257413
Si Si7 0.495598 0.351405 0.366346
O O1 0.073940 0.773126 0.552859
O O2 0.003693 0.482015 0.589031
O O3 0.908490 0.744659 0.564175
O O4 0.003970 0.685752 0.779672
O O5 0.331698 0.529117 0.134301
O O6 0.259278 0.256797 0.111628
O O7 0.312583 0.392456 0.892525
O O8 0.073210 0.252042 0.749476
O O9 0.199751 0.143116 0.890617
O O10 0.091714 0.943240 0.854002
O O11 0.683373 0.509712 0.133471
O O12 0.016308 0.179450 0.519974
O O13 0.908854 0.260495 0.709249
O O14 0.559919 0.466395 0.292222
#
# Coordination Sequence:
#
# PCOD8171068 Si02
#       7
#     4   4   4   4   4   4   4
#     4  10  24  39  64 100 127 168 209 270 313 377
#     4  11  24  45  66  92 133 165 218 263 317 383
#     4  10  21  41  63  91 124 176 210 256 320 380
#     4  11  24  45  66  92 133 165 218 263 317 383
#     4  11  20  36  71  95 128 170 212 262 320 380
#     4  10  21  41  63  91 124 176 210 256 320 380
#     4   9  18  37  63  91 123 164 217 252 313 377
#
# _framework density 21.400752000000001
#
# number of rings (size 3 to 8) (size 9 to 14) (size 15 to 20)
#    0.000    1.714    2.857    2.571    4.000    2.286 
#    5.143    1.429    0.000    0.000    0.000    0.000 
#    0.000    0.000    0.000    0.000    0.000    0.000 
#
# Total GULP energy -346907.917846 kJ/mol
# GULP energy per Si atom -12389.568495 kJ/mol
# Density = 2.135204 g / cm^3
# Si number density = 21.400752 Si / 1000 Ang^3
#
#
#
# Elastic Constant Matrix: (Units=GPa)
#
#
# Indices 1 2 3 4 5 6 
#
# 1 86.7010 16.2236 7.7410 0.0000 0.0000 0.0000
# 2 16.2236 80.6364 15.0068 0.0000 0.0000 0.0000
# 3 7.7410 15.0068 115.6964 0.0000 0.0000 0.0000
# 4 0.0000 0.0000 0.0000 24.3635 0.0000 0.0000
# 5 0.0000 0.0000 0.0000 0.0000 15.4109 0.0000
# 6 0.0000 0.0000 0.0000 0.0000 0.0000 15.1443
#
#
#
# Elastic Compliance Matrix: (Units=1/GPa)
#
#
# Indices 1 2 3 4 5 6 
#
# 1 0.012014 -0.002324 -0.000502 0.000000 0.000000 0.000000
# 2 -0.002324 0.013158 -0.001551 0.000000 0.000000 0.000000
# 3 -0.000502 -0.001551 0.008878 0.000000 0.000000 0.000000
# 4 0.000000 0.000000 0.000000 0.041045 0.000000 0.000000
# 5 0.000000 0.000000 0.000000 0.000000 0.064889 0.000000
# 6 0.000000 0.000000 0.000000 0.000000 0.000000 0.066032
#
#
# Mechanical properties :
#
#
# Convention : Reuss Voigt Hill
#
# Bulk Modulus (GPa) = 39.53370 40.10852 39.82111
# Shear Modulus (GPa) = 22.40136 27.25457 24.82797
#
# Velocity S-wave (km/s) = 3.23887 3.57253 3.40978
# Velocity P-wave (km/s) = 5.70089 5.98328 5.84379
#
# Compressibility (1/GPa) = 0.02529488
#
# Stress axis : x y z
#
# Youngs Moduli (GPa) = 83.23946 76.00223 112.63641
#
# Poissons Ratio (x) = 0.17660 0.05659
# Poissons Ratio (y) = 0.19341 0.17472
# Poissons Ratio (z) = 0.04182 0.11789
#
# Static dielectric constant tensor:
#      x y z
#    x 3.594770 0.000000 0.000000 
#    y 0.000000 3.772870 0.000000 
#    z 0.000000 0.000000 4.077270 
# 
# 
# High freq. dielectric constant tensor:
#      x y z
#    x 1.809960 0.000000 0.000000 
#    y 0.000000 1.826860 0.000000 
#    z 0.000000 0.000000 1.858920 
# 
# From -- ./inp_files/4777.got.cif
#   From: 2010.03.12/outbox.cif.g09.slc.cpg/sg33_3_cif.got.tgz:4777.got - 2010.04.14 01:49:19.
