data_PCOD8171345
_publ_section_title
;
Structure prediction by ZEFSAII (Michael W. Deem and Ramdas Pophale) SiO2 
 PCOD8171345
Probable space group: P N A 21
;
_chemical_formula_sum "Si O2"
_cell_formula_units_Z 28
_cell_length_a 22.230872
_cell_length_b 6.561461
_cell_length_c 8.121691
_cell_angle_alpha 90.000000
_cell_angle_beta 90.000000
_cell_angle_gamma 90.000000
_cell_volume 1184.686698
_symmetry_space_group_name_H-M "P N A 21"
_symmetry_group_IT_number 33
_symmetry_cell_setting 'orthorhombic'
loop_
_space_group_symop_operation_xyz
x,y,z
-x,-y,1/2+z
1/2-x,1/2+y,1/2+z
1/2+x,1/2-y,z
loop_
_atom_site_type_symbol
_atom_site_label
_atom_site_fract_x
_atom_site_fract_y
_atom_site_fract_z
Si Si1 0.573409 0.929724 0.538500
Si Si2 0.971245 0.697341 0.311345
Si Si3 0.246255 0.013234 0.370770
Si Si4 0.721001 0.412086 0.742000
Si Si5 0.328973 0.879577 0.825783
Si Si6 0.873793 0.439383 0.487912
Si Si7 0.404001 0.414973 0.297994
O O1 0.536921 0.837979 0.386201
O O2 0.627517 0.078640 0.479617
O O3 0.597977 0.742277 0.645449
O O4 0.528586 0.075443 0.639799
O O5 0.916872 0.618076 0.424596
O O6 0.962691 0.940866 0.287831
O O7 0.229327 0.983793 0.563019
O O8 0.189656 0.143156 0.295518
O O9 0.314799 0.098207 0.372254
O O10 0.252065 0.815064 0.256162
O O11 0.762981 0.533301 0.871143
O O12 0.652186 0.429482 0.795719
O O13 0.356672 0.998711 0.671499
O O14 0.907016 0.219223 0.467216
#
# Coordination Sequence:
#
# PCOD8171345 Si02
#       7
#     4   4   4   4   4   4   4
#     4  11  26  44  72 104 141 194 241 306 373 439
#     4  11  24  47  71  98 144 184 246 300 362 437
#     4  11  23  39  68  97 142 188 235 294 367 427
#     4  11  23  41  67 104 140 188 244 296 361 444
#     4  11  24  41  66 102 146 179 242 292 361 440
#     4  10  23  42  66 103 137 192 232 297 361 431
#     4  11  23  44  72 100 142 189 240 297 369 430
#
# _framework density 23.634944000000001
#
# number of rings (size 3 to 8) (size 9 to 14) (size 15 to 20)
#    0.000    1.143    2.857    2.571    2.000    8.000 
#    0.000    1.429    0.000    0.000    0.000    0.000 
#    0.000    0.000    0.000    0.000    0.000    0.000 
#
# Total GULP energy -346883.063797 kJ/mol
# GULP energy per Si atom -12388.680850 kJ/mol
# Density = 2.358115 g / cm^3
# Si number density = 23.634944 Si / 1000 Ang^3
#
#
#
# Elastic Constant Matrix: (Units=GPa)
#
#
# Indices 1 2 3 4 5 6 
#
# 1 71.7516 19.8164 18.2741 0.0000 0.0000 0.0000
# 2 19.8164 120.9093 31.8332 0.0000 0.0000 0.0000
# 3 18.2741 31.8332 77.9295 0.0000 0.0000 0.0000
# 4 0.0000 0.0000 0.0000 25.4462 0.0000 0.0000
# 5 0.0000 0.0000 0.0000 0.0000 38.9641 0.0000
# 6 0.0000 0.0000 0.0000 0.0000 0.0000 37.2088
#
#
#
# Elastic Compliance Matrix: (Units=1/GPa)
#
#
# Indices 1 2 3 4 5 6 
#
# 1 0.015139 -0.001733 -0.002842 0.000000 0.000000 0.000000
# 2 -0.001733 0.009466 -0.003460 0.000000 0.000000 0.000000
# 3 -0.002842 -0.003460 0.014912 0.000000 0.000000 0.000000
# 4 0.000000 0.000000 0.000000 0.039299 0.000000 0.000000
# 5 0.000000 0.000000 0.000000 0.000000 0.025665 0.000000
# 6 0.000000 0.000000 0.000000 0.000000 0.000000 0.026875
#
#
# Mechanical properties :
#
#
# Convention : Reuss Voigt Hill
#
# Bulk Modulus (GPa) = 42.65061 45.60421 44.12741
# Shear Modulus (GPa) = 32.20774 33.70160 32.95467
#
# Velocity S-wave (km/s) = 3.69550 3.78024 3.73811
# Velocity P-wave (km/s) = 6.02443 6.19602 6.11083
#
# Compressibility (1/GPa) = 0.02344632
#
# Stress axis : x y z
#
# Youngs Moduli (GPa) = 66.05256 105.64455 67.05975
#
# Poissons Ratio (x) = 0.18308 0.19060
# Poissons Ratio (y) = 0.11447 0.23204
# Poissons Ratio (z) = 0.18774 0.36556
#
# Static dielectric constant tensor:
#      x y z
#    x 4.310400 0.000000 0.000000 
#    y 0.000000 4.303050 0.000000 
#    z 0.000000 0.000000 3.985650 
# 
# 
# High freq. dielectric constant tensor:
#      x y z
#    x 1.940010 0.000000 0.000000 
#    y 0.000000 1.938310 0.000000 
#    z 0.000000 0.000000 1.921100 
# 
# From -- ./inp_files/5176.got.cif
#   From: 2010.03.12/outbox.cif.g09.slc.cpg/sg33_3_cif.got.tgz:5176.got - 2010.04.14 01:49:19.
