data_PCOD8171431
_publ_section_title
;
Structure prediction by ZEFSAII (Michael W. Deem and Ramdas Pophale) SiO2 
 PCOD8171431
Probable space group: P N A 21
;
_chemical_formula_sum "Si O2"
_cell_formula_units_Z 20
_cell_length_a 9.202509
_cell_length_b 4.991099
_cell_length_c 17.982934
_cell_angle_alpha 90.000000
_cell_angle_beta 90.000000
_cell_angle_gamma 90.000000
_cell_volume 825.967550
_symmetry_space_group_name_H-M "P N A 21"
_symmetry_group_IT_number 33
_symmetry_cell_setting 'orthorhombic'
loop_
_space_group_symop_operation_xyz
x,y,z
-x,-y,1/2+z
1/2-x,1/2+y,1/2+z
1/2+x,1/2-y,z
loop_
_atom_site_type_symbol
_atom_site_label
_atom_site_fract_x
_atom_site_fract_y
_atom_site_fract_z
Si Si1 0.452312 0.177332 0.414760
Si Si2 0.009849 0.453426 0.250687
Si Si3 0.312362 0.656248 0.476159
Si Si4 0.579643 0.489755 0.537936
Si Si5 0.161850 0.045885 0.698627
O O1 0.323404 0.403367 0.419341
O O2 0.579608 0.255308 0.474641
O O3 0.523169 0.162000 0.333585
O O4 0.381979 0.896134 0.430511
O O5 0.171177 0.510452 0.221005
O O6 0.914605 0.724597 0.247527
O O7 0.927323 0.230439 0.202345
O O8 0.412176 0.584374 0.549057
O O9 0.156067 0.742651 0.505109
O O10 0.655067 0.372154 0.611275
#
# Coordination Sequence:
#
# PCOD8171431 Si02
#       5
#     4   4   4   4   4
#     4  10  26  43  74 101 151 191 254 300 375 449
#     4  12  28  51  73 114 151 210 240 327 377 476
#     4  10  24  41  74 104 142 185 253 305 366 433
#     4  10  26  44  75 108 145 191 251 312 366 454
#     4  12  28  47  80 107 163 193 262 306 404 442
#
# _framework density 24.214027000000002
#
# number of rings (size 3 to 8) (size 9 to 14) (size 15 to 20)
#    1.200    0.000    0.000    3.600   11.200    1.600 
#    0.000    0.000    0.000    0.000    0.000    0.000 
#    0.000    0.000    0.000    0.000    0.000    0.000 
#
# Total GULP energy -247784.014908 kJ/mol
# GULP energy per Si atom -12389.200745 kJ/mol
# Density = 2.415892 g / cm^3
# Si number density = 24.214027 Si / 1000 Ang^3
#
#
#
# Elastic Constant Matrix: (Units=GPa)
#
#
# Indices 1 2 3 4 5 6 
#
# 1 130.4392 30.9240 24.2194 0.0000 0.0000 0.0000
# 2 30.9240 89.8764 18.9234 0.0000 0.0000 0.0000
# 3 24.2194 18.9234 113.9864 0.0000 0.0000 0.0000
# 4 0.0000 0.0000 0.0000 26.1131 0.0000 0.0000
# 5 0.0000 0.0000 0.0000 0.0000 26.1563 0.0000
# 6 0.0000 0.0000 0.0000 0.0000 0.0000 36.7425
#
#
#
# Elastic Compliance Matrix: (Units=1/GPa)
#
#
# Indices 1 2 3 4 5 6 
#
# 1 0.008551 -0.002652 -0.001377 0.000000 0.000000 0.000000
# 2 -0.002652 0.012352 -0.001487 0.000000 0.000000 0.000000
# 3 -0.001377 -0.001487 0.009312 0.000000 0.000000 0.000000
# 4 0.000000 0.000000 0.000000 0.038295 0.000000 0.000000
# 5 0.000000 0.000000 0.000000 0.000000 0.038232 0.000000
# 6 0.000000 0.000000 0.000000 0.000000 0.000000 0.027216
#
#
# Mechanical properties :
#
#
# Convention : Reuss Voigt Hill
#
# Bulk Modulus (GPa) = 52.12829 53.60397 52.86613
# Shear Modulus (GPa) = 33.02848 35.15140 34.08994
#
# Velocity S-wave (km/s) = 3.69727 3.81425 3.75622
# Velocity P-wave (km/s) = 6.30883 6.44853 6.37906
#
# Compressibility (1/GPa) = 0.01918344
#
# Stress axis : x y z
#
# Youngs Moduli (GPa) = 116.94834 80.95813 107.38447
#
# Poissons Ratio (x) = 0.21472 0.14782
# Poissons Ratio (y) = 0.31018 0.15969
# Poissons Ratio (z) = 0.16098 0.12039
#
# Static dielectric constant tensor:
#      x y z
#    x 4.385040 0.000000 0.000000 
#    y 0.000000 4.514460 0.000000 
#    z 0.000000 0.000000 4.183990 
# 
# 
# High freq. dielectric constant tensor:
#      x y z
#    x 1.967820 0.000000 0.000000 
#    y 0.000000 1.981140 0.000000 
#    z 0.000000 0.000000 1.946210 
# 
# From -- ./inp_files/8407.got.cif
#   From: 2010.03.12/outbox.cif.g09.slc.cpg/sg33_5_cif.got.tgz:8407.got - 2010.04.14 01:49:19.
