data_PCOD8171800
_publ_section_title
;
Structure prediction by ZEFSAII (Michael W. Deem and Ramdas Pophale) SiO2 
 PCOD8171800
Probable space group: P N A 21
;
_chemical_formula_sum "Si O2"
_cell_formula_units_Z 20
_cell_length_a 11.696249
_cell_length_b 11.241358
_cell_length_c 6.719463
_cell_angle_alpha 90.000000
_cell_angle_beta 90.000000
_cell_angle_gamma 90.000000
_cell_volume 883.486568
_symmetry_space_group_name_H-M "P N A 21"
_symmetry_group_IT_number 33
_symmetry_cell_setting 'orthorhombic'
loop_
_space_group_symop_operation_xyz
x,y,z
-x,-y,1/2+z
1/2-x,1/2+y,1/2+z
1/2+x,1/2-y,z
loop_
_atom_site_type_symbol
_atom_site_label
_atom_site_fract_x
_atom_site_fract_y
_atom_site_fract_z
Si Si1 0.350300 0.569075 0.245460
Si Si2 0.202414 0.763825 0.349976
Si Si3 0.438296 0.353730 0.492303
Si Si4 0.043953 0.653710 0.684905
Si Si5 0.336848 0.978742 0.483604
O O1 0.325245 0.694205 0.356004
O O2 0.363774 0.457527 0.391233
O O3 0.458644 0.580200 0.103189
O O4 0.227100 0.564881 0.136276
O O5 0.139917 0.775357 0.137244
O O6 0.118027 0.703372 0.505346
O O7 0.232162 0.897264 0.411298
O O8 0.489000 0.262637 0.329971
O O9 0.929656 0.596932 0.601235
O O10 0.111755 0.550148 0.799000
#
# Coordination Sequence:
#
# PCOD8171800 Si02
#       5
#     4   4   4   4   4
#     4  12  27  47  78 106 151 197 244 312 371 437
#     4  12  26  50  78 108 146 200 242 314 376 436
#     4  12  28  49  74 114 149 194 255 303 369 453
#     4  12  28  49  74 114 149 194 255 303 369 453
#     4  12  27  47  78 106 151 197 244 312 371 437
#
# _framework density 22.637584
#
# number of rings (size 3 to 8) (size 9 to 14) (size 15 to 20)
#    0.000    0.000    4.000    4.800   11.200    0.000 
#    0.000    0.000    0.000    0.000    0.000    0.000 
#    0.000    0.000    0.000    0.000    0.000    0.000 
#
# Total GULP energy -248045.647499 kJ/mol
# GULP energy per Si atom -12402.282375 kJ/mol
# Density = 2.258606 g / cm^3
# Si number density = 22.637584 Si / 1000 Ang^3
#
#
#
# Elastic Constant Matrix: (Units=GPa)
#
#
# Indices 1 2 3 4 5 6 
#
# 1 104.7742 42.9271 46.1980 0.0000 0.0000 0.0000
# 2 42.9271 111.8798 45.5779 0.0000 0.0000 0.0000
# 3 46.1980 45.5779 108.7227 0.0000 0.0000 0.0000
# 4 0.0000 0.0000 0.0000 43.3295 0.0000 0.0000
# 5 0.0000 0.0000 0.0000 0.0000 15.4639 0.0000
# 6 0.0000 0.0000 0.0000 0.0000 0.0000 55.9828
#
#
#
# Elastic Compliance Matrix: (Units=1/GPa)
#
#
# Indices 1 2 3 4 5 6 
#
# 1 0.012633 -0.003208 -0.004023 0.000000 0.000000 0.000000
# 2 -0.003208 0.011594 -0.003497 0.000000 0.000000 0.000000
# 3 -0.004023 -0.003497 0.012373 0.000000 0.000000 0.000000
# 4 0.000000 0.000000 0.000000 0.023079 0.000000 0.000000
# 5 0.000000 0.000000 0.000000 0.000000 0.064667 0.000000
# 6 0.000000 0.000000 0.000000 0.000000 0.000000 0.017863
#
#
# Mechanical properties :
#
#
# Convention : Reuss Voigt Hill
#
# Bulk Modulus (GPa) = 66.03597 66.08697 66.06147
# Shear Modulus (GPa) = 29.63641 35.66682 32.65162
#
# Velocity S-wave (km/s) = 3.62217 3.97364 3.80197
# Velocity P-wave (km/s) = 6.83577 7.09295 6.96555
#
# Compressibility (1/GPa) = 0.01514326
#
# Stress axis : x y z
#
# Youngs Moduli (GPa) = 79.16061 86.25355 80.82048
#
# Poissons Ratio (x) = 0.27671 0.32513
# Poissons Ratio (y) = 0.25396 0.28263
# Poissons Ratio (z) = 0.31845 0.30163
#
# Static dielectric constant tensor:
#      x y z
#    x 3.905120 0.000000 0.000000 
#    y 0.000000 4.310370 0.000000 
#    z 0.000000 0.000000 4.229770 
# 
# 
# High freq. dielectric constant tensor:
#      x y z
#    x 1.897000 0.000000 0.000000 
#    y 0.000000 1.924080 0.000000 
#    z 0.000000 0.000000 1.902150 
# 
# From -- ./inp_files/682.got.cif
#   From: 2010.03.12/outbox.cif.g09.slc.cpg/sg33_1_cif.got.tgz:682.got - 2010.04.14 01:49:19.
