data_PCOD8171688
_publ_section_title
;
Structure prediction by ZEFSAII (Michael W. Deem and Ramdas Pophale) SiO2 
 PCOD8171688
Probable space group: P N A 21
;
_chemical_formula_sum "Si O2"
_cell_formula_units_Z 24
_cell_length_a 9.207806
_cell_length_b 10.570971
_cell_length_c 10.281825
_cell_angle_alpha 90.000000
_cell_angle_beta 90.000000
_cell_angle_gamma 90.000000
_cell_volume 1000.786065
_symmetry_space_group_name_H-M "P N A 21"
_symmetry_group_IT_number 33
_symmetry_cell_setting 'orthorhombic'
loop_
_space_group_symop_operation_xyz
x,y,z
-x,-y,1/2+z
1/2-x,1/2+y,1/2+z
1/2+x,1/2-y,z
loop_
_atom_site_type_symbol
_atom_site_label
_atom_site_fract_x
_atom_site_fract_y
_atom_site_fract_z
Si Si1 0.043124 0.802745 0.925870
Si Si2 0.354099 0.812074 0.505209
Si Si3 0.598176 0.428995 0.828990
Si Si4 0.222468 0.200786 0.599100
Si Si5 0.764564 0.065377 0.764619
Si Si6 0.372801 0.183764 0.167714
O O1 0.034410 0.731419 0.789790
O O2 0.122961 0.937586 0.901713
O O3 0.119494 0.716507 0.035692
O O4 0.880952 0.825769 0.975947
O O5 0.371533 0.677348 0.435153
O O6 0.302069 0.922958 0.409042
O O7 0.507991 0.857694 0.561599
O O8 0.229476 0.795809 0.614049
O O9 0.709834 0.411987 0.706255
O O10 0.437632 0.415080 0.768161
O O11 0.186236 0.330475 0.674790
O O12 0.732290 0.929889 0.705394
#
# Coordination Sequence:
#
# PCOD8171688 Si02
#       6
#     4   4   4   4   4   4
#     4  12  26  45  73 107 142 191 238 300 361 431
#     4  11  25  47  72 105 143 184 246 289 353 434
#     4  11  24  48  78  96 145 200 229 298 373 419
#     4  11  25  47  71 107 143 184 251 291 356 438
#     4  11  24  46  73 104 143 195 231 301 363 413
#     4  12  26  45  71 107 144 184 237 297 358 423
#
# _framework density 23.98115
#
# number of rings (size 3 to 8) (size 9 to 14) (size 15 to 20)
#    0.000    0.667    3.333    4.000    4.667    1.333 
#    6.000    0.000    0.000    0.000    0.000    0.000 
#    0.000    0.000    0.000    0.000    0.000    0.000 
#
# Total GULP energy -297688.454130 kJ/mol
# GULP energy per Si atom -12403.685589 kJ/mol
# Density = 2.392657 g / cm^3
# Si number density = 23.981150 Si / 1000 Ang^3
#
#
#
# Elastic Constant Matrix: (Units=GPa)
#
#
# Indices 1 2 3 4 5 6 
#
# 1 79.7001 3.1695 21.0740 0.0000 0.0000 0.0000
# 2 3.1695 54.9641 17.3421 0.0000 0.0000 0.0000
# 3 21.0740 17.3421 101.9510 0.0000 0.0000 0.0000
# 4 0.0000 0.0000 0.0000 31.3591 0.0000 0.0000
# 5 0.0000 0.0000 0.0000 0.0000 33.2900 0.0000
# 6 0.0000 0.0000 0.0000 0.0000 0.0000 28.2986
#
#
#
# Elastic Compliance Matrix: (Units=1/GPa)
#
#
# Indices 1 2 3 4 5 6 
#
# 1 0.013273 0.000106 -0.002762 0.000000 0.000000 0.000000
# 2 0.000106 0.019226 -0.003292 0.000000 0.000000 0.000000
# 3 -0.002762 -0.003292 0.010940 0.000000 0.000000 0.000000
# 4 0.000000 0.000000 0.000000 0.031889 0.000000 0.000000
# 5 0.000000 0.000000 0.000000 0.000000 0.030039 0.000000
# 6 0.000000 0.000000 0.000000 0.000000 0.000000 0.035337
#
#
# Mechanical properties :
#
#
# Convention : Reuss Voigt Hill
#
# Bulk Modulus (GPa) = 31.70291 35.53182 33.61736
# Shear Modulus (GPa) = 30.65330 31.59150 31.12240
#
# Velocity S-wave (km/s) = 3.57911 3.63347 3.60639
# Velocity P-wave (km/s) = 5.50714 5.69662 5.60268
#
# Compressibility (1/GPa) = 0.03154285
#
# Stress axis : x y z
#
# Youngs Moduli (GPa) = 75.34060 52.01188 91.41168
#
# Poissons Ratio (x) = -0.00551 0.25245
# Poissons Ratio (y) = -0.00798 0.30096
# Poissons Ratio (z) = 0.20806 0.17124
#
# Static dielectric constant tensor:
#      x y z
#    x 4.067460 0.000000 0.000000 
#    y 0.000000 4.126180 0.000000 
#    z 0.000000 0.000000 4.653060 
# 
# 
# High freq. dielectric constant tensor:
#      x y z
#    x 1.942070 0.000000 0.000000 
#    y 0.000000 1.940420 0.000000 
#    z 0.000000 0.000000 1.976520 
# 
# From -- ./inp_files/3050.got.cif
#   From: 2010.03.12/outbox.cif.g09.slc.cpg/sg33_2_cif.got.tgz:3050.got - 2010.04.14 01:49:19.
