data_PCOD8171147
_publ_section_title
;
Structure prediction by ZEFSAII (Michael W. Deem and Ramdas Pophale) SiO2 
 PCOD8171147
Probable space group: P N A 21
;
_chemical_formula_sum "Si O2"
_cell_formula_units_Z 28
_cell_length_a 16.790811
_cell_length_b 8.383380
_cell_length_c 10.137367
_cell_angle_alpha 90.000000
_cell_angle_beta 90.000000
_cell_angle_gamma 90.000000
_cell_volume 1426.973785
_symmetry_space_group_name_H-M "P N A 21"
_symmetry_group_IT_number 33
_symmetry_cell_setting 'orthorhombic'
loop_
_space_group_symop_operation_xyz
x,y,z
-x,-y,1/2+z
1/2-x,1/2+y,1/2+z
1/2+x,1/2-y,z
loop_
_atom_site_type_symbol
_atom_site_label
_atom_site_fract_x
_atom_site_fract_y
_atom_site_fract_z
Si Si1 0.569082 0.442070 0.143200
Si Si2 0.338923 0.072482 0.837271
Si Si3 0.785549 0.162242 0.636147
Si Si4 0.298820 0.327174 0.342462
Si Si5 0.017773 0.374350 0.246139
Si Si6 0.467289 0.423827 0.375641
Si Si7 0.349112 0.066621 0.139852
O O1 0.659246 0.503419 0.139360
O O2 0.564461 0.248190 0.147028
O O3 0.524174 0.515121 0.271731
O O4 0.518008 0.503670 0.018818
O O5 0.311189 0.220303 0.750594
O O6 0.279954 0.926184 0.811773
O O7 0.426652 0.017399 0.793430
O O8 0.339572 0.126838 0.989360
O O9 0.794663 0.244289 0.492033
O O10 0.694703 0.104137 0.656779
O O11 0.375240 0.443968 0.331509
O O12 0.304445 0.188111 0.236325
O O13 0.941998 0.453032 0.173800
O O14 0.987764 0.267399 0.371399
#
# Coordination Sequence:
#
# PCOD8171147 Si02
#       7
#     4   4   4   4   4   4   4
#     4   9  18  36  62  83 117 156 197 240 300 353
#     4  11  23  40  62  90 121 162 202 248 304 361
#     4  10  22  38  61  89 117 158 203 251 299 366
#     4   9  20  42  57  83 126 150 198 254 300 353
#     4   9  21  38  59  87 124 151 195 254 296 348
#     4   8  18  35  59  85 113 154 193 242 292 352
#     4  10  22  41  62  87 120 159 204 245 301 363
#
# _framework density 19.621943000000002
#
# number of rings (size 3 to 8) (size 9 to 14) (size 15 to 20)
#    0.857    1.714    0.000    0.857    2.000    4.571 
#    7.714    1.429    0.000    0.000    0.000    0.000 
#    0.000    0.000    0.000    0.000    0.000    0.000 
#
# Total GULP energy -346999.311567 kJ/mol
# GULP energy per Si atom -12392.832556 kJ/mol
# Density = 1.957728 g / cm^3
# Si number density = 19.621943 Si / 1000 Ang^3
#
#
#
# Elastic Constant Matrix: (Units=GPa)
#
#
# Indices 1 2 3 4 5 6 
#
# 1 102.4761 40.8842 52.2122 0.0000 0.0000 0.0000
# 2 40.8842 67.9897 66.3317 0.0000 0.0000 0.0000
# 3 52.2122 66.3317 139.4855 0.0000 0.0000 0.0000
# 4 0.0000 0.0000 0.0000 33.5635 0.0000 0.0000
# 5 0.0000 0.0000 0.0000 0.0000 28.5463 0.0000
# 6 0.0000 0.0000 0.0000 0.0000 0.0000 -1.5470
#
#
#
# Elastic Compliance Matrix: (Units=1/GPa)
#
#
# Indices 1 2 3 4 5 6 
#
# 1 0.013182 -0.005807 -0.002173 0.000000 0.000000 0.000000
# 2 -0.005807 0.029996 -0.012091 0.000000 0.000000 0.000000
# 3 -0.002173 -0.012091 0.013732 0.000000 0.000000 0.000000
# 4 0.000000 0.000000 0.000000 0.029794 0.000000 0.000000
# 5 0.000000 0.000000 0.000000 0.000000 0.035031 0.000000
# 6 0.000000 0.000000 0.000000 0.000000 0.000000 -0.646423
#
#
# Mechanical properties :
#
#
# Convention : Reuss Voigt Hill
#
# Bulk Modulus (GPa) = 59.63315 69.86749 64.75032
# Shear Modulus (GPa) = -10.43937 22.14743 5.85403
#
# Velocity S-wave (km/s) = -2.30907 3.36327 1.72913
# Velocity P-wave (km/s) = 4.83197 7.12504 6.08745
#
# Compressibility (1/GPa) = 0.01676920
#
# Stress axis : x y z
#
# Youngs Moduli (GPa) = 75.85960 33.33782 72.82105
#
# Poissons Ratio (x) = 0.19359 0.15823
# Poissons Ratio (y) = 0.44051 0.88046
# Poissons Ratio (z) = 0.16484 0.40308
#
# Static dielectric constant tensor:
#      x y z
#    x 3.645170 0.000000 0.000000 
#    y 0.000000 3.134730 0.000000 
#    z 0.000000 0.000000 3.639720 
# 
# 
# High freq. dielectric constant tensor:
#      x y z
#    x 1.777090 0.000000 0.000000 
#    y 0.000000 1.728940 0.000000 
#    z 0.000000 0.000000 1.767470 
# 
# From -- ./inp_files/4734.got.cif
#   From: 2010.03.12/outbox.cif.g09.slc.cpg/sg33_3_cif.got.tgz:4734.got - 2010.04.14 01:49:19.
