data_PCOD8171153
_publ_section_title
;
Structure prediction by ZEFSAII (Michael W. Deem and Ramdas Pophale) SiO2 
 PCOD8171153
Probable space group: P N A 21
;
_chemical_formula_sum "Si O2"
_cell_formula_units_Z 32
_cell_length_a 14.991148
_cell_length_b 17.927231
_cell_length_c 5.563413
_cell_angle_alpha 90.000000
_cell_angle_beta 90.000000
_cell_angle_gamma 90.000000
_cell_volume 1495.165982
_symmetry_space_group_name_H-M "P N A 21"
_symmetry_group_IT_number 33
_symmetry_cell_setting 'orthorhombic'
loop_
_space_group_symop_operation_xyz
x,y,z
-x,-y,1/2+z
1/2-x,1/2+y,1/2+z
1/2+x,1/2-y,z
loop_
_atom_site_type_symbol
_atom_site_label
_atom_site_fract_x
_atom_site_fract_y
_atom_site_fract_z
Si Si1 0.417025 0.766790 0.110190
Si Si2 0.320615 0.411596 0.539788
Si Si3 0.481860 0.332010 0.294747
Si Si4 0.663711 0.130865 0.242487
Si Si5 0.009454 0.454992 0.056950
Si Si6 0.956150 0.973316 0.598784
Si Si7 0.736528 0.718282 0.366193
Si Si8 0.932809 0.304644 0.981309
O O1 0.317508 0.751990 0.205173
O O2 0.484846 0.800416 0.299966
O O3 0.454522 0.687200 0.019681
O O4 0.411565 0.828273 0.899976
O O5 0.394338 0.376477 0.366034
O O6 0.227018 0.421848 0.403154
O O7 0.355524 0.493577 0.617992
O O8 0.309042 0.357054 0.766274
O O9 0.539922 0.383000 0.110256
O O10 0.450202 0.253728 0.191426
O O11 0.609729 0.080184 0.052760
O O12 0.724246 0.195664 0.124542
O O13 0.999880 0.501617 0.304680
O O14 0.933516 0.390249 0.070841
O O15 0.996441 0.996760 0.342104
O O16 0.663821 0.784512 0.370795
#
# Coordination Sequence:
#
# PCOD8171153 Si02
#       8
#     4   4   4   4   4   4   4   4
#     4  11  22  41  67 107 138 183 231 307 359 426
#     4  10  22  38  70 102 140 187 235 282 361 440
#     4  11  21  39  72 101 136 186 231 290 366 425
#     4  11  23  44  71 101 139 186 241 299 360 427
#     4  12  28  49  74 101 143 199 243 298 373 437
#     4  10  23  40  63 102 147 183 225 277 352 441
#     4  11  22  40  73 104 135 185 243 299 363 424
#     4  12  23  43  76 100 138 185 249 300 358 436
#
# _framework density 21.402305999999999
#
# number of rings (size 3 to 8) (size 9 to 14) (size 15 to 20)
#    0.000    1.000    5.000    1.500    5.250    0.000 
#    0.000    3.750    0.000    0.000    0.000    0.000 
#    0.000    0.000    0.000    0.000    0.000    0.000 
#
# Total GULP energy -396599.251360 kJ/mol
# GULP energy per Si atom -12393.726605 kJ/mol
# Density = 2.135359 g / cm^3
# Si number density = 21.402306 Si / 1000 Ang^3
#
#
#
# Elastic Constant Matrix: (Units=GPa)
#
#
# Indices 1 2 3 4 5 6 
#
# 1 103.3131 36.3793 18.5665 0.0000 0.0000 0.0000
# 2 36.3793 88.2249 20.7834 0.0000 0.0000 0.0000
# 3 18.5665 20.7834 75.4041 0.0000 0.0000 0.0000
# 4 0.0000 0.0000 0.0000 39.1082 0.0000 0.0000
# 5 0.0000 0.0000 0.0000 0.0000 31.4612 0.0000
# 6 0.0000 0.0000 0.0000 0.0000 0.0000 24.9730
#
#
#
# Elastic Compliance Matrix: (Units=1/GPa)
#
#
# Indices 1 2 3 4 5 6 
#
# 1 0.011508 -0.004361 -0.001632 0.000000 0.000000 0.000000
# 2 -0.004361 0.013774 -0.002723 0.000000 0.000000 0.000000
# 3 -0.001632 -0.002723 0.014414 0.000000 0.000000 0.000000
# 4 0.000000 0.000000 0.000000 0.025570 0.000000 0.000000
# 5 0.000000 0.000000 0.000000 0.000000 0.031785 0.000000
# 6 0.000000 0.000000 0.000000 0.000000 0.000000 0.040043
#
#
# Mechanical properties :
#
#
# Convention : Reuss Voigt Hill
#
# Bulk Modulus (GPa) = 44.91189 46.48893 45.70041
# Shear Modulus (GPa) = 30.87415 31.85600 31.36508
#
# Velocity S-wave (km/s) = 3.80223 3.86221 3.83234
# Velocity P-wave (km/s) = 6.34871 6.45426 6.40170
#
# Compressibility (1/GPa) = 0.02226582
#
# Stress axis : x y z
#
# Youngs Moduli (GPa) = 86.89488 72.59886 69.37658
#
# Poissons Ratio (x) = 0.31660 0.11320
# Poissons Ratio (y) = 0.37895 0.18890
# Poissons Ratio (z) = 0.14178 0.19767
#
# Static dielectric constant tensor:
#      x y z
#    x 4.070490 0.000000 0.000000 
#    y 0.000000 4.310460 0.000000 
#    z 0.000000 0.000000 3.965780 
# 
# 
# High freq. dielectric constant tensor:
#      x y z
#    x 1.841560 0.000000 0.000000 
#    y 0.000000 1.825340 0.000000 
#    z 0.000000 0.000000 1.850210 
# 
# From -- ./inp_files/1471.got.cif
#   From: 2010.03.12/outbox.cif.g09.slc.cpg/sg33_1_cif.got.tgz:1471.got - 2010.04.14 01:49:19.
