data_PCOD8171089
_publ_section_title
;
Structure prediction by ZEFSAII (Michael W. Deem and Ramdas Pophale) SiO2 
 PCOD8171089
Probable space group: P N A 21
;
_chemical_formula_sum "Si O2"
_cell_formula_units_Z 32
_cell_length_a 18.510207
_cell_length_b 7.352836
_cell_length_c 11.040907
_cell_angle_alpha 90.000000
_cell_angle_beta 90.000000
_cell_angle_gamma 90.000000
_cell_volume 1502.695226
_symmetry_space_group_name_H-M "P N A 21"
_symmetry_group_IT_number 33
_symmetry_cell_setting 'orthorhombic'
loop_
_space_group_symop_operation_xyz
x,y,z
-x,-y,1/2+z
1/2-x,1/2+y,1/2+z
1/2+x,1/2-y,z
loop_
_atom_site_type_symbol
_atom_site_label
_atom_site_fract_x
_atom_site_fract_y
_atom_site_fract_z
Si Si1 0.174797 0.567651 0.557280
Si Si2 0.368430 0.143111 0.491552
Si Si3 0.883279 0.797163 0.996189
Si Si4 0.494904 0.181172 0.671760
Si Si5 0.305296 0.425977 0.676139
Si Si6 0.557733 0.446776 0.255569
Si Si7 0.560755 0.824498 0.740972
Si Si8 0.231981 0.912164 0.445801
O O1 0.150274 0.403878 0.467376
O O2 0.223788 0.489671 0.664035
O O3 0.107814 0.664414 0.620059
O O4 0.228310 0.712156 0.499237
O O5 0.439640 0.097122 0.571266
O O6 0.320942 0.281958 0.570408
O O7 0.395263 0.225798 0.362985
O O8 0.315782 0.974408 0.456949
O O9 0.934324 0.865789 0.889275
O O10 0.818258 0.940614 0.016370
O O11 0.933940 0.774013 0.113492
O O12 0.456949 0.334994 0.754190
O O13 0.518492 0.016025 0.759471
O O14 0.369195 0.579749 0.674953
O O15 0.302909 0.365818 0.815713
O O16 0.491824 0.337149 0.199190
#
# Coordination Sequence:
#
# PCOD8171089 Si02
#       8
#     4   4   4   4   4   4   4   4
#     4  11  23  42  68  98 130 179 222 271 334 395
#     4  11  22  45  66  96 139 170 222 288 324 399
#     4  10  21  42  63  92 134 166 217 274 319 404
#     4  10  23  42  64  97 133 169 219 280 331 395
#     4  10  23  44  63  98 136 168 228 275 328 403
#     4  10  22  41  67  92 130 174 211 271 338 392
#     4  11  23  44  68  97 133 175 226 276 337 401
#     4  11  23  42  67  92 133 179 221 273 339 395
#
# _framework density 21.295069999999999
#
# number of rings (size 3 to 8) (size 9 to 14) (size 15 to 20)
#    0.000    1.500    3.750    0.750    1.750    3.000 
#    9.000    0.000    0.000    0.000    0.000    0.000 
#    0.000    0.000    0.000    0.000    0.000    0.000 
#
# Total GULP energy -396420.716418 kJ/mol
# GULP energy per Si atom -12388.147388 kJ/mol
# Density = 2.124660 g / cm^3
# Si number density = 21.295070 Si / 1000 Ang^3
#
#
#
# Elastic Constant Matrix: (Units=GPa)
#
#
# Indices 1 2 3 4 5 6 
#
# 1 93.9496 28.6291 16.5222 0.0000 0.0000 0.0000
# 2 28.6291 92.8817 34.6281 0.0000 0.0000 0.0000
# 3 16.5222 34.6281 73.4690 0.0000 0.0000 0.0000
# 4 0.0000 0.0000 0.0000 28.4347 0.0000 0.0000
# 5 0.0000 0.0000 0.0000 0.0000 22.8427 0.0000
# 6 0.0000 0.0000 0.0000 0.0000 0.0000 43.0804
#
#
#
# Elastic Compliance Matrix: (Units=1/GPa)
#
#
# Indices 1 2 3 4 5 6 
#
# 1 0.011826 -0.003219 -0.001142 0.000000 0.000000 0.000000
# 2 -0.003219 0.013938 -0.005845 0.000000 0.000000 0.000000
# 3 -0.001142 -0.005845 0.016623 0.000000 0.000000 0.000000
# 4 0.000000 0.000000 0.000000 0.035168 0.000000 0.000000
# 5 0.000000 0.000000 0.000000 0.000000 0.043778 0.000000
# 6 0.000000 0.000000 0.000000 0.000000 0.000000 0.023212
#
#
# Mechanical properties :
#
#
# Convention : Reuss Voigt Hill
#
# Bulk Modulus (GPa) = 45.50974 46.65102 46.08038
# Shear Modulus (GPa) = 29.02194 30.90628 29.96411
#
# Velocity S-wave (km/s) = 3.69568 3.81377 3.75519
# Velocity P-wave (km/s) = 6.29509 6.43021 6.36301
#
# Compressibility (1/GPa) = 0.02197332
#
# Stress axis : x y z
#
# Youngs Moduli (GPa) = 84.56036 71.74653 60.15710
#
# Poissons Ratio (x) = 0.23097 0.06871
# Poissons Ratio (y) = 0.27223 0.35164
# Poissons Ratio (z) = 0.09658 0.41939
#
# Static dielectric constant tensor:
#      x y z
#    x 4.278720 0.000000 0.000000 
#    y 0.000000 3.765950 0.000000 
#    z 0.000000 0.000000 3.510880 
# 
# 
# High freq. dielectric constant tensor:
#      x y z
#    x 1.864990 0.000000 0.000000 
#    y 0.000000 1.820360 0.000000 
#    z 0.000000 0.000000 1.815340 
# 
# From -- ./inp_files/7200.got.cif
#   From: 2010.03.12/outbox.cif.g09.slc.cpg/sg33_4_cif.got.tgz:7200.got - 2010.04.14 01:49:19.
