data_PCOD8171623
_publ_section_title
;
Structure prediction by ZEFSAII (Michael W. Deem and Ramdas Pophale) SiO2 
 PCOD8171623
Probable space group: P N A 21
;
_chemical_formula_sum "Si O2"
_cell_formula_units_Z 32
_cell_length_a 9.396062
_cell_length_b 14.665586
_cell_length_c 10.781242
_cell_angle_alpha 90.000000
_cell_angle_beta 90.000000
_cell_angle_gamma 90.000000
_cell_volume 1485.641728
_symmetry_space_group_name_H-M "P N A 21"
_symmetry_group_IT_number 33
_symmetry_cell_setting 'orthorhombic'
loop_
_space_group_symop_operation_xyz
x,y,z
-x,-y,1/2+z
1/2-x,1/2+y,1/2+z
1/2+x,1/2-y,z
loop_
_atom_site_type_symbol
_atom_site_label
_atom_site_fract_x
_atom_site_fract_y
_atom_site_fract_z
Si Si1 0.989735 0.394555 0.862880
Si Si2 0.327383 0.587911 0.788530
Si Si3 0.716109 0.349216 0.556018
Si Si4 0.317240 0.397929 0.881163
Si Si5 0.325017 0.973975 0.697445
Si Si6 0.913832 0.361787 0.124858
Si Si7 0.409034 0.345378 0.152816
Si Si8 0.441303 0.265959 0.683384
O O1 0.904688 0.483217 0.814988
O O2 0.005932 0.319141 0.756945
O O3 0.150187 0.417841 0.903609
O O4 0.889994 0.360102 0.976232
O O5 0.388633 0.491343 0.833861
O O6 0.185870 0.571705 0.705617
O O7 0.430781 0.636798 0.692508
O O8 0.303334 0.650949 0.908601
O O9 0.770668 0.447792 0.603031
O O10 0.567385 0.324985 0.623210
O O11 0.834406 0.271799 0.579038
O O12 0.345740 0.323512 0.777163
O O13 0.391459 0.368530 0.008215
O O14 0.427570 0.900726 0.633070
O O15 0.191964 0.910176 0.737029
O O16 0.883455 0.261199 0.177656
#
# Coordination Sequence:
#
# PCOD8171623 Si02
#       8
#     4   4   4   4   4   4   4   4
#     4  11  23  45  75 105 137 190 247 291 357 441
#     4  12  28  44  66 108 149 189 231 304 377 427
#     4  11  25  47  71 108 147 184 247 299 362 439
#     4  12  23  47  71 103 143 183 250 294 354 443
#     4  11  24  48  70 101 145 191 237 301 361 434
#     4  12  25  46  73 105 144 195 238 296 372 430
#     4  12  26  45  71 104 147 186 241 312 357 432
#     4  11  24  44  79 104 136 194 241 301 358 432
#
# _framework density 21.539512999999999
#
# number of rings (size 3 to 8) (size 9 to 14) (size 15 to 20)
#    0.000    0.500    6.250    1.500    1.750    3.000 
#    0.000    0.000    0.000    0.000    0.000    0.000 
#    0.000    0.000    0.000    0.000    0.000    0.000 
#
# Total GULP energy -396767.565651 kJ/mol
# GULP energy per Si atom -12398.986427 kJ/mol
# Density = 2.149049 g / cm^3
# Si number density = 21.539513 Si / 1000 Ang^3
#
#
#
# Elastic Constant Matrix: (Units=GPa)
#
#
# Indices 1 2 3 4 5 6 
#
# 1 107.2638 43.0663 55.8946 0.0000 0.0000 0.0000
# 2 43.0663 116.4659 42.6146 0.0000 0.0000 0.0000
# 3 55.8946 42.6146 114.4219 0.0000 0.0000 0.0000
# 4 0.0000 0.0000 0.0000 32.2101 0.0000 0.0000
# 5 0.0000 0.0000 0.0000 0.0000 33.8596 0.0000
# 6 0.0000 0.0000 0.0000 0.0000 0.0000 44.5898
#
#
#
# Elastic Compliance Matrix: (Units=1/GPa)
#
#
# Indices 1 2 3 4 5 6 
#
# 1 0.013326 -0.002948 -0.005412 0.000000 0.000000 0.000000
# 2 -0.002948 0.010593 -0.002505 0.000000 0.000000 0.000000
# 3 -0.005412 -0.002505 0.012316 0.000000 0.000000 0.000000
# 4 0.000000 0.000000 0.000000 0.031046 0.000000 0.000000
# 5 0.000000 0.000000 0.000000 0.000000 0.029534 0.000000
# 6 0.000000 0.000000 0.000000 0.000000 0.000000 0.022427
#
#
# Mechanical properties :
#
#
# Convention : Reuss Voigt Hill
#
# Bulk Modulus (GPa) = 68.93783 69.03362 68.98573
# Shear Modulus (GPa) = 34.29182 35.23699 34.76441
#
# Velocity S-wave (km/s) = 3.99437 4.04904 4.02180
# Velocity P-wave (km/s) = 7.30398 7.34704 7.32554
#
# Compressibility (1/GPa) = 0.01450582
#
# Stress axis : x y z
#
# Youngs Moduli (GPa) = 75.03857 94.40381 81.19217
#
# Poissons Ratio (x) = 0.27826 0.43943
# Poissons Ratio (y) = 0.22118 0.20341
# Poissons Ratio (z) = 0.40612 0.23651
#
# Static dielectric constant tensor:
#      x y z
#    x 3.841490 0.000000 0.000000 
#    y 0.000000 3.918320 0.000000 
#    z 0.000000 0.000000 3.800840 
# 
# 
# High freq. dielectric constant tensor:
#      x y z
#    x 1.847820 0.000000 0.000000 
#    y 0.000000 1.855740 0.000000 
#    z 0.000000 0.000000 1.845680 
# 
# From -- ./inp_files/6003.got.cif
#   From: 2010.03.12/outbox.cif.g09.slc.cpg/sg33_4_cif.got.tgz:6003.got - 2010.04.14 01:49:19.
