data_PCOD8171712
_publ_section_title
;
Structure prediction by ZEFSAII (Michael W. Deem and Ramdas Pophale) SiO2 
 PCOD8171712
Probable space group: P N A 21
;
_chemical_formula_sum "Si O2"
_cell_formula_units_Z 32
_cell_length_a 15.489358
_cell_length_b 16.247846
_cell_length_c 6.025670
_cell_angle_alpha 90.000000
_cell_angle_beta 90.000000
_cell_angle_gamma 90.000000
_cell_volume 1516.472556
_symmetry_space_group_name_H-M "P N A 21"
_symmetry_group_IT_number 33
_symmetry_cell_setting 'orthorhombic'
loop_
_space_group_symop_operation_xyz
x,y,z
-x,-y,1/2+z
1/2-x,1/2+y,1/2+z
1/2+x,1/2-y,z
loop_
_atom_site_type_symbol
_atom_site_label
_atom_site_fract_x
_atom_site_fract_y
_atom_site_fract_z
Si Si1 0.164371 0.361028 0.325960
Si Si2 0.682685 0.869762 0.781825
Si Si3 0.281541 0.495806 0.529553
Si Si4 0.505980 0.956562 0.823171
Si Si5 0.701270 0.711964 0.529536
Si Si6 0.707201 0.286115 0.632447
Si Si7 0.104768 0.936896 0.392542
Si Si8 0.416402 0.575488 0.231731
O O1 0.220564 0.442017 0.374291
O O2 0.204260 0.319472 0.106998
O O3 0.166867 0.293443 0.517432
O O4 0.066333 0.387504 0.286788
O O5 0.597772 0.915250 0.866120
O O6 0.659822 0.779735 0.690754
O O7 0.729418 0.922564 0.592222
O O8 0.748580 0.856659 0.983426
O O9 0.310745 0.441155 0.736980
O O10 0.371826 0.519938 0.417974
O O11 0.510632 0.000831 0.572228
O O12 0.717451 0.754047 0.293473
O O13 0.630354 0.639663 0.548094
O O14 0.626633 0.334313 0.738864
O O15 0.017035 0.911512 0.272740
O O16 0.093540 0.025957 0.502614
#
# Coordination Sequence:
#
# PCOD8171712 Si02
#       8
#     4   4   4   4   4   4   4   4
#     4  11  26  46  70 103 142 187 239 298 366 432
#     4  11  26  46  70 103 142 187 239 298 366 432
#     4  12  22  44  72  98 134 182 236 292 356 436
#     4  12  30  48  78 112 146 194 254 306 366 442
#     4  11  25  44  71 101 140 189 233 295 363 436
#     4  11  25  44  71 101 140 189 233 295 363 436
#     4  12  25  42  68  99 137 177 233 289 351 425
#     4  12  25  42  68  99 137 177 233 289 351 425
#
# _framework density 21.101600000000001
#
# number of rings (size 3 to 8) (size 9 to 14) (size 15 to 20)
#    0.000    0.500    7.500    0.000    7.000    2.000 
#    2.250    0.000    0.000    0.000    0.000    0.000 
#    0.000    0.000    0.000    0.000    0.000    0.000 
#
# Total GULP energy -396547.194016 kJ/mol
# GULP energy per Si atom -12392.099813 kJ/mol
# Density = 2.105357 g / cm^3
# Si number density = 21.101600 Si / 1000 Ang^3
#
#
#
# Elastic Constant Matrix: (Units=GPa)
#
#
# Indices 1 2 3 4 5 6 
#
# 1 91.6620 32.5602 9.4486 0.0000 0.0000 0.0000
# 2 32.5602 95.3719 21.7881 0.0000 0.0000 0.0000
# 3 9.4486 21.7881 73.9574 0.0000 0.0000 0.0000
# 4 0.0000 0.0000 0.0000 25.0733 0.0000 0.0000
# 5 0.0000 0.0000 0.0000 0.0000 28.8797 0.0000
# 6 0.0000 0.0000 0.0000 0.0000 0.0000 39.0186
#
#
#
# Elastic Compliance Matrix: (Units=1/GPa)
#
#
# Indices 1 2 3 4 5 6 
#
# 1 0.012424 -0.004159 -0.000362 0.000000 0.000000 0.000000
# 2 -0.004159 0.012634 -0.003191 0.000000 0.000000 0.000000
# 3 -0.000362 -0.003191 0.014508 0.000000 0.000000 0.000000
# 4 0.000000 0.000000 0.000000 0.039883 0.000000 0.000000
# 5 0.000000 0.000000 0.000000 0.000000 0.034626 0.000000
# 6 0.000000 0.000000 0.000000 0.000000 0.000000 0.025629
#
#
# Mechanical properties :
#
#
# Convention : Reuss Voigt Hill
#
# Bulk Modulus (GPa) = 41.42073 43.17609 42.29841
# Shear Modulus (GPa) = 30.64192 31.74062 31.19127
#
# Velocity S-wave (km/s) = 3.81479 3.88258 3.84884
# Velocity P-wave (km/s) = 6.25103 6.37219 6.31190
#
# Compressibility (1/GPa) = 0.02414250
#
# Stress axis : x y z
#
# Youngs Moduli (GPa) = 80.48725 79.15096 68.92967
#
# Poissons Ratio (x) = 0.32919 0.02496
# Poissons Ratio (y) = 0.33475 0.21993
# Poissons Ratio (z) = 0.02914 0.25255
#
# Static dielectric constant tensor:
#      x y z
#    x 3.678130 0.000000 0.000000 
#    y 0.000000 3.928520 0.000000 
#    z 0.000000 0.000000 4.083640 
# 
# 
# High freq. dielectric constant tensor:
#      x y z
#    x 1.826280 0.000000 0.000000 
#    y 0.000000 1.839620 0.000000 
#    z 0.000000 0.000000 1.830020 
# 
# From -- ./inp_files/1472.got.cif
#   From: 2010.03.12/outbox.cif.g09.slc.cpg/sg33_1_cif.got.tgz:1472.got - 2010.04.14 01:49:19.
