data_PCOD8171633
_publ_section_title
;
Structure prediction by ZEFSAII (Michael W. Deem and Ramdas Pophale) SiO2 
 PCOD8171633
Probable space group: P N A 21
;
_chemical_formula_sum "Si O2"
_cell_formula_units_Z 28
_cell_length_a 16.258930
_cell_length_b 9.360398
_cell_length_c 7.984540
_cell_angle_alpha 90.000000
_cell_angle_beta 90.000000
_cell_angle_gamma 90.000000
_cell_volume 1215.167589
_symmetry_space_group_name_H-M "P N A 21"
_symmetry_group_IT_number 33
_symmetry_cell_setting 'orthorhombic'
loop_
_space_group_symop_operation_xyz
x,y,z
-x,-y,1/2+z
1/2-x,1/2+y,1/2+z
1/2+x,1/2-y,z
loop_
_atom_site_type_symbol
_atom_site_label
_atom_site_fract_x
_atom_site_fract_y
_atom_site_fract_z
Si Si1 0.367813 0.622557 0.978020
Si Si2 0.229392 0.578861 0.200425
Si Si3 0.547969 0.294865 0.813375
Si Si4 0.498467 0.206769 0.317431
Si Si5 0.135190 0.834826 0.281231
Si Si6 0.429243 0.957190 0.526956
Si Si7 0.872105 0.060394 0.411640
O O1 0.409094 0.728396 0.843788
O O2 0.359620 0.462010 0.911674
O O3 0.275712 0.656336 0.042487
O O4 0.427069 0.636240 0.137314
O O5 0.199681 0.707632 0.321800
O O6 0.153146 0.489380 0.129589
O O7 0.290518 0.475265 0.302790
O O8 0.452567 0.260509 0.800664
O O9 0.572506 0.418752 0.945810
O O10 0.591951 0.146685 0.869032
O O11 0.503675 0.124593 0.141729
O O12 0.428060 0.327188 0.307990
O O13 0.473726 0.101072 0.467859
O O14 0.153827 0.883633 0.092195
#
# Coordination Sequence:
#
# PCOD8171633 Si02
#       7
#     4   4   4   4   4   4   4
#     4  11  25  43  75 103 143 194 247 305 372 450
#     4  11  28  45  68 111 150 193 244 316 391 435
#     4  11  23  46  77 110 139 195 254 300 374 456
#     4  12  24  48  74 109 143 207 256 303 381 460
#     4  12  22  49  73 106 146 193 246 315 366 456
#     4  12  27  46  75 111 158 190 252 325 379 457
#     4  11  25  47  74 106 147 196 255 304 375 464
#
# _framework density 23.042090999999999
#
# number of rings (size 3 to 8) (size 9 to 14) (size 15 to 20)
#    0.000    0.571    4.286    2.571   10.000    0.000 
#    0.000    0.000    0.000    0.000    0.000    0.000 
#    0.000    0.000    0.000    0.000    0.000    0.000 
#
# Total GULP energy -347060.858164 kJ/mol
# GULP energy per Si atom -12395.030649 kJ/mol
# Density = 2.298965 g / cm^3
# Si number density = 23.042091 Si / 1000 Ang^3
#
#
#
# Elastic Constant Matrix: (Units=GPa)
#
#
# Indices 1 2 3 4 5 6 
#
# 1 120.8286 71.5837 40.0909 0.0000 0.0000 0.0000
# 2 71.5837 150.1479 36.8167 0.0000 0.0000 0.0000
# 3 40.0909 36.8167 76.1503 0.0000 0.0000 0.0000
# 4 0.0000 0.0000 0.0000 43.1902 0.0000 0.0000
# 5 0.0000 0.0000 0.0000 0.0000 30.7544 0.0000
# 6 0.0000 0.0000 0.0000 0.0000 0.0000 36.7473
#
#
#
# Elastic Compliance Matrix: (Units=1/GPa)
#
#
# Indices 1 2 3 4 5 6 
#
# 1 0.012637 -0.004984 -0.004243 0.000000 0.000000 0.000000
# 2 -0.004984 0.009522 -0.001979 0.000000 0.000000 0.000000
# 3 -0.004243 -0.001979 0.016323 0.000000 0.000000 0.000000
# 4 0.000000 0.000000 0.000000 0.023153 0.000000 0.000000
# 5 0.000000 0.000000 0.000000 0.000000 0.032516 0.000000
# 6 0.000000 0.000000 0.000000 0.000000 0.000000 0.027213
#
#
# Mechanical properties :
#
#
# Convention : Reuss Voigt Hill
#
# Bulk Modulus (GPa) = 62.23668 71.56770 66.90219
# Shear Modulus (GPa) = 33.52704 35.38074 34.45389
#
# Velocity S-wave (km/s) = 3.81863 3.92277 3.87105
# Velocity P-wave (km/s) = 6.81991 7.18641 7.00556
#
# Compressibility (1/GPa) = 0.01606770
#
# Stress axis : x y z
#
# Youngs Moduli (GPa) = 79.13292 105.02282 61.26376
#
# Poissons Ratio (x) = 0.52346 0.25996
# Poissons Ratio (y) = 0.39442 0.12127
# Poissons Ratio (z) = 0.33578 0.20789
#
# Static dielectric constant tensor:
#      x y z
#    x 4.361160 0.000000 0.000000 
#    y 0.000000 4.432600 0.000000 
#    z 0.000000 0.000000 4.150320 
# 
# 
# High freq. dielectric constant tensor:
#      x y z
#    x 1.907990 0.000000 0.000000 
#    y 0.000000 1.923980 0.000000 
#    z 0.000000 0.000000 1.906060 
# 
# From -- ./inp_files/4785.got.cif
#   From: 2010.03.12/outbox.cif.g09.slc.cpg/sg33_3_cif.got.tgz:4785.got - 2010.04.14 01:49:19.
