data_PCOD8171739
_publ_section_title
;
Structure prediction by ZEFSAII (Michael W. Deem and Ramdas Pophale) SiO2 
 PCOD8171739
Probable space group: P N A 21
;
_chemical_formula_sum "Si O2"
_cell_formula_units_Z 20
_cell_length_a 9.893085
_cell_length_b 5.123700
_cell_length_c 15.778285
_cell_angle_alpha 90.000000
_cell_angle_beta 90.000000
_cell_angle_gamma 90.000000
_cell_volume 799.788638
_symmetry_space_group_name_H-M "P N A 21"
_symmetry_group_IT_number 33
_symmetry_cell_setting 'orthorhombic'
loop_
_space_group_symop_operation_xyz
x,y,z
-x,-y,1/2+z
1/2-x,1/2+y,1/2+z
1/2+x,1/2-y,z
loop_
_atom_site_type_symbol
_atom_site_label
_atom_site_fract_x
_atom_site_fract_y
_atom_site_fract_z
Si Si1 0.863481 0.627975 0.133090
Si Si2 0.811706 0.974431 0.274635
Si Si3 0.171306 0.871015 0.525641
Si Si4 0.029653 0.361213 0.258630
Si Si5 0.922508 0.670435 0.417293
O O1 0.800041 0.366682 0.091328
O O2 0.006351 0.551163 0.177718
O O3 0.772597 0.731865 0.212564
O O4 0.884201 0.861729 0.066574
O O5 0.951214 0.094214 0.238080
O O6 0.689145 0.182394 0.271601
O O7 0.835949 0.897028 0.371717
O O8 0.316703 0.947030 0.485006
O O9 0.057599 0.783170 0.459300
O O10 0.965795 0.463521 0.346607
#
# Coordination Sequence:
#
# PCOD8171739 Si02
#       5
#     4   4   4   4   4
#     4  11  28  48  76 111 149 195 248 310 376 440
#     4  11  26  50  77 110 153 204 256 303 373 462
#     4  12  28  48  76 112 152 192 250 317 375 439
#     4  11  26  50  77 110 149 210 248 310 367 467
#     4  11  28  46  74 111 149 201 248 310 377 444
#
# _framework density 25.006606999999999
#
# number of rings (size 3 to 8) (size 9 to 14) (size 15 to 20)
#    0.000    0.800    4.000    0.000   14.000    1.600 
#    0.000    0.000    0.000    0.000    0.000    0.000 
#    0.000    0.000    0.000    0.000    0.000    0.000 
#
# Total GULP energy -247830.225015 kJ/mol
# GULP energy per Si atom -12391.511251 kJ/mol
# Density = 2.494969 g / cm^3
# Si number density = 25.006607 Si / 1000 Ang^3
#
#
#
# Elastic Constant Matrix: (Units=GPa)
#
#
# Indices 1 2 3 4 5 6 
#
# 1 81.7487 -16.5581 2.6276 0.0000 0.0000 0.0000
# 2 -16.5581 84.2339 12.7177 0.0000 0.0000 0.0000
# 3 2.6276 12.7177 97.6533 0.0000 0.0000 0.0000
# 4 0.0000 0.0000 0.0000 30.8322 0.0000 0.0000
# 5 0.0000 0.0000 0.0000 0.0000 20.0441 0.0000
# 6 0.0000 0.0000 0.0000 0.0000 0.0000 29.2765
#
#
#
# Elastic Compliance Matrix: (Units=1/GPa)
#
#
# Indices 1 2 3 4 5 6 
#
# 1 0.012785 0.002616 -0.000685 0.000000 0.000000 0.000000
# 2 0.002616 0.012645 -0.001717 0.000000 0.000000 0.000000
# 3 -0.000685 -0.001717 0.010482 0.000000 0.000000 0.000000
# 4 0.000000 0.000000 0.000000 0.032434 0.000000 0.000000
# 5 0.000000 0.000000 0.000000 0.000000 0.049890 0.000000
# 6 0.000000 0.000000 0.000000 0.000000 0.000000 0.034157
#
#
# Mechanical properties :
#
#
# Convention : Reuss Voigt Hill
#
# Bulk Modulus (GPa) = 27.51693 29.02336 28.27015
# Shear Modulus (GPa) = 30.47336 33.68715 32.08025
#
# Velocity S-wave (km/s) = 3.49465 3.67431 3.58560
# Velocity P-wave (km/s) = 5.22601 5.44355 5.33589
#
# Compressibility (1/GPa) = 0.03634126
#
# Stress axis : x y z
#
# Youngs Moduli (GPa) = 78.21921 79.08066 95.39817
#
# Poissons Ratio (x) = -0.20691 0.06532
# Poissons Ratio (y) = -0.20466 0.16382
# Poissons Ratio (z) = 0.05356 0.13580
#
# Static dielectric constant tensor:
#      x y z
#    x 4.205240 0.000000 0.000000 
#    y 0.000000 4.436970 0.000000 
#    z 0.000000 0.000000 4.877300 
# 
# 
# High freq. dielectric constant tensor:
#      x y z
#    x 1.985350 0.000000 0.000000 
#    y 0.000000 1.990270 0.000000 
#    z 0.000000 0.000000 2.015450 
# 
# From -- ./inp_files/7799.got.cif
#   From: 2010.03.12/outbox.cif.g09.slc.cpg/sg33_4_cif.got.tgz:7799.got - 2010.04.14 01:49:19.
