data_PCOD8171878
_publ_section_title
;
Structure prediction by ZEFSAII (Michael W. Deem and Ramdas Pophale) SiO2 
 PCOD8171878
Probable space group: P N N 2
;
_chemical_formula_sum "Si O2"
_cell_formula_units_Z 18
_cell_length_a 5.122422
_cell_length_b 9.909291
_cell_length_c 18.704706
_cell_angle_alpha 90.000000
_cell_angle_beta 90.000000
_cell_angle_gamma 90.000000
_cell_volume 949.442838
_symmetry_space_group_name_H-M "P N N 2"
_symmetry_group_IT_number 34
_symmetry_cell_setting 'orthorhombic'
loop_
_space_group_symop_operation_xyz
x,y,z
-x,-y,z
1/2-x,1/2+y,1/2+z
1/2+x,1/2-y,1/2+z
loop_
_atom_site_type_symbol
_atom_site_label
_atom_site_fract_x
_atom_site_fract_y
_atom_site_fract_z
Si Si1 0.500000 0.000000 0.464481
Si Si2 0.500000 0.000000 0.220317
Si Si3 0.578895 0.145161 0.917293
Si Si4 0.583212 0.290973 0.505862
Si Si5 0.306157 0.608793 0.835304
Si Si6 0.500000 0.500000 0.626751
O O1 0.564009 0.128405 0.514790
O O2 0.267724 0.046394 0.412395
O O3 0.425480 0.122527 0.276147
O O4 0.745578 0.039362 0.172048
O O5 0.564533 0.245985 0.849553
O O6 0.500000 0.000000 0.886244
O O7 0.373329 0.182614 0.978167
O O8 0.868999 0.148592 0.951057
O O9 0.557282 0.365705 0.581148
O O10 0.500000 0.500000 0.799304
#
# Coordination Sequence:
#
# PCOD8171878 Si02
#       6
#     2   2   4   4   4   2
#     4   9  20  34  60  92 112 139 186 250 306 333
#     4  11  24  38  58  82 110 167 208 226 264 359
#     4  11  20  35  58  92 118 139 181 251 310 339
#     4  11  21  35  58  88 119 147 183 240 300 347
#     4  10  19  37  61  84 114 148 195 243 288 336
#     4  12  22  38  58  82 120 158 198 230 278 356
#
# _framework density 18.958485
#
# number of rings (size 3 to 8) (size 9 to 14) (size 15 to 20)
#    0.000    1.333    5.556    1.333    0.000    0.000 
#    0.000    0.000    2.444    2.667    0.000    0.000 
#    0.000    0.000    0.000    0.000    0.000    0.000 
#
# Total GULP energy -223047.247345 kJ/mol
# GULP energy per Si atom -12391.513741 kJ/mol
# Density = 1.891533 g / cm^3
# Si number density = 18.958485 Si / 1000 Ang^3
#
#
#
# Elastic Constant Matrix: (Units=GPa)
#
#
# Indices 1 2 3 4 5 6 
#
# 1 93.1287 32.7665 39.2568 0.0000 0.0000 0.0000
# 2 32.7665 163.8579 59.0471 0.0000 0.0000 0.0000
# 3 39.2568 59.0471 102.5686 0.0000 0.0000 0.0000
# 4 0.0000 0.0000 0.0000 3.8468 0.0000 0.0000
# 5 0.0000 0.0000 0.0000 0.0000 27.8920 0.0000
# 6 0.0000 0.0000 0.0000 0.0000 0.0000 26.5668
#
#
#
# Elastic Compliance Matrix: (Units=1/GPa)
#
#
# Indices 1 2 3 4 5 6 
#
# 1 0.012935 -0.001013 -0.004368 0.000000 0.000000 0.000000
# 2 -0.001013 0.007780 -0.004091 0.000000 0.000000 0.000000
# 3 -0.004368 -0.004091 0.013776 0.000000 0.000000 0.000000
# 4 0.000000 0.000000 0.000000 0.259954 0.000000 0.000000
# 5 0.000000 0.000000 0.000000 0.000000 0.035853 0.000000
# 6 0.000000 0.000000 0.000000 0.000000 0.000000 0.037641
#
#
# Mechanical properties :
#
#
# Convention : Reuss Voigt Hill
#
# Bulk Modulus (GPa) = 64.31572 69.07732 66.69652
# Shear Modulus (GPa) = 12.75301 26.89343 19.82322
#
# Velocity S-wave (km/s) = 2.59642 3.77044 3.23710
# Velocity P-wave (km/s) = 6.55642 7.44783 7.01630
#
# Compressibility (1/GPa) = 0.01554830
#
# Stress axis : x y z
#
# Youngs Moduli (GPa) = 77.30773 128.54199 72.58785
#
# Poissons Ratio (x) = 0.13017 0.31705
# Poissons Ratio (y) = 0.07829 0.29695
# Poissons Ratio (z) = 0.33767 0.52586
#
# Static dielectric constant tensor:
#      x y z
#    x 3.750210 0.000000 0.000000 
#    y 0.000000 3.738790 0.000000 
#    z 0.000000 0.000000 3.300310 
# 
# 
# High freq. dielectric constant tensor:
#      x y z
#    x 1.759380 0.000000 0.000000 
#    y 0.000000 1.726830 0.000000 
#    z 0.000000 0.000000 1.704620 
# 
# From -- ./inp_files/7089.got.cif
#   From: 2010.03.12/outbox.cif.g09.slc.cpg/sg34_4_cif.got.tgz:7089.got - 2010.04.14 01:56:33.
