data_PCOD8171827
_publ_section_title
;
Structure prediction by ZEFSAII (Michael W. Deem and Ramdas Pophale) SiO2 
 PCOD8171827
Probable space group: P N N 2
;
_chemical_formula_sum "Si O2"
_cell_formula_units_Z 32
_cell_length_a 16.416163
_cell_length_b 20.229362
_cell_length_c 5.073164
_cell_angle_alpha 90.000000
_cell_angle_beta 90.000000
_cell_angle_gamma 90.000000
_cell_volume 1684.739443
_symmetry_space_group_name_H-M "P N N 2"
_symmetry_group_IT_number 34
_symmetry_cell_setting 'orthorhombic'
loop_
_space_group_symop_operation_xyz
x,y,z
-x,-y,z
1/2-x,1/2+y,1/2+z
1/2+x,1/2-y,1/2+z
loop_
_atom_site_type_symbol
_atom_site_label
_atom_site_fract_x
_atom_site_fract_y
_atom_site_fract_z
Si Si1 0.126988 0.594797 0.154280
Si Si2 0.246029 0.485668 0.178438
Si Si3 0.221881 0.398978 0.689446
Si Si4 0.041240 0.562823 0.641814
Si Si5 0.026097 0.722025 0.214679
Si Si6 0.566287 0.181105 0.193727
Si Si7 0.928898 0.051013 0.652646
Si Si8 0.094823 0.866373 0.160803
O O1 0.218207 0.563759 0.183856
O O2 0.078227 0.546659 0.354475
O O3 0.102572 0.669624 0.248745
O O4 0.106804 0.590907 0.846561
O O5 0.217292 0.445086 0.433362
O O6 0.343393 0.488181 0.146062
O O7 0.203543 0.447566 0.934540
O O8 0.162878 0.334228 0.689364
O O9 0.309632 0.365797 0.719790
O O10 0.000000 0.500000 0.773827
O O11 0.968286 0.612198 0.595262
O O12 0.968491 0.731347 0.472566
O O13 0.065747 0.791770 0.161845
O O14 0.965239 0.701772 0.980362
O O15 0.948581 0.087831 0.378929
O O16 0.927110 0.106284 0.875843
O O17 0.000000 0.000000 0.714826
#
# Coordination Sequence:
#
# PCOD8171827 Si02
#       8
#     4   4   4   4   4   4   4   4
#     4  10  19  30  46  71 105 137 167 204 255 315
#     4  10  19  33  54  80 107 135 173 226 273 315
#     4  10  20  34  55  78 103 138 181 224 269 314
#     4  10  18  27  44  70 101 136 167 204 251 298
#     4  10  21  35  51  75 110 148 176 209 263 324
#     4  10  19  32  51  76 106 138 181 219 247 314
#     4  10  21  38  62  84 102 132 182 234 276 310
#     4  10  21  39  59  78 108 144 176 220 273 322
#
# _framework density 18.994033999999999
#
# number of rings (size 3 to 8) (size 9 to 14) (size 15 to 20)
#    0.000    2.000    0.000    4.500    0.000    2.000 
#    0.000    2.500    0.000    3.000    0.000    0.000 
#    0.000    0.000    0.000    0.000    0.000    0.000 
#
# Total GULP energy -396473.279882 kJ/mol
# GULP energy per Si atom -12389.789996 kJ/mol
# Density = 1.895080 g / cm^3
# Si number density = 18.994034 Si / 1000 Ang^3
#
#
#
# Elastic Constant Matrix: (Units=GPa)
#
#
# Indices 1 2 3 4 5 6 
#
# 1 81.3041 46.7680 15.1593 0.0000 0.0000 0.0000
# 2 46.7680 69.8369 -1.6236 0.0000 0.0000 0.0000
# 3 15.1593 -1.6236 93.8279 0.0000 0.0000 0.0000
# 4 0.0000 0.0000 0.0000 18.1937 0.0000 0.0000
# 5 0.0000 0.0000 0.0000 0.0000 19.7269 0.0000
# 6 0.0000 0.0000 0.0000 0.0000 0.0000 24.4778
#
#
#
# Elastic Compliance Matrix: (Units=1/GPa)
#
#
# Indices 1 2 3 4 5 6 
#
# 1 0.021200 -0.014282 -0.003672 0.000000 0.000000 0.000000
# 2 -0.014282 0.023947 0.002722 0.000000 0.000000 0.000000
# 3 -0.003672 0.002722 0.011298 0.000000 0.000000 0.000000
# 4 0.000000 0.000000 0.000000 0.054964 0.000000 0.000000
# 5 0.000000 0.000000 0.000000 0.000000 0.050692 0.000000
# 6 0.000000 0.000000 0.000000 0.000000 0.000000 0.040853
#
#
# Mechanical properties :
#
#
# Convention : Reuss Voigt Hill
#
# Bulk Modulus (GPa) = 38.49194 40.61959 39.55577
# Shear Modulus (GPa) = 20.65437 24.79069 22.72253
#
# Velocity S-wave (km/s) = 3.30117 3.61665 3.46251
# Velocity P-wave (km/s) = 5.90251 6.23475 6.07090
#
# Compressibility (1/GPa) = 0.02597946
#
# Stress axis : x y z
#
# Youngs Moduli (GPa) = 47.17048 41.75914 88.50945
#
# Poissons Ratio (x) = 0.59642 0.32503
# Poissons Ratio (y) = 0.67370 -0.24091
# Poissons Ratio (z) = 0.17322 -0.11366
#
# Static dielectric constant tensor:
#      x y z
#    x -183.241820 0.000000 0.000000 
#    y 0.000000 3.329650 0.000000 
#    z 0.000000 0.000000 3.772410 
# 
# 
# High freq. dielectric constant tensor:
#      x y z
#    x 1.722990 0.000000 0.000000 
#    y 0.000000 1.715420 0.000000 
#    z 0.000000 0.000000 1.761970 
# 
# From -- ./inp_files/1326.got.cif
#   From: 2010.03.12/outbox.cif.g09.slc.cpg/sg34_1_cif.got.tgz:1326.got - 2010.04.14 01:56:33.
