data_PCOD8171225
_publ_section_title
;
Structure prediction by ZEFSAII (Michael W. Deem and Ramdas Pophale) SiO2 
 PCOD8171225
Probable space group: P N A 21
;
_chemical_formula_sum "Si O2"
_cell_formula_units_Z 32
_cell_length_a 22.966658
_cell_length_b 5.078360
_cell_length_c 13.490529
_cell_angle_alpha 90.000000
_cell_angle_beta 90.000000
_cell_angle_gamma 90.000000
_cell_volume 1573.440293
_symmetry_space_group_name_H-M "P N A 21"
_symmetry_group_IT_number 33
_symmetry_cell_setting 'orthorhombic'
loop_
_space_group_symop_operation_xyz
x,y,z
-x,-y,1/2+z
1/2-x,1/2+y,1/2+z
1/2+x,1/2-y,z
loop_
_atom_site_type_symbol
_atom_site_label
_atom_site_fract_x
_atom_site_fract_y
_atom_site_fract_z
Si Si1 0.889402 0.218920 0.681690
Si Si2 0.546348 0.378227 0.315126
Si Si3 0.701368 0.511834 0.049212
Si Si4 0.277069 0.005544 0.662452
Si Si5 0.320381 0.447685 0.323507
Si Si6 0.491831 0.111006 0.924829
Si Si7 0.995007 0.450550 0.153432
Si Si8 0.399951 0.948356 0.301400
O O1 0.865895 0.059965 0.584907
O O2 0.842033 0.445754 0.708541
O O3 0.951874 0.345079 0.660329
O O4 0.894064 0.010082 0.773535
O O5 0.515441 0.595245 0.383224
O O6 0.553423 0.102844 0.376226
O O7 0.508112 0.313460 0.216761
O O8 0.722653 0.225468 0.081463
O O9 0.742232 0.730125 0.103266
O O10 0.706444 0.550427 0.932725
O O11 0.233859 0.943109 0.750340
O O12 0.360103 0.697502 0.309166
O O13 0.358482 0.196487 0.299804
O O14 0.557246 0.021964 0.896535
O O15 0.481991 0.126032 0.041247
O O16 0.937396 0.580435 0.200587
#
# Coordination Sequence:
#
# PCOD8171225 Si02
#       8
#     4   4   4   4   4   4   4   4
#     4  10  22  42  66  93 128 169 219 276 308 378
#     4  11  22  40  60  96 134 166 216 270 315 386
#     4  10  23  41  72  97 116 171 219 269 325 368
#     4  10  24  43  66  96 126 161 222 276 318 371
#     4  12  24  45  68  97 129 168 219 267 325 394
#     4  11  25  38  65  98 135 176 218 255 334 396
#     4  11  24  43  66  98 140 171 217 272 327 388
#     4  11  24  40  67  97 132 174 210 271 318 387
#
# _framework density 20.337599000000001
#
# number of rings (size 3 to 8) (size 9 to 14) (size 15 to 20)
#    0.750    0.500    2.500    4.500    5.250    0.000 
#    0.000    3.750    2.750    0.000    0.000    0.000 
#    0.000    0.000    0.000    0.000    0.000    0.000 
#
# Total GULP energy -396586.330180 kJ/mol
# GULP energy per Si atom -12393.322818 kJ/mol
# Density = 2.029131 g / cm^3
# Si number density = 20.337599 Si / 1000 Ang^3
#
#
#
# Elastic Constant Matrix: (Units=GPa)
#
#
# Indices 1 2 3 4 5 6 
#
# 1 52.0884 14.6550 37.9673 0.0000 0.0000 0.0000
# 2 14.6550 121.5924 34.0655 0.0000 0.0000 0.0000
# 3 37.9673 34.0655 160.4617 0.0000 0.0000 0.0000
# 4 0.0000 0.0000 0.0000 20.6501 0.0000 0.0000
# 5 0.0000 0.0000 0.0000 0.0000 20.6395 0.0000
# 6 0.0000 0.0000 0.0000 0.0000 0.0000 17.5133
#
#
#
# Elastic Compliance Matrix: (Units=1/GPa)
#
#
# Indices 1 2 3 4 5 6 
#
# 1 0.023406 -0.001350 -0.005252 0.000000 0.000000 0.000000
# 2 -0.001350 0.008822 -0.001554 0.000000 0.000000 0.000000
# 3 -0.005252 -0.001554 0.007804 0.000000 0.000000 0.000000
# 4 0.000000 0.000000 0.000000 0.048426 0.000000 0.000000
# 5 0.000000 0.000000 0.000000 0.000000 0.048451 0.000000
# 6 0.000000 0.000000 0.000000 0.000000 0.000000 0.057099
#
#
# Mechanical properties :
#
#
# Convention : Reuss Voigt Hill
#
# Bulk Modulus (GPa) = 42.15382 56.39088 49.27235
# Shear Modulus (GPa) = 22.91210 28.25759 25.58484
#
# Velocity S-wave (km/s) = 3.36011 3.73154 3.55069
# Velocity P-wave (km/s) = 5.98547 6.80834 6.41012
#
# Compressibility (1/GPa) = 0.02372264
#
# Stress axis : x y z
#
# Youngs Moduli (GPa) = 42.72459 113.35148 128.13266
#
# Poissons Ratio (x) = 0.15299 0.67290
# Poissons Ratio (y) = 0.05767 0.19906
# Poissons Ratio (z) = 0.22437 0.17610
#
# Static dielectric constant tensor:
#      x y z
#    x 3.521900 0.000000 0.000000 
#    y 0.000000 3.880280 0.000000 
#    z 0.000000 0.000000 3.719580 
# 
# 
# High freq. dielectric constant tensor:
#      x y z
#    x 1.765380 0.000000 0.000000 
#    y 0.000000 1.818970 0.000000 
#    z 0.000000 0.000000 1.789990 
# 
# From -- ./inp_files/8311.got.cif
#   From: 2010.03.12/outbox.cif.g09.slc.cpg/sg33_5_cif.got.tgz:8311.got - 2010.04.14 01:49:19.
