data_PCOD8171367
_publ_section_title
;
Structure prediction by ZEFSAII (Michael W. Deem and Ramdas Pophale) SiO2 
 PCOD8171367
Probable space group: P N A 21
;
_chemical_formula_sum "Si O2"
_cell_formula_units_Z 24
_cell_length_a 14.198629
_cell_length_b 6.900030
_cell_length_c 11.531901
_cell_angle_alpha 90.000000
_cell_angle_beta 90.000000
_cell_angle_gamma 90.000000
_cell_volume 1129.791481
_symmetry_space_group_name_H-M "P N A 21"
_symmetry_group_IT_number 33
_symmetry_cell_setting 'orthorhombic'
loop_
_space_group_symop_operation_xyz
x,y,z
-x,-y,1/2+z
1/2-x,1/2+y,1/2+z
1/2+x,1/2-y,z
loop_
_atom_site_type_symbol
_atom_site_label
_atom_site_fract_x
_atom_site_fract_y
_atom_site_fract_z
Si Si1 0.400439 0.812909 0.119900
Si Si2 0.368675 0.535951 0.722418
Si Si3 0.222058 0.036016 0.465863
Si Si4 0.699720 0.778779 0.640999
Si Si5 0.924183 0.022119 0.293250
Si Si6 0.097749 0.760770 0.022326
O O1 0.410902 0.697570 0.243939
O O2 0.499733 0.842015 0.054780
O O3 0.355138 0.019595 0.142778
O O4 0.335293 0.704390 0.028285
O O5 0.307670 0.495406 0.835786
O O6 0.312317 0.707515 0.659384
O O7 0.475113 0.600258 0.747551
O O8 0.361147 0.347111 0.641275
O O9 0.332278 0.096068 0.472552
O O10 0.192186 0.830940 0.520078
O O11 0.659012 0.651434 0.744229
O O12 0.919047 0.057276 0.432196
#
# Coordination Sequence:
#
# PCOD8171367 Si02
#       6
#     4   4   4   4   4   4
#     4  10  23  45  65  98 136 176 225 278 343 402
#     4  11  23  43  67  99 132 178 224 276 341 401
#     4  11  23  44  64  98 136 173 225 283 334 407
#     4  11  24  43  67  97 133 178 228 272 344 402
#     4  10  23  43  68  93 138 170 226 285 330 411
#     4  11  22  44  71  99 135 181 224 282 344 401
#
# _framework density 21.242857999999998
#
# number of rings (size 3 to 8) (size 9 to 14) (size 15 to 20)
#    0.000    1.333    5.000    0.000    2.333    1.333 
#    9.000    0.000    0.000    0.000    0.000    0.000 
#    0.000    0.000    0.000    0.000    0.000    0.000 
#
# Total GULP energy -297432.873928 kJ/mol
# GULP energy per Si atom -12393.036414 kJ/mol
# Density = 2.119451 g / cm^3
# Si number density = 21.242858 Si / 1000 Ang^3
#
#
#
# Elastic Constant Matrix: (Units=GPa)
#
#
# Indices 1 2 3 4 5 6 
#
# 1 103.8475 21.4452 -4.6739 0.0000 0.0000 0.0000
# 2 21.4452 81.2313 12.3428 0.0000 0.0000 0.0000
# 3 -4.6739 12.3428 79.5450 0.0000 0.0000 0.0000
# 4 0.0000 0.0000 0.0000 -0.1026 0.0000 0.0000
# 5 0.0000 0.0000 0.0000 0.0000 31.5113 0.0000
# 6 0.0000 0.0000 0.0000 0.0000 0.0000 29.0791
#
#
#
# Elastic Compliance Matrix: (Units=1/GPa)
#
#
# Indices 1 2 3 4 5 6 
#
# 1 0.010269 -0.002871 0.001049 0.000000 0.000000 0.000000
# 2 -0.002871 0.013410 -0.002249 0.000000 0.000000 0.000000
# 3 0.001049 -0.002249 0.012982 0.000000 0.000000 0.000000
# 4 0.000000 0.000000 0.000000 -9.744313 0.000000 0.000000
# 5 0.000000 0.000000 0.000000 0.000000 0.031735 0.000000
# 6 0.000000 0.000000 0.000000 0.000000 0.000000 0.034389
#
#
# Mechanical properties :
#
#
# Convention : Reuss Voigt Hill
#
# Bulk Modulus (GPa) = 35.06378 35.87243 35.46810
# Shear Modulus (GPa) = -0.51954 27.79821 13.63934
#
# Velocity S-wave (km/s) = -0.49508 3.62137 2.53665
# Velocity P-wave (km/s) = 4.02681 5.86594 5.03112
#
# Compressibility (1/GPa) = 0.02851946
#
# Stress axis : x y z
#
# Youngs Moduli (GPa) = 97.37583 74.57043 77.02870
#
# Poissons Ratio (x) = 0.21406 -0.08079
# Poissons Ratio (y) = 0.27952 0.17327
# Poissons Ratio (z) = -0.10213 0.16774
#
# Static dielectric constant tensor:
#      x y z
#    x 4.265340 0.000000 0.000000 
#    y 0.000000 3.642250 0.000000 
#    z 0.000000 0.000000 4.021490 
# 
# 
# High freq. dielectric constant tensor:
#      x y z
#    x 1.855400 0.000000 0.000000 
#    y 0.000000 1.807820 0.000000 
#    z 0.000000 0.000000 1.842370 
# 
# From -- ./inp_files/6617.got.cif
#   From: 2010.03.12/outbox.cif.g09.slc.cpg/sg33_4_cif.got.tgz:6617.got - 2010.04.14 01:49:19.
