data_PCOD8171967
_publ_section_title
;
Structure prediction by ZEFSAII (Michael W. Deem and Ramdas Pophale) SiO2 
 PCOD8171967
Probable space group: P N N 2
;
_chemical_formula_sum "Si O2"
_cell_formula_units_Z 32
_cell_length_a 14.828836
_cell_length_b 9.236074
_cell_length_c 10.718128
_cell_angle_alpha 90.000000
_cell_angle_beta 90.000000
_cell_angle_gamma 90.000000
_cell_volume 1467.957240
_symmetry_space_group_name_H-M "P N N 2"
_symmetry_group_IT_number 34
_symmetry_cell_setting 'orthorhombic'
loop_
_space_group_symop_operation_xyz
x,y,z
-x,-y,z
1/2-x,1/2+y,1/2+z
1/2+x,1/2-y,1/2+z
loop_
_atom_site_type_symbol
_atom_site_label
_atom_site_fract_x
_atom_site_fract_y
_atom_site_fract_z
Si Si1 0.697711 0.857931 0.720420
Si Si2 0.060848 0.780049 0.747065
Si Si3 0.912245 0.579574 0.354195
Si Si4 0.593378 0.916335 0.483374
Si Si5 0.099262 0.509523 0.634736
Si Si6 0.107360 0.087627 0.654690
Si Si7 0.760819 0.573445 0.827362
Si Si8 0.583281 0.410763 0.867629
O O1 0.622707 0.836174 0.611925
O O2 0.790044 0.869993 0.646538
O O3 0.710091 0.730519 0.824757
O O4 0.675664 0.006615 0.793506
O O5 0.112860 0.684369 0.640582
O O6 0.952324 0.785573 0.720206
O O7 0.097313 0.942437 0.736649
O O8 0.082320 0.710788 0.881635
O O9 0.906314 0.561971 0.501552
O O10 0.923133 0.746430 0.321291
O O11 0.000000 0.500000 0.300394
O O12 0.500000 0.000000 0.506364
O O13 0.671281 0.033810 0.441868
O O14 0.180860 0.430142 0.701838
O O15 0.000000 0.500000 0.704656
O O16 0.072748 0.066958 0.515120
O O17 0.680397 0.459438 0.819705
O O18 0.500000 0.500000 0.806137
#
# Coordination Sequence:
#
# PCOD8171967 Si02
#       8
#     4   4   4   4   4   4   4   4
#     4  12  25  41  68  98 142 181 229 277 354 410
#     4  10  21  39  67 101 130 176 232 285 332 406
#     4  11  25  42  67  97 134 179 226 277 334 414
#     4  11  24  44  71  98 145 181 230 285 352 410
#     4  10  21  38  69  96 133 170 233 274 333 399
#     4  11  22  38  69  99 134 175 228 283 341 402
#     4  11  24  42  69 101 136 181 226 284 342 405
#     4  12  24  43  68  98 136 174 223 286 340 402
#
# _framework density 21.798998999999998
#
# number of rings (size 3 to 8) (size 9 to 14) (size 15 to 20)
#    0.000    1.000    2.500    6.375    5.250    0.000 
#    0.000    0.000   16.500    0.000    0.000    0.000 
#    0.000    0.000    0.000    0.000    0.000    0.000 
#
# Total GULP energy -396544.746678 kJ/mol
# GULP energy per Si atom -12392.023334 kJ/mol
# Density = 2.174938 g / cm^3
# Si number density = 21.798999 Si / 1000 Ang^3
#
#
#
# Elastic Constant Matrix: (Units=GPa)
#
#
# Indices 1 2 3 4 5 6 
#
# 1 134.1376 50.4896 29.3016 0.0000 0.0000 0.0000
# 2 50.4896 141.1725 26.8028 0.0000 0.0000 0.0000
# 3 29.3016 26.8028 55.0104 0.0000 0.0000 0.0000
# 4 0.0000 0.0000 0.0000 20.8352 0.0000 0.0000
# 5 0.0000 0.0000 0.0000 0.0000 32.2220 0.0000
# 6 0.0000 0.0000 0.0000 0.0000 0.0000 39.8604
#
#
#
# Elastic Compliance Matrix: (Units=1/GPa)
#
#
# Indices 1 2 3 4 5 6 
#
# 1 0.009234 -0.002610 -0.003647 0.000000 0.000000 0.000000
# 2 -0.002610 0.008543 -0.002772 0.000000 0.000000 0.000000
# 3 -0.003647 -0.002772 0.021472 0.000000 0.000000 0.000000
# 4 0.000000 0.000000 0.000000 0.047996 0.000000 0.000000
# 5 0.000000 0.000000 0.000000 0.000000 0.031035 0.000000
# 6 0.000000 0.000000 0.000000 0.000000 0.000000 0.025088
#
#
# Mechanical properties :
#
#
# Convention : Reuss Voigt Hill
#
# Bulk Modulus (GPa) = 47.19086 60.38984 53.79035
# Shear Modulus (GPa) = 29.67549 33.49862 31.58706
#
# Velocity S-wave (km/s) = 3.69361 3.92434 3.81072
# Velocity P-wave (km/s) = 6.31550 6.94961 6.64013
#
# Compressibility (1/GPa) = 0.02119055
#
# Stress axis : x y z
#
# Youngs Moduli (GPa) = 108.29377 117.04965 46.57304
#
# Poissons Ratio (x) = 0.30552 0.16985
# Poissons Ratio (y) = 0.28266 0.12911
# Poissons Ratio (z) = 0.39493 0.32449
#
# Static dielectric constant tensor:
#      x y z
#    x 4.240300 0.000000 0.000000 
#    y 0.000000 4.193510 0.000000 
#    z 0.000000 0.000000 3.620840 
# 
# 
# High freq. dielectric constant tensor:
#      x y z
#    x 1.873170 0.000000 0.000000 
#    y 0.000000 1.867250 0.000000 
#    z 0.000000 0.000000 1.828960 
# 
# From -- ./inp_files/5695.got.cif
#   From: 2010.03.12/outbox.cif.g09.slc.cpg/sg34_3_cif.got.tgz:5695.got - 2010.04.14 01:56:33.
