data_PCOD8171720
_publ_section_title
;
Structure prediction by ZEFSAII (Michael W. Deem and Ramdas Pophale) SiO2 
 PCOD8171720
Probable space group: P N A 21
;
_chemical_formula_sum "Si O2"
_cell_formula_units_Z 20
_cell_length_a 9.112198
_cell_length_b 11.302155
_cell_length_c 7.818063
_cell_angle_alpha 90.000000
_cell_angle_beta 90.000000
_cell_angle_gamma 90.000000
_cell_volume 805.162561
_symmetry_space_group_name_H-M "P N A 21"
_symmetry_group_IT_number 33
_symmetry_cell_setting 'orthorhombic'
loop_
_space_group_symop_operation_xyz
x,y,z
-x,-y,1/2+z
1/2-x,1/2+y,1/2+z
1/2+x,1/2-y,z
loop_
_atom_site_type_symbol
_atom_site_label
_atom_site_fract_x
_atom_site_fract_y
_atom_site_fract_z
Si Si1 0.326732 0.468302 0.512090
Si Si2 0.702677 0.905257 0.192606
Si Si3 0.304634 0.838191 0.575619
Si Si4 0.108587 0.299118 0.697186
Si Si5 0.501260 0.654870 0.723683
O O1 0.240838 0.555676 0.384824
O O2 0.198414 0.404315 0.613824
O O3 0.420102 0.539759 0.650482
O O4 0.432394 0.377275 0.409406
O O5 0.840100 0.828203 0.118906
O O6 0.564163 0.817680 0.178795
O O7 0.669890 0.020692 0.080003
O O8 0.354811 0.787423 0.396756
O O9 0.394831 0.769839 0.727648
O O10 0.133834 0.810409 0.597966
#
# Coordination Sequence:
#
# PCOD8171720 Si02
#       5
#     4   4   4   4   4
#     4  11  26  47  76 110 149 198 261 302 381 442
#     4  11  27  46  71 111 144 198 256 305 379 450
#     4  11  25  46  74 104 151 195 252 305 385 443
#     4  12  25  46  75 101 155 196 247 315 371 453
#     4  11  25  47  72 108 149 199 248 317 366 456
#
# _framework density 24.839704000000001
#
# number of rings (size 3 to 8) (size 9 to 14) (size 15 to 20)
#    0.000    0.800    2.000    3.600    8.400    4.800 
#    3.600    0.000    0.000    0.000    0.000    0.000 
#    0.000    0.000    0.000    0.000    0.000    0.000 
#
# Total GULP energy -248009.431419 kJ/mol
# GULP energy per Si atom -12400.471571 kJ/mol
# Density = 2.478317 g / cm^3
# Si number density = 24.839704 Si / 1000 Ang^3
#
#
#
# Elastic Constant Matrix: (Units=GPa)
#
#
# Indices 1 2 3 4 5 6 
#
# 1 119.5605 55.2697 17.9012 0.0000 0.0000 0.0000
# 2 55.2697 147.7754 4.2899 0.0000 0.0000 0.0000
# 3 17.9012 4.2899 38.7345 0.0000 0.0000 0.0000
# 4 0.0000 0.0000 0.0000 35.9225 0.0000 0.0000
# 5 0.0000 0.0000 0.0000 0.0000 31.7146 0.0000
# 6 0.0000 0.0000 0.0000 0.0000 0.0000 51.9375
#
#
#
# Elastic Compliance Matrix: (Units=1/GPa)
#
#
# Indices 1 2 3 4 5 6 
#
# 1 0.010868 -0.003932 -0.004587 0.000000 0.000000 0.000000
# 2 -0.003932 0.008211 0.000908 0.000000 0.000000 0.000000
# 3 -0.004587 0.000908 0.027836 0.000000 0.000000 0.000000
# 4 0.000000 0.000000 0.000000 0.027838 0.000000 0.000000
# 5 0.000000 0.000000 0.000000 0.000000 0.031531 0.000000
# 6 0.000000 0.000000 0.000000 0.000000 0.000000 0.019254
#
#
# Mechanical properties :
#
#
# Convention : Reuss Voigt Hill
#
# Bulk Modulus (GPa) = 31.55277 51.22133 41.38705
# Shear Modulus (GPa) = 33.04129 39.15557 36.09843
#
# Velocity S-wave (km/s) = 3.65112 3.97461 3.81629
# Velocity P-wave (km/s) = 5.52308 6.45979 6.00971
#
# Compressibility (1/GPa) = 0.03169294
#
# Stress axis : x y z
#
# Youngs Moduli (GPa) = 92.01040 121.78509 35.92434
#
# Poissons Ratio (x) = 0.47882 0.16480
# Poissons Ratio (y) = 0.36176 -0.03261
# Poissons Ratio (z) = 0.42209 -0.11054
#
# Static dielectric constant tensor:
#      x y z
#    x 4.638260 0.000000 0.000000 
#    y 0.000000 4.815460 0.000000 
#    z 0.000000 0.000000 4.242610 
# 
# 
# High freq. dielectric constant tensor:
#      x y z
#    x 2.006050 0.000000 0.000000 
#    y 0.000000 2.004380 0.000000 
#    z 0.000000 0.000000 1.977940 
# 
# From -- ./inp_files/2938.got.cif
#   From: 2010.03.12/outbox.cif.g09.slc.cpg/sg33_2_cif.got.tgz:2938.got - 2010.04.14 01:49:19.
