data_PCOD8171403
_publ_section_title
;
Structure prediction by ZEFSAII (Michael W. Deem and Ramdas Pophale) SiO2 
 PCOD8171403
Probable space group: P N A 21
;
_chemical_formula_sum "Si O2"
_cell_formula_units_Z 28
_cell_length_a 14.360994
_cell_length_b 15.525193
_cell_length_c 5.310730
_cell_angle_alpha 90.000000
_cell_angle_beta 90.000000
_cell_angle_gamma 90.000000
_cell_volume 1184.065509
_symmetry_space_group_name_H-M "P N A 21"
_symmetry_group_IT_number 33
_symmetry_cell_setting 'orthorhombic'
loop_
_space_group_symop_operation_xyz
x,y,z
-x,-y,1/2+z
1/2-x,1/2+y,1/2+z
1/2+x,1/2-y,z
loop_
_atom_site_type_symbol
_atom_site_label
_atom_site_fract_x
_atom_site_fract_y
_atom_site_fract_z
Si Si1 0.969633 0.958636 0.853490
Si Si2 0.955700 0.363640 0.041884
Si Si3 0.532320 0.720326 0.931892
Si Si4 0.833266 0.518894 0.012763
Si Si5 0.803086 0.278277 0.694398
Si Si6 0.117185 0.310118 0.716537
Si Si7 0.760959 0.952834 0.006495
O O1 0.871438 0.957960 0.993348
O O2 0.006736 0.863617 0.769723
O O3 0.965458 0.008670 0.586915
O O4 0.870234 0.317390 0.902828
O O5 0.059484 0.360413 0.929006
O O6 0.963768 0.313954 0.303149
O O7 0.928646 0.464064 0.050518
O O8 0.634663 0.706339 0.051848
O O9 0.448428 0.731168 0.131008
O O10 0.859434 0.619967 0.998744
O O11 0.773955 0.502700 0.262739
O O12 0.775310 0.496564 0.763095
O O13 0.713328 0.231943 0.818749
O O14 0.770048 0.352892 0.501388
#
# Coordination Sequence:
#
# PCOD8171403 Si02
#       7
#     4   4   4   4   4   4   4
#     4  12  29  47  73 106 151 191 250 304 362 434
#     4  10  25  43  73 102 148 185 242 306 359 429
#     4  11  25  46  70 104 139 191 239 300 364 432
#     4  11  26  45  74 107 148 188 243 302 365 433
#     4  10  23  46  67 101 140 189 240 292 357 438
#     4  11  26  42  74 104 141 190 241 294 368 434
#     4  11  24  49  69 104 147 194 239 298 367 420
#
# _framework density 23.647342999999999
#
# number of rings (size 3 to 8) (size 9 to 14) (size 15 to 20)
#    0.000    1.143    2.857    0.857   12.000    3.429 
#    0.000    0.000    0.000    0.000    0.000    0.000 
#    0.000    0.000    0.000    0.000    0.000    0.000 
#
# Total GULP energy -346968.221340 kJ/mol
# GULP energy per Si atom -12391.722191 kJ/mol
# Density = 2.359352 g / cm^3
# Si number density = 23.647343 Si / 1000 Ang^3
#
#
#
# Elastic Constant Matrix: (Units=GPa)
#
#
# Indices 1 2 3 4 5 6 
#
# 1 152.2912 30.1592 20.4675 0.0000 0.0000 0.0000
# 2 30.1592 75.7991 1.9757 0.0000 0.0000 0.0000
# 3 20.4675 1.9757 90.5180 0.0000 0.0000 0.0000
# 4 0.0000 0.0000 0.0000 21.8645 0.0000 0.0000
# 5 0.0000 0.0000 0.0000 0.0000 30.7744 0.0000
# 6 0.0000 0.0000 0.0000 0.0000 0.0000 30.5199
#
#
#
# Elastic Compliance Matrix: (Units=1/GPa)
#
#
# Indices 1 2 3 4 5 6 
#
# 1 0.007352 -0.002884 -0.001600 0.000000 0.000000 0.000000
# 2 -0.002884 0.014331 0.000339 0.000000 0.000000 0.000000
# 3 -0.001600 0.000339 0.011402 0.000000 0.000000 0.000000
# 4 0.000000 0.000000 0.000000 0.045736 0.000000 0.000000
# 5 0.000000 0.000000 0.000000 0.000000 0.032495 0.000000
# 6 0.000000 0.000000 0.000000 0.000000 0.000000 0.032765
#
#
# Mechanical properties :
#
#
# Convention : Reuss Voigt Hill
#
# Bulk Modulus (GPa) = 40.32666 47.09036 43.70851
# Shear Modulus (GPa) = 31.12631 34.36547 32.74589
#
# Velocity S-wave (km/s) = 3.63198 3.81629 3.72527
# Velocity P-wave (km/s) = 5.88887 6.27499 6.08499
#
# Compressibility (1/GPa) = 0.02479749
#
# Stress axis : x y z
#
# Youngs Moduli (GPa) = 136.00949 69.77725 87.70539
#
# Poissons Ratio (x) = 0.20122 0.14029
# Poissons Ratio (y) = 0.39221 -0.02975
# Poissons Ratio (z) = 0.21755 -0.02367
#
# Static dielectric constant tensor:
#      x y z
#    x 4.667880 0.000000 0.000000 
#    y 0.000000 4.311120 0.000000 
#    z 0.000000 0.000000 3.955130 
# 
# 
# High freq. dielectric constant tensor:
#      x y z
#    x 1.957280 0.000000 0.000000 
#    y 0.000000 1.936450 0.000000 
#    z 0.000000 0.000000 1.916570 
# 
# From -- ./inp_files/1406.got.cif
#   From: 2010.03.12/outbox.cif.g09.slc.cpg/sg33_1_cif.got.tgz:1406.got - 2010.04.14 01:49:19.
