data_PCOD8171173
_publ_section_title
;
Structure prediction by ZEFSAII (Michael W. Deem and Ramdas Pophale) SiO2 
 PCOD8171173
Probable space group: P N A 21
;
_chemical_formula_sum "Si O2"
_cell_formula_units_Z 32
_cell_length_a 26.345253
_cell_length_b 6.347401
_cell_length_c 8.640488
_cell_angle_alpha 90.000000
_cell_angle_beta 90.000000
_cell_angle_gamma 90.000000
_cell_volume 1444.895974
_symmetry_space_group_name_H-M "P N A 21"
_symmetry_group_IT_number 33
_symmetry_cell_setting 'orthorhombic'
loop_
_space_group_symop_operation_xyz
x,y,z
-x,-y,1/2+z
1/2-x,1/2+y,1/2+z
1/2+x,1/2-y,z
loop_
_atom_site_type_symbol
_atom_site_label
_atom_site_fract_x
_atom_site_fract_y
_atom_site_fract_z
Si Si1 0.673595 0.613528 0.172680
Si Si2 0.454937 0.151938 0.333823
Si Si3 0.223322 0.500575 0.291431
Si Si4 0.627804 0.121004 0.682651
Si Si5 0.446714 0.870510 0.627496
Si Si6 0.228826 0.642255 0.620791
Si Si7 0.103414 0.044408 0.917983
Si Si8 0.633112 0.264911 0.355922
O O1 0.727418 0.500294 0.191109
O O2 0.635508 0.511162 0.302090
O O3 0.685632 0.860271 0.185451
O O4 0.646607 0.583550 0.008809
O O5 0.509456 0.161389 0.253681
O O6 0.430720 0.382693 0.322259
O O7 0.422156 0.002720 0.226865
O O8 0.456000 0.071066 0.513951
O O9 0.240128 0.648382 0.435476
O O10 0.267473 0.383273 0.189949
O O11 0.190841 0.313148 0.364830
O O12 0.636931 0.297856 0.812754
O O13 0.611351 0.244304 0.527346
O O14 0.674868 0.960451 0.665641
O O15 0.438257 0.665168 0.521988
O O16 0.396352 0.886311 0.733899
#
# Coordination Sequence:
#
# PCOD8171173 Si02
#       8
#     4   4   4   4   4   4   4   4
#     4  10  22  40  63  87 128 170 215 274 324 390
#     4  11  23  40  66  96 131 174 219 278 337 398
#     4  10  22  41  63  92 124 174 222 266 333 391
#     4  10  23  41  65  97 132 169 224 276 331 407
#     4  10  22  41  64  95 129 170 218 272 335 399
#     4  10  24  39  63  94 127 174 219 275 331 404
#     4  10  24  42  65  97 128 175 220 276 334 401
#     4   9  20  42  61  90 127 168 213 267 327 390
#
# _framework density 22.146922
#
# number of rings (size 3 to 8) (size 9 to 14) (size 15 to 20)
#    0.000    2.000    0.000    1.500    3.500    9.000 
#    0.000    3.750    0.000    0.000    0.000    0.000 
#    0.000    0.000    0.000    0.000    0.000    0.000 
#
# Total GULP energy -396471.505749 kJ/mol
# GULP energy per Si atom -12389.734555 kJ/mol
# Density = 2.209651 g / cm^3
# Si number density = 22.146922 Si / 1000 Ang^3
#
#
#
# Elastic Constant Matrix: (Units=GPa)
#
#
# Indices 1 2 3 4 5 6 
#
# 1 65.4843 24.7718 43.5157 0.0000 0.0000 0.0000
# 2 24.7718 104.2387 55.9409 0.0000 0.0000 0.0000
# 3 43.5157 55.9409 132.7230 0.0000 0.0000 0.0000
# 4 0.0000 0.0000 0.0000 22.2527 0.0000 0.0000
# 5 0.0000 0.0000 0.0000 0.0000 35.5195 0.0000
# 6 0.0000 0.0000 0.0000 0.0000 0.0000 29.6849
#
#
#
# Elastic Compliance Matrix: (Units=1/GPa)
#
#
# Indices 1 2 3 4 5 6 
#
# 1 0.019722 -0.001572 -0.005804 0.000000 0.000000 0.000000
# 2 -0.001572 0.012523 -0.004763 0.000000 0.000000 0.000000
# 3 -0.005804 -0.004763 0.011445 0.000000 0.000000 0.000000
# 4 0.000000 0.000000 0.000000 0.044938 0.000000 0.000000
# 5 0.000000 0.000000 0.000000 0.000000 0.028154 0.000000
# 6 0.000000 0.000000 0.000000 0.000000 0.000000 0.033687
#
#
# Mechanical properties :
#
#
# Convention : Reuss Voigt Hill
#
# Bulk Modulus (GPa) = 51.51284 61.21143 56.36214
# Shear Modulus (GPa) = 27.59118 29.37259 28.48189
#
# Velocity S-wave (km/s) = 3.53345 3.64574 3.59003
# Velocity P-wave (km/s) = 6.32117 6.73949 6.53367
#
# Compressibility (1/GPa) = 0.01941264
#
# Stress axis : x y z
#
# Youngs Moduli (GPa) = 50.70414 79.85300 87.37639
#
# Poissons Ratio (x) = 0.12556 0.50710
# Poissons Ratio (y) = 0.07972 0.41615
# Poissons Ratio (z) = 0.29427 0.38032
#
# Static dielectric constant tensor:
#      x y z
#    x 3.831080 0.000000 0.000000 
#    y 0.000000 4.017800 0.000000 
#    z 0.000000 0.000000 4.169240 
# 
# 
# High freq. dielectric constant tensor:
#      x y z
#    x 1.863220 0.000000 0.000000 
#    y 0.000000 1.865500 0.000000 
#    z 0.000000 0.000000 1.878360 
# 
# From -- ./inp_files/5302.got.cif
#   From: 2010.03.12/outbox.cif.g09.slc.cpg/sg33_3_cif.got.tgz:5302.got - 2010.04.14 01:49:19.
