data_PCOD8171414
_publ_section_title
;
Structure prediction by ZEFSAII (Michael W. Deem and Ramdas Pophale) SiO2 
 PCOD8171414
Probable space group: P N A 21
;
_chemical_formula_sum "Si O2"
_cell_formula_units_Z 28
_cell_length_a 10.322446
_cell_length_b 6.440328
_cell_length_c 19.481785
_cell_angle_alpha 90.000000
_cell_angle_beta 90.000000
_cell_angle_gamma 90.000000
_cell_volume 1295.147859
_symmetry_space_group_name_H-M "P N A 21"
_symmetry_group_IT_number 33
_symmetry_cell_setting 'orthorhombic'
loop_
_space_group_symop_operation_xyz
x,y,z
-x,-y,1/2+z
1/2-x,1/2+y,1/2+z
1/2+x,1/2-y,z
loop_
_atom_site_type_symbol
_atom_site_label
_atom_site_fract_x
_atom_site_fract_y
_atom_site_fract_z
Si Si1 0.690622 0.716826 0.674180
Si Si2 0.178962 0.836201 0.956785
Si Si3 0.829754 0.911660 0.057512
Si Si4 0.030447 0.475938 0.605141
Si Si5 0.482176 0.716320 0.491231
Si Si6 0.553263 0.137476 0.236512
Si Si7 0.545555 0.073938 0.392667
O O1 0.707415 0.503801 0.631377
O O2 0.669314 0.910419 0.621740
O O3 0.563897 0.699494 0.723658
O O4 0.812402 0.758158 0.723429
O O5 0.315868 0.840846 0.917324
O O6 0.065290 0.741385 0.910368
O O7 0.201392 0.690882 0.024047
O O8 0.141934 0.070254 0.978464
O O9 0.942720 0.738759 0.066970
O O10 0.890198 0.080999 0.006620
O O11 0.949091 0.631909 0.555329
O O12 0.956398 0.453881 0.678316
O O13 0.512512 0.850509 0.423955
O O14 0.549043 0.038694 0.311318
#
# Coordination Sequence:
#
# PCOD8171414 Si02
#       7
#     4   4   4   4   4   4   4
#     4   9  23  41  73  97 142 178 232 287 356 417
#     4  12  26  43  74 104 143 189 240 303 356 432
#     4  11  23  43  70 110 133 184 235 304 351 419
#     4   9  22  42  66 101 136 176 233 295 348 412
#     4  11  24  43  70 102 141 184 240 297 351 415
#     4  10  23  47  66 100 142 185 226 288 352 433
#     4  12  27  47  69 104 149 188 240 288 366 434
#
# _framework density 21.619154000000002
#
# number of rings (size 3 to 8) (size 9 to 14) (size 15 to 20)
#    0.857    0.571    2.857    0.857    8.000    0.000 
#    5.143    0.000    0.000    0.000    0.000    0.000 
#    0.000    0.000    0.000    0.000    0.000    0.000 
#
# Total GULP energy -347062.291272 kJ/mol
# GULP energy per Si atom -12395.081831 kJ/mol
# Density = 2.156995 g / cm^3
# Si number density = 21.619154 Si / 1000 Ang^3
#
#
#
# Elastic Constant Matrix: (Units=GPa)
#
#
# Indices 1 2 3 4 5 6 
#
# 1 142.5814 34.8245 51.8264 0.0000 0.0000 0.0000
# 2 34.8245 99.0801 57.2617 0.0000 0.0000 0.0000
# 3 51.8264 57.2617 158.2137 0.0000 0.0000 0.0000
# 4 0.0000 0.0000 0.0000 25.3323 0.0000 0.0000
# 5 0.0000 0.0000 0.0000 0.0000 19.9668 0.0000
# 6 0.0000 0.0000 0.0000 0.0000 0.0000 32.9653
#
#
#
# Elastic Compliance Matrix: (Units=1/GPa)
#
#
# Indices 1 2 3 4 5 6 
#
# 1 0.008176 -0.001677 -0.002071 0.000000 0.000000 0.000000
# 2 -0.001677 0.013106 -0.004194 0.000000 0.000000 0.000000
# 3 -0.002071 -0.004194 0.008517 0.000000 0.000000 0.000000
# 4 0.000000 0.000000 0.000000 0.039475 0.000000 0.000000
# 5 0.000000 0.000000 0.000000 0.000000 0.050083 0.000000
# 6 0.000000 0.000000 0.000000 0.000000 0.000000 0.030335
#
#
# Mechanical properties :
#
#
# Convention : Reuss Voigt Hill
#
# Bulk Modulus (GPa) = 71.86621 76.41115 74.13868
# Shear Modulus (GPa) = 29.37455 32.71703 31.04579
#
# Velocity S-wave (km/s) = 3.69009 3.89438 3.79361
# Velocity P-wave (km/s) = 7.17424 7.45939 7.31821
#
# Compressibility (1/GPa) = 0.01391475
#
# Stress axis : x y z
#
# Youngs Moduli (GPa) = 122.30982 76.30029 117.41048
#
# Poissons Ratio (x) = 0.12792 0.24321
# Poissons Ratio (y) = 0.20506 0.49245
# Poissons Ratio (z) = 0.25336 0.32002
#
# Static dielectric constant tensor:
#      x y z
#    x 3.906080 0.000000 0.000000 
#    y 0.000000 3.772230 0.000000 
#    z 0.000000 0.000000 3.812050 
# 
# 
# High freq. dielectric constant tensor:
#      x y z
#    x 1.864530 0.000000 0.000000 
#    y 0.000000 1.828820 0.000000 
#    z 0.000000 0.000000 1.838940 
# 
# From -- ./inp_files/9025.got.cif
#   From: 2010.03.12/outbox.cif.g09.slc.cpg/sg33_5_cif.got.tgz:9025.got - 2010.04.14 01:49:19.
