data_PCOD8171363
_publ_section_title
;
Structure prediction by ZEFSAII (Michael W. Deem and Ramdas Pophale) SiO2 
 PCOD8171363
Probable space group: P N A 21
;
_chemical_formula_sum "Si O2"
_cell_formula_units_Z 32
_cell_length_a 12.146107
_cell_length_b 9.780757
_cell_length_c 13.123628
_cell_angle_alpha 90.000000
_cell_angle_beta 90.000000
_cell_angle_gamma 90.000000
_cell_volume 1559.062348
_symmetry_space_group_name_H-M "P N A 21"
_symmetry_group_IT_number 33
_symmetry_cell_setting 'orthorhombic'
loop_
_space_group_symop_operation_xyz
x,y,z
-x,-y,1/2+z
1/2-x,1/2+y,1/2+z
1/2+x,1/2-y,z
loop_
_atom_site_type_symbol
_atom_site_label
_atom_site_fract_x
_atom_site_fract_y
_atom_site_fract_z
Si Si1 0.679205 0.314843 0.181430
Si Si2 0.649003 0.594505 0.674196
Si Si3 0.404626 0.484631 0.399214
Si Si4 0.280003 0.128282 0.551125
Si Si5 0.975837 0.533123 0.997827
Si Si6 0.248541 0.423370 0.578290
Si Si7 0.594209 0.289795 0.395718
Si Si8 0.017763 0.228060 0.017132
O O1 0.788644 0.232023 0.208336
O O2 0.701702 0.473369 0.159739
O O3 0.597403 0.316728 0.276120
O O4 0.626216 0.239154 0.083672
O O5 0.606512 0.526824 0.778052
O O6 0.726945 0.484376 0.622195
O O7 0.557702 0.638950 0.593028
O O8 0.292633 0.459380 0.463449
O O9 0.492743 0.375009 0.442094
O O10 0.451428 0.636866 0.419663
O O11 0.401479 0.077059 0.525138
O O12 0.286301 0.271859 0.612046
O O13 0.207090 0.161409 0.450201
O O14 0.932356 0.627885 0.905385
O O15 0.968262 0.370401 0.974775
O O16 0.884756 0.563966 0.085193
#
# Coordination Sequence:
#
# PCOD8171363 Si02
#       8
#     4   4   4   4   4   4   4   4
#     4  11  23  40  67  97 128 177 221 269 335 405
#     4  12  22  41  66  98 132 172 227 271 337 401
#     4  11  23  43  66  98 133 176 220 274 338 401
#     4  11  23  41  65  95 132 175 220 286 333 383
#     4  11  22  43  65  95 131 175 225 276 333 393
#     4  10  23  43  66  95 134 171 224 277 332 393
#     4  11  23  41  67  94 133 177 223 271 338 403
#     4  11  23  42  68  96 135 175 220 280 334 395
#
# _framework density 20.525158000000001
#
# number of rings (size 3 to 8) (size 9 to 14) (size 15 to 20)
#    0.000    1.000    6.250    1.500    0.000    0.000 
#    2.250    2.500    0.000    0.000    0.000    0.000 
#    0.000    0.000    0.000    0.000    0.000    0.000 
#
# Total GULP energy -396620.301153 kJ/mol
# GULP energy per Si atom -12394.384411 kJ/mol
# Density = 2.047844 g / cm^3
# Si number density = 20.525158 Si / 1000 Ang^3
#
#
#
# Elastic Constant Matrix: (Units=GPa)
#
#
# Indices 1 2 3 4 5 6 
#
# 1 110.9200 46.4594 41.9810 0.0000 0.0000 0.0000
# 2 46.4594 154.4364 59.1685 0.0000 0.0000 0.0000
# 3 41.9810 59.1685 94.4672 0.0000 0.0000 0.0000
# 4 0.0000 0.0000 0.0000 29.7920 0.0000 0.0000
# 5 0.0000 0.0000 0.0000 0.0000 20.5719 0.0000
# 6 0.0000 0.0000 0.0000 0.0000 0.0000 39.9526
#
#
#
# Elastic Compliance Matrix: (Units=1/GPa)
#
#
# Indices 1 2 3 4 5 6 
#
# 1 0.011261 -0.001935 -0.003793 0.000000 0.000000 0.000000
# 2 -0.001935 0.008852 -0.004685 0.000000 0.000000 0.000000
# 3 -0.003793 -0.004685 0.015205 0.000000 0.000000 0.000000
# 4 0.000000 0.000000 0.000000 0.033566 0.000000 0.000000
# 5 0.000000 0.000000 0.000000 0.000000 0.048610 0.000000
# 6 0.000000 0.000000 0.000000 0.000000 0.000000 0.025030
#
#
# Mechanical properties :
#
#
# Convention : Reuss Voigt Hill
#
# Bulk Modulus (GPa) = 68.99111 72.78237 70.88674
# Shear Modulus (GPa) = 29.73009 32.21094 30.97052
#
# Velocity S-wave (km/s) = 3.81001 3.96579 3.88868
# Velocity P-wave (km/s) = 7.28291 7.51711 7.40094
#
# Compressibility (1/GPa) = 0.01449462
#
# Stress axis : x y z
#
# Youngs Moduli (GPa) = 88.79943 112.96952 65.76655
#
# Poissons Ratio (x) = 0.21856 0.24944
# Poissons Ratio (y) = 0.17180 0.30809
# Poissons Ratio (z) = 0.33679 0.52921
#
# Static dielectric constant tensor:
#      x y z
#    x 3.953120 0.000000 0.000000 
#    y 0.000000 3.937570 0.000000 
#    z 0.000000 0.000000 3.332110 
# 
# 
# High freq. dielectric constant tensor:
#      x y z
#    x 1.820800 0.000000 0.000000 
#    y 0.000000 1.819050 0.000000 
#    z 0.000000 0.000000 1.768510 
# 
# From -- ./inp_files/8006.got.cif
#   From: 2010.03.12/outbox.cif.g09.slc.cpg/sg33_5_cif.got.tgz:8006.got - 2010.04.14 01:49:19.
