data_PCOD8171134
_publ_section_title
;
Structure prediction by ZEFSAII (Michael W. Deem and Ramdas Pophale) SiO2 
 PCOD8171134
Probable space group: P N A 21
;
_chemical_formula_sum "Si O2"
_cell_formula_units_Z 32
_cell_length_a 18.154142
_cell_length_b 16.446397
_cell_length_c 5.216334
_cell_angle_alpha 90.000000
_cell_angle_beta 90.000000
_cell_angle_gamma 90.000000
_cell_volume 1557.442024
_symmetry_space_group_name_H-M "P N A 21"
_symmetry_group_IT_number 33
_symmetry_cell_setting 'orthorhombic'
loop_
_space_group_symop_operation_xyz
x,y,z
-x,-y,1/2+z
1/2-x,1/2+y,1/2+z
1/2+x,1/2-y,z
loop_
_atom_site_type_symbol
_atom_site_label
_atom_site_fract_x
_atom_site_fract_y
_atom_site_fract_z
Si Si1 0.238521 0.398545 0.387650
Si Si2 0.202200 0.976866 0.398379
Si Si3 0.669925 0.736725 0.734150
Si Si4 0.829951 0.413071 0.357828
Si Si5 0.417901 0.290473 0.749623
Si Si6 0.041259 0.618332 0.220918
Si Si7 0.589546 0.032088 0.509778
Si Si8 0.536424 0.533259 0.278655
O O1 0.265109 0.418853 0.674503
O O2 0.251819 0.302051 0.329705
O O3 0.154123 0.427828 0.334072
O O4 0.292249 0.439951 0.182022
O O5 0.118406 0.997314 0.339087
O O6 0.246498 0.062019 0.417893
O O7 0.675599 0.833531 0.676177
O O8 0.645434 0.695915 0.464761
O O9 0.611419 0.718506 0.960112
O O10 0.877285 0.386133 0.600556
O O11 0.869509 0.494176 0.253305
O O12 0.464564 0.209665 0.833326
O O13 0.469944 0.368995 0.758244
O O14 0.040074 0.543667 0.416607
O O15 0.968238 0.605186 0.050552
O O16 0.483647 0.504508 0.505182
#
# Coordination Sequence:
#
# PCOD8171134 Si02
#       8
#     4   4   4   4   4   4   4   4
#     4  11  21  38  64  90 125 163 213 260 315 375
#     4  11  22  40  63  92 118 158 213 266 307 391
#     4  11  20  39  64  91 120 166 214 266 309 379
#     4  10  22  36  63  89 123 167 216 254 324 380
#     4  11  23  40  65  92 122 168 218 263 315 393
#     4  11  21  38  61  96 132 170 214 263 321 401
#     4  11  21  36  62  94 130 175 206 263 327 384
#     4  12  24  43  68  90 124 171 214 269 334 385
#
# _framework density 20.546513000000001
#
# number of rings (size 3 to 8) (size 9 to 14) (size 15 to 20)
#    0.000    1.000    6.250    1.500    0.000    0.000 
#    2.250    0.000    5.500    0.000    0.000    0.000 
#    0.000    0.000    0.000    0.000    0.000    0.000 
#
# Total GULP energy -396463.571520 kJ/mol
# GULP energy per Si atom -12389.486610 kJ/mol
# Density = 2.049975 g / cm^3
# Si number density = 20.546513 Si / 1000 Ang^3
#
#
#
# Elastic Constant Matrix: (Units=GPa)
#
#
# Indices 1 2 3 4 5 6 
#
# 1 92.1556 49.0539 6.5009 0.0000 0.0000 0.0000
# 2 49.0539 135.0047 20.2007 0.0000 0.0000 0.0000
# 3 6.5009 20.2007 80.5965 0.0000 0.0000 0.0000
# 4 0.0000 0.0000 0.0000 24.9734 0.0000 0.0000
# 5 0.0000 0.0000 0.0000 0.0000 30.9782 0.0000
# 6 0.0000 0.0000 0.0000 0.0000 0.0000 30.4179
#
#
#
# Elastic Compliance Matrix: (Units=1/GPa)
#
#
# Indices 1 2 3 4 5 6 
#
# 1 0.013455 -0.004911 0.000146 0.000000 0.000000 0.000000
# 2 -0.004911 0.009488 -0.001982 0.000000 0.000000 0.000000
# 3 0.000146 -0.001982 0.012893 0.000000 0.000000 0.000000
# 4 0.000000 0.000000 0.000000 0.040043 0.000000 0.000000
# 5 0.000000 0.000000 0.000000 0.000000 0.032281 0.000000
# 6 0.000000 0.000000 0.000000 0.000000 0.000000 0.032875
#
#
# Mechanical properties :
#
#
# Convention : Reuss Voigt Hill
#
# Bulk Modulus (GPa) = 44.76029 51.02977 47.89503
# Shear Modulus (GPa) = 30.86894 32.74066 31.80480
#
# Velocity S-wave (km/s) = 3.88028 3.99618 3.93866
# Velocity P-wave (km/s) = 6.47360 6.79579 6.63665
#
# Compressibility (1/GPa) = 0.02234123
#
# Stress axis : x y z
#
# Youngs Moduli (GPa) = 74.32275 105.39657 77.56437
#
# Poissons Ratio (x) = 0.51756 -0.01129
# Poissons Ratio (y) = 0.36497 0.15373
# Poissons Ratio (z) = -0.01082 0.20889
#
# Static dielectric constant tensor:
#      x y z
#    x 3.814230 0.000000 0.000000 
#    y 0.000000 4.206800 0.000000 
#    z 0.000000 0.000000 3.649330 
# 
# 
# High freq. dielectric constant tensor:
#      x y z
#    x 1.785030 0.000000 0.000000 
#    y 0.000000 1.809020 0.000000 
#    z 0.000000 0.000000 1.804570 
# 
# From -- ./inp_files/1825.got.cif
#   From: 2010.03.12/outbox.cif.g09.slc.cpg/sg33_1_cif.got.tgz:1825.got - 2010.04.14 01:49:19.
