data_PCOD8171782
_publ_section_title
;
Structure prediction by ZEFSAII (Michael W. Deem and Ramdas Pophale) SiO2 
 PCOD8171782
Probable space group: P N A 21
;
_chemical_formula_sum "Si O2"
_cell_formula_units_Z 24
_cell_length_a 9.865181
_cell_length_b 11.856255
_cell_length_c 7.920012
_cell_angle_alpha 90.000000
_cell_angle_beta 90.000000
_cell_angle_gamma 90.000000
_cell_volume 926.357088
_symmetry_space_group_name_H-M "P N A 21"
_symmetry_group_IT_number 33
_symmetry_cell_setting 'orthorhombic'
loop_
_space_group_symop_operation_xyz
x,y,z
-x,-y,1/2+z
1/2-x,1/2+y,1/2+z
1/2+x,1/2-y,z
loop_
_atom_site_type_symbol
_atom_site_label
_atom_site_fract_x
_atom_site_fract_y
_atom_site_fract_z
Si Si1 0.668387 0.747734 0.179220
Si Si2 0.125091 0.939284 0.439206
Si Si3 0.123813 0.420911 0.123259
Si Si4 0.574483 0.313467 0.470789
Si Si5 0.643600 0.943514 0.437550
Si Si6 0.615583 0.321633 0.100494
O O1 0.658528 0.621976 0.261676
O O2 0.615365 0.839794 0.312155
O O3 0.566516 0.745565 0.020628
O O4 0.818525 0.782861 0.118761
O O5 0.258806 0.991021 0.530234
O O6 0.037837 0.855021 0.556437
O O7 0.042218 0.055117 0.421278
O O8 0.148085 0.441582 0.325315
O O9 0.153225 0.300615 0.025305
O O10 0.973188 0.460800 0.076443
O O11 0.625943 0.271351 0.290720
O O12 0.781192 0.919221 0.543304
#
# Coordination Sequence:
#
# PCOD8171782 Si02
#       6
#     4   4   4   4   4   4
#     4  12  25  52  77 114 157 198 265 322 382 465
#     4  12  26  52  78 109 156 204 256 318 391 454
#     4  12  27  48  79 109 153 203 254 319 393 453
#     4  12  30  46  80 115 150 209 260 317 393 464
#     4  12  28  48  78 113 155 203 258 322 389 458
#     4  12  28  50  76 112 157 203 259 322 384 464
#
# _framework density 25.907934000000001
#
# number of rings (size 3 to 8) (size 9 to 14) (size 15 to 20)
#    0.000    0.000    5.000    3.000   11.667    1.333 
#    0.000    0.000    0.000    0.000    0.000    0.000 
#    0.000    0.000    0.000    0.000    0.000    0.000 
#
# Total GULP energy -297345.981143 kJ/mol
# GULP energy per Si atom -12389.415881 kJ/mol
# Density = 2.584897 g / cm^3
# Si number density = 25.907934 Si / 1000 Ang^3
#
#
#
# Elastic Constant Matrix: (Units=GPa)
#
#
# Indices 1 2 3 4 5 6 
#
# 1 116.8486 19.0391 39.2394 0.0000 0.0000 0.0000
# 2 19.0391 71.2685 -14.5880 0.0000 0.0000 0.0000
# 3 39.2394 -14.5880 86.6344 0.0000 0.0000 0.0000
# 4 0.0000 0.0000 0.0000 37.6228 0.0000 0.0000
# 5 0.0000 0.0000 0.0000 0.0000 38.5473 0.0000
# 6 0.0000 0.0000 0.0000 0.0000 0.0000 23.9852
#
#
#
# Elastic Compliance Matrix: (Units=1/GPa)
#
#
# Indices 1 2 3 4 5 6 
#
# 1 0.011171 -0.004163 -0.005761 0.000000 0.000000 0.000000
# 2 -0.004163 0.016084 0.004594 0.000000 0.000000 0.000000
# 3 -0.005761 0.004594 0.014926 0.000000 0.000000 0.000000
# 4 0.000000 0.000000 0.000000 0.026580 0.000000 0.000000
# 5 0.000000 0.000000 0.000000 0.000000 0.025942 0.000000
# 6 0.000000 0.000000 0.000000 0.000000 0.000000 0.041692
#
#
# Mechanical properties :
#
#
# Convention : Reuss Voigt Hill
#
# Bulk Modulus (GPa) = 31.72551 40.23694 35.98123
# Shear Modulus (GPa) = 31.73356 35.43513 33.58434
#
# Velocity S-wave (km/s) = 3.50359 3.70230 3.60432
# Velocity P-wave (km/s) = 5.35154 5.81726 5.58925
#
# Compressibility (1/GPa) = 0.03152037
#
# Stress axis : x y z
#
# Youngs Moduli (GPa) = 89.51726 62.17330 66.99905
#
# Poissons Ratio (x) = 0.25886 0.38597
# Poissons Ratio (y) = 0.37270 -0.30780
# Poissons Ratio (z) = 0.51569 -0.28563
#
# Static dielectric constant tensor:
#      x y z
#    x 4.383220 0.000000 0.000000 
#    y 0.000000 4.862190 0.000000 
#    z 0.000000 0.000000 4.599740 
# 
# 
# High freq. dielectric constant tensor:
#      x y z
#    x 2.032740 0.000000 0.000000 
#    y 0.000000 2.053130 0.000000 
#    z 0.000000 0.000000 2.034900 
# 
# From -- ./inp_files/3060.got.cif
#   From: 2010.03.12/outbox.cif.g09.slc.cpg/sg33_2_cif.got.tgz:3060.got - 2010.04.14 01:49:19.
