data_PCOD8171762
_publ_section_title
;
Structure prediction by ZEFSAII (Michael W. Deem and Ramdas Pophale) SiO2 
 PCOD8171762
Probable space group: P N A 21
;
_chemical_formula_sum "Si O2"
_cell_formula_units_Z 32
_cell_length_a 8.716489
_cell_length_b 11.349315
_cell_length_c 13.597811
_cell_angle_alpha 90.000000
_cell_angle_beta 90.000000
_cell_angle_gamma 90.000000
_cell_volume 1345.179490
_symmetry_space_group_name_H-M "P N A 21"
_symmetry_group_IT_number 33
_symmetry_cell_setting 'orthorhombic'
loop_
_space_group_symop_operation_xyz
x,y,z
-x,-y,1/2+z
1/2-x,1/2+y,1/2+z
1/2+x,1/2-y,z
loop_
_atom_site_type_symbol
_atom_site_label
_atom_site_fract_x
_atom_site_fract_y
_atom_site_fract_z
Si Si1 0.893074 0.921395 0.501040
Si Si2 0.224004 0.135937 0.795999
Si Si3 0.082367 0.377354 0.766640
Si Si4 0.695497 0.494608 0.596293
Si Si5 0.389791 0.180916 0.477982
Si Si6 0.617872 0.221319 0.143026
Si Si7 0.667290 0.863286 0.764875
Si Si8 0.692209 0.122579 0.554363
O O1 0.863594 0.931161 0.384240
O O2 0.907172 0.786043 0.537929
O O3 0.043389 0.993373 0.531480
O O4 0.746862 0.987272 0.550616
O O5 0.181679 0.272490 0.812999
O O6 0.407384 0.122079 0.804217
O O7 0.162113 0.085104 0.692678
O O8 0.165273 0.499250 0.794269
O O9 0.088210 0.358878 0.650161
O O10 0.819244 0.437661 0.524066
O O11 0.753145 0.621615 0.632569
O O12 0.342925 0.208295 0.366263
O O13 0.573061 0.162164 0.470165
O O14 0.339604 0.291769 0.545694
O O15 0.465303 0.164056 0.185849
O O16 0.672648 0.324615 0.216690
#
# Coordination Sequence:
#
# PCOD8171762 Si02
#       8
#     4   4   4   4   4   4   4   4
#     4  12  30  46  81 106 155 199 260 311 395 459
#     4  12  29  49  75 111 151 200 252 319 381 458
#     4  12  25  48  75 106 154 198 250 312 378 448
#     4  12  27  50  72 109 156 194 255 322 375 459
#     4  12  26  43  78 108 154 196 255 306 379 451
#     4  12  26  49  71 108 150 197 244 319 375 454
#     4  12  26  47  76 109 148 199 246 311 379 450
#     4  12  23  48  70 111 146 205 246 316 374 447
#
# _framework density 23.788647000000001
#
# number of rings (size 3 to 8) (size 9 to 14) (size 15 to 20)
#    0.000    0.000    6.250    2.250    7.000    1.000 
#    0.000    0.000    0.000    0.000    0.000    0.000 
#    0.000    0.000    0.000    0.000    0.000    0.000 
#
# Total GULP energy -396881.015600 kJ/mol
# GULP energy per Si atom -12402.531738 kJ/mol
# Density = 2.373450 g / cm^3
# Si number density = 23.788647 Si / 1000 Ang^3
#
#
#
# Elastic Constant Matrix: (Units=GPa)
#
#
# Indices 1 2 3 4 5 6 
#
# 1 73.5484 30.4641 12.9056 0.0000 0.0000 0.0000
# 2 30.4641 114.9187 12.3833 0.0000 0.0000 0.0000
# 3 12.9056 12.3833 82.6464 0.0000 0.0000 0.0000
# 4 0.0000 0.0000 0.0000 30.1634 0.0000 0.0000
# 5 0.0000 0.0000 0.0000 0.0000 33.4938 0.0000
# 6 0.0000 0.0000 0.0000 0.0000 0.0000 40.4292
#
#
#
# Elastic Compliance Matrix: (Units=1/GPa)
#
#
# Indices 1 2 3 4 5 6 
#
# 1 0.015544 -0.003922 -0.001840 0.000000 0.000000 0.000000
# 2 -0.003922 0.009834 -0.000861 0.000000 0.000000 0.000000
# 3 -0.001840 -0.000861 0.012516 0.000000 0.000000 0.000000
# 4 0.000000 0.000000 0.000000 0.033153 0.000000 0.000000
# 5 0.000000 0.000000 0.000000 0.000000 0.029856 0.000000
# 6 0.000000 0.000000 0.000000 0.000000 0.000000 0.024735
#
#
# Mechanical properties :
#
#
# Convention : Reuss Voigt Hill
#
# Bulk Modulus (GPa) = 40.57055 42.51329 41.54192
# Shear Modulus (GPa) = 33.99047 35.17463 34.58255
#
# Velocity S-wave (km/s) = 3.78412 3.84947 3.81693
# Velocity P-wave (km/s) = 6.01534 6.13742 6.07669
#
# Compressibility (1/GPa) = 0.02464842
#
# Stress axis : x y z
#
# Youngs Moduli (GPa) = 64.33374 101.68411 79.89764
#
# Poissons Ratio (x) = 0.39884 0.14698
# Poissons Ratio (y) = 0.25234 0.06880
# Poissons Ratio (z) = 0.11835 0.08755
#
# Static dielectric constant tensor:
#      x y z
#    x 4.144060 0.000000 0.000000 
#    y 0.000000 4.410390 0.000000 
#    z 0.000000 0.000000 4.222900 
# 
# 
# High freq. dielectric constant tensor:
#      x y z
#    x 1.942330 0.000000 0.000000 
#    y 0.000000 1.952440 0.000000 
#    z 0.000000 0.000000 1.942540 
# 
# From -- ./inp_files/7701.got.cif
#   From: 2010.03.12/outbox.cif.g09.slc.cpg/sg33_4_cif.got.tgz:7701.got - 2010.04.14 01:49:19.
