data_PCOD8171984
_publ_section_title
;
Structure prediction by ZEFSAII (Michael W. Deem and Ramdas Pophale) SiO2 
 PCOD8171984
Probable space group: P N N 2
;
_chemical_formula_sum "Si O2"
_cell_formula_units_Z 30
_cell_length_a 12.318951
_cell_length_b 8.807836
_cell_length_c 13.636590
_cell_angle_alpha 90.000000
_cell_angle_beta 90.000000
_cell_angle_gamma 90.000000
_cell_volume 1479.615017
_symmetry_space_group_name_H-M "P N N 2"
_symmetry_group_IT_number 34
_symmetry_cell_setting 'orthorhombic'
loop_
_space_group_symop_operation_xyz
x,y,z
-x,-y,z
1/2-x,1/2+y,1/2+z
1/2+x,1/2-y,1/2+z
loop_
_atom_site_type_symbol
_atom_site_label
_atom_site_fract_x
_atom_site_fract_y
_atom_site_fract_z
Si Si1 0.898664 0.103601 0.062550
Si Si2 0.494013 0.169061 0.405241
Si Si3 0.290022 0.138966 0.294923
Si Si4 0.387515 0.867469 0.809709
Si Si5 0.714422 0.878081 0.067276
Si Si6 0.607110 0.802029 0.744743
Si Si7 0.000000 0.500000 0.489081
Si Si8 0.236391 0.331259 0.900088
O O1 0.853116 0.210285 0.150150
O O2 0.797720 0.003176 0.022520
O O3 0.939124 0.213745 0.977859
O O4 0.000000 0.000000 0.096915
O O5 0.419025 0.161912 0.307867
O O6 0.613856 0.221467 0.373387
O O7 0.500000 0.000000 0.454034
O O8 0.227916 0.290878 0.324055
O O9 0.259443 0.114270 0.182222
O O10 0.249165 0.007560 0.370235
O O11 0.479498 0.760705 0.759483
O O12 0.378306 0.015912 0.740017
O O13 0.429059 0.892908 0.919779
O O14 0.740992 0.714793 0.014674
O O15 0.586625 0.911727 0.056092
O O16 0.677822 0.763607 0.839370
#
# Coordination Sequence:
#
# PCOD8171984 Si02
#       8
#     4   4   4   4   4   4   2   4
#     4  12  23  39  69  97 125 175 229 277 339 410
#     4  10  25  40  60  92 133 169 214 279 340 404
#     4  11  25  41  67  94 130 177 219 275 342 400
#     4  10  21  41  63  90 130 168 215 277 336 391
#     4  12  23  41  67  96 130 174 226 271 333 413
#     4  10  22  38  64  95 125 168 215 280 330 396
#     4  10  22  40  64  88 128 172 212 264 336 392
#     4  11  22  43  61  97 130 167 220 278 326 402
#
# _framework density 20.275545000000001
#
# number of rings (size 3 to 8) (size 9 to 14) (size 15 to 20)
#    0.000    1.333    5.333    1.600    4.667    1.067 
#    0.000    0.000    0.000    3.200    0.000    0.000 
#    0.000    0.000    0.000    0.000    0.000    0.000 
#
# Total GULP energy -371718.455929 kJ/mol
# GULP energy per Si atom -12390.615198 kJ/mol
# Density = 2.022940 g / cm^3
# Si number density = 20.275545 Si / 1000 Ang^3
#
#
#
# Elastic Constant Matrix: (Units=GPa)
#
#
# Indices 1 2 3 4 5 6 
#
# 1 106.3839 46.9580 14.9123 0.0000 0.0000 0.0000
# 2 46.9580 93.2563 46.7593 0.0000 0.0000 0.0000
# 3 14.9123 46.7593 77.5470 0.0000 0.0000 0.0000
# 4 0.0000 0.0000 0.0000 30.3649 0.0000 0.0000
# 5 0.0000 0.0000 0.0000 0.0000 26.0623 0.0000
# 6 0.0000 0.0000 0.0000 0.0000 0.0000 35.6496
#
#
#
# Elastic Compliance Matrix: (Units=1/GPa)
#
#
# Indices 1 2 3 4 5 6 
#
# 1 0.012291 -0.007172 0.001961 0.000000 0.000000 0.000000
# 2 -0.007172 0.019555 -0.010412 0.000000 0.000000 0.000000
# 3 0.001961 -0.010412 0.018797 0.000000 0.000000 0.000000
# 4 0.000000 0.000000 0.000000 0.032933 0.000000 0.000000
# 5 0.000000 0.000000 0.000000 0.000000 0.038370 0.000000
# 6 0.000000 0.000000 0.000000 0.000000 0.000000 0.028051
#
#
# Mechanical properties :
#
#
# Convention : Reuss Voigt Hill
#
# Bulk Modulus (GPa) = 51.55645 54.93850 53.24748
# Shear Modulus (GPa) = 26.63707 29.65253 28.14480
#
# Velocity S-wave (km/s) = 3.62851 3.82838 3.72978
# Velocity P-wave (km/s) = 6.56032 6.83351 6.69831
#
# Compressibility (1/GPa) = 0.01939622
#
# Stress axis : x y z
#
# Youngs Moduli (GPa) = 81.36135 51.13663 53.20082
#
# Poissons Ratio (x) = 0.36676 -0.10434
# Poissons Ratio (y) = 0.58354 0.55394
# Poissons Ratio (z) = -0.15957 0.53245
#
# Static dielectric constant tensor:
#      x y z
#    x 4.000260 0.000000 0.000000 
#    y 0.000000 3.714300 0.000000 
#    z 0.000000 0.000000 3.530000 
# 
# 
# High freq. dielectric constant tensor:
#      x y z
#    x 1.809050 0.000000 0.000000 
#    y 0.000000 1.783790 0.000000 
#    z 0.000000 0.000000 1.775400 
# 
# From -- ./inp_files/6783.got.cif
#   From: 2010.03.12/outbox.cif.g09.slc.cpg/sg34_4_cif.got.tgz:6783.got - 2010.04.14 01:56:33.
