data_PCOD8171255
_publ_section_title
;
Structure prediction by ZEFSAII (Michael W. Deem and Ramdas Pophale) SiO2 
 PCOD8171255
Probable space group: P N A 21
;
_chemical_formula_sum "Si O2"
_cell_formula_units_Z 32
_cell_length_a 12.660336
_cell_length_b 8.873515
_cell_length_c 13.415429
_cell_angle_alpha 90.000000
_cell_angle_beta 90.000000
_cell_angle_gamma 90.000000
_cell_volume 1507.111851
_symmetry_space_group_name_H-M "P N A 21"
_symmetry_group_IT_number 33
_symmetry_cell_setting 'orthorhombic'
loop_
_space_group_symop_operation_xyz
x,y,z
-x,-y,1/2+z
1/2-x,1/2+y,1/2+z
1/2+x,1/2-y,z
loop_
_atom_site_type_symbol
_atom_site_label
_atom_site_fract_x
_atom_site_fract_y
_atom_site_fract_z
Si Si1 0.542123 0.796961 0.788430
Si Si2 0.130604 0.465772 0.182374
Si Si3 0.972689 0.038181 0.772724
Si Si4 0.204820 0.896571 0.118881
Si Si5 0.153382 0.636262 0.986281
Si Si6 0.692739 0.623710 0.432143
Si Si7 0.797554 0.816264 0.274143
Si Si8 0.716174 0.780757 0.626157
O O1 0.475091 0.934982 0.743951
O O2 0.478865 0.640913 0.785494
O O3 0.649170 0.781287 0.726570
O O4 0.566443 0.844649 0.901222
O O5 0.100817 0.561676 0.084218
O O6 0.213179 0.552713 0.252295
O O7 0.175464 0.305139 0.148686
O O8 0.086570 0.114406 0.769202
O O9 0.908190 0.080154 0.673188
O O10 0.911837 0.105102 0.867487
O O11 0.192316 0.803192 0.016801
O O12 0.287378 0.812858 0.191063
O O13 0.256193 0.053614 0.088253
O O14 0.251912 0.538010 0.947463
O O15 0.775219 0.740292 0.381242
O O16 0.655423 0.692121 0.537966
#
# Coordination Sequence:
#
# PCOD8171255 Si02
#       8
#     4   4   4   4   4   4   4   4
#     4  12  24  41  73  99 135 176 233 276 335 408
#     4  10  23  45  65  98 138 173 224 281 336 403
#     4  11  23  43  71 100 131 179 225 280 343 400
#     4  10  23  44  69  97 137 178 222 280 338 400
#     4  10  25  45  66 101 135 181 228 281 335 402
#     4  10  25  43  65  98 137 175 225 279 336 408
#     4  10  22  43  68  94 137 176 220 279 338 397
#     4  11  23  42  65  97 132 178 219 280 341 398
#
# _framework density 21.232664
#
# number of rings (size 3 to 8) (size 9 to 14) (size 15 to 20)
#    0.000    1.500    2.500    1.500    1.750   10.000 
#    2.250    0.000    0.000    0.000    0.000    0.000 
#    0.000    0.000    0.000    0.000    0.000    0.000 
#
# Total GULP energy -396913.817878 kJ/mol
# GULP energy per Si atom -12403.556809 kJ/mol
# Density = 2.118434 g / cm^3
# Si number density = 21.232664 Si / 1000 Ang^3
#
#
#
# Elastic Constant Matrix: (Units=GPa)
#
#
# Indices 1 2 3 4 5 6 
#
# 1 80.5737 38.8726 49.5857 0.0000 0.0000 0.0000
# 2 38.8726 134.0707 41.6591 0.0000 0.0000 0.0000
# 3 49.5857 41.6591 115.2919 0.0000 0.0000 0.0000
# 4 0.0000 0.0000 0.0000 35.4347 0.0000 0.0000
# 5 0.0000 0.0000 0.0000 0.0000 27.0997 0.0000
# 6 0.0000 0.0000 0.0000 0.0000 0.0000 34.3710
#
#
#
# Elastic Compliance Matrix: (Units=1/GPa)
#
#
# Indices 1 2 3 4 5 6 
#
# 1 0.017999 -0.003169 -0.006596 0.000000 0.000000 0.000000
# 2 -0.003169 0.008960 -0.001875 0.000000 0.000000 0.000000
# 3 -0.006596 -0.001875 0.012188 0.000000 0.000000 0.000000
# 4 0.000000 0.000000 0.000000 0.028221 0.000000 0.000000
# 5 0.000000 0.000000 0.000000 0.000000 0.036901 0.000000
# 6 0.000000 0.000000 0.000000 0.000000 0.000000 0.029094
#
#
# Mechanical properties :
#
#
# Convention : Reuss Voigt Hill
#
# Bulk Modulus (GPa) = 63.02184 65.57457 64.29821
# Shear Modulus (GPa) = 30.87712 32.70235 31.78974
#
# Velocity S-wave (km/s) = 3.81757 3.92878 3.87358
# Velocity P-wave (km/s) = 7.01269 7.17853 7.09609
#
# Compressibility (1/GPa) = 0.01586752
#
# Stress axis : x y z
#
# Youngs Moduli (GPa) = 55.55774 111.60591 82.04836
#
# Poissons Ratio (x) = 0.35370 0.54120
# Poissons Ratio (y) = 0.17607 0.15381
# Poissons Ratio (z) = 0.36647 0.20922
#
# Static dielectric constant tensor:
#      x y z
#    x 3.582960 0.000000 0.000000 
#    y 0.000000 4.152970 0.000000 
#    z 0.000000 0.000000 3.890350 
# 
# 
# High freq. dielectric constant tensor:
#      x y z
#    x 1.815960 0.000000 0.000000 
#    y 0.000000 1.854520 0.000000 
#    z 0.000000 0.000000 1.836540 
# 
# From -- ./inp_files/7954.got.cif
#   From: 2010.03.12/outbox.cif.g09.slc.cpg/sg33_4_cif.got.tgz:7954.got - 2010.04.14 01:49:19.
