data_PCOD8171943
_publ_section_title
;
Structure prediction by ZEFSAII (Michael W. Deem and Ramdas Pophale) SiO2 
 PCOD8171943
Probable space group: P N N 2
;
_chemical_formula_sum "Si O2"
_cell_formula_units_Z 32
_cell_length_a 16.114806
_cell_length_b 12.429416
_cell_length_c 7.775844
_cell_angle_alpha 90.000000
_cell_angle_beta 90.000000
_cell_angle_gamma 90.000000
_cell_volume 1557.483105
_symmetry_space_group_name_H-M "P N N 2"
_symmetry_group_IT_number 34
_symmetry_cell_setting 'orthorhombic'
loop_
_space_group_symop_operation_xyz
x,y,z
-x,-y,z
1/2-x,1/2+y,1/2+z
1/2+x,1/2-y,1/2+z
loop_
_atom_site_type_symbol
_atom_site_label
_atom_site_fract_x
_atom_site_fract_y
_atom_site_fract_z
Si Si1 0.671958 0.092865 0.054830
Si Si2 0.609606 0.300129 0.162444
Si Si3 0.486402 0.375873 0.450930
Si Si4 0.760576 0.980594 0.613944
Si Si5 0.749379 0.900218 0.240912
Si Si6 0.086475 0.450288 0.242472
Si Si7 0.917162 0.793958 0.255501
Si Si8 0.811909 0.177025 0.814751
O O1 0.643194 0.178136 0.199218
O O2 0.720690 0.987014 0.104397
O O3 0.591325 0.050987 0.950537
O O4 0.728173 0.164703 0.925770
O O5 0.537847 0.315754 0.301342
O O6 0.685453 0.382862 0.194561
O O7 0.574286 0.306708 0.963818
O O8 0.500000 0.500000 0.417006
O O9 0.507196 0.346122 0.648870
O O10 0.390749 0.344888 0.432561
O O11 0.665079 0.979772 0.677214
O O12 0.807379 0.092445 0.657588
O O13 0.757567 0.968854 0.412196
O O14 0.837747 0.856479 0.182123
O O15 0.684862 0.800738 0.251115
O O16 0.090032 0.326837 0.183061
O O17 0.000000 0.500000 0.177757
#
# Coordination Sequence:
#
# PCOD8171943 Si02
#       8
#     4   4   4   4   4   4   4   4
#     4  10  22  43  66  88 135 173 219 274 330 402
#     4  10  22  44  66  91 136 174 216 275 333 397
#     4  12  25  39  68  97 129 173 217 274 338 388
#     4  10  20  42  65  88 127 175 213 270 334 389
#     4  11  22  40  67  94 127 177 223 274 329 405
#     4  10  22  40  64  92 129 169 216 275 333 393
#     4  10  23  43  62  92 135 168 217 277 329 390
#     4  11  22  44  62  99 130 165 228 272 324 413
#
# _framework density 20.545967999999998
#
# number of rings (size 3 to 8) (size 9 to 14) (size 15 to 20)
#    0.000    1.500    6.250    0.750    5.250    2.500 
#    2.250    0.625    0.000    0.000    0.000    0.000 
#    0.000    0.000    0.000    0.000    0.000    0.000 
#
# Total GULP energy -396575.241951 kJ/mol
# GULP energy per Si atom -12392.976311 kJ/mol
# Density = 2.049920 g / cm^3
# Si number density = 20.545968 Si / 1000 Ang^3
#
#
#
# Elastic Constant Matrix: (Units=GPa)
#
#
# Indices 1 2 3 4 5 6 
#
# 1 96.2986 28.1459 26.7593 0.0000 0.0000 0.0000
# 2 28.1459 124.6236 38.7707 0.0000 0.0000 0.0000
# 3 26.7593 38.7707 56.7313 0.0000 0.0000 0.0000
# 4 0.0000 0.0000 0.0000 36.7354 0.0000 0.0000
# 5 0.0000 0.0000 0.0000 0.0000 30.1178 0.0000
# 6 0.0000 0.0000 0.0000 0.0000 0.0000 32.1900
#
#
#
# Elastic Compliance Matrix: (Units=1/GPa)
#
#
# Indices 1 2 3 4 5 6 
#
# 1 0.012094 -0.001215 -0.004874 0.000000 0.000000 0.000000
# 2 -0.001215 0.010313 -0.006475 0.000000 0.000000 0.000000
# 3 -0.004874 -0.006475 0.024351 0.000000 0.000000 0.000000
# 4 0.000000 0.000000 0.000000 0.027222 0.000000 0.000000
# 5 0.000000 0.000000 0.000000 0.000000 0.033203 0.000000
# 6 0.000000 0.000000 0.000000 0.000000 0.000000 0.031066
#
#
# Mechanical properties :
#
#
# Convention : Reuss Voigt Hill
#
# Bulk Modulus (GPa) = 46.23255 51.66728 48.94991
# Shear Modulus (GPa) = 29.31075 32.07382 30.69229
#
# Velocity S-wave (km/s) = 3.78112 3.95533 3.86921
# Velocity P-wave (km/s) = 6.45084 6.78685 6.62098
#
# Compressibility (1/GPa) = 0.02162978
#
# Stress axis : x y z
#
# Youngs Moduli (GPa) = 82.68629 96.96586 41.06610
#
# Poissons Ratio (x) = 0.11782 0.20016
# Poissons Ratio (y) = 0.10047 0.26590
# Poissons Ratio (z) = 0.40303 0.62784
#
# Static dielectric constant tensor:
#      x y z
#    x 3.696470 0.000000 0.000000 
#    y 0.000000 3.952700 0.000000 
#    z 0.000000 0.000000 3.575300 
# 
# 
# High freq. dielectric constant tensor:
#      x y z
#    x 1.797710 0.000000 0.000000 
#    y 0.000000 1.819050 0.000000 
#    z 0.000000 0.000000 1.787870 
# 
# From -- ./inp_files/3328.got.cif
#   From: 2010.03.12/outbox.cif.g09.slc.cpg/sg34_2_cif.got.tgz:3328.got - 2010.04.14 01:56:33.
