data_PCOD8171452
_publ_section_title
;
Structure prediction by ZEFSAII (Michael W. Deem and Ramdas Pophale) SiO2 
 PCOD8171452
Probable space group: P N A 21
;
_chemical_formula_sum "Si O2"
_cell_formula_units_Z 32
_cell_length_a 11.975749
_cell_length_b 21.246768
_cell_length_c 5.420624
_cell_angle_alpha 90.000000
_cell_angle_beta 90.000000
_cell_angle_gamma 90.000000
_cell_volume 1379.255881
_symmetry_space_group_name_H-M "P N A 21"
_symmetry_group_IT_number 33
_symmetry_cell_setting 'orthorhombic'
loop_
_space_group_symop_operation_xyz
x,y,z
-x,-y,1/2+z
1/2-x,1/2+y,1/2+z
1/2+x,1/2-y,z
loop_
_atom_site_type_symbol
_atom_site_label
_atom_site_fract_x
_atom_site_fract_y
_atom_site_fract_z
Si Si1 0.885799 0.231704 0.780030
Si Si2 0.634174 0.429102 0.117946
Si Si3 0.487824 0.161655 0.510800
Si Si4 0.102684 0.877885 0.615006
Si Si5 0.298808 0.508642 0.130810
Si Si6 0.277418 0.796804 0.903424
Si Si7 0.045232 0.531029 0.204125
Si Si8 0.204646 0.677870 0.657886
O O1 0.759474 0.218487 0.683097
O O2 0.972233 0.264852 0.591777
O O3 0.929989 0.164948 0.878195
O O4 0.877779 0.288146 0.972098
O O5 0.514287 0.404612 0.209182
O O6 0.681188 0.457420 0.371279
O O7 0.717396 0.373862 0.031739
O O8 0.623096 0.472874 0.870779
O O9 0.609632 0.162646 0.379949
O O10 0.488867 0.105245 0.711837
O O11 0.381295 0.143831 0.344132
O O12 0.168110 0.833772 0.805418
O O13 0.184008 0.935934 0.558627
O O14 0.176354 0.521579 0.231250
O O15 0.289262 0.729669 0.770645
O O16 0.992331 0.499096 0.444611
#
# Coordination Sequence:
#
# PCOD8171452 Si02
#       8
#     4   4   4   4   4   4   4   4
#     4  10  25  42  71 104 141 190 241 305 376 436
#     4  12  27  46  78 102 147 193 248 300 366 447
#     4  11  24  45  71 102 148 185 251 301 379 440
#     4  11  27  45  70 105 145 188 248 301 379 433
#     4  12  27  49  72 109 144 196 250 305 369 442
#     4  10  25  43  69 103 141 188 239 315 364 444
#     4  12  27  46  75 107 147 200 242 306 369 445
#     4  10  24  44  66 104 135 190 241 299 366 443
#
# _framework density 23.200917
#
# number of rings (size 3 to 8) (size 9 to 14) (size 15 to 20)
#    0.000    1.000    1.250    3.000   15.750    1.000 
#    0.000    0.000    0.000    0.000    0.000    0.000 
#    0.000    0.000    0.000    0.000    0.000    0.000 
#
# Total GULP energy -396490.798260 kJ/mol
# GULP energy per Si atom -12390.337446 kJ/mol
# Density = 2.314811 g / cm^3
# Si number density = 23.200917 Si / 1000 Ang^3
#
#
#
# Elastic Constant Matrix: (Units=GPa)
#
#
# Indices 1 2 3 4 5 6 
#
# 1 99.7313 40.7756 16.1429 0.0000 0.0000 0.0000
# 2 40.7756 127.6823 29.3750 0.0000 0.0000 0.0000
# 3 16.1429 29.3750 86.5219 0.0000 0.0000 0.0000
# 4 0.0000 0.0000 0.0000 34.6620 0.0000 0.0000
# 5 0.0000 0.0000 0.0000 0.0000 23.2653 0.0000
# 6 0.0000 0.0000 0.0000 0.0000 0.0000 35.2451
#
#
#
# Elastic Compliance Matrix: (Units=1/GPa)
#
#
# Indices 1 2 3 4 5 6 
#
# 1 0.011610 -0.003481 -0.000984 0.000000 0.000000 0.000000
# 2 -0.003481 0.009539 -0.002589 0.000000 0.000000 0.000000
# 3 -0.000984 -0.002589 0.012620 0.000000 0.000000 0.000000
# 4 0.000000 0.000000 0.000000 0.028850 0.000000 0.000000
# 5 0.000000 0.000000 0.000000 0.000000 0.042982 0.000000
# 6 0.000000 0.000000 0.000000 0.000000 0.000000 0.028373
#
#
# Mechanical properties :
#
#
# Convention : Reuss Voigt Hill
#
# Bulk Modulus (GPa) = 50.86390 54.05805 52.46098
# Shear Modulus (GPa) = 32.33381 33.81062 33.07222
#
# Velocity S-wave (km/s) = 3.73720 3.82160 3.77964
# Velocity P-wave (km/s) = 6.37127 6.54396 6.45819
#
# Compressibility (1/GPa) = 0.01966031
#
# Stress axis : x y z
#
# Youngs Moduli (GPa) = 86.13631 104.82939 79.23652
#
# Poissons Ratio (x) = 0.36492 0.07798
# Poissons Ratio (y) = 0.29985 0.20516
# Poissons Ratio (z) = 0.08477 0.27142
#
# Static dielectric constant tensor:
#      x y z
#    x 4.006340 0.000000 0.000000 
#    y 0.000000 4.425910 0.000000 
#    z 0.000000 0.000000 4.158020 
# 
# 
# High freq. dielectric constant tensor:
#      x y z
#    x 1.915800 0.000000 0.000000 
#    y 0.000000 1.934660 0.000000 
#    z 0.000000 0.000000 1.911300 
# 
# From -- ./inp_files/1062.got.cif
#   From: 2010.03.12/outbox.cif.g09.slc.cpg/sg33_1_cif.got.tgz:1062.got - 2010.04.14 01:49:19.
