data_PCOD8171285
_publ_section_title
;
Structure prediction by ZEFSAII (Michael W. Deem and Ramdas Pophale) SiO2 
 PCOD8171285
Probable space group: P N A 21
;
_chemical_formula_sum "Si O2"
_cell_formula_units_Z 28
_cell_length_a 18.804432
_cell_length_b 12.948429
_cell_length_c 4.984745
_cell_angle_alpha 90.000000
_cell_angle_beta 90.000000
_cell_angle_gamma 90.000000
_cell_volume 1213.724856
_symmetry_space_group_name_H-M "P N A 21"
_symmetry_group_IT_number 33
_symmetry_cell_setting 'orthorhombic'
loop_
_space_group_symop_operation_xyz
x,y,z
-x,-y,1/2+z
1/2-x,1/2+y,1/2+z
1/2+x,1/2-y,z
loop_
_atom_site_type_symbol
_atom_site_label
_atom_site_fract_x
_atom_site_fract_y
_atom_site_fract_z
Si Si1 0.966701 0.956595 0.638490
Si Si2 0.173839 0.649893 0.770606
Si Si3 0.147178 0.200183 0.679781
Si Si4 0.975798 0.445557 0.315932
Si Si5 0.703731 0.721726 0.284331
Si Si6 0.184474 0.020882 0.330905
Si Si7 0.436727 0.752378 0.690180
O O1 0.880084 0.962800 0.619766
O O2 0.986391 0.845325 0.773018
O O3 0.000021 0.960976 0.342351
O O4 0.107978 0.575534 0.840739
O O5 0.159333 0.708519 0.492545
O O6 0.242946 0.576643 0.736403
O O7 0.180836 0.741362 0.988800
O O8 0.213391 0.255713 0.818580
O O9 0.162134 0.078338 0.610604
O O10 0.128544 0.260114 0.400693
O O11 0.084621 0.218248 0.889527
O O12 0.009141 0.460519 0.611142
O O13 0.017081 0.353407 0.172527
O O14 0.693547 0.601705 0.357013
#
# Coordination Sequence:
#
# PCOD8171285 Si02
#       7
#     4   4   4   4   4   4   4
#     4  11  24  40  66 101 133 175 221 275 355 416
#     4  11  27  48  67 110 139 181 248 289 343 432
#     4  10  22  45  66 107 131 190 231 285 348 438
#     4  12  28  48  73 104 140 193 241 299 363 420
#     4  11  24  42  75  97 146 179 233 298 352 396
#     4  10  25  44  72 100 141 184 231 285 353 418
#     4  11  24  43  71  93 146 172 237 287 348 424
#
# _framework density 23.069479000000001
#
# number of rings (size 3 to 8) (size 9 to 14) (size 15 to 20)
#    0.000    1.143    0.000    6.000    8.000    5.714 
#    0.000    0.000    0.000    0.000    0.000    0.000 
#    0.000    0.000    0.000    0.000    0.000    0.000 
#
# Total GULP energy -347014.502417 kJ/mol
# GULP energy per Si atom -12393.375086 kJ/mol
# Density = 2.301697 g / cm^3
# Si number density = 23.069479 Si / 1000 Ang^3
#
#
#
# Elastic Constant Matrix: (Units=GPa)
#
#
# Indices 1 2 3 4 5 6 
#
# 1 115.0355 48.1996 27.6879 0.0000 0.0000 0.0000
# 2 48.1996 108.2147 18.1119 0.0000 0.0000 0.0000
# 3 27.6879 18.1119 102.2566 0.0000 0.0000 0.0000
# 4 0.0000 0.0000 0.0000 31.4407 0.0000 0.0000
# 5 0.0000 0.0000 0.0000 0.0000 31.8765 0.0000
# 6 0.0000 0.0000 0.0000 0.0000 0.0000 32.0657
#
#
#
# Elastic Compliance Matrix: (Units=1/GPa)
#
#
# Indices 1 2 3 4 5 6 
#
# 1 0.011150 -0.004597 -0.002205 0.000000 0.000000 0.000000
# 2 -0.004597 0.011419 -0.000778 0.000000 0.000000 0.000000
# 3 -0.002205 -0.000778 0.010514 0.000000 0.000000 0.000000
# 4 0.000000 0.000000 0.000000 0.031806 0.000000 0.000000
# 5 0.000000 0.000000 0.000000 0.000000 0.031371 0.000000
# 6 0.000000 0.000000 0.000000 0.000000 0.000000 0.031186
#
#
# Mechanical properties :
#
#
# Convention : Reuss Voigt Hill
#
# Bulk Modulus (GPa) = 55.79360 57.05617 56.42489
# Shear Modulus (GPa) = 33.65206 34.51041 34.08124
#
# Velocity S-wave (km/s) = 3.82347 3.87193 3.84778
# Velocity P-wave (km/s) = 6.61282 6.69142 6.65224
#
# Compressibility (1/GPa) = 0.01792320
#
# Stress axis : x y z
#
# Youngs Moduli (GPa) = 89.68731 87.57579 95.11080
#
# Poissons Ratio (x) = 0.40260 0.20970
# Poissons Ratio (y) = 0.41231 0.07397
# Poissons Ratio (z) = 0.19774 0.06811
#
# Static dielectric constant tensor:
#      x y z
#    x 4.133010 0.000000 0.000000 
#    y 0.000000 4.323680 0.000000 
#    z 0.000000 0.000000 4.136690 
# 
# 
# High freq. dielectric constant tensor:
#      x y z
#    x 1.908170 0.000000 0.000000 
#    y 0.000000 1.912900 0.000000 
#    z 0.000000 0.000000 1.919280 
# 
# From -- ./inp_files/1749.got.cif
#   From: 2010.03.12/outbox.cif.g09.slc.cpg/sg33_1_cif.got.tgz:1749.got - 2010.04.14 01:49:19.
