data_PCOD8171175
_publ_section_title
;
Structure prediction by ZEFSAII (Michael W. Deem and Ramdas Pophale) SiO2 
 PCOD8171175
Probable space group: P N A 21
;
_chemical_formula_sum "Si O2"
_cell_formula_units_Z 28
_cell_length_a 14.791800
_cell_length_b 11.056556
_cell_length_c 8.133605
_cell_angle_alpha 90.000000
_cell_angle_beta 90.000000
_cell_angle_gamma 90.000000
_cell_volume 1330.221532
_symmetry_space_group_name_H-M "P N A 21"
_symmetry_group_IT_number 33
_symmetry_cell_setting 'orthorhombic'
loop_
_space_group_symop_operation_xyz
x,y,z
-x,-y,1/2+z
1/2-x,1/2+y,1/2+z
1/2+x,1/2-y,z
loop_
_atom_site_type_symbol
_atom_site_label
_atom_site_fract_x
_atom_site_fract_y
_atom_site_fract_z
Si Si1 0.130565 0.771647 0.152470
Si Si2 0.403718 0.049086 0.855929
Si Si3 0.718383 0.551939 0.742889
Si Si4 0.039476 0.642359 0.713994
Si Si5 0.347308 0.486129 0.886525
Si Si6 0.776288 0.311434 0.350672
Si Si7 0.033152 0.892813 0.869834
O O1 0.080101 0.658848 0.232708
O O2 0.169569 0.862567 0.289779
O O3 0.217363 0.732861 0.041530
O O4 0.051220 0.831217 0.045199
O O5 0.296504 0.016550 0.846625
O O6 0.458584 0.932590 0.795352
O O7 0.439531 0.096807 0.030483
O O8 0.710029 0.512447 0.554476
O O9 0.736871 0.695136 0.736213
O O10 0.621445 0.527275 0.827372
O O11 0.130035 0.618382 0.817167
O O12 0.016221 0.787341 0.730872
O O13 0.305583 0.602855 0.797245
O O14 0.453671 0.511602 0.898337
#
# Coordination Sequence:
#
# PCOD8171175 Si02
#       7
#     4   4   4   4   4   4   4
#     4  10  22  40  63  93 132 168 222 270 323 401
#     4  12  22  42  67  96 133 175 221 280 339 389
#     4  10  23  41  66  95 134 171 220 276 328 402
#     4  10  23  40  67  92 133 173 221 284 327 394
#     4  12  22  43  69  91 134 180 213 279 335 386
#     4  10  23  42  61  99 132 171 229 268 326 400
#     4  10  23  44  63  98 132 172 224 273 326 406
#
# _framework density 21.049125
#
# number of rings (size 3 to 8) (size 9 to 14) (size 15 to 20)
#    0.000    1.714    1.429    5.143    4.000    0.000 
#    0.000    0.000    0.000    0.000    0.000    0.000 
#    0.000    0.000    0.000    0.000    0.000    0.000 
#
# Total GULP energy -346999.445358 kJ/mol
# GULP energy per Si atom -12392.837334 kJ/mol
# Density = 2.100122 g / cm^3
# Si number density = 21.049125 Si / 1000 Ang^3
#
#
#
# Elastic Constant Matrix: (Units=GPa)
#
#
# Indices 1 2 3 4 5 6 
#
# 1 88.0690 25.6239 26.9655 0.0000 0.0000 0.0000
# 2 25.6239 68.4855 27.6085 0.0000 0.0000 0.0000
# 3 26.9655 27.6085 90.3145 0.0000 0.0000 0.0000
# 4 0.0000 0.0000 0.0000 28.2603 0.0000 0.0000
# 5 0.0000 0.0000 0.0000 0.0000 23.4136 0.0000
# 6 0.0000 0.0000 0.0000 0.0000 0.0000 32.4620
#
#
#
# Elastic Compliance Matrix: (Units=1/GPa)
#
#
# Indices 1 2 3 4 5 6 
#
# 1 0.013336 -0.003860 -0.002802 0.000000 0.000000 0.000000
# 2 -0.003860 0.017771 -0.004280 0.000000 0.000000 0.000000
# 3 -0.002802 -0.004280 0.013217 0.000000 0.000000 0.000000
# 4 0.000000 0.000000 0.000000 0.035385 0.000000 0.000000
# 5 0.000000 0.000000 0.000000 0.000000 0.042710 0.000000
# 6 0.000000 0.000000 0.000000 0.000000 0.000000 0.030805
#
#
# Mechanical properties :
#
#
# Convention : Reuss Voigt Hill
#
# Bulk Modulus (GPa) = 44.56200 45.25163 44.90682
# Shear Modulus (GPa) = 27.38392 27.93859 27.66126
#
# Velocity S-wave (km/s) = 3.61079 3.64717 3.62902
# Velocity P-wave (km/s) = 6.21290 6.26742 6.24022
#
# Compressibility (1/GPa) = 0.02244065
#
# Stress axis : x y z
#
# Youngs Moduli (GPa) = 74.98691 56.27052 75.65846
#
# Poissons Ratio (x) = 0.21721 0.21197
# Poissons Ratio (y) = 0.28946 0.32382
# Poissons Ratio (z) = 0.21009 0.24084
#
# Static dielectric constant tensor:
#      x y z
#    x 3.732680 0.000000 0.000000 
#    y 0.000000 3.894170 0.000000 
#    z 0.000000 0.000000 3.850190 
# 
# 
# High freq. dielectric constant tensor:
#      x y z
#    x 1.816860 0.000000 0.000000 
#    y 0.000000 1.830400 0.000000 
#    z 0.000000 0.000000 1.822570 
# 
# From -- ./inp_files/4358.got.cif
#   From: 2010.03.12/outbox.cif.g09.slc.cpg/sg33_3_cif.got.tgz:4358.got - 2010.04.14 01:49:19.
