data_PCOD8171950
_publ_section_title
;
Structure prediction by ZEFSAII (Michael W. Deem and Ramdas Pophale) SiO2 
 PCOD8171950
Probable space group: P N N 2
;
_chemical_formula_sum "Si O2"
_cell_formula_units_Z 18
_cell_length_a 5.442836
_cell_length_b 5.269043
_cell_length_c 24.277191
_cell_angle_alpha 90.000000
_cell_angle_beta 90.000000
_cell_angle_gamma 90.000000
_cell_volume 696.234319
_symmetry_space_group_name_H-M "P N N 2"
_symmetry_group_IT_number 34
_symmetry_cell_setting 'orthorhombic'
loop_
_space_group_symop_operation_xyz
x,y,z
-x,-y,z
1/2-x,1/2+y,1/2+z
1/2+x,1/2-y,1/2+z
loop_
_atom_site_type_symbol
_atom_site_label
_atom_site_fract_x
_atom_site_fract_y
_atom_site_fract_z
Si Si1 0.637367 0.251360 0.269170
Si Si2 0.739311 0.151157 0.916626
Si Si3 0.837425 0.250985 0.153697
Si Si4 0.500000 0.500000 0.839004
Si Si5 0.340698 0.249859 0.534529
O O1 0.500000 0.500000 0.292343
O O2 0.642456 0.260699 0.202777
O O3 0.902304 0.226893 0.298837
O O4 0.500000 0.000000 0.288104
O O5 0.727105 0.398413 0.877240
O O6 0.500000 0.000000 0.896578
O O7 0.676659 0.235374 0.979703
O O8 0.000000 0.000000 0.911400
O O9 0.698339 0.257392 0.093723
O O10 0.000000 0.500000 0.159554
O O11 0.000000 0.000000 0.160452
O O12 0.500000 0.500000 0.536505
O O13 0.500000 0.000000 0.528074
#
# Coordination Sequence:
#
# PCOD8171950 Si02
#       5
#     4   4   4   2   4
#     4  12  29  48  76 113 152 207 267 327 403 477
#     4  11  29  51  79 116 158 211 268 329 404 480
#     4  10  20  44  75 108 153 197 251 327 399 476
#     4  12  32  50  76 108 170 208 282 330 406 480
#     4   9  21  43  75 111 153 197 254 325 399 477
#
# _framework density 25.853365
#
# number of rings (size 3 to 8) (size 9 to 14) (size 15 to 20)
#    0.000    1.333    1.111    1.333   12.444    0.889 
#    2.000    0.000    0.000    0.000    0.000    0.000 
#    0.000    0.000    0.000    0.000    0.000    0.000 
#
# Total GULP energy -223003.316259 kJ/mol
# GULP energy per Si atom -12389.073125 kJ/mol
# Density = 2.579452 g / cm^3
# Si number density = 25.853365 Si / 1000 Ang^3
#
#
#
# Elastic Constant Matrix: (Units=GPa)
#
#
# Indices 1 2 3 4 5 6 
#
# 1 97.9474 43.4344 43.9025 0.0000 0.0000 0.0000
# 2 43.4344 182.0245 38.1180 0.0000 0.0000 0.0000
# 3 43.9025 38.1180 204.9895 0.0000 0.0000 0.0000
# 4 0.0000 0.0000 0.0000 38.4758 0.0000 0.0000
# 5 0.0000 0.0000 0.0000 0.0000 29.8110 0.0000
# 6 0.0000 0.0000 0.0000 0.0000 0.0000 40.0657
#
#
#
# Elastic Compliance Matrix: (Units=1/GPa)
#
#
# Indices 1 2 3 4 5 6 
#
# 1 0.012280 -0.002476 -0.002170 0.000000 0.000000 0.000000
# 2 -0.002476 0.006216 -0.000626 0.000000 0.000000 0.000000
# 3 -0.002170 -0.000626 0.005459 0.000000 0.000000 0.000000
# 4 0.000000 0.000000 0.000000 0.025990 0.000000 0.000000
# 5 0.000000 0.000000 0.000000 0.000000 0.033545 0.000000
# 6 0.000000 0.000000 0.000000 0.000000 0.000000 0.024959
#
#
# Mechanical properties :
#
#
# Convention : Reuss Voigt Hill
#
# Bulk Modulus (GPa) = 74.55590 81.76347 78.15968
# Shear Modulus (GPa) = 40.49836 45.63759 43.06798
#
# Velocity S-wave (km/s) = 3.96215 4.20604 4.08592
# Velocity P-wave (km/s) = 7.05919 7.43520 7.24963
#
# Compressibility (1/GPa) = 0.01341276
#
# Stress axis : x y z
#
# Youngs Moduli (GPa) = 81.43356 160.88673 183.17444
#
# Poissons Ratio (x) = 0.39834 0.39741
# Poissons Ratio (y) = 0.20162 0.11458
# Poissons Ratio (z) = 0.17668 0.10064
#
# Static dielectric constant tensor:
#      x y z
#    x 4.237860 0.000000 0.000000 
#    y 0.000000 4.304390 0.000000 
#    z 0.000000 0.000000 5.627500 
# 
# 
# High freq. dielectric constant tensor:
#      x y z
#    x 1.983860 0.000000 0.000000 
#    y 0.000000 2.055210 0.000000 
#    z 0.000000 0.000000 2.075830 
# 
# From -- ./inp_files/8217.got.cif
#   From: 2010.03.12/outbox.cif.g09.slc.cpg/sg34_5_cif.got.tgz:8217.got - 2010.04.14 01:56:33.
