data_PCOD8171803
_publ_section_title
;
Structure prediction by ZEFSAII (Michael W. Deem and Ramdas Pophale) SiO2 
 PCOD8171803
Probable space group: P N A 21
;
_chemical_formula_sum "Si O2"
_cell_formula_units_Z 16
_cell_length_a 24.280378
_cell_length_b 5.009569
_cell_length_c 5.003630
_cell_angle_alpha 90.000000
_cell_angle_beta 90.000000
_cell_angle_gamma 90.000000
_cell_volume 608.612677
_symmetry_space_group_name_H-M "P N A 21"
_symmetry_group_IT_number 33
_symmetry_cell_setting 'orthorhombic'
loop_
_space_group_symop_operation_xyz
x,y,z
-x,-y,1/2+z
1/2-x,1/2+y,1/2+z
1/2+x,1/2-y,z
loop_
_atom_site_type_symbol
_atom_site_label
_atom_site_fract_x
_atom_site_fract_y
_atom_site_fract_z
Si Si1 0.036360 0.506008 0.858450
Si Si2 0.608385 0.485085 0.788804
Si Si3 0.318786 0.808766 0.921739
Si Si4 0.695582 0.855226 0.923987
O O1 0.076719 0.259922 0.927593
O O2 0.994458 0.412004 0.628987
O O3 0.068724 0.762773 0.748587
O O4 0.631397 0.390823 0.498063
O O5 0.662067 0.576147 0.968799
O O6 0.319807 0.057880 0.125204
O O7 0.260466 0.663316 0.967121
O O8 0.327235 0.920440 0.625446
#
# Coordination Sequence:
#
# PCOD8171803 Si02
#       4
#     4   4   4   4
#     4  12  30  54  79 112 151 204 278 342 394 464
#     4  12  28  52  83 114 157 212 260 332 410 468
#     4  12  27  46  76 118 164 208 255 314 393 493
#     4  12  27  46  76 118 164 208 255 314 393 493
#
# _framework density 26.289300999999998
#
# number of rings (size 3 to 8) (size 9 to 14) (size 15 to 20)
#    0.000    0.000    5.000    3.000    3.500    4.000 
#    0.000    0.000    0.000    0.000    0.000    0.000 
#    0.000    0.000    0.000    0.000    0.000    0.000 
#
# Total GULP energy -198471.513008 kJ/mol
# GULP energy per Si atom -12404.469563 kJ/mol
# Density = 2.622947 g / cm^3
# Si number density = 26.289301 Si / 1000 Ang^3
#
#
#
# Elastic Constant Matrix: (Units=GPa)
#
#
# Indices 1 2 3 4 5 6 
#
# 1 115.4379 39.0244 7.1251 0.0000 0.0000 0.0000
# 2 39.0244 146.3712 -0.6900 0.0000 0.0000 0.0000
# 3 7.1251 -0.6900 60.1963 0.0000 0.0000 0.0000
# 4 0.0000 0.0000 0.0000 34.9444 0.0000 0.0000
# 5 0.0000 0.0000 0.0000 0.0000 34.3428 0.0000
# 6 0.0000 0.0000 0.0000 0.0000 0.0000 45.2685
#
#
#
# Elastic Compliance Matrix: (Units=1/GPa)
#
#
# Indices 1 2 3 4 5 6 
#
# 1 0.009602 -0.002565 -0.001166 0.000000 0.000000 0.000000
# 2 -0.002565 0.007518 0.000390 0.000000 0.000000 0.000000
# 3 -0.001166 0.000390 0.016755 0.000000 0.000000 0.000000
# 4 0.000000 0.000000 0.000000 0.028617 0.000000 0.000000
# 5 0.000000 0.000000 0.000000 0.000000 0.029118 0.000000
# 6 0.000000 0.000000 0.000000 0.000000 0.000000 0.022090
#
#
# Mechanical properties :
#
#
# Convention : Reuss Voigt Hill
#
# Bulk Modulus (GPa) = 36.77648 45.88051 41.32850
# Shear Modulus (GPa) = 38.62589 41.34754 39.98671
#
# Velocity S-wave (km/s) = 3.83725 3.97014 3.90426
# Velocity P-wave (km/s) = 5.80105 6.20533 6.00659
#
# Compressibility (1/GPa) = 0.02719129
#
# Stress axis : x y z
#
# Youngs Moduli (GPa) = 104.14602 133.01808 59.68443
#
# Poissons Ratio (x) = 0.34126 0.06959
# Poissons Ratio (y) = 0.26718 -0.02327
# Poissons Ratio (z) = 0.12143 -0.05185
#
# Static dielectric constant tensor:
#      x y z
#    x 5.108830 0.000000 0.000000 
#    y 0.000000 4.823170 0.000000 
#    z 0.000000 0.000000 4.425840 
# 
# 
# High freq. dielectric constant tensor:
#      x y z
#    x 2.069680 0.000000 0.000000 
#    y 0.000000 2.071760 0.000000 
#    z 0.000000 0.000000 2.040070 
# 
# From -- ./inp_files/2155.got.cif
#   From: 2010.03.12/outbox.cif.g09.slc.cpg/sg33_2_cif.got.tgz:2155.got - 2010.04.14 01:49:19.
