data_PCOD8171239
_publ_section_title
;
Structure prediction by ZEFSAII (Michael W. Deem and Ramdas Pophale) SiO2 
 PCOD8171239
Probable space group: P N A 21
;
_chemical_formula_sum "Si O2"
_cell_formula_units_Z 28
_cell_length_a 18.028176
_cell_length_b 5.026031
_cell_length_c 14.049921
_cell_angle_alpha 90.000000
_cell_angle_beta 90.000000
_cell_angle_gamma 90.000000
_cell_volume 1273.065751
_symmetry_space_group_name_H-M "P N A 21"
_symmetry_group_IT_number 33
_symmetry_cell_setting 'orthorhombic'
loop_
_space_group_symop_operation_xyz
x,y,z
-x,-y,1/2+z
1/2-x,1/2+y,1/2+z
1/2+x,1/2-y,z
loop_
_atom_site_type_symbol
_atom_site_label
_atom_site_fract_x
_atom_site_fract_y
_atom_site_fract_z
Si Si1 0.359037 0.564458 0.723320
Si Si2 0.906827 0.424317 0.614834
Si Si3 0.844528 0.608176 0.893724
Si Si4 0.738569 0.247415 0.796125
Si Si5 0.576922 0.050535 0.577625
Si Si6 0.721733 0.950335 0.982177
Si Si7 0.161500 0.938922 0.637273
O O1 0.409311 0.317468 0.689820
O O2 0.381673 0.655520 0.830883
O O3 0.269803 0.486856 0.725468
O O4 0.368862 0.808733 0.652598
O O5 0.855558 0.340893 0.524962
O O6 0.989813 0.488942 0.585161
O O7 0.818101 0.378960 0.822202
O O8 0.769547 0.701122 0.946932
O O9 0.902951 0.487435 0.967886
O O10 0.700571 0.140122 0.892561
O O11 0.686995 0.457533 0.741292
O O12 0.601261 0.350391 0.599110
O O13 0.619280 0.843511 0.647741
O O14 0.770578 0.097691 0.063531
#
# Coordination Sequence:
#
# PCOD8171239 Si02
#       7
#     4   4   4   4   4   4   4
#     4  11  23  41  70  97 127 178 226 276 338 403
#     4  12  25  45  66  98 139 181 221 277 349 416
#     4  10  22  42  70 100 131 172 232 284 335 405
#     4  11  22  40  72 104 127 172 237 287 334 391
#     4  11  26  45  64  98 141 180 213 278 353 406
#     4  10  23  38  71 101 126 175 230 280 331 404
#     4  11  23  43  69  94 137 176 227 280 330 409
#
# _framework density 21.994152
#
# number of rings (size 3 to 8) (size 9 to 14) (size 15 to 20)
#    0.000    1.143    4.286    0.857    8.000    0.000 
#    2.571    1.429    0.000    0.000    0.000    0.000 
#    0.000    0.000    0.000    0.000    0.000    0.000 
#
# Total GULP energy -347116.885086 kJ/mol
# GULP energy per Si atom -12397.031610 kJ/mol
# Density = 2.194409 g / cm^3
# Si number density = 21.994152 Si / 1000 Ang^3
#
#
#
# Elastic Constant Matrix: (Units=GPa)
#
#
# Indices 1 2 3 4 5 6 
#
# 1 105.7434 26.2482 62.6033 0.0000 0.0000 0.0000
# 2 26.2482 90.3587 32.1393 0.0000 0.0000 0.0000
# 3 62.6033 32.1393 117.4348 0.0000 0.0000 0.0000
# 4 0.0000 0.0000 0.0000 35.8302 0.0000 0.0000
# 5 0.0000 0.0000 0.0000 0.0000 21.5350 0.0000
# 6 0.0000 0.0000 0.0000 0.0000 0.0000 22.7989
#
#
#
# Elastic Compliance Matrix: (Units=1/GPa)
#
#
# Indices 1 2 3 4 5 6 
#
# 1 0.014015 -0.001566 -0.007043 0.000000 0.000000 0.000000
# 2 -0.001566 0.012436 -0.002568 0.000000 0.000000 0.000000
# 3 -0.007043 -0.002568 0.012973 0.000000 0.000000 0.000000
# 4 0.000000 0.000000 0.000000 0.027909 0.000000 0.000000
# 5 0.000000 0.000000 0.000000 0.000000 0.046436 0.000000
# 6 0.000000 0.000000 0.000000 0.000000 0.000000 0.043862
#
#
# Mechanical properties :
#
#
# Convention : Reuss Voigt Hill
#
# Bulk Modulus (GPa) = 58.58681 61.72428 60.15555
# Shear Modulus (GPa) = 26.92882 28.86922 27.89902
#
# Velocity S-wave (km/s) = 3.50289 3.62689 3.56543
# Velocity P-wave (km/s) = 6.56167 6.75752 6.66031
#
# Compressibility (1/GPa) = 0.01706869
#
# Stress axis : x y z
#
# Youngs Moduli (GPa) = 71.35153 80.41480 77.08527
#
# Poissons Ratio (x) = 0.12595 0.54289
# Poissons Ratio (y) = 0.11176 0.19798
# Poissons Ratio (z) = 0.50251 0.20653
#
# Static dielectric constant tensor:
#      x y z
#    x 3.590790 0.000000 0.000000 
#    y 0.000000 4.112440 0.000000 
#    z 0.000000 0.000000 4.133140 
# 
# 
# High freq. dielectric constant tensor:
#      x y z
#    x 1.824140 0.000000 0.000000 
#    y 0.000000 1.880170 0.000000 
#    z 0.000000 0.000000 1.870210 
# 
# From -- ./inp_files/8213.got.cif
#   From: 2010.03.12/outbox.cif.g09.slc.cpg/sg33_5_cif.got.tgz:8213.got - 2010.04.14 01:49:19.
