data_PCOD8171619
_publ_section_title
;
Structure prediction by ZEFSAII (Michael W. Deem and Ramdas Pophale) SiO2 
 PCOD8171619
Probable space group: P N A 21
;
_chemical_formula_sum "Si O2"
_cell_formula_units_Z 28
_cell_length_a 14.322405
_cell_length_b 15.736158
_cell_length_c 5.243990
_cell_angle_alpha 90.000000
_cell_angle_beta 90.000000
_cell_angle_gamma 90.000000
_cell_volume 1181.888516
_symmetry_space_group_name_H-M "P N A 21"
_symmetry_group_IT_number 33
_symmetry_cell_setting 'orthorhombic'
loop_
_space_group_symop_operation_xyz
x,y,z
-x,-y,1/2+z
1/2-x,1/2+y,1/2+z
1/2+x,1/2-y,z
loop_
_atom_site_type_symbol
_atom_site_label
_atom_site_fract_x
_atom_site_fract_y
_atom_site_fract_z
Si Si1 0.136371 0.307223 0.356580
Si Si2 0.258042 0.641253 0.778945
Si Si3 0.436594 0.371921 0.938707
Si Si4 0.157813 0.601288 0.252103
Si Si5 0.598488 0.478382 0.123796
Si Si6 0.519240 0.190159 0.862094
Si Si7 0.728022 0.555293 0.730780
O O1 0.175020 0.220655 0.238861
O O2 0.091018 0.292739 0.633099
O O3 0.219387 0.374853 0.404807
O O4 0.065777 0.336412 0.130601
O O5 0.199191 0.627604 0.523870
O O6 0.324334 0.557571 0.825803
O O7 0.193877 0.661891 0.023192
O O8 0.517444 0.407436 0.123470
O O9 0.329617 0.388934 0.026159
O O10 0.446751 0.430491 0.687734
O O11 0.452482 0.272945 0.889695
O O12 0.186472 0.507147 0.149534
O O13 0.046344 0.611491 0.276320
O O14 0.653316 0.492539 0.861700
#
# Coordination Sequence:
#
# PCOD8171619 Si02
#       7
#     4   4   4   4   4   4   4
#     4  12  28  46  69 104 142 190 234 287 348 428
#     4  11  23  45  69 100 144 175 229 289 353 415
#     4  12  24  43  71 108 141 184 236 297 364 416
#     4  11  25  47  71 102 137 190 231 291 350 415
#     4  11  24  40  71 105 143 176 229 298 358 415
#     4  12  29  45  73 100 146 190 233 289 349 430
#     4  11  27  44  72 103 139 189 236 293 352 421
#
# _framework density 23.690895999999999
#
# number of rings (size 3 to 8) (size 9 to 14) (size 15 to 20)
#    0.000    0.571    4.286    2.571   10.000    1.143 
#    0.000    0.000    0.000    0.000    0.000    0.000 
#    0.000    0.000    0.000    0.000    0.000    0.000 
#
# Total GULP energy -346943.422575 kJ/mol
# GULP energy per Si atom -12390.836521 kJ/mol
# Density = 2.363697 g / cm^3
# Si number density = 23.690896 Si / 1000 Ang^3
#
#
#
# Elastic Constant Matrix: (Units=GPa)
#
#
# Indices 1 2 3 4 5 6 
#
# 1 82.5129 37.9255 22.7911 0.0000 0.0000 0.0000
# 2 37.9255 76.6869 4.6801 0.0000 0.0000 0.0000
# 3 22.7911 4.6801 96.6553 0.0000 0.0000 0.0000
# 4 0.0000 0.0000 0.0000 24.8403 0.0000 0.0000
# 5 0.0000 0.0000 0.0000 0.0000 41.0619 0.0000
# 6 0.0000 0.0000 0.0000 0.0000 0.0000 46.7162
#
#
#
# Elastic Compliance Matrix: (Units=1/GPa)
#
#
# Indices 1 2 3 4 5 6 
#
# 1 0.016833 -0.008107 -0.003577 0.000000 0.000000 0.000000
# 2 -0.008107 0.016983 0.001089 0.000000 0.000000 0.000000
# 3 -0.003577 0.001089 0.011137 0.000000 0.000000 0.000000
# 4 0.000000 0.000000 0.000000 0.040257 0.000000 0.000000
# 5 0.000000 0.000000 0.000000 0.000000 0.024353 0.000000
# 6 0.000000 0.000000 0.000000 0.000000 0.000000 0.021406
#
#
# Mechanical properties :
#
#
# Convention : Reuss Voigt Hill
#
# Bulk Modulus (GPa) = 42.07975 42.96096 42.52036
# Shear Modulus (GPa) = 31.23459 35.22092 33.22775
#
# Velocity S-wave (km/s) = 3.63495 3.85994 3.74913
# Velocity P-wave (km/s) = 5.95127 6.16756 6.06038
#
# Compressibility (1/GPa) = 0.02376440
#
# Stress axis : x y z
#
# Youngs Moduli (GPa) = 59.40601 58.88347 89.79332
#
# Poissons Ratio (x) = 0.47735 0.32117
# Poissons Ratio (y) = 0.48158 -0.09780
# Poissons Ratio (z) = 0.21248 -0.06414
#
# Static dielectric constant tensor:
#      x y z
#    x 4.625000 0.000000 0.000000 
#    y 0.000000 4.254120 0.000000 
#    z 0.000000 0.000000 3.929460 
# 
# 
# High freq. dielectric constant tensor:
#      x y z
#    x 1.948760 0.000000 0.000000 
#    y 0.000000 1.934790 0.000000 
#    z 0.000000 0.000000 1.930370 
# 
# From -- ./inp_files/1399.got.cif
#   From: 2010.03.12/outbox.cif.g09.slc.cpg/sg33_1_cif.got.tgz:1399.got - 2010.04.14 01:49:19.
