data_PCOD8171875
_publ_section_title
;
Structure prediction by ZEFSAII (Michael W. Deem and Ramdas Pophale) SiO2 
 PCOD8171875
Probable space group: P N N 2
;
_chemical_formula_sum "Si O2"
_cell_formula_units_Z 28
_cell_length_a 17.551539
_cell_length_b 9.626485
_cell_length_c 8.477209
_cell_angle_alpha 90.000000
_cell_angle_beta 90.000000
_cell_angle_gamma 90.000000
_cell_volume 1432.306070
_symmetry_space_group_name_H-M "P N N 2"
_symmetry_group_IT_number 34
_symmetry_cell_setting 'orthorhombic'
loop_
_space_group_symop_operation_xyz
x,y,z
-x,-y,z
1/2-x,1/2+y,1/2+z
1/2+x,1/2-y,1/2+z
loop_
_atom_site_type_symbol
_atom_site_label
_atom_site_fract_x
_atom_site_fract_y
_atom_site_fract_z
Si Si1 0.660441 0.605926 0.292630
Si Si2 0.262952 0.928728 0.063653
Si Si3 0.500000 0.000000 0.066237
Si Si4 0.000000 0.500000 0.081053
Si Si5 0.346778 0.715030 0.288964
Si Si6 0.887624 0.597506 0.330216
Si Si7 0.286299 0.718812 0.639439
Si Si8 0.019949 0.707656 0.809814
O O1 0.690124 0.631941 0.471057
O O2 0.663416 0.445257 0.243963
O O3 0.711974 0.686210 0.165101
O O4 0.573733 0.659003 0.298753
O O5 0.298497 0.808541 0.169270
O O6 0.237357 0.059407 0.169347
O O7 0.320015 0.983106 0.923330
O O8 0.448150 0.094779 0.182246
O O9 0.545791 0.111894 0.960168
O O10 0.922787 0.513806 0.183615
O O11 0.981653 0.362426 0.981556
O O12 0.318187 0.745288 0.465083
O O13 0.434578 0.751252 0.266198
O O14 0.852922 0.743043 0.266104
#
# Coordination Sequence:
#
# PCOD8171875 Si02
#       8
#     4   4   2   2   4   4   4   4
#     4  10  24  38  63  90 124 158 202 259 312 364
#     4  10  22  40  63  87 125 166 201 254 307 371
#     4  10  20  34  62  92 120 158 202 252 300 364
#     4  10  22  34  66  92 122 162 206 256 304 372
#     4  11  22  42  61  88 123 162 204 253 306 372
#     4  10  19  37  57  92 123 157 203 253 300 362
#     4  10  22  38  60  90 120 158 206 250 306 365
#     4  11  21  39  63  93 120 165 207 253 309 374
#
# _framework density 19.548891999999999
#
# number of rings (size 3 to 8) (size 9 to 14) (size 15 to 20)
#    0.000    1.714    2.857    1.286    2.000    5.714 
#    0.000    0.000    0.000    1.714    0.000    0.000 
#    0.000    0.000    0.000    0.000    0.000    0.000 
#
# Total GULP energy -346969.181798 kJ/mol
# GULP energy per Si atom -12391.756493 kJ/mol
# Density = 1.950440 g / cm^3
# Si number density = 19.548892 Si / 1000 Ang^3
#
#
#
# Elastic Constant Matrix: (Units=GPa)
#
#
# Indices 1 2 3 4 5 6 
#
# 1 97.6175 69.2066 50.1158 0.0000 0.0000 0.0000
# 2 69.2066 130.7871 65.2295 0.0000 0.0000 0.0000
# 3 50.1158 65.2295 104.2419 0.0000 0.0000 0.0000
# 4 0.0000 0.0000 0.0000 26.8088 0.0000 0.0000
# 5 0.0000 0.0000 0.0000 0.0000 34.0219 0.0000
# 6 0.0000 0.0000 0.0000 0.0000 0.0000 35.7844
#
#
#
# Elastic Compliance Matrix: (Units=1/GPa)
#
#
# Indices 1 2 3 4 5 6 
#
# 1 0.017360 -0.007303 -0.003776 0.000000 0.000000 0.000000
# 2 -0.007303 0.014187 -0.005367 0.000000 0.000000 0.000000
# 3 -0.003776 -0.005367 0.014767 0.000000 0.000000 0.000000
# 4 0.000000 0.000000 0.000000 0.037301 0.000000 0.000000
# 5 0.000000 0.000000 0.000000 0.000000 0.029393 0.000000
# 6 0.000000 0.000000 0.000000 0.000000 0.000000 0.027945
#
#
# Mechanical properties :
#
#
# Convention : Reuss Voigt Hill
#
# Bulk Modulus (GPa) = 74.50270 77.97226 76.23748
# Shear Modulus (GPa) = 28.03972 29.19599 28.61786
#
# Velocity S-wave (km/s) = 3.79137 3.86876 3.83026
# Velocity P-wave (km/s) = 7.57362 7.74136 7.65795
#
# Compressibility (1/GPa) = 0.01342233
#
# Stress axis : x y z
#
# Youngs Moduli (GPa) = 57.60310 70.48798 67.71967
#
# Poissons Ratio (x) = 0.51475 0.25574
# Poissons Ratio (y) = 0.42066 0.36342
# Poissons Ratio (z) = 0.21754 0.37828
#
# Static dielectric constant tensor:
#      x y z
#    x 3.747830 0.000000 0.000000 
#    y 0.000000 3.458750 0.000000 
#    z 0.000000 0.000000 3.722520 
# 
# 
# High freq. dielectric constant tensor:
#      x y z
#    x 1.769260 0.000000 0.000000 
#    y 0.000000 1.744060 0.000000 
#    z 0.000000 0.000000 1.769530 
# 
# From -- ./inp_files/2788.got.cif
#   From: 2010.03.12/outbox.cif.g09.slc.cpg/sg34_2_cif.got.tgz:2788.got - 2010.04.14 01:56:33.
