data_PCOD8171932
_publ_section_title
;
Structure prediction by ZEFSAII (Michael W. Deem and Ramdas Pophale) SiO2 
 PCOD8171932
Probable space group: P N N 2
;
_chemical_formula_sum "Si O2"
_cell_formula_units_Z 18
_cell_length_a 23.038893
_cell_length_b 5.083187
_cell_length_c 7.772917
_cell_angle_alpha 90.000000
_cell_angle_beta 90.000000
_cell_angle_gamma 90.000000
_cell_volume 910.294094
_symmetry_space_group_name_H-M "P N N 2"
_symmetry_group_IT_number 34
_symmetry_cell_setting 'orthorhombic'
loop_
_space_group_symop_operation_xyz
x,y,z
-x,-y,z
1/2-x,1/2+y,1/2+z
1/2+x,1/2-y,1/2+z
loop_
_atom_site_type_symbol
_atom_site_label
_atom_site_fract_x
_atom_site_fract_y
_atom_site_fract_z
Si Si1 0.699809 0.312627 0.553920
Si Si2 0.111165 0.263514 0.334837
Si Si3 0.389115 0.243347 0.045289
Si Si4 0.500000 0.000000 0.937328
Si Si5 0.300333 0.189166 0.327092
O O1 0.637462 0.282855 0.647010
O O2 0.705276 0.605977 0.482113
O O3 0.749836 0.259408 0.691043
O O4 0.704324 0.104652 0.399955
O O5 0.140846 0.518672 0.425158
O O6 0.041505 0.316202 0.317835
O O7 0.124186 0.021486 0.460062
O O8 0.362391 0.232658 0.235382
O O9 0.458539 0.183423 0.056850
#
# Coordination Sequence:
#
# PCOD8171932 Si02
#       5
#     4   4   4   2   4
#     4  12  24  40  63  94 125 159 201 254 308 363
#     4  10  20  39  64  88 118 163 205 242 301 363
#     4  10  20  39  64  88 118 163 205 242 301 363
#     4   8  22  36  72  76 126 160 216 228 320 348
#     4  12  24  40  63  94 125 159 201 254 308 363
#
# _framework density 19.773831000000001
#
# number of rings (size 3 to 8) (size 9 to 14) (size 15 to 20)
#    1.333    0.000    0.000    7.333    0.000    0.000 
#    0.000    1.111    0.000    0.000    0.000    0.000 
#    0.000    0.000    0.000    0.000    0.000    0.000 
#
# Total GULP energy -223140.463437 kJ/mol
# GULP energy per Si atom -12396.692413 kJ/mol
# Density = 1.972882 g / cm^3
# Si number density = 19.773831 Si / 1000 Ang^3
#
#
#
# Elastic Constant Matrix: (Units=GPa)
#
#
# Indices 1 2 3 4 5 6 
#
# 1 116.1992 7.0144 43.7072 0.0000 0.0000 0.0000
# 2 7.0144 90.7452 11.3576 0.0000 0.0000 0.0000
# 3 43.7072 11.3576 76.9158 0.0000 0.0000 0.0000
# 4 0.0000 0.0000 0.0000 47.3798 0.0000 0.0000
# 5 0.0000 0.0000 0.0000 0.0000 43.7013 0.0000
# 6 0.0000 0.0000 0.0000 0.0000 0.0000 19.9893
#
#
#
# Elastic Compliance Matrix: (Units=1/GPa)
#
#
# Indices 1 2 3 4 5 6 
#
# 1 0.010946 -0.000069 -0.006210 0.000000 0.000000 0.000000
# 2 -0.000069 0.011228 -0.001619 0.000000 0.000000 0.000000
# 3 -0.006210 -0.001619 0.016769 0.000000 0.000000 0.000000
# 4 0.000000 0.000000 0.000000 0.021106 0.000000 0.000000
# 5 0.000000 0.000000 0.000000 0.000000 0.022883 0.000000
# 6 0.000000 0.000000 0.000000 0.000000 0.000000 0.050027
#
#
# Mechanical properties :
#
#
# Convention : Reuss Voigt Hill
#
# Bulk Modulus (GPa) = 43.20084 45.33541 44.26813
# Shear Modulus (GPa) = 31.95527 36.99948 34.47737
#
# Velocity S-wave (km/s) = 4.02436 4.33035 4.18016
# Velocity P-wave (km/s) = 6.59461 6.92671 6.76270
#
# Compressibility (1/GPa) = 0.02314770
#
# Stress axis : x y z
#
# Youngs Moduli (GPa) = 91.35915 89.06469 59.63402
#
# Poissons Ratio (x) = 0.00613 0.37031
# Poissons Ratio (y) = 0.00629 0.09654
# Poissons Ratio (z) = 0.56732 0.14418
#
# Static dielectric constant tensor:
#      x y z
#    x 3.660460 0.000000 0.000000 
#    y 0.000000 3.663700 0.000000 
#    z 0.000000 0.000000 3.380450 
# 
# 
# High freq. dielectric constant tensor:
#      x y z
#    x 1.770560 0.000000 0.000000 
#    y 0.000000 1.790320 0.000000 
#    z 0.000000 0.000000 1.746620 
# 
# From -- ./inp_files/143.got.cif
#   From: 2010.03.12/outbox.cif.g09.slc.cpg/sg34_1_cif.got.tgz:143.got - 2010.04.14 01:56:33.
