data_PCOD8171381
_publ_section_title
;
Structure prediction by ZEFSAII (Michael W. Deem and Ramdas Pophale) SiO2 
 PCOD8171381
Probable space group: P N A 21
;
_chemical_formula_sum "Si O2"
_cell_formula_units_Z 32
_cell_length_a 8.525174
_cell_length_b 15.296120
_cell_length_c 11.842473
_cell_angle_alpha 90.000000
_cell_angle_beta 90.000000
_cell_angle_gamma 90.000000
_cell_volume 1544.283165
_symmetry_space_group_name_H-M "P N A 21"
_symmetry_group_IT_number 33
_symmetry_cell_setting 'orthorhombic'
loop_
_space_group_symop_operation_xyz
x,y,z
-x,-y,1/2+z
1/2-x,1/2+y,1/2+z
1/2+x,1/2-y,z
loop_
_atom_site_type_symbol
_atom_site_label
_atom_site_fract_x
_atom_site_fract_y
_atom_site_fract_z
Si Si1 0.841822 0.512858 0.601300
Si Si2 0.882748 0.201176 0.621533
Si Si3 0.465456 0.706462 0.879019
Si Si4 0.828030 0.970337 0.418166
Si Si5 0.800760 0.528053 0.138333
Si Si6 0.181395 0.026260 0.381540
Si Si7 0.194202 0.141744 0.720812
Si Si8 0.267336 0.864074 0.787782
O O1 0.808076 0.515812 0.467609
O O2 0.711599 0.447573 0.651120
O O3 0.816102 0.607533 0.660505
O O4 0.013259 0.476585 0.628207
O O5 0.948149 0.222709 0.497837
O O6 0.814910 0.287456 0.677395
O O7 0.016415 0.170756 0.706121
O O8 0.748798 0.127722 0.612737
O O9 0.332009 0.631800 0.894250
O O10 0.391413 0.795872 0.836835
O O11 0.592747 0.676480 0.785971
O O12 0.781523 0.962277 0.549105
O O13 0.779211 0.881140 0.353256
O O14 0.728718 0.051329 0.368246
O O15 0.012830 0.984482 0.404658
O O16 0.744633 0.496957 0.259394
#
# Coordination Sequence:
#
# PCOD8171381 Si02
#       8
#     4   4   4   4   4   4   4   4
#     4  11  26  42  66  99 142 172 232 281 347 414
#     4  12  22  40  67 105 130 179 227 290 337 402
#     4  11  23  39  70  99 137 170 240 282 348 398
#     4  10  23  44  65  96 135 176 226 276 356 410
#     4  12  25  41  71  99 133 182 234 272 351 415
#     4  11  24  44  70  93 134 187 222 287 339 416
#     4  11  23  41  66  96 138 168 221 290 340 398
#     4  10  24  41  65  99 133 176 218 296 340 407
#
# _framework density 20.721589999999999
#
# number of rings (size 3 to 8) (size 9 to 14) (size 15 to 20)
#    0.000    1.000    5.000    1.500   10.500    0.000 
#    0.000    1.250    0.000    0.000    0.000    0.000 
#    0.000    0.000    0.000    0.000    0.000    0.000 
#
# Total GULP energy -396876.456974 kJ/mol
# GULP energy per Si atom -12402.389280 kJ/mol
# Density = 2.067443 g / cm^3
# Si number density = 20.721590 Si / 1000 Ang^3
#
#
#
# Elastic Constant Matrix: (Units=GPa)
#
#
# Indices 1 2 3 4 5 6 
#
# 1 96.7733 49.9935 49.0522 0.0000 0.0000 0.0000
# 2 49.9935 112.6198 59.4647 0.0000 0.0000 0.0000
# 3 49.0522 59.4647 155.1025 0.0000 0.0000 0.0000
# 4 0.0000 0.0000 0.0000 36.6595 0.0000 0.0000
# 5 0.0000 0.0000 0.0000 0.0000 31.3182 0.0000
# 6 0.0000 0.0000 0.0000 0.0000 0.0000 27.6297
#
#
#
# Elastic Compliance Matrix: (Units=1/GPa)
#
#
# Indices 1 2 3 4 5 6 
#
# 1 0.014198 -0.004930 -0.002600 0.000000 0.000000 0.000000
# 2 -0.004930 0.012845 -0.003366 0.000000 0.000000 0.000000
# 3 -0.002600 -0.003366 0.008560 0.000000 0.000000 0.000000
# 4 0.000000 0.000000 0.000000 0.027278 0.000000 0.000000
# 5 0.000000 0.000000 0.000000 0.000000 0.031930 0.000000
# 6 0.000000 0.000000 0.000000 0.000000 0.000000 0.036193
#
#
# Mechanical properties :
#
#
# Convention : Reuss Voigt Hill
#
# Bulk Modulus (GPa) = 72.40108 75.72405 74.06257
# Shear Modulus (GPa) = 31.76630 32.85381 32.31005
#
# Velocity S-wave (km/s) = 3.91961 3.98614 3.95301
# Velocity P-wave (km/s) = 7.44985 7.60320 7.52691
#
# Compressibility (1/GPa) = 0.01381195
#
# Stress axis : x y z
#
# Youngs Moduli (GPa) = 70.43156 77.85205 116.82246
#
# Poissons Ratio (x) = 0.38380 0.30377
# Poissons Ratio (y) = 0.34721 0.39317
# Poissons Ratio (z) = 0.18314 0.26201
#
# Static dielectric constant tensor:
#      x y z
#    x 3.841860 0.000000 0.000000 
#    y 0.000000 3.783540 0.000000 
#    z 0.000000 0.000000 3.934390 
# 
# 
# High freq. dielectric constant tensor:
#      x y z
#    x 1.821640 0.000000 0.000000 
#    y 0.000000 1.797710 0.000000 
#    z 0.000000 0.000000 1.809170 
# 
# From -- ./inp_files/5974.got.cif
#   From: 2010.03.12/outbox.cif.g09.slc.cpg/sg33_3_cif.got.tgz:5974.got - 2010.04.14 01:49:19.
