data_PCOD8171044
_publ_section_title
;
Structure prediction by ZEFSAII (Michael W. Deem and Ramdas Pophale) SiO2 
 PCOD8171044
Probable space group: P N A 21
;
_chemical_formula_sum "Si O2"
_cell_formula_units_Z 32
_cell_length_a 11.024197
_cell_length_b 21.938545
_cell_length_c 6.595739
_cell_angle_alpha 90.000000
_cell_angle_beta 90.000000
_cell_angle_gamma 90.000000
_cell_volume 1595.211414
_symmetry_space_group_name_H-M "P N A 21"
_symmetry_group_IT_number 33
_symmetry_cell_setting 'orthorhombic'
loop_
_space_group_symop_operation_xyz
x,y,z
-x,-y,1/2+z
1/2-x,1/2+y,1/2+z
1/2+x,1/2-y,z
loop_
_atom_site_type_symbol
_atom_site_label
_atom_site_fract_x
_atom_site_fract_y
_atom_site_fract_z
Si Si1 0.838500 0.484925 0.035550
Si Si2 0.435247 0.831741 0.010015
Si Si3 0.359522 0.701793 0.974132
Si Si4 0.296561 0.638032 0.571424
Si Si5 0.026798 0.839870 0.305224
Si Si6 0.229974 0.403498 0.798356
Si Si7 0.412586 0.932344 0.686688
Si Si8 0.354646 0.212368 0.775697
O O1 0.739055 0.432064 0.043700
O O2 0.798986 0.530204 0.212757
O O3 0.974647 0.462368 0.073176
O O4 0.837493 0.517119 0.814742
O O5 0.322023 0.851509 0.149622
O O6 0.549319 0.829825 0.160042
O O7 0.414423 0.766476 0.899218
O O8 0.463324 0.880764 0.837221
O O9 0.303045 0.659265 0.803200
O O10 0.463378 0.662207 0.085075
O O11 0.258807 0.723346 0.131757
O O12 0.428521 0.647657 0.477631
O O13 0.189560 0.677568 0.474568
O O14 0.125563 0.893533 0.310388
O O15 0.089081 0.775337 0.352976
O O16 0.175528 0.400151 0.024703
#
# Coordination Sequence:
#
# PCOD8171044 Si02
#       8
#     4   4   4   4   4   4   4   4
#     4  11  24  43  62  96 123 168 216 268 321 377
#     4  10  22  37  66  96 124 166 209 263 326 378
#     4  10  22  41  64  95 131 167 207 260 320 395
#     4  11  25  40  66  97 130 172 215 259 325 394
#     4  10  24  43  60  94 134 169 212 263 319 385
#     4  11  23  43  65  89 129 168 216 271 315 380
#     4  11  23  39  70  92 124 163 219 272 322 380
#     4  10  21  40  65  93 133 161 206 270 316 377
#
# _framework density 20.060039
#
# number of rings (size 3 to 8) (size 9 to 14) (size 15 to 20)
#    0.000    1.500    2.500    1.500    3.500    7.000 
#    4.500    0.000    0.000    0.000    0.000    0.000 
#    0.000    0.000    0.000    0.000    0.000    0.000 
#
# Total GULP energy -396907.169437 kJ/mol
# GULP energy per Si atom -12403.349045 kJ/mol
# Density = 2.001438 g / cm^3
# Si number density = 20.060039 Si / 1000 Ang^3
#
#
#
# Elastic Constant Matrix: (Units=GPa)
#
#
# Indices 1 2 3 4 5 6 
#
# 1 102.5722 45.4946 21.2289 0.0000 0.0000 0.0000
# 2 45.4946 88.7835 39.8470 0.0000 0.0000 0.0000
# 3 21.2289 39.8470 80.6180 0.0000 0.0000 0.0000
# 4 0.0000 0.0000 0.0000 20.6762 0.0000 0.0000
# 5 0.0000 0.0000 0.0000 0.0000 26.9649 0.0000
# 6 0.0000 0.0000 0.0000 0.0000 0.0000 40.8988
#
#
#
# Elastic Compliance Matrix: (Units=1/GPa)
#
#
# Indices 1 2 3 4 5 6 
#
# 1 0.012618 -0.006393 -0.000163 0.000000 0.000000 0.000000
# 2 -0.006393 0.017713 -0.007072 0.000000 0.000000 0.000000
# 3 -0.000163 -0.007072 0.015942 0.000000 0.000000 0.000000
# 4 0.000000 0.000000 0.000000 0.048365 0.000000 0.000000
# 5 0.000000 0.000000 0.000000 0.000000 0.037085 0.000000
# 6 0.000000 0.000000 0.000000 0.000000 0.000000 0.024451
#
#
# Mechanical properties :
#
#
# Convention : Reuss Voigt Hill
#
# Bulk Modulus (GPa) = 52.57906 53.90164 53.24035
# Shear Modulus (GPa) = 26.34784 28.73484 27.54134
#
# Velocity S-wave (km/s) = 3.62809 3.78887 3.70935
# Velocity P-wave (km/s) = 6.61955 6.78743 6.70401
#
# Compressibility (1/GPa) = 0.01901898
#
# Stress axis : x y z
#
# Youngs Moduli (GPa) = 79.24933 56.45579 62.72590
#
# Poissons Ratio (x) = 0.36091 0.01022
# Poissons Ratio (y) = 0.50662 0.44357
# Poissons Ratio (z) = 0.01292 0.39923
#
# Static dielectric constant tensor:
#      x y z
#    x 3.723810 0.000000 0.000000 
#    y 0.000000 3.631800 0.000000 
#    z 0.000000 0.000000 3.576230 
# 
# 
# High freq. dielectric constant tensor:
#      x y z
#    x 1.786900 0.000000 0.000000 
#    y 0.000000 1.785290 0.000000 
#    z 0.000000 0.000000 1.782370 
# 
# From -- ./inp_files/1095.got.cif
#   From: 2010.03.12/outbox.cif.g09.slc.cpg/sg33_1_cif.got.tgz:1095.got - 2010.04.14 01:49:19.
