data_PCOD8171898
_publ_section_title
;
Structure prediction by ZEFSAII (Michael W. Deem and Ramdas Pophale) SiO2 
 PCOD8171898
Probable space group: P N N 2
;
_chemical_formula_sum "Si O2"
_cell_formula_units_Z 24
_cell_length_a 4.825432
_cell_length_b 21.225970
_cell_length_c 11.792738
_cell_angle_alpha 90.000000
_cell_angle_beta 90.000000
_cell_angle_gamma 90.000000
_cell_volume 1207.864997
_symmetry_space_group_name_H-M "P N N 2"
_symmetry_group_IT_number 34
_symmetry_cell_setting 'orthorhombic'
loop_
_space_group_symop_operation_xyz
x,y,z
-x,-y,z
1/2-x,1/2+y,1/2+z
1/2+x,1/2-y,1/2+z
loop_
_atom_site_type_symbol
_atom_site_label
_atom_site_fract_x
_atom_site_fract_y
_atom_site_fract_z
Si Si1 0.229863 0.673208 0.565920
Si Si2 0.784426 0.198466 0.465154
Si Si3 0.545183 0.929460 0.902740
Si Si4 0.030730 0.929628 0.748616
Si Si5 0.208644 0.671919 0.105232
Si Si6 0.721221 0.699629 0.706814
O O1 0.311551 0.728447 0.476994
O O2 0.046586 0.618500 0.507184
O O3 0.516512 0.655159 0.630703
O O4 0.035959 0.697869 0.666206
O O5 0.582579 0.153460 0.543058
O O6 0.779787 0.176188 0.335765
O O7 0.101526 0.197883 0.504092
O O8 0.860675 0.925106 0.863884
O O9 0.343427 0.913152 0.793710
O O10 0.500000 0.000000 0.948645
O O11 0.890727 0.884102 0.657592
O O12 0.000000 0.000000 0.697049
O O13 0.133119 0.726374 0.196664
#
# Coordination Sequence:
#
# PCOD8171898 Si02
#       6
#     4   4   4   4   4   4
#     4  10  20  33  52  76 104 137 170 213 263 312
#     4  10  20  33  51  76 105 137 171 210 260 314
#     4  10  20  34  54  79 105 135 173 220 269 314
#     4  10  20  34  54  79 105 135 173 220 269 314
#     4  10  20  33  52  76 104 137 170 213 263 312
#     4  10  20  33  51  76 105 137 171 210 260 314
#
# _framework density 19.869772000000001
#
# number of rings (size 3 to 8) (size 9 to 14) (size 15 to 20)
#    0.000    2.000    0.000    4.000    0.000    5.333 
#    0.000    0.000    0.000    4.000    0.000    0.000 
#    0.000    0.000    0.000    0.000    0.000    0.000 
#
# Total GULP energy -297337.989260 kJ/mol
# GULP energy per Si atom -12389.082886 kJ/mol
# Density = 1.982455 g / cm^3
# Si number density = 19.869772 Si / 1000 Ang^3
#
#
#
# Elastic Constant Matrix: (Units=GPa)
#
#
# Indices 1 2 3 4 5 6 
#
# 1 88.2727 10.3281 15.0408 0.0000 0.0000 0.0000
# 2 10.3281 72.1368 28.4424 0.0000 0.0000 0.0000
# 3 15.0408 28.4424 85.0073 0.0000 0.0000 0.0000
# 4 0.0000 0.0000 0.0000 14.2868 0.0000 0.0000
# 5 0.0000 0.0000 0.0000 0.0000 25.5308 0.0000
# 6 0.0000 0.0000 0.0000 0.0000 0.0000 24.1120
#
#
#
# Elastic Compliance Matrix: (Units=1/GPa)
#
#
# Indices 1 2 3 4 5 6 
#
# 1 0.011742 -0.000993 -0.001745 0.000000 0.000000 0.000000
# 2 -0.000993 0.016053 -0.005196 0.000000 0.000000 0.000000
# 3 -0.001745 -0.005196 0.013811 0.000000 0.000000 0.000000
# 4 0.000000 0.000000 0.000000 0.069994 0.000000 0.000000
# 5 0.000000 0.000000 0.000000 0.000000 0.039168 0.000000
# 6 0.000000 0.000000 0.000000 0.000000 0.000000 0.041473
#
#
# Mechanical properties :
#
#
# Convention : Reuss Voigt Hill
#
# Bulk Modulus (GPa) = 38.85234 39.22659 39.03947
# Shear Modulus (GPa) = 23.07450 25.55962 24.31706
#
# Velocity S-wave (km/s) = 3.41146 3.59047 3.50211
# Velocity P-wave (km/s) = 5.92565 6.08057 6.00361
#
# Compressibility (1/GPa) = 0.02573848
#
# Stress axis : x y z
#
# Youngs Moduli (GPa) = 85.16362 62.29271 72.40675
#
# Poissons Ratio (x) = 0.06186 0.12637
# Poissons Ratio (y) = 0.08457 0.37619
# Poissons Ratio (z) = 0.14864 0.32364
#
# Static dielectric constant tensor:
#      x y z
#    x 3.890060 0.000000 0.000000 
#    y 0.000000 3.541420 0.000000 
#    z 0.000000 0.000000 3.298260 
# 
# 
# High freq. dielectric constant tensor:
#      x y z
#    x 1.804150 0.000000 0.000000 
#    y 0.000000 1.736100 0.000000 
#    z 0.000000 0.000000 1.754800 
# 
# From -- ./inp_files/4052.got.cif
#   From: 2010.03.12/outbox.cif.g09.slc.cpg/sg34_3_cif.got.tgz:4052.got - 2010.04.14 01:56:33.
