data_PCOD8171695
_publ_section_title
;
Structure prediction by ZEFSAII (Michael W. Deem and Ramdas Pophale) SiO2 
 PCOD8171695
Probable space group: P N A 21
;
_chemical_formula_sum "Si O2"
_cell_formula_units_Z 28
_cell_length_a 23.738729
_cell_length_b 6.457322
_cell_length_c 8.074216
_cell_angle_alpha 90.000000
_cell_angle_beta 90.000000
_cell_angle_gamma 90.000000
_cell_volume 1237.685404
_symmetry_space_group_name_H-M "P N A 21"
_symmetry_group_IT_number 33
_symmetry_cell_setting 'orthorhombic'
loop_
_space_group_symop_operation_xyz
x,y,z
-x,-y,1/2+z
1/2-x,1/2+y,1/2+z
1/2+x,1/2-y,z
loop_
_atom_site_type_symbol
_atom_site_label
_atom_site_fract_x
_atom_site_fract_y
_atom_site_fract_z
Si Si1 0.003883 0.294027 0.505320
Si Si2 0.208342 0.248255 0.486372
Si Si3 0.408136 0.903625 0.505207
Si Si4 0.369935 0.365742 0.918269
Si Si5 0.804880 0.454522 0.697184
Si Si6 0.389923 0.001929 0.129994
Si Si7 0.966370 0.930940 0.706736
O O1 0.062738 0.416017 0.505223
O O2 0.995291 0.229243 0.312185
O O3 0.951409 0.424959 0.574908
O O4 0.007988 0.095402 0.624693
O O5 0.225258 0.377459 0.319336
O O6 0.169732 0.392753 0.599301
O O7 0.177373 0.037183 0.441572
O O8 0.262580 0.187599 0.593274
O O9 0.344630 0.922600 0.569905
O O10 0.409519 0.937865 0.310551
O O11 0.431166 0.679171 0.559693
O O12 0.425234 0.466436 0.841635
O O13 0.346127 0.190853 0.798645
O O14 0.384280 0.248891 0.092807
#
# Coordination Sequence:
#
# PCOD8171695 Si02
#       7
#     4   4   4   4   4   4   4
#     4  12  26  43  72 104 142 188 231 290 351 432
#     4  11  26  47  71  99 139 184 235 296 355 423
#     4  12  26  44  68 105 141 182 234 294 348 425
#     4  11  24  48  69  96 141 183 227 296 348 425
#     4  11  26  46  70 101 136 184 237 293 355 423
#     4  11  27  43  69 106 139 180 239 285 355 422
#     4  12  25  45  71 101 144 187 235 286 362 422
#
# _framework density 22.622873999999999
#
# number of rings (size 3 to 8) (size 9 to 14) (size 15 to 20)
#    0.000    0.571    4.286    2.571   10.000    3.429 
#    0.000    0.000    0.000    0.000    0.000    0.000 
#    0.000    0.000    0.000    0.000    0.000    0.000 
#
# Total GULP energy -347222.883969 kJ/mol
# GULP energy per Si atom -12400.817285 kJ/mol
# Density = 2.257138 g / cm^3
# Si number density = 22.622874 Si / 1000 Ang^3
#
#
#
# Elastic Constant Matrix: (Units=GPa)
#
#
# Indices 1 2 3 4 5 6 
#
# 1 92.7760 27.9260 19.8297 0.0000 0.0000 0.0000
# 2 27.9260 96.7229 34.0052 0.0000 0.0000 0.0000
# 3 19.8297 34.0052 92.4353 0.0000 0.0000 0.0000
# 4 0.0000 0.0000 0.0000 42.6357 0.0000 0.0000
# 5 0.0000 0.0000 0.0000 0.0000 32.1335 0.0000
# 6 0.0000 0.0000 0.0000 0.0000 0.0000 34.0620
#
#
#
# Elastic Compliance Matrix: (Units=1/GPa)
#
#
# Indices 1 2 3 4 5 6 
#
# 1 0.011981 -0.002935 -0.001490 0.000000 0.000000 0.000000
# 2 -0.002935 0.012594 -0.004003 0.000000 0.000000 0.000000
# 3 -0.001490 -0.004003 0.012611 0.000000 0.000000 0.000000
# 4 0.000000 0.000000 0.000000 0.023455 0.000000 0.000000
# 5 0.000000 0.000000 0.000000 0.000000 0.031120 0.000000
# 6 0.000000 0.000000 0.000000 0.000000 0.000000 0.029358
#
#
# Mechanical properties :
#
#
# Convention : Reuss Voigt Hill
#
# Bulk Modulus (GPa) = 49.19422 49.49512 49.34467
# Shear Modulus (GPa) = 34.54191 35.11113 34.82652
#
# Velocity S-wave (km/s) = 3.91174 3.94384 3.92782
# Velocity P-wave (km/s) = 6.49576 6.53180 6.51380
#
# Compressibility (1/GPa) = 0.02032759
#
# Stress axis : x y z
#
# Youngs Moduli (GPa) = 83.46767 79.40472 79.29674
#
# Poissons Ratio (x) = 0.23306 0.11818
# Poissons Ratio (y) = 0.24499 0.31745
# Poissons Ratio (z) = 0.12440 0.31788
#
# Static dielectric constant tensor:
#      x y z
#    x 3.921910 0.000000 0.000000 
#    y 0.000000 4.367760 0.000000 
#    z 0.000000 0.000000 4.173540 
# 
# 
# High freq. dielectric constant tensor:
#      x y z
#    x 1.887180 0.000000 0.000000 
#    y 0.000000 1.906040 0.000000 
#    z 0.000000 0.000000 1.897100 
# 
# From -- ./inp_files/5149.got.cif
#   From: 2010.03.12/outbox.cif.g09.slc.cpg/sg33_3_cif.got.tgz:5149.got - 2010.04.14 01:49:19.
