data_PCOD8171076
_publ_section_title
;
Structure prediction by ZEFSAII (Michael W. Deem and Ramdas Pophale) SiO2 
 PCOD8171076
Probable space group: P N A 21
;
_chemical_formula_sum "Si O2"
_cell_formula_units_Z 32
_cell_length_a 12.501762
_cell_length_b 7.763103
_cell_length_c 15.491035
_cell_angle_alpha 90.000000
_cell_angle_beta 90.000000
_cell_angle_gamma 90.000000
_cell_volume 1503.443149
_symmetry_space_group_name_H-M "P N A 21"
_symmetry_group_IT_number 33
_symmetry_cell_setting 'orthorhombic'
loop_
_space_group_symop_operation_xyz
x,y,z
-x,-y,1/2+z
1/2-x,1/2+y,1/2+z
1/2+x,1/2-y,z
loop_
_atom_site_type_symbol
_atom_site_label
_atom_site_fract_x
_atom_site_fract_y
_atom_site_fract_z
Si Si1 0.559498 0.168057 0.884480
Si Si2 0.219445 0.276019 0.290966
Si Si3 0.552237 0.947916 0.216962
Si Si4 0.174115 0.545993 0.652500
Si Si5 0.140400 0.671998 0.474176
Si Si6 0.771120 0.978375 0.931476
Si Si7 0.810938 0.249520 0.576606
Si Si8 0.337253 0.476987 0.416377
O O1 0.492145 0.165012 0.796161
O O2 0.480982 0.105743 0.961548
O O3 0.583419 0.366474 0.904280
O O4 0.662438 0.045672 0.884012
O O5 0.135239 0.408039 0.249995
O O6 0.250361 0.132352 0.222261
O O7 0.172527 0.169171 0.373359
O O8 0.329000 0.364583 0.328143
O O9 0.604900 0.821993 0.146061
O O10 0.449702 0.039727 0.176925
O O11 0.179181 0.674167 0.571924
O O12 0.221157 0.357998 0.628786
O O13 0.215395 0.543354 0.421460
O O14 0.146993 0.865682 0.438443
O O15 0.745884 0.907500 0.027201
O O16 0.868831 0.131743 0.502559
#
# Coordination Sequence:
#
# PCOD8171076 Si02
#       8
#     4   4   4   4   4   4   4   4
#     4  11  22  40  70  96 126 171 218 267 324 393
#     4  11  23  42  66  94 136 170 216 269 323 384
#     4  12  25  41  69  99 134 169 219 278 326 380
#     4  11  25  43  64  99 132 168 217 271 329 380
#     4  10  21  41  66  91 125 169 212 264 325 388
#     4  10  22  44  68  92 131 177 214 265 326 388
#     4  10  24  44  65  93 135 174 217 272 324 391
#     4   9  22  43  64  92 129 172 213 262 323 394
#
# _framework density 21.284476000000002
#
# number of rings (size 3 to 8) (size 9 to 14) (size 15 to 20)
#    0.000    1.500    2.500    1.500    3.500    4.000 
#    2.250    0.000    0.000    0.000    0.000    0.000 
#    0.000    0.000    0.000    0.000    0.000    0.000 
#
# Total GULP energy -396623.145396 kJ/mol
# GULP energy per Si atom -12394.473294 kJ/mol
# Density = 2.123603 g / cm^3
# Si number density = 21.284476 Si / 1000 Ang^3
#
#
#
# Elastic Constant Matrix: (Units=GPa)
#
#
# Indices 1 2 3 4 5 6 
#
# 1 89.4333 33.1243 39.4294 0.0000 0.0000 0.0000
# 2 33.1243 104.1871 43.8186 0.0000 0.0000 0.0000
# 3 39.4294 43.8186 100.4992 0.0000 0.0000 0.0000
# 4 0.0000 0.0000 0.0000 41.8568 0.0000 0.0000
# 5 0.0000 0.0000 0.0000 0.0000 24.9621 0.0000
# 6 0.0000 0.0000 0.0000 0.0000 0.0000 21.3836
#
#
#
# Elastic Compliance Matrix: (Units=1/GPa)
#
#
# Indices 1 2 3 4 5 6 
#
# 1 0.014088 -0.002638 -0.004377 0.000000 0.000000 0.000000
# 2 -0.002638 0.012247 -0.004305 0.000000 0.000000 0.000000
# 3 -0.004377 -0.004305 0.013545 0.000000 0.000000 0.000000
# 4 0.000000 0.000000 0.000000 0.023891 0.000000 0.000000
# 5 0.000000 0.000000 0.000000 0.000000 0.040061 0.000000
# 6 0.000000 0.000000 0.000000 0.000000 0.000000 0.046765
#
#
# Mechanical properties :
#
#
# Convention : Reuss Voigt Hill
#
# Bulk Modulus (GPa) = 58.00477 58.54046 58.27261
# Shear Modulus (GPa) = 27.93544 29.49034 28.71289
#
# Velocity S-wave (km/s) = 3.62675 3.72631 3.67687
# Velocity P-wave (km/s) = 6.69694 6.78803 6.74264
#
# Compressibility (1/GPa) = 0.01723996
#
# Stress axis : x y z
#
# Youngs Moduli (GPa) = 70.98015 81.64975 73.83018
#
# Poissons Ratio (x) = 0.21541 0.32316
# Poissons Ratio (y) = 0.18726 0.31783
# Poissons Ratio (z) = 0.31069 0.35149
#
# Static dielectric constant tensor:
#      x y z
#    x 3.690280 0.000000 0.000000 
#    y 0.000000 3.883440 0.000000 
#    z 0.000000 0.000000 4.091790 
# 
# 
# High freq. dielectric constant tensor:
#      x y z
#    x 1.817920 0.000000 0.000000 
#    y 0.000000 1.844020 0.000000 
#    z 0.000000 0.000000 1.849610 
# 
# From -- ./inp_files/7952.got.cif
#   From: 2010.03.12/outbox.cif.g09.slc.cpg/sg33_4_cif.got.tgz:7952.got - 2010.04.14 01:49:19.
