data_PCOD8171451
_publ_section_title
;
Structure prediction by ZEFSAII (Michael W. Deem and Ramdas Pophale) SiO2 
 PCOD8171451
Probable space group: P N A 21
;
_chemical_formula_sum "Si O2"
_cell_formula_units_Z 28
_cell_length_a 9.151231
_cell_length_b 6.111100
_cell_length_c 22.851749
_cell_angle_alpha 90.000000
_cell_angle_beta 90.000000
_cell_angle_gamma 90.000000
_cell_volume 1277.963217
_symmetry_space_group_name_H-M "P N A 21"
_symmetry_group_IT_number 33
_symmetry_cell_setting 'orthorhombic'
loop_
_space_group_symop_operation_xyz
x,y,z
-x,-y,1/2+z
1/2-x,1/2+y,1/2+z
1/2+x,1/2-y,z
loop_
_atom_site_type_symbol
_atom_site_label
_atom_site_fract_x
_atom_site_fract_y
_atom_site_fract_z
Si Si1 0.691602 0.181932 0.328200
Si Si2 0.144417 0.206317 0.771189
Si Si3 0.130598 0.246076 0.555240
Si Si4 0.619828 0.045160 0.008755
Si Si5 0.880194 0.948162 0.598667
Si Si6 0.619986 0.478809 0.227545
Si Si7 0.921597 0.514203 0.378663
O O1 0.593710 0.319158 0.282309
O O2 0.808061 0.323217 0.363523
O O3 0.759354 0.003049 0.285412
O O4 0.585119 0.082562 0.377262
O O5 0.229152 0.393852 0.736585
O O6 0.083426 0.289502 0.832988
O O7 0.013122 0.148853 0.727673
O O8 0.237830 0.398017 0.593280
O O9 0.024044 0.398805 0.517599
O O10 0.232158 0.094318 0.514684
O O11 0.029054 0.087806 0.594010
O O12 0.622162 0.252473 0.051942
O O13 0.612742 0.122369 0.941521
O O14 0.875942 0.853866 0.664935
#
# Coordination Sequence:
#
# PCOD8171451 Si02
#       7
#     4   4   4   4   4   4   4
#     4  11  23  42  65  99 129 174 215 273 336 391
#     4  11  23  42  65  99 129 174 215 273 336 391
#     4  10  24  44  64 100 126 176 230 268 346 394
#     4  11  24  44  68  96 135 178 223 282 336 397
#     4  11  24  44  68  96 135 178 223 282 336 397
#     4  11  24  42  67  96 131 170 223 270 330 402
#     4  11  24  42  67  96 131 170 223 270 330 402
#
# _framework density 21.909863999999999
#
# number of rings (size 3 to 8) (size 9 to 14) (size 15 to 20)
#    0.000    1.143    2.857    2.571    0.000    9.143 
#    0.000    0.000    0.000    0.000    0.000    0.000 
#    0.000    0.000    0.000    0.000    0.000    0.000 
#
# Total GULP energy -347200.927371 kJ/mol
# GULP energy per Si atom -12400.033120 kJ/mol
# Density = 2.186000 g / cm^3
# Si number density = 21.909864 Si / 1000 Ang^3
#
#
#
# Elastic Constant Matrix: (Units=GPa)
#
#
# Indices 1 2 3 4 5 6 
#
# 1 117.5072 23.8207 27.5873 0.0000 0.0000 0.0000
# 2 23.8207 83.4997 33.6096 0.0000 0.0000 0.0000
# 3 27.5873 33.6096 141.7298 0.0000 0.0000 0.0000
# 4 0.0000 0.0000 0.0000 31.3664 0.0000 0.0000
# 5 0.0000 0.0000 0.0000 0.0000 15.4988 0.0000
# 6 0.0000 0.0000 0.0000 0.0000 0.0000 19.3140
#
#
#
# Elastic Compliance Matrix: (Units=1/GPa)
#
#
# Indices 1 2 3 4 5 6 
#
# 1 0.009243 -0.002115 -0.001298 0.000000 0.000000 0.000000
# 2 -0.002115 0.013724 -0.002843 0.000000 0.000000 0.000000
# 3 -0.001298 -0.002843 0.007982 0.000000 0.000000 0.000000
# 4 0.000000 0.000000 0.000000 0.031881 0.000000 0.000000
# 5 0.000000 0.000000 0.000000 0.000000 0.064521 0.000000
# 6 0.000000 0.000000 0.000000 0.000000 0.000000 0.051776
#
#
# Mechanical properties :
#
#
# Convention : Reuss Voigt Hill
#
# Bulk Modulus (GPa) = 54.23238 56.97466 55.60352
# Shear Modulus (GPa) = 25.28003 30.41710 27.84857
#
# Velocity S-wave (km/s) = 3.40048 3.73001 3.56905
# Velocity P-wave (km/s) = 6.34223 6.67916 6.51288
#
# Compressibility (1/GPa) = 0.01843917
#
# Stress axis : x y z
#
# Youngs Moduli (GPa) = 108.18457 72.86720 125.27529
#
# Poissons Ratio (x) = 0.15409 0.16258
# Poissons Ratio (y) = 0.22877 0.35613
# Poissons Ratio (z) = 0.14040 0.20715
#
# Static dielectric constant tensor:
#      x y z
#    x 4.168720 0.000000 0.000000 
#    y 0.000000 3.953830 0.000000 
#    z 0.000000 0.000000 3.749710 
# 
# 
# High freq. dielectric constant tensor:
#      x y z
#    x 1.881970 0.000000 0.000000 
#    y 0.000000 1.858850 0.000000 
#    z 0.000000 0.000000 1.856070 
# 
# From -- ./inp_files/9231.got.cif
#   From: 2010.03.12/outbox.cif.g09.slc.cpg/sg33_5_cif.got.tgz:9231.got - 2010.04.14 01:49:19.
