data_PCOD8171537
_publ_section_title
;
Structure prediction by ZEFSAII (Michael W. Deem and Ramdas Pophale) SiO2 
 PCOD8171537
Probable space group: P N A 21
;
_chemical_formula_sum "Si O2"
_cell_formula_units_Z 20
_cell_length_a 15.994898
_cell_length_b 8.839145
_cell_length_c 5.440824
_cell_angle_alpha 90.000000
_cell_angle_beta 90.000000
_cell_angle_gamma 90.000000
_cell_volume 769.230350
_symmetry_space_group_name_H-M "P N A 21"
_symmetry_group_IT_number 33
_symmetry_cell_setting 'orthorhombic'
loop_
_space_group_symop_operation_xyz
x,y,z
-x,-y,1/2+z
1/2-x,1/2+y,1/2+z
1/2+x,1/2-y,z
loop_
_atom_site_type_symbol
_atom_site_label
_atom_site_fract_x
_atom_site_fract_y
_atom_site_fract_z
Si Si1 0.579098 0.118179 0.543220
Si Si2 0.175824 0.220730 0.916677
Si Si3 0.495205 0.591193 0.578482
Si Si4 0.302802 0.017533 0.672771
Si Si5 0.915514 0.329064 0.335139
O O1 0.647852 0.236700 0.640729
O O2 0.611717 0.025440 0.309432
O O3 0.495122 0.215957 0.504618
O O4 0.562139 0.999356 0.759234
O O5 0.236504 0.076385 0.875376
O O6 0.094958 0.177811 0.083351
O O7 0.226802 0.362461 0.037287
O O8 0.507361 0.522635 0.308710
O O9 0.576699 0.703003 0.619553
O O10 0.327132 0.156007 0.482013
#
# Coordination Sequence:
#
# PCOD8171537 Si02
#       5
#     4   4   4   4   4
#     4  11  21  44  80 104 147 202 270 327 390 495
#     4  11  27  50  72 119 159 210 265 343 415 495
#     4  12  28  49  82 116 167 212 274 340 407 492
#     4  11  26  47  81 108 162 205 273 333 420 485
#     4  11  22  46  77 111 143 213 270 331 394 483
#
# _framework density 26.000015999999999
#
# number of rings (size 3 to 8) (size 9 to 14) (size 15 to 20)
#    0.000    0.800    4.000    2.400    2.800    6.400 
#    3.600    0.000    0.000    0.000    0.000    0.000 
#    0.000    0.000    0.000    0.000    0.000    0.000 
#
# Total GULP energy -247783.276507 kJ/mol
# GULP energy per Si atom -12389.163825 kJ/mol
# Density = 2.594084 g / cm^3
# Si number density = 26.000016 Si / 1000 Ang^3
#
#
#
# Elastic Constant Matrix: (Units=GPa)
#
#
# Indices 1 2 3 4 5 6 
#
# 1 78.4637 39.5932 20.8776 0.0000 0.0000 0.0000
# 2 39.5932 105.6213 38.5555 0.0000 0.0000 0.0000
# 3 20.8776 38.5555 97.4402 0.0000 0.0000 0.0000
# 4 0.0000 0.0000 0.0000 38.3864 0.0000 0.0000
# 5 0.0000 0.0000 0.0000 0.0000 41.8154 0.0000
# 6 0.0000 0.0000 0.0000 0.0000 0.0000 35.0597
#
#
#
# Elastic Compliance Matrix: (Units=1/GPa)
#
#
# Indices 1 2 3 4 5 6 
#
# 1 0.015841 -0.005493 -0.001221 0.000000 0.000000 0.000000
# 2 -0.005493 0.012971 -0.003955 0.000000 0.000000 0.000000
# 3 -0.001221 -0.003955 0.012089 0.000000 0.000000 0.000000
# 4 0.000000 0.000000 0.000000 0.026051 0.000000 0.000000
# 5 0.000000 0.000000 0.000000 0.000000 0.023915 0.000000
# 6 0.000000 0.000000 0.000000 0.000000 0.000000 0.028523
#
#
# Mechanical properties :
#
#
# Convention : Reuss Voigt Hill
#
# Bulk Modulus (GPa) = 51.11552 53.28642 52.20097
# Shear Modulus (GPa) = 33.95626 35.21890 34.58758
#
# Velocity S-wave (km/s) = 3.61780 3.68444 3.65127
# Velocity P-wave (km/s) = 6.09539 6.21606 6.15602
#
# Compressibility (1/GPa) = 0.01956353
#
# Stress axis : x y z
#
# Youngs Moduli (GPa) = 63.12662 77.09736 82.71727
#
# Poissons Ratio (x) = 0.42346 0.10098
# Poissons Ratio (y) = 0.34673 0.32718
# Poissons Ratio (z) = 0.07707 0.30495
#
# Static dielectric constant tensor:
#      x y z
#    x 4.358610 0.000000 0.000000 
#    y 0.000000 4.827020 0.000000 
#    z 0.000000 0.000000 4.718150 
# 
# 
# High freq. dielectric constant tensor:
#      x y z
#    x 2.014390 0.000000 0.000000 
#    y 0.000000 2.044990 0.000000 
#    z 0.000000 0.000000 2.049700 
# 
# From -- ./inp_files/1631.got.cif
#   From: 2010.03.12/outbox.cif.g09.slc.cpg/sg33_1_cif.got.tgz:1631.got - 2010.04.14 01:49:19.
