data_PCOD8171652
_publ_section_title
;
Structure prediction by ZEFSAII (Michael W. Deem and Ramdas Pophale) SiO2 
 PCOD8171652
Probable space group: P N A 21
;
_chemical_formula_sum "Si O2"
_cell_formula_units_Z 28
_cell_length_a 16.950883
_cell_length_b 8.772987
_cell_length_c 8.345108
_cell_angle_alpha 90.000000
_cell_angle_beta 90.000000
_cell_angle_gamma 90.000000
_cell_volume 1240.999978
_symmetry_space_group_name_H-M "P N A 21"
_symmetry_group_IT_number 33
_symmetry_cell_setting 'orthorhombic'
loop_
_space_group_symop_operation_xyz
x,y,z
-x,-y,1/2+z
1/2-x,1/2+y,1/2+z
1/2+x,1/2-y,z
loop_
_atom_site_type_symbol
_atom_site_label
_atom_site_fract_x
_atom_site_fract_y
_atom_site_fract_z
Si Si1 0.857969 0.140456 0.536270
Si Si2 0.774287 0.574111 0.800027
Si Si3 0.005934 0.643690 0.602937
Si Si4 0.099870 0.571927 0.892852
Si Si5 0.640877 0.788148 0.379149
Si Si6 0.375773 0.655450 0.719419
Si Si7 0.223818 0.991461 0.475972
O O1 0.774330 0.144976 0.445931
O O2 0.914813 0.245835 0.426667
O O3 0.858190 0.233993 0.698258
O O4 0.878269 0.964100 0.570233
O O5 0.839011 0.467128 0.883666
O O6 0.813644 0.708313 0.695111
O O7 0.724996 0.473813 0.667980
O O8 0.063582 0.543844 0.716903
O O9 0.056021 0.729189 0.465247
O O10 0.942182 0.531359 0.525252
O O11 0.962282 0.769099 0.715211
O O12 0.193383 0.533800 0.891234
O O13 0.707484 0.689890 0.468775
O O14 0.350842 0.573261 0.886906
#
# Coordination Sequence:
#
# PCOD8171652 Si02
#       7
#     4   4   4   4   4   4   4
#     4  11  24  41  73 102 139 180 246 294 362 436
#     4  12  20  43  70 106 134 182 239 313 349 438
#     4  12  27  45  72  99 155 192 245 305 386 437
#     4  12  24  48  68 104 143 199 239 308 369 453
#     4  11  25  43  70 106 138 192 242 303 369 445
#     4  11  24  44  68 104 140 190 238 307 360 436
#     4  11  24  44  73 103 141 183 253 294 363 441
#
# _framework density 22.562448
#
# number of rings (size 3 to 8) (size 9 to 14) (size 15 to 20)
#    0.000    0.571    4.286    3.429    4.000    2.286 
#    2.571    1.429    0.000    0.000    0.000    0.000 
#    0.000    0.000    0.000    0.000    0.000    0.000 
#
# Total GULP energy -346875.747210 kJ/mol
# GULP energy per Si atom -12388.419543 kJ/mol
# Density = 2.251110 g / cm^3
# Si number density = 22.562448 Si / 1000 Ang^3
#
#
#
# Elastic Constant Matrix: (Units=GPa)
#
#
# Indices 1 2 3 4 5 6 
#
# 1 104.9942 55.8901 55.9103 0.0000 0.0000 0.0000
# 2 55.8901 128.6545 26.7092 0.0000 0.0000 0.0000
# 3 55.9103 26.7092 97.2809 0.0000 0.0000 0.0000
# 4 0.0000 0.0000 0.0000 36.4710 0.0000 0.0000
# 5 0.0000 0.0000 0.0000 0.0000 44.8829 0.0000
# 6 0.0000 0.0000 0.0000 0.0000 0.0000 32.4637
#
#
#
# Elastic Compliance Matrix: (Units=1/GPa)
#
#
# Indices 1 2 3 4 5 6 
#
# 1 0.016859 -0.005634 -0.008143 0.000000 0.000000 0.000000
# 2 -0.005634 0.010125 0.000458 0.000000 0.000000 0.000000
# 3 -0.008143 0.000458 0.014834 0.000000 0.000000 0.000000
# 4 0.000000 0.000000 0.000000 0.027419 0.000000 0.000000
# 5 0.000000 0.000000 0.000000 0.000000 0.022280 0.000000
# 6 0.000000 0.000000 0.000000 0.000000 0.000000 0.030804
#
#
# Mechanical properties :
#
#
# Convention : Reuss Voigt Hill
#
# Bulk Modulus (GPa) = 65.87156 67.54988 66.71072
# Shear Modulus (GPa) = 32.46370 35.59152 34.02761
#
# Velocity S-wave (km/s) = 3.79732 3.97604 3.88771
# Velocity P-wave (km/s) = 6.96310 7.14721 7.05576
#
# Compressibility (1/GPa) = 0.01518106
#
# Stress axis : x y z
#
# Youngs Moduli (GPa) = 59.31458 98.76521 67.41397
#
# Poissons Ratio (x) = 0.55640 0.54894
# Poissons Ratio (y) = 0.33415 -0.03087
# Poissons Ratio (z) = 0.48299 -0.04522
#
# Static dielectric constant tensor:
#      x y z
#    x 3.950640 0.000000 0.000000 
#    y 0.000000 4.543720 0.000000 
#    z 0.000000 0.000000 4.175210 
# 
# 
# High freq. dielectric constant tensor:
#      x y z
#    x 1.870870 0.000000 0.000000 
#    y 0.000000 1.900410 0.000000 
#    z 0.000000 0.000000 1.894150 
# 
# From -- ./inp_files/4723.got.cif
#   From: 2010.03.12/outbox.cif.g09.slc.cpg/sg33_3_cif.got.tgz:4723.got - 2010.04.14 01:49:19.
