data_PCOD8171240
_publ_section_title
;
Structure prediction by ZEFSAII (Michael W. Deem and Ramdas Pophale) SiO2 
 PCOD8171240
Probable space group: P N A 21
;
_chemical_formula_sum "Si O2"
_cell_formula_units_Z 20
_cell_length_a 10.032014
_cell_length_b 6.441960
_cell_length_c 14.395554
_cell_angle_alpha 90.000000
_cell_angle_beta 90.000000
_cell_angle_gamma 90.000000
_cell_volume 930.324667
_symmetry_space_group_name_H-M "P N A 21"
_symmetry_group_IT_number 33
_symmetry_cell_setting 'orthorhombic'
loop_
_space_group_symop_operation_xyz
x,y,z
-x,-y,1/2+z
1/2-x,1/2+y,1/2+z
1/2+x,1/2-y,z
loop_
_atom_site_type_symbol
_atom_site_label
_atom_site_fract_x
_atom_site_fract_y
_atom_site_fract_z
Si Si1 0.576485 0.879334 0.830790
Si Si2 0.075796 0.868689 0.008330
Si Si3 0.201403 0.423276 0.267520
Si Si4 0.296408 0.744579 0.416673
Si Si5 0.202850 0.061040 0.568795
O O1 0.522117 0.759556 0.920673
O O2 0.712774 0.775848 0.796387
O O3 0.454869 0.865022 0.757540
O O4 0.606600 0.118345 0.852903
O O5 0.112995 0.102827 0.982310
O O6 0.206007 0.760895 0.050458
O O7 0.951421 0.871025 0.079255
O O8 0.209959 0.604246 0.345722
O O9 0.252934 0.477440 0.166968
O O10 0.210572 0.892957 0.484916
#
# Coordination Sequence:
#
# PCOD8171240 Si02
#       5
#     4   4   4   4   4
#     4  10  22  43  65  92 128 167 216 265 327 388
#     4  10  22  43  65  92 128 167 216 265 327 388
#     4  11  25  41  66  98 131 169 219 269 322 399
#     4  10  22  42  70  90 130 172 210 274 332 378
#     4  11  25  41  66  98 131 169 219 269 322 399
#
# _framework density 21.497871
#
# number of rings (size 3 to 8) (size 9 to 14) (size 15 to 20)
#    0.000    1.600    0.000    4.800    5.600    4.800 
#    0.000    0.000    0.000    0.000    0.000    0.000 
#    0.000    0.000    0.000    0.000    0.000    0.000 
#
# Total GULP energy -247983.129014 kJ/mol
# GULP energy per Si atom -12399.156451 kJ/mol
# Density = 2.144894 g / cm^3
# Si number density = 21.497871 Si / 1000 Ang^3
#
#
#
# Elastic Constant Matrix: (Units=GPa)
#
#
# Indices 1 2 3 4 5 6 
#
# 1 116.7964 36.0103 -1.3949 0.0000 0.0000 0.0000
# 2 36.0103 103.4040 5.5694 0.0000 0.0000 0.0000
# 3 -1.3949 5.5694 62.1525 0.0000 0.0000 0.0000
# 4 0.0000 0.0000 0.0000 20.1271 0.0000 0.0000
# 5 0.0000 0.0000 0.0000 0.0000 27.2826 0.0000
# 6 0.0000 0.0000 0.0000 0.0000 0.0000 13.5150
#
#
#
# Elastic Compliance Matrix: (Units=1/GPa)
#
#
# Indices 1 2 3 4 5 6 
#
# 1 0.009608 -0.003374 0.000518 0.000000 0.000000 0.000000
# 2 -0.003374 0.010902 -0.001053 0.000000 0.000000 0.000000
# 3 0.000518 -0.001053 0.016195 0.000000 0.000000 0.000000
# 4 0.000000 0.000000 0.000000 0.049684 0.000000 0.000000
# 5 0.000000 0.000000 0.000000 0.000000 0.036653 0.000000
# 6 0.000000 0.000000 0.000000 0.000000 0.000000 0.073992
#
#
# Mechanical properties :
#
#
# Convention : Reuss Voigt Hill
#
# Bulk Modulus (GPa) = 34.61538 40.30249 37.45893
# Shear Modulus (GPa) = 23.31188 28.32948 25.82068
#
# Velocity S-wave (km/s) = 3.29657 3.63406 3.46942
# Velocity P-wave (km/s) = 5.53412 6.03295 5.78891
#
# Compressibility (1/GPa) = 0.02888889
#
# Stress axis : x y z
#
# Youngs Moduli (GPa) = 104.07612 91.72216 61.74585
#
# Poissons Ratio (x) = 0.30947 -0.03198
# Poissons Ratio (y) = 0.35115 0.06500
# Poissons Ratio (z) = -0.05391 0.09655
#
# Static dielectric constant tensor:
#      x y z
#    x 3.836830 0.000000 0.000000 
#    y 0.000000 3.958790 0.000000 
#    z 0.000000 0.000000 4.838060 
# 
# 
# High freq. dielectric constant tensor:
#      x y z
#    x 1.852170 0.000000 0.000000 
#    y 0.000000 1.852280 0.000000 
#    z 0.000000 0.000000 1.833140 
# 
# From -- ./inp_files/389.got.cif
#   From: 2010.03.12/outbox.cif.g09.slc.cpg/sg33_1_cif.got.tgz:389.got - 2010.04.14 01:49:19.
