data_PCOD8171659
_publ_section_title
;
Structure prediction by ZEFSAII (Michael W. Deem and Ramdas Pophale) SiO2 
 PCOD8171659
Probable space group: P N A 21
;
_chemical_formula_sum "Si O2"
_cell_formula_units_Z 24
_cell_length_a 9.198058
_cell_length_b 8.477772
_cell_length_c 12.858368
_cell_angle_alpha 90.000000
_cell_angle_beta 90.000000
_cell_angle_gamma 90.000000
_cell_volume 1002.683174
_symmetry_space_group_name_H-M "P N A 21"
_symmetry_group_IT_number 33
_symmetry_cell_setting 'orthorhombic'
loop_
_space_group_symop_operation_xyz
x,y,z
-x,-y,1/2+z
1/2-x,1/2+y,1/2+z
1/2+x,1/2-y,z
loop_
_atom_site_type_symbol
_atom_site_label
_atom_site_fract_x
_atom_site_fract_y
_atom_site_fract_z
Si Si1 0.752886 0.145079 0.174580
Si Si2 0.137434 0.382107 0.502570
Si Si3 0.481107 0.217008 0.048191
Si Si4 0.713985 0.294500 0.705032
Si Si5 0.586377 0.674942 0.875998
Si Si6 0.548956 0.642654 0.332885
O O1 0.611541 0.235088 0.131325
O O2 0.865250 0.148563 0.078784
O O3 0.835906 0.237264 0.269396
O O4 0.709739 0.966608 0.203981
O O5 0.085172 0.542204 0.555762
O O6 0.207923 0.271132 0.589479
O O7 0.278004 0.411542 0.431540
O O8 0.998452 0.311408 0.438874
O O9 0.515250 0.255705 0.928768
O O10 0.546987 0.313043 0.734085
O O11 0.790176 0.187149 0.793647
O O12 0.462613 0.543761 0.855089
#
# Coordination Sequence:
#
# PCOD8171659 Si02
#       6
#     4   4   4   4   4   4
#     4  11  24  43  66  96 133 177 226 280 344 414
#     4  12  25  43  69 102 138 181 232 291 354 420
#     4  12  24  42  67  98 134 173 223 283 346 412
#     4  11  24  44  67  95 132 178 227 278 342 412
#     4  11  25  44  67  99 137 181 232 285 349 422
#     4  11  24  44  66  94 132 176 224 279 339 410
#
# _framework density 23.935776000000001
#
# number of rings (size 3 to 8) (size 9 to 14) (size 15 to 20)
#    0.000    0.667    0.000    9.000    0.000    8.000 
#    0.000    0.000    0.000    0.000    0.000    0.000 
#    0.000    0.000    0.000    0.000    0.000    0.000 
#
# Total GULP energy -297470.723010 kJ/mol
# GULP energy per Si atom -12394.613459 kJ/mol
# Density = 2.388130 g / cm^3
# Si number density = 23.935776 Si / 1000 Ang^3
#
#
#
# Elastic Constant Matrix: (Units=GPa)
#
#
# Indices 1 2 3 4 5 6 
#
# 1 86.7474 27.0468 26.9432 0.0000 0.0000 0.0000
# 2 27.0468 65.6867 27.6821 0.0000 0.0000 0.0000
# 3 26.9432 27.6821 108.6199 0.0000 0.0000 0.0000
# 4 0.0000 0.0000 0.0000 27.2353 0.0000 0.0000
# 5 0.0000 0.0000 0.0000 0.0000 49.8392 0.0000
# 6 0.0000 0.0000 0.0000 0.0000 0.0000 25.5840
#
#
#
# Elastic Compliance Matrix: (Units=1/GPa)
#
#
# Indices 1 2 3 4 5 6 
#
# 1 0.013676 -0.004707 -0.002193 0.000000 0.000000 0.000000
# 2 -0.004707 0.018676 -0.003592 0.000000 0.000000 0.000000
# 3 -0.002193 -0.003592 0.010666 0.000000 0.000000 0.000000
# 4 0.000000 0.000000 0.000000 0.036717 0.000000 0.000000
# 5 0.000000 0.000000 0.000000 0.000000 0.020065 0.000000
# 6 0.000000 0.000000 0.000000 0.000000 0.000000 0.039087
#
#
# Mechanical properties :
#
#
# Convention : Reuss Voigt Hill
#
# Bulk Modulus (GPa) = 45.38438 47.15535 46.26986
# Shear Modulus (GPa) = 29.90162 32.49051 31.19607
#
# Velocity S-wave (km/s) = 3.53830 3.68829 3.61407
# Velocity P-wave (km/s) = 5.97451 6.15480 6.06533
#
# Compressibility (1/GPa) = 0.02203401
#
# Stress axis : x y z
#
# Youngs Moduli (GPa) = 73.11841 53.54545 93.75808
#
# Poissons Ratio (x) = 0.25205 0.20559
# Poissons Ratio (y) = 0.34419 0.33677
# Poissons Ratio (z) = 0.16033 0.19233
#
# Static dielectric constant tensor:
#      x y z
#    x 4.278400 0.000000 0.000000 
#    y 0.000000 4.072060 0.000000 
#    z 0.000000 0.000000 4.430870 
# 
# 
# High freq. dielectric constant tensor:
#      x y z
#    x 1.955340 0.000000 0.000000 
#    y 0.000000 1.933480 0.000000 
#    z 0.000000 0.000000 1.969350 
# 
# From -- ./inp_files/5744.got.cif
#   From: 2010.03.12/outbox.cif.g09.slc.cpg/sg33_3_cif.got.tgz:5744.got - 2010.04.14 01:49:19.
