data_PCOD8171195
_publ_section_title
;
Structure prediction by ZEFSAII (Michael W. Deem and Ramdas Pophale) SiO2 
 PCOD8171195
Probable space group: P N A 21
;
_chemical_formula_sum "Si O2"
_cell_formula_units_Z 28
_cell_length_a 16.951888
_cell_length_b 6.437854
_cell_length_c 12.784649
_cell_angle_alpha 90.000000
_cell_angle_beta 90.000000
_cell_angle_gamma 90.000000
_cell_volume 1395.237071
_symmetry_space_group_name_H-M "P N A 21"
_symmetry_group_IT_number 33
_symmetry_cell_setting 'orthorhombic'
loop_
_space_group_symop_operation_xyz
x,y,z
-x,-y,1/2+z
1/2-x,1/2+y,1/2+z
1/2+x,1/2-y,z
loop_
_atom_site_type_symbol
_atom_site_label
_atom_site_fract_x
_atom_site_fract_y
_atom_site_fract_z
Si Si1 0.645831 0.120645 0.327830
Si Si2 0.492372 0.179469 0.873535
Si Si3 0.552872 0.698068 0.590137
Si Si4 0.122707 0.434687 0.718106
Si Si5 0.576853 0.504231 0.224760
Si Si6 0.720761 0.773477 0.202212
Si Si7 0.839838 0.845647 0.041544
O O1 0.629222 0.301578 0.245319
O O2 0.674822 0.220671 0.435614
O O3 0.563120 0.007063 0.339402
O O4 0.712170 0.959825 0.286901
O O5 0.577360 0.129307 0.823621
O O6 0.461318 0.401750 0.830576
O O7 0.495376 0.179710 0.999973
O O8 0.492056 0.542403 0.643779
O O9 0.620589 0.570713 0.527389
O O10 0.596315 0.837626 0.678139
O O11 0.216629 0.403663 0.743755
O O12 0.102764 0.282091 0.620815
O O13 0.636169 0.674410 0.176219
O O14 0.753702 0.872618 0.094702
#
# Coordination Sequence:
#
# PCOD8171195 Si02
#       7
#     4   4   4   4   4   4   4
#     4  11  21  40  65  89 125 171 210 269 326 378
#     4  11  21  39  64  95 121 168 218 265 318 383
#     4  12  22  38  70  93 127 176 218 269 319 380
#     4  10  22  41  61  92 132 166 216 264 315 387
#     4  11  22  38  64  94 127 163 216 264 325 382
#     4   9  24  39  60  90 132 166 207 269 326 385
#     4  10  22  41  64  89 126 170 213 260 327 387
#
# _framework density 20.068273000000001
#
# number of rings (size 3 to 8) (size 9 to 14) (size 15 to 20)
#    0.857    0.571    5.714    0.000    2.000    1.143 
#    0.000    1.429    0.000    0.000    0.000    0.000 
#    0.000    0.000    0.000    0.000    0.000    0.000 
#
# Total GULP energy -346965.818199 kJ/mol
# GULP energy per Si atom -12391.636364 kJ/mol
# Density = 2.002260 g / cm^3
# Si number density = 20.068273 Si / 1000 Ang^3
#
#
#
# Elastic Constant Matrix: (Units=GPa)
#
#
# Indices 1 2 3 4 5 6 
#
# 1 85.1819 36.4309 26.3254 0.0000 0.0000 0.0000
# 2 36.4309 89.5803 32.9984 0.0000 0.0000 0.0000
# 3 26.3254 32.9984 69.0216 0.0000 0.0000 0.0000
# 4 0.0000 0.0000 0.0000 36.5213 0.0000 0.0000
# 5 0.0000 0.0000 0.0000 0.0000 28.1872 0.0000
# 6 0.0000 0.0000 0.0000 0.0000 0.0000 33.3675
#
#
#
# Elastic Compliance Matrix: (Units=1/GPa)
#
#
# Indices 1 2 3 4 5 6 
#
# 1 0.014829 -0.004791 -0.003365 0.000000 0.000000 0.000000
# 2 -0.004791 0.015097 -0.005391 0.000000 0.000000 0.000000
# 3 -0.003365 -0.005391 0.018349 0.000000 0.000000 0.000000
# 4 0.000000 0.000000 0.000000 0.027381 0.000000 0.000000
# 5 0.000000 0.000000 0.000000 0.000000 0.035477 0.000000
# 6 0.000000 0.000000 0.000000 0.000000 0.000000 0.029969
#
#
# Mechanical properties :
#
#
# Convention : Reuss Voigt Hill
#
# Bulk Modulus (GPa) = 47.21134 48.36591 47.78863
# Shear Modulus (GPa) = 28.52965 29.48381 29.00673
#
# Velocity S-wave (km/s) = 3.77454 3.83714 3.80597
# Velocity P-wave (km/s) = 6.52477 6.61699 6.57104
#
# Compressibility (1/GPa) = 0.02118135
#
# Stress axis : x y z
#
# Youngs Moduli (GPa) = 67.43716 66.23727 54.49916
#
# Poissons Ratio (x) = 0.31734 0.18341
# Poissons Ratio (y) = 0.32309 0.29378
# Poissons Ratio (z) = 0.22695 0.35705
#
# Static dielectric constant tensor:
#      x y z
#    x 3.433020 0.000000 0.000000 
#    y 0.000000 3.671750 0.000000 
#    z 0.000000 0.000000 3.480360 
# 
# 
# High freq. dielectric constant tensor:
#      x y z
#    x 1.770300 0.000000 0.000000 
#    y 0.000000 1.788590 0.000000 
#    z 0.000000 0.000000 1.769790 
# 
# From -- ./inp_files/7127.got.cif
#   From: 2010.03.12/outbox.cif.g09.slc.cpg/sg33_4_cif.got.tgz:7127.got - 2010.04.14 01:49:19.
