data_PCOD8171063
_publ_section_title
;
Structure prediction by ZEFSAII (Michael W. Deem and Ramdas Pophale) SiO2 
 PCOD8171063
Probable space group: P N A 21
;
_chemical_formula_sum "Si O2"
_cell_formula_units_Z 32
_cell_length_a 18.911023
_cell_length_b 9.318955
_cell_length_c 9.075660
_cell_angle_alpha 90.000000
_cell_angle_beta 90.000000
_cell_angle_gamma 90.000000
_cell_volume 1599.412386
_symmetry_space_group_name_H-M "P N A 21"
_symmetry_group_IT_number 33
_symmetry_cell_setting 'orthorhombic'
loop_
_space_group_symop_operation_xyz
x,y,z
-x,-y,1/2+z
1/2-x,1/2+y,1/2+z
1/2+x,1/2-y,z
loop_
_atom_site_type_symbol
_atom_site_label
_atom_site_fract_x
_atom_site_fract_y
_atom_site_fract_z
Si Si1 0.200355 0.213813 0.858120
Si Si2 0.680170 0.442448 0.560750
Si Si3 0.187591 0.549584 0.865025
Si Si4 0.975467 0.913155 0.087763
Si Si5 0.448084 0.120560 0.557886
Si Si6 0.551698 0.360184 0.910796
Si Si7 0.539145 0.904763 0.392934
Si Si8 0.670349 0.778899 0.564962
O O1 0.211234 0.140916 0.700421
O O2 0.185384 0.381266 0.831829
O O3 0.134880 0.141664 0.944545
O O4 0.266893 0.177571 0.957043
O O5 0.735074 0.412363 0.429434
O O6 0.602011 0.383876 0.514852
O O7 0.672548 0.610445 0.598844
O O8 0.176765 0.635648 0.715780
O O9 0.126127 0.595905 0.977557
O O10 0.963172 0.942693 0.259301
O O11 0.031913 0.788198 0.057171
O O12 0.009203 0.062078 0.038189
O O13 0.438920 0.060832 0.724449
O O14 0.514727 0.047789 0.476282
O O15 0.529245 0.195924 0.891778
O O16 0.599683 0.823257 0.481358
#
# Coordination Sequence:
#
# PCOD8171063 Si02
#       8
#     4   4   4   4   4   4   4   4
#     4  10  23  44  62  90 128 163 207 263 307 369
#     4  10  23  44  63  91 127 163 211 258 310 375
#     4  11  24  43  65  92 126 166 210 258 316 373
#     4  10  23  39  64  93 122 164 203 254 309 369
#     4  11  24  41  64  96 124 167 207 256 313 371
#     4  10  21  41  62  90 125 158 201 255 309 363
#     4  11  22  41  64  92 127 160 207 255 310 368
#     4  11  24  41  66  92 123 169 206 259 316 370
#
# _framework density 20.007348
#
# number of rings (size 3 to 8) (size 9 to 14) (size 15 to 20)
#    0.000    1.500    2.500    1.500    7.000    3.000 
#    6.750    0.000    0.000    0.000    0.000    0.000 
#    0.000    0.000    0.000    0.000    0.000    0.000 
#
# Total GULP energy -396823.334301 kJ/mol
# GULP energy per Si atom -12400.729197 kJ/mol
# Density = 1.996181 g / cm^3
# Si number density = 20.007348 Si / 1000 Ang^3
#
#
#
# Elastic Constant Matrix: (Units=GPa)
#
#
# Indices 1 2 3 4 5 6 
#
# 1 84.8980 14.7378 24.4149 0.0000 0.0000 0.0000
# 2 14.7378 51.0628 31.8686 0.0000 0.0000 0.0000
# 3 24.4149 31.8686 86.7593 0.0000 0.0000 0.0000
# 4 0.0000 0.0000 0.0000 35.8477 0.0000 0.0000
# 5 0.0000 0.0000 0.0000 0.0000 32.5931 0.0000
# 6 0.0000 0.0000 0.0000 0.0000 0.0000 30.3261
#
#
#
# Elastic Compliance Matrix: (Units=1/GPa)
#
#
# Indices 1 2 3 4 5 6 
#
# 1 0.012956 -0.001899 -0.002948 0.000000 0.000000 0.000000
# 2 -0.001899 0.025687 -0.008901 0.000000 0.000000 0.000000
# 3 -0.002948 -0.008901 0.015625 0.000000 0.000000 0.000000
# 4 0.000000 0.000000 0.000000 0.027896 0.000000 0.000000
# 5 0.000000 0.000000 0.000000 0.000000 0.030681 0.000000
# 6 0.000000 0.000000 0.000000 0.000000 0.000000 0.032975
#
#
# Mechanical properties :
#
#
# Convention : Reuss Voigt Hill
#
# Bulk Modulus (GPa) = 37.35322 40.52921 38.94121
# Shear Modulus (GPa) = 27.43604 29.86665 28.65134
#
# Velocity S-wave (km/s) = 3.70712 3.86785 3.78834
# Velocity P-wave (km/s) = 6.08555 6.34414 6.21619
#
# Compressibility (1/GPa) = 0.02677145
#
# Stress axis : x y z
#
# Youngs Moduli (GPa) = 77.18154 38.93013 63.99860
#
# Poissons Ratio (x) = 0.07394 0.18869
# Poissons Ratio (y) = 0.14660 0.56965
# Poissons Ratio (z) = 0.22756 0.34651
#
# Static dielectric constant tensor:
#      x y z
#    x 3.816150 0.000000 0.000000 
#    y 0.000000 3.589030 0.000000 
#    z 0.000000 0.000000 3.659130 
# 
# 
# High freq. dielectric constant tensor:
#      x y z
#    x 1.798860 0.000000 0.000000 
#    y 0.000000 1.781790 0.000000 
#    z 0.000000 0.000000 1.779000 
# 
# From -- ./inp_files/4973.got.cif
#   From: 2010.03.12/outbox.cif.g09.slc.cpg/sg33_3_cif.got.tgz:4973.got - 2010.04.14 01:49:19.
