data_PCOD8171702
_publ_section_title
;
Structure prediction by ZEFSAII (Michael W. Deem and Ramdas Pophale) SiO2 
 PCOD8171702
Probable space group: P N A 21
;
_chemical_formula_sum "Si O2"
_cell_formula_units_Z 20
_cell_length_a 9.452236
_cell_length_b 16.921573
_cell_length_c 5.156856
_cell_angle_alpha 90.000000
_cell_angle_beta 90.000000
_cell_angle_gamma 90.000000
_cell_volume 824.822107
_symmetry_space_group_name_H-M "P N A 21"
_symmetry_group_IT_number 33
_symmetry_cell_setting 'orthorhombic'
loop_
_space_group_symop_operation_xyz
x,y,z
-x,-y,1/2+z
1/2-x,1/2+y,1/2+z
1/2+x,1/2-y,z
loop_
_atom_site_type_symbol
_atom_site_label
_atom_site_fract_x
_atom_site_fract_y
_atom_site_fract_z
Si Si1 0.632910 0.758179 0.944810
Si Si2 0.217955 0.132283 0.777550
Si Si3 0.949586 0.401676 0.162344
Si Si4 0.924509 0.160542 0.943086
Si Si5 0.225822 0.481427 0.976505
O O1 0.533905 0.834320 0.882350
O O2 0.650062 0.705898 0.682446
O O3 0.779113 0.798950 0.052916
O O4 0.570745 0.705756 0.171691
O O5 0.092460 0.145418 0.988277
O O6 0.198373 0.045382 0.658662
O O7 0.372046 0.138437 0.916230
O O8 0.849207 0.475384 0.236314
O O9 0.106689 0.431735 0.124014
O O10 0.845643 0.078684 0.883915
#
# Coordination Sequence:
#
# PCOD8171702 Si02
#       5
#     4   4   4   4   4
#     4  11  28  49  74 114 153 197 251 320 386 453
#     4  11  27  51  74 114 156 200 258 320 379 467
#     4  11  24  50  75 109 152 202 253 312 379 466
#     4  12  30  46  83 110 155 199 257 322 386 449
#     4  11  27  46  80 109 152 206 259 310 386 459
#
# _framework density 24.247655000000002
#
# number of rings (size 3 to 8) (size 9 to 14) (size 15 to 20)
#    0.000    0.800    4.000    0.000   16.800    0.000 
#    0.000    0.000    0.000    0.000    0.000    0.000 
#    0.000    0.000    0.000    0.000    0.000    0.000 
#
# Total GULP energy -247866.774345 kJ/mol
# GULP energy per Si atom -12393.338717 kJ/mol
# Density = 2.419247 g / cm^3
# Si number density = 24.247655 Si / 1000 Ang^3
#
#
#
# Elastic Constant Matrix: (Units=GPa)
#
#
# Indices 1 2 3 4 5 6 
#
# 1 96.1039 47.3321 27.9184 0.0000 0.0000 0.0000
# 2 47.3321 122.9232 45.2510 0.0000 0.0000 0.0000
# 3 27.9184 45.2510 119.2152 0.0000 0.0000 0.0000
# 4 0.0000 0.0000 0.0000 33.4506 0.0000 0.0000
# 5 0.0000 0.0000 0.0000 0.0000 30.8947 0.0000
# 6 0.0000 0.0000 0.0000 0.0000 0.0000 16.0333
#
#
#
# Elastic Compliance Matrix: (Units=1/GPa)
#
#
# Indices 1 2 3 4 5 6 
#
# 1 0.013020 -0.004523 -0.001332 0.000000 0.000000 0.000000
# 2 -0.004523 0.011028 -0.003127 0.000000 0.000000 0.000000
# 3 -0.001332 -0.003127 0.009887 0.000000 0.000000 0.000000
# 4 0.000000 0.000000 0.000000 0.029895 0.000000 0.000000
# 5 0.000000 0.000000 0.000000 0.000000 0.032368 0.000000
# 6 0.000000 0.000000 0.000000 0.000000 0.000000 0.062370
#
#
# Mechanical properties :
#
#
# Convention : Reuss Voigt Hill
#
# Bulk Modulus (GPa) = 62.61359 64.36057 63.48708
# Shear Modulus (GPa) = 27.49441 30.59178 29.04309
#
# Velocity S-wave (km/s) = 3.37100 3.55581 3.46463
# Velocity P-wave (km/s) = 6.40547 6.59234 6.49958
#
# Compressibility (1/GPa) = 0.01597097
#
# Stress axis : x y z
#
# Youngs Moduli (GPa) = 76.80467 90.68043 101.14314
#
# Poissons Ratio (x) = 0.41014 0.13475
# Poissons Ratio (y) = 0.34739 0.31624
# Poissons Ratio (z) = 0.10233 0.28352
#
# Static dielectric constant tensor:
#      x y z
#    x 4.012330 0.000000 0.000000 
#    y 0.000000 4.706810 0.000000 
#    z 0.000000 0.000000 4.357030 
# 
# 
# High freq. dielectric constant tensor:
#      x y z
#    x 1.940280 0.000000 0.000000 
#    y 0.000000 1.987300 0.000000 
#    z 0.000000 0.000000 1.962830 
# 
# From -- ./inp_files/385.got.cif
#   From: 2010.03.12/outbox.cif.g09.slc.cpg/sg33_1_cif.got.tgz:385.got - 2010.04.14 01:49:19.
