data_PCOD8171070
_publ_section_title
;
Structure prediction by ZEFSAII (Michael W. Deem and Ramdas Pophale) SiO2 
 PCOD8171070
Probable space group: P N A 21
;
_chemical_formula_sum "Si O2"
_cell_formula_units_Z 32
_cell_length_a 8.752342
_cell_length_b 9.473767
_cell_length_c 17.829524
_cell_angle_alpha 90.000000
_cell_angle_beta 90.000000
_cell_angle_gamma 90.000000
_cell_volume 1478.382210
_symmetry_space_group_name_H-M "P N A 21"
_symmetry_group_IT_number 33
_symmetry_cell_setting 'orthorhombic'
loop_
_space_group_symop_operation_xyz
x,y,z
-x,-y,1/2+z
1/2-x,1/2+y,1/2+z
1/2+x,1/2-y,z
loop_
_atom_site_type_symbol
_atom_site_label
_atom_site_fract_x
_atom_site_fract_y
_atom_site_fract_z
Si Si1 0.322741 0.940679 0.864420
Si Si2 0.326182 0.394450 0.874832
Si Si3 0.621779 0.727759 0.056199
Si Si4 0.907280 0.170053 0.039519
Si Si5 0.244471 0.064712 0.021874
Si Si6 0.350194 0.168225 0.390830
Si Si7 0.359410 0.660867 0.294957
Si Si8 0.653114 0.401790 0.629047
O O1 0.492247 0.882315 0.853858
O O2 0.198902 0.817103 0.857139
O O3 0.303513 0.035563 0.938372
O O4 0.280942 0.049304 0.798677
O O5 0.312293 0.350929 0.962092
O O6 0.282908 0.558578 0.871199
O O7 0.499424 0.378407 0.847803
O O8 0.206925 0.311538 0.821204
O O9 0.447931 0.680591 0.066937
O O10 0.677184 0.837381 0.119966
O O11 0.727615 0.586870 0.061760
O O12 0.628701 0.812938 0.979191
O O13 0.868300 0.332665 0.063098
O O14 0.084775 0.148919 0.022772
O O15 0.851963 0.067699 0.107697
O O16 0.414608 0.644198 0.209282
#
# Coordination Sequence:
#
# PCOD8171070 Si02
#       8
#     4   4   4   4   4   4   4   4
#     4  11  22  39  60  96 126 167 217 269 337 384
#     4  12  22  41  66  96 130 173 226 267 327 391
#     4  10  21  41  63  95 124 169 215 268 333 385
#     4  11  21  40  61  97 121 169 218 274 313 384
#     4  10  22  35  63  93 127 156 218 274 318 375
#     4  11  23  38  69  94 126 166 223 283 316 388
#     4  12  25  42  64  96 137 176 214 274 339 396
#     4  11  24  42  64  93 137 170 215 271 333 397
#
# _framework density 21.64528
#
# number of rings (size 3 to 8) (size 9 to 14) (size 15 to 20)
#    0.000    1.000    3.750    3.750    3.500    1.000 
#    0.000    6.250    0.000    0.000    0.000    0.000 
#    0.000    0.000    0.000    0.000    0.000    0.000 
#
# Total GULP energy -396692.343484 kJ/mol
# GULP energy per Si atom -12396.635734 kJ/mol
# Density = 2.159601 g / cm^3
# Si number density = 21.645280 Si / 1000 Ang^3
#
#
#
# Elastic Constant Matrix: (Units=GPa)
#
#
# Indices 1 2 3 4 5 6 
#
# 1 69.5027 23.5109 -5.2751 0.0000 0.0000 0.0000
# 2 23.5109 103.9485 19.0027 0.0000 0.0000 0.0000
# 3 -5.2751 19.0027 66.6162 0.0000 0.0000 0.0000
# 4 0.0000 0.0000 0.0000 29.6241 0.0000 0.0000
# 5 0.0000 0.0000 0.0000 0.0000 18.0006 0.0000
# 6 0.0000 0.0000 0.0000 0.0000 0.0000 47.9536
#
#
#
# Elastic Compliance Matrix: (Units=1/GPa)
#
#
# Indices 1 2 3 4 5 6 
#
# 1 0.015940 -0.004047 0.002417 0.000000 0.000000 0.000000
# 2 -0.004047 0.011177 -0.003509 0.000000 0.000000 0.000000
# 3 0.002417 -0.003509 0.016204 0.000000 0.000000 0.000000
# 4 0.000000 0.000000 0.000000 0.033756 0.000000 0.000000
# 5 0.000000 0.000000 0.000000 0.000000 0.055554 0.000000
# 6 0.000000 0.000000 0.000000 0.000000 0.000000 0.020853
#
#
# Mechanical properties :
#
#
# Convention : Reuss Voigt Hill
#
# Bulk Modulus (GPa) = 30.26397 34.94937 32.60667
# Shear Modulus (GPa) = 28.60785 32.63759 30.62272
#
# Velocity S-wave (km/s) = 3.63942 3.88730 3.76540
# Velocity P-wave (km/s) = 5.62784 6.02741 5.83105
#
# Compressibility (1/GPa) = 0.03304259
#
# Stress axis : x y z
#
# Youngs Moduli (GPa) = 62.73367 89.46971 61.71450
#
# Poissons Ratio (x) = 0.36210 -0.14915
# Poissons Ratio (y) = 0.25389 0.21654
# Poissons Ratio (z) = -0.15161 0.31393
#
# Static dielectric constant tensor:
#      x y z
#    x 3.869230 0.000000 0.000000 
#    y 0.000000 4.178390 0.000000 
#    z 0.000000 0.000000 3.607690 
# 
# 
# High freq. dielectric constant tensor:
#      x y z
#    x 1.854940 0.000000 0.000000 
#    y 0.000000 1.868530 0.000000 
#    z 0.000000 0.000000 1.808240 
# 
# From -- ./inp_files/8966.got.cif
#   From: 2010.03.12/outbox.cif.g09.slc.cpg/sg33_5_cif.got.tgz:8966.got - 2010.04.14 01:49:19.
