data_PCOD8171957
_publ_section_title
;
Structure prediction by ZEFSAII (Michael W. Deem and Ramdas Pophale) SiO2 
 PCOD8171957
Probable space group: P N N 2
;
_chemical_formula_sum "Si O2"
_cell_formula_units_Z 24
_cell_length_a 8.861022
_cell_length_b 15.332700
_cell_length_c 9.263229
_cell_angle_alpha 90.000000
_cell_angle_beta 90.000000
_cell_angle_gamma 90.000000
_cell_volume 1258.533713
_symmetry_space_group_name_H-M "P N N 2"
_symmetry_group_IT_number 34
_symmetry_cell_setting 'orthorhombic'
loop_
_space_group_symop_operation_xyz
x,y,z
-x,-y,z
1/2-x,1/2+y,1/2+z
1/2+x,1/2-y,1/2+z
loop_
_atom_site_type_symbol
_atom_site_label
_atom_site_fract_x
_atom_site_fract_y
_atom_site_fract_z
Si Si1 0.858165 0.815700 0.704930
Si Si2 0.338009 0.336742 0.045058
Si Si3 0.141310 0.174199 0.037869
Si Si4 0.336749 0.349811 0.705712
Si Si5 0.678674 0.000255 0.036449
Si Si6 0.322679 0.496034 0.238518
O O1 0.746292 0.738936 0.660084
O O2 0.002810 0.804543 0.605085
O O3 0.774389 0.908614 0.678630
O O4 0.909346 0.814483 0.872109
O O5 0.215261 0.264542 0.088256
O O6 0.285834 0.427386 0.114427
O O7 0.355055 0.352959 0.876382
O O8 0.262498 0.097584 0.060077
O O9 0.999687 0.150161 0.134451
O O10 0.244395 0.434456 0.656164
O O11 0.500000 0.000000 0.049659
O O12 0.729287 0.033116 0.878680
O O13 0.500000 0.500000 0.279493
#
# Coordination Sequence:
#
# PCOD8171957 Si02
#       6
#     4   4   4   4   4   4
#     4   9  20  38  55  80 115 149 185 224 273 336
#     4  10  21  37  59  87 113 144 187 233 277 322
#     4  10  22  38  57  81 113 150 186 224 277 340
#     4  11  22  37  58  85 114 145 186 235 279 323
#     4  11  22  38  59  81 110 151 191 227 277 340
#     4   9  19  38  60  82 113 149 185 225 273 337
#
# _framework density 19.06981
#
# number of rings (size 3 to 8) (size 9 to 14) (size 15 to 20)
#    0.000    2.000    0.000    4.500    0.000   10.667 
#    0.000    4.167    0.000    0.000    0.000    0.000 
#    0.000    0.000    0.000    0.000    0.000    0.000 
#
# Total GULP energy -297643.925244 kJ/mol
# GULP energy per Si atom -12401.830219 kJ/mol
# Density = 1.902641 g / cm^3
# Si number density = 19.069810 Si / 1000 Ang^3
#
#
#
# Elastic Constant Matrix: (Units=GPa)
#
#
# Indices 1 2 3 4 5 6 
#
# 1 116.6826 46.4392 63.7936 0.0000 0.0000 0.0000
# 2 46.4392 119.6145 55.8024 0.0000 0.0000 0.0000
# 3 63.7936 55.8024 92.0204 0.0000 0.0000 0.0000
# 4 0.0000 0.0000 0.0000 34.4980 0.0000 0.0000
# 5 0.0000 0.0000 0.0000 0.0000 21.2783 0.0000
# 6 0.0000 0.0000 0.0000 0.0000 0.0000 26.4341
#
#
#
# Elastic Compliance Matrix: (Units=1/GPa)
#
#
# Indices 1 2 3 4 5 6 
#
# 1 0.013936 -0.001260 -0.008897 0.000000 0.000000 0.000000
# 2 -0.001260 0.011772 -0.006266 0.000000 0.000000 0.000000
# 3 -0.008897 -0.006266 0.020835 0.000000 0.000000 0.000000
# 4 0.000000 0.000000 0.000000 0.028987 0.000000 0.000000
# 5 0.000000 0.000000 0.000000 0.000000 0.046996 0.000000
# 6 0.000000 0.000000 0.000000 0.000000 0.000000 0.037830
#
#
# Mechanical properties :
#
#
# Convention : Reuss Voigt Hill
#
# Bulk Modulus (GPa) = 73.00395 73.37643 73.19019
# Shear Modulus (GPa) = 25.28221 27.26089 26.27155
#
# Velocity S-wave (km/s) = 3.64506 3.78502 3.71570
# Velocity P-wave (km/s) = 7.48872 7.59362 7.54135
#
# Compressibility (1/GPa) = 0.01369789
#
# Stress axis : x y z
#
# Youngs Moduli (GPa) = 71.75636 84.94541 47.99680
#
# Poissons Ratio (x) = 0.10701 0.42704
# Poissons Ratio (y) = 0.09040 0.30072
# Poissons Ratio (z) = 0.63844 0.53223
#
# Static dielectric constant tensor:
#      x y z
#    x 3.352860 0.000000 0.000000 
#    y 0.000000 3.886720 0.000000 
#    z 0.000000 0.000000 3.445830 
# 
# 
# High freq. dielectric constant tensor:
#      x y z
#    x 1.733620 0.000000 0.000000 
#    y 0.000000 1.763300 0.000000 
#    z 0.000000 0.000000 1.739130 
# 
# From -- ./inp_files/2600.got.cif
#   From: 2010.03.12/outbox.cif.g09.slc.cpg/sg34_2_cif.got.tgz:2600.got - 2010.04.14 01:56:33.
