data_PCOD8171246
_publ_section_title
;
Structure prediction by ZEFSAII (Michael W. Deem and Ramdas Pophale) SiO2 
 PCOD8171246
Probable space group: P N A 21
;
_chemical_formula_sum "Si O2"
_cell_formula_units_Z 24
_cell_length_a 14.204584
_cell_length_b 9.330966
_cell_length_c 8.589516
_cell_angle_alpha 90.000000
_cell_angle_beta 90.000000
_cell_angle_gamma 90.000000
_cell_volume 1138.475842
_symmetry_space_group_name_H-M "P N A 21"
_symmetry_group_IT_number 33
_symmetry_cell_setting 'orthorhombic'
loop_
_space_group_symop_operation_xyz
x,y,z
-x,-y,1/2+z
1/2-x,1/2+y,1/2+z
1/2+x,1/2-y,z
loop_
_atom_site_type_symbol
_atom_site_label
_atom_site_fract_x
_atom_site_fract_y
_atom_site_fract_z
Si Si1 0.119926 0.265003 0.764530
Si Si2 0.032298 0.563162 0.413420
Si Si3 0.205723 0.260139 0.103727
Si Si4 0.217813 0.474717 0.523882
Si Si5 0.990102 0.700938 0.739240
Si Si6 0.143122 0.936651 0.761585
O O1 0.171759 0.349172 0.626117
O O2 0.013244 0.323719 0.791640
O O3 0.114684 0.098638 0.719105
O O4 0.174783 0.284357 0.926276
O O5 0.145167 0.542457 0.395101
O O6 0.987687 0.404703 0.383944
O O7 0.017071 0.610148 0.588600
O O8 0.120731 0.265770 0.227294
O O9 0.283885 0.380855 0.133250
O O10 0.251227 0.104761 0.135149
O O11 0.309480 0.419046 0.431547
O O12 0.046949 0.846987 0.758529
#
# Coordination Sequence:
#
# PCOD8171246 Si02
#       6
#     4   4   4   4   4   4
#     4  10  24  41  64  99 126 172 220 266 333 381
#     4  11  20  42  66  90 129 174 215 261 329 396
#     4  10  22  43  65  90 130 170 212 279 320 388
#     4  11  22  44  65  92 133 173 217 264 333 393
#     4  11  23  42  67  96 130 174 219 268 325 392
#     4  11  23  44  65  99 130 167 225 272 322 388
#
# _framework density 21.080815999999999
#
# number of rings (size 3 to 8) (size 9 to 14) (size 15 to 20)
#    0.000    1.333    5.000    0.000    0.000    4.000 
#   15.000    0.000    0.000    0.000    0.000    0.000 
#    0.000    0.000    0.000    0.000    0.000    0.000 
#
# Total GULP energy -297481.106356 kJ/mol
# GULP energy per Si atom -12395.046098 kJ/mol
# Density = 2.103284 g / cm^3
# Si number density = 21.080816 Si / 1000 Ang^3
#
#
#
# Elastic Constant Matrix: (Units=GPa)
#
#
# Indices 1 2 3 4 5 6 
#
# 1 100.3585 62.8325 12.5989 0.0000 0.0000 0.0000
# 2 62.8325 171.2048 48.9138 0.0000 0.0000 0.0000
# 3 12.5989 48.9138 59.3303 0.0000 0.0000 0.0000
# 4 0.0000 0.0000 0.0000 34.3287 0.0000 0.0000
# 5 0.0000 0.0000 0.0000 0.0000 23.9682 0.0000
# 6 0.0000 0.0000 0.0000 0.0000 0.0000 36.4176
#
#
#
# Elastic Compliance Matrix: (Units=1/GPa)
#
#
# Indices 1 2 3 4 5 6 
#
# 1 0.013043 -0.005227 0.001539 0.000000 0.000000 0.000000
# 2 -0.005227 0.009735 -0.006916 0.000000 0.000000 0.000000
# 3 0.001539 -0.006916 0.022230 0.000000 0.000000 0.000000
# 4 0.000000 0.000000 0.000000 0.029130 0.000000 0.000000
# 5 0.000000 0.000000 0.000000 0.000000 0.041722 0.000000
# 6 0.000000 0.000000 0.000000 0.000000 0.000000 0.027459
#
#
# Mechanical properties :
#
#
# Convention : Reuss Voigt Hill
#
# Bulk Modulus (GPa) = 42.01455 64.39821 53.20638
# Shear Modulus (GPa) = 28.99221 32.71282 30.85252
#
# Velocity S-wave (km/s) = 3.71251 3.94354 3.82977
# Velocity P-wave (km/s) = 6.19278 7.16589 6.69703
#
# Compressibility (1/GPa) = 0.02380128
#
# Stress axis : x y z
#
# Youngs Moduli (GPa) = 76.66723 102.72102 44.98489
#
# Poissons Ratio (x) = 0.53689 -0.06925
# Poissons Ratio (y) = 0.40072 0.31112
# Poissons Ratio (z) = -0.11801 0.71042
#
# Static dielectric constant tensor:
#      x y z
#    x 4.217820 0.000000 0.000000 
#    y 0.000000 3.964800 0.000000 
#    z 0.000000 0.000000 3.627230 
# 
# 
# High freq. dielectric constant tensor:
#      x y z
#    x 1.832600 0.000000 0.000000 
#    y 0.000000 1.833520 0.000000 
#    z 0.000000 0.000000 1.810600 
# 
# From -- ./inp_files/4196.got.cif
#   From: 2010.03.12/outbox.cif.g09.slc.cpg/sg33_3_cif.got.tgz:4196.got - 2010.04.14 01:49:19.
