data_PCOD8171881
_publ_section_title
;
Structure prediction by ZEFSAII (Michael W. Deem and Ramdas Pophale) SiO2 
 PCOD8171881
Probable space group: P N N 2
;
_chemical_formula_sum "Si O2"
_cell_formula_units_Z 24
_cell_length_a 8.546202
_cell_length_b 8.664936
_cell_length_c 15.918726
_cell_angle_alpha 90.000000
_cell_angle_beta 90.000000
_cell_angle_gamma 90.000000
_cell_volume 1178.818168
_symmetry_space_group_name_H-M "P N N 2"
_symmetry_group_IT_number 34
_symmetry_cell_setting 'orthorhombic'
loop_
_space_group_symop_operation_xyz
x,y,z
-x,-y,z
1/2-x,1/2+y,1/2+z
1/2+x,1/2-y,1/2+z
loop_
_atom_site_type_symbol
_atom_site_label
_atom_site_fract_x
_atom_site_fract_y
_atom_site_fract_z
Si Si1 0.159697 0.293499 0.250000
Si Si2 0.500000 0.500000 0.739739
Si Si3 0.752814 0.132070 0.117606
Si Si4 0.028786 0.820302 0.664540
Si Si5 0.000000 0.500000 0.375239
Si Si6 0.525955 0.172614 0.563935
Si Si7 0.322884 0.159427 0.015113
O O1 0.065892 0.146599 0.291010
O O2 0.344712 0.265171 0.234560
O O3 0.084969 0.335342 0.159951
O O4 0.135618 0.429430 0.316322
O O5 0.645416 0.534707 0.680793
O O6 0.631941 0.227216 0.175738
O O7 0.857289 0.245477 0.060386
O O8 0.668278 0.010226 0.057130
O O9 0.085674 0.786013 0.569927
O O10 0.000000 0.000000 0.675514
O O11 0.910949 0.365178 0.426926
O O12 0.646094 0.272513 0.506092
O O13 0.500000 0.000000 0.528255
#
# Coordination Sequence:
#
# PCOD8171881 Si02
#       7
#     4   2   4   4   2   4   4
#     4  10  22  39  60  93 124 171 214 269 333 383
#     4  10  20  36  68  88 120 168 218 268 314 390
#     4  11  17  35  65  94 121 155 222 274 304 382
#     4  11  22  36  64  99 124 161 226 275 308 391
#     4  12  24  42  60  88 140 172 214 278 350 394
#     4  10  19  37  66  96 121 160 229 266 311 388
#     4  11  21  38  61  95 123 174 213 263 335 392
#
# _framework density 20.359372
#
# number of rings (size 3 to 8) (size 9 to 14) (size 15 to 20)
#    0.000    1.333    7.500    2.000    2.333    0.000 
#    1.500    1.667    0.000    0.000    0.000    0.000 
#    0.000    0.000    0.000    0.000    0.000    0.000 
#
# Total GULP energy -297477.388314 kJ/mol
# GULP energy per Si atom -12394.891180 kJ/mol
# Density = 2.031303 g / cm^3
# Si number density = 20.359372 Si / 1000 Ang^3
#
#
#
# Elastic Constant Matrix: (Units=GPa)
#
#
# Indices 1 2 3 4 5 6 
#
# 1 125.2187 32.8960 34.9404 0.0000 0.0000 0.0000
# 2 32.8960 100.4332 18.9024 0.0000 0.0000 0.0000
# 3 34.9404 18.9024 60.5902 0.0000 0.0000 0.0000
# 4 0.0000 0.0000 0.0000 13.4492 0.0000 0.0000
# 5 0.0000 0.0000 0.0000 0.0000 4.7139 0.0000
# 6 0.0000 0.0000 0.0000 0.0000 0.0000 44.9385
#
#
#
# Elastic Compliance Matrix: (Units=1/GPa)
#
#
# Indices 1 2 3 4 5 6 
#
# 1 0.010005 -0.002328 -0.005043 0.000000 0.000000 0.000000
# 2 -0.002328 0.011120 -0.002127 0.000000 0.000000 0.000000
# 3 -0.005043 -0.002127 0.020076 0.000000 0.000000 0.000000
# 4 0.000000 0.000000 0.000000 0.074354 0.000000 0.000000
# 5 0.000000 0.000000 0.000000 0.000000 0.212137 0.000000
# 6 0.000000 0.000000 0.000000 0.000000 0.000000 0.022253
#
#
# Mechanical properties :
#
#
# Convention : Reuss Voigt Hill
#
# Bulk Modulus (GPa) = 45.03471 51.07996 48.05733
# Shear Modulus (GPa) = 13.28582 25.92053 19.60317
#
# Velocity S-wave (km/s) = 2.55731 3.57199 3.10636
# Velocity P-wave (km/s) = 5.55767 6.49275 6.04332
#
# Compressibility (1/GPa) = 0.02220510
#
# Stress axis : x y z
#
# Youngs Moduli (GPa) = 99.95195 89.93155 49.81060
#
# Poissons Ratio (x) = 0.20934 0.25121
# Poissons Ratio (y) = 0.23267 0.10593
# Poissons Ratio (z) = 0.50408 0.19125
#
# Static dielectric constant tensor:
#      x y z
#    x 4.441910 0.000000 0.000000 
#    y 0.000000 3.913910 0.000000 
#    z 0.000000 0.000000 3.151350 
# 
# 
# High freq. dielectric constant tensor:
#      x y z
#    x 1.814010 0.000000 0.000000 
#    y 0.000000 1.810230 0.000000 
#    z 0.000000 0.000000 1.730590 
# 
# From -- ./inp_files/7479.got.cif
#   From: 2010.03.12/outbox.cif.g09.slc.cpg/sg34_4_cif.got.tgz:7479.got - 2010.04.14 01:56:33.
