data_PCOD8171701
_publ_section_title
;
Structure prediction by ZEFSAII (Michael W. Deem and Ramdas Pophale) SiO2 
 PCOD8171701
Probable space group: P N A 21
;
_chemical_formula_sum "Si O2"
_cell_formula_units_Z 28
_cell_length_a 13.368431
_cell_length_b 16.062995
_cell_length_c 5.239398
_cell_angle_alpha 90.000000
_cell_angle_beta 90.000000
_cell_angle_gamma 90.000000
_cell_volume 1125.092820
_symmetry_space_group_name_H-M "P N A 21"
_symmetry_group_IT_number 33
_symmetry_cell_setting 'orthorhombic'
loop_
_space_group_symop_operation_xyz
x,y,z
-x,-y,1/2+z
1/2-x,1/2+y,1/2+z
1/2+x,1/2-y,z
loop_
_atom_site_type_symbol
_atom_site_label
_atom_site_fract_x
_atom_site_fract_y
_atom_site_fract_z
Si Si1 0.166415 0.169812 0.139420
Si Si2 0.349239 0.104159 0.818774
Si Si3 0.227640 0.881439 0.289323
Si Si4 0.151504 0.412403 0.287417
Si Si5 0.499391 0.210692 0.139711
Si Si6 0.061951 0.012116 0.312615
Si Si7 0.674885 0.761545 0.969362
O O1 0.076679 0.223364 0.005840
O O2 0.114816 0.101824 0.322807
O O3 0.224027 0.241980 0.301119
O O4 0.242004 0.120316 0.955381
O O5 0.337358 0.140239 0.533405
O O6 0.379916 0.008788 0.793285
O O7 0.441398 0.154541 0.937795
O O8 0.310964 0.884783 0.505784
O O9 0.141654 0.942004 0.384139
O O10 0.266054 0.903675 0.006417
O O11 0.184147 0.788172 0.239589
O O12 0.055552 0.353828 0.332611
O O13 0.421309 0.266631 0.305172
O O14 0.978058 0.007614 0.529457
#
# Coordination Sequence:
#
# PCOD8171701 Si02
#       7
#     4   4   4   4   4   4   4
#     4  11  24  49  71 107 155 196 254 319 388 449
#     4  11  27  45  76 107 150 204 256 318 385 469
#     4  12  26  50  76 110 150 203 251 315 386 460
#     4  12  27  49  78 107 155 200 254 313 389 455
#     4  11  27  45  74 113 152 201 257 321 386 465
#     4  12  27  45  76 108 147 198 255 319 380 459
#     4  11  26  45  75 110 151 204 255 315 386 467
#
# _framework density 24.886834
#
# number of rings (size 3 to 8) (size 9 to 14) (size 15 to 20)
#    0.000    0.571    2.857    3.429   12.000    1.143 
#    0.000    0.000    0.000    0.000    0.000    0.000 
#    0.000    0.000    0.000    0.000    0.000    0.000 
#
# Total GULP energy -347137.642609 kJ/mol
# GULP energy per Si atom -12397.772950 kJ/mol
# Density = 2.483019 g / cm^3
# Si number density = 24.886834 Si / 1000 Ang^3
#
#
#
# Elastic Constant Matrix: (Units=GPa)
#
#
# Indices 1 2 3 4 5 6 
#
# 1 133.4626 44.1334 24.4593 0.0000 0.0000 0.0000
# 2 44.1334 109.2517 8.8359 0.0000 0.0000 0.0000
# 3 24.4593 8.8359 86.6085 0.0000 0.0000 0.0000
# 4 0.0000 0.0000 0.0000 38.1444 0.0000 0.0000
# 5 0.0000 0.0000 0.0000 0.0000 23.1552 0.0000
# 6 0.0000 0.0000 0.0000 0.0000 0.0000 30.2680
#
#
#
# Elastic Compliance Matrix: (Units=1/GPa)
#
#
# Indices 1 2 3 4 5 6 
#
# 1 0.009045 -0.003476 -0.002200 0.000000 0.000000 0.000000
# 2 -0.003476 0.010565 -0.000096 0.000000 0.000000 0.000000
# 3 -0.002200 -0.000096 0.012177 0.000000 0.000000 0.000000
# 4 0.000000 0.000000 0.000000 0.026216 0.000000 0.000000
# 5 0.000000 0.000000 0.000000 0.000000 0.043187 0.000000
# 6 0.000000 0.000000 0.000000 0.000000 0.000000 0.033038
#
#
# Mechanical properties :
#
#
# Convention : Reuss Voigt Hill
#
# Bulk Modulus (GPa) = 49.39844 53.79775 51.59810
# Shear Modulus (GPa) = 32.78234 35.10646 33.94440
#
# Velocity S-wave (km/s) = 3.63334 3.75993 3.69718
# Velocity P-wave (km/s) = 6.12322 6.36501 6.24528
#
# Compressibility (1/GPa) = 0.02024355
#
# Stress axis : x y z
#
# Youngs Moduli (GPa) = 110.55391 94.65085 82.11999
#
# Poissons Ratio (x) = 0.32901 0.18065
# Poissons Ratio (y) = 0.38429 0.00790
# Poissons Ratio (z) = 0.24321 0.00910
#
# Static dielectric constant tensor:
#      x y z
#    x 4.632590 0.000000 0.000000 
#    y 0.000000 4.809060 0.000000 
#    z 0.000000 0.000000 4.119140 
# 
# 
# High freq. dielectric constant tensor:
#      x y z
#    x 2.004880 0.000000 0.000000 
#    y 0.000000 2.009950 0.000000 
#    z 0.000000 0.000000 1.974940 
# 
# From -- ./inp_files/926.got.cif
#   From: 2010.03.12/outbox.cif.g09.slc.cpg/sg33_1_cif.got.tgz:926.got - 2010.04.14 01:49:19.
