data_PCOD8171981
_publ_section_title
;
Structure prediction by ZEFSAII (Michael W. Deem and Ramdas Pophale) SiO2 
 PCOD8171981
Probable space group: P N N 2
;
_chemical_formula_sum "Si O2"
_cell_formula_units_Z 30
_cell_length_a 14.171270
_cell_length_b 8.732005
_cell_length_c 11.393620
_cell_angle_alpha 90.000000
_cell_angle_beta 90.000000
_cell_angle_gamma 90.000000
_cell_volume 1409.887561
_symmetry_space_group_name_H-M "P N N 2"
_symmetry_group_IT_number 34
_symmetry_cell_setting 'orthorhombic'
loop_
_space_group_symop_operation_xyz
x,y,z
-x,-y,z
1/2-x,1/2+y,1/2+z
1/2+x,1/2-y,1/2+z
loop_
_atom_site_type_symbol
_atom_site_label
_atom_site_fract_x
_atom_site_fract_y
_atom_site_fract_z
Si Si1 0.771505 0.412789 0.206110
Si Si2 0.088237 0.609431 0.024337
Si Si3 0.164754 0.702617 0.440448
Si Si4 0.500000 0.000000 0.002675
Si Si5 0.752936 0.507634 0.853526
Si Si6 0.620383 0.188087 0.182483
Si Si7 0.962852 0.170720 0.831454
Si Si8 0.774813 0.242767 0.696481
O O1 0.864911 0.337710 0.147505
O O2 0.767715 0.381851 0.346152
O O3 0.675207 0.345334 0.145938
O O4 0.786716 0.591674 0.179072
O O5 0.000000 0.500000 0.045670
O O6 0.169585 0.520537 0.952850
O O7 0.058182 0.765624 0.960539
O O8 0.168483 0.885588 0.406315
O O9 0.206597 0.676340 0.570762
O O10 0.060328 0.626201 0.429138
O O11 0.423940 0.900922 0.073728
O O12 0.800687 0.585133 0.741407
O O13 0.719381 0.348855 0.791883
O O14 0.539447 0.217701 0.276103
O O15 0.873320 0.180860 0.747492
O O16 0.000000 0.000000 0.842339
#
# Coordination Sequence:
#
# PCOD8171981 Si02
#       8
#     4   4   4   2   4   4   4   4
#     4  11  26  41  65  99 138 177 227 277 350 418
#     4  11  22  40  66  92 134 180 219 278 350 404
#     4  11  24  42  65 100 135 181 228 280 345 422
#     4  12  22  40  74  92 142 178 226 284 354 402
#     4  10  21  40  67  96 130 172 232 278 333 403
#     4  11  20  40  63  99 122 172 230 279 324 406
#     4  11  21  37  67  99 125 167 239 294 333 392
#     4  11  21  42  68  96 138 180 225 291 341 403
#
# _framework density 21.278292
#
# number of rings (size 3 to 8) (size 9 to 14) (size 15 to 20)
#    0.000    1.067    6.667    0.800    0.933    2.133 
#    0.000    0.000    0.000    2.400    0.000    0.000 
#    0.000    0.000    0.000    0.000    0.000    0.000 
#
# Total GULP energy -371771.380615 kJ/mol
# GULP energy per Si atom -12392.379354 kJ/mol
# Density = 2.122986 g / cm^3
# Si number density = 21.278292 Si / 1000 Ang^3
#
#
#
# Elastic Constant Matrix: (Units=GPa)
#
#
# Indices 1 2 3 4 5 6 
#
# 1 77.7057 41.4231 38.9239 0.0000 0.0000 0.0000
# 2 41.4231 114.1197 38.3334 0.0000 0.0000 0.0000
# 3 38.9239 38.3334 92.6563 0.0000 0.0000 0.0000
# 4 0.0000 0.0000 0.0000 22.4008 0.0000 0.0000
# 5 0.0000 0.0000 0.0000 0.0000 18.3497 0.0000
# 6 0.0000 0.0000 0.0000 0.0000 0.0000 38.9791
#
#
#
# Elastic Compliance Matrix: (Units=1/GPa)
#
#
# Indices 1 2 3 4 5 6 
#
# 1 0.018238 -0.004700 -0.005717 0.000000 0.000000 0.000000
# 2 -0.004700 0.011388 -0.002737 0.000000 0.000000 0.000000
# 3 -0.005717 -0.002737 0.014327 0.000000 0.000000 0.000000
# 4 0.000000 0.000000 0.000000 0.044641 0.000000 0.000000
# 5 0.000000 0.000000 0.000000 0.000000 0.054497 0.000000
# 6 0.000000 0.000000 0.000000 0.000000 0.000000 0.025655
#
#
# Mechanical properties :
#
#
# Convention : Reuss Voigt Hill
#
# Bulk Modulus (GPa) = 56.67406 57.98250 57.32828
# Shear Modulus (GPa) = 24.88358 26.99935 25.94146
#
# Velocity S-wave (km/s) = 3.42341 3.56598 3.49542
# Velocity P-wave (km/s) = 6.50529 6.65310 6.57961
#
# Compressibility (1/GPa) = 0.01764476
#
# Stress axis : x y z
#
# Youngs Moduli (GPa) = 54.82989 87.81166 69.79933
#
# Poissons Ratio (x) = 0.41268 0.39907
# Poissons Ratio (y) = 0.25768 0.19105
# Poissons Ratio (z) = 0.31348 0.24035
#
# Static dielectric constant tensor:
#      x y z
#    x 3.824970 0.000000 0.000000 
#    y 0.000000 4.201330 0.000000 
#    z 0.000000 0.000000 3.836480 
# 
# 
# High freq. dielectric constant tensor:
#      x y z
#    x 1.809080 0.000000 0.000000 
#    y 0.000000 1.843210 0.000000 
#    z 0.000000 0.000000 1.832390 
# 
# From -- ./inp_files/5072.got.cif
#   From: 2010.03.12/outbox.cif.g09.slc.cpg/sg34_3_cif.got.tgz:5072.got - 2010.04.14 01:56:33.
