data_PCOD8171294
_publ_section_title
;
Structure prediction by ZEFSAII (Michael W. Deem and Ramdas Pophale) SiO2 
 PCOD8171294
Probable space group: P N A 21
;
_chemical_formula_sum "Si O2"
_cell_formula_units_Z 24
_cell_length_a 9.198327
_cell_length_b 10.636628
_cell_length_c 10.870593
_cell_angle_alpha 90.000000
_cell_angle_beta 90.000000
_cell_angle_gamma 90.000000
_cell_volume 1063.569933
_symmetry_space_group_name_H-M "P N A 21"
_symmetry_group_IT_number 33
_symmetry_cell_setting 'orthorhombic'
loop_
_space_group_symop_operation_xyz
x,y,z
-x,-y,1/2+z
1/2-x,1/2+y,1/2+z
1/2+x,1/2-y,z
loop_
_atom_site_type_symbol
_atom_site_label
_atom_site_fract_x
_atom_site_fract_y
_atom_site_fract_z
Si Si1 0.709870 0.593328 0.534760
Si Si2 0.097875 0.183429 0.969801
Si Si3 0.731628 0.487847 0.162237
Si Si4 0.174245 0.636352 0.890220
Si Si5 0.886790 0.697111 0.022276
Si Si6 0.069653 0.088529 0.707770
O O1 0.848801 0.685282 0.528879
O O2 0.573732 0.677462 0.492766
O O3 0.740512 0.483792 0.439234
O O4 0.677740 0.527010 0.667776
O O5 0.132854 0.164053 0.824892
O O6 0.179133 0.068896 0.034220
O O7 0.816600 0.381537 0.242374
O O8 0.840300 0.600062 0.128215
O O9 0.590493 0.535747 0.238057
O O10 0.252637 0.764133 0.934390
O O11 0.008814 0.637401 0.935039
O O12 0.948947 0.817986 0.092760
#
# Coordination Sequence:
#
# PCOD8171294 Si02
#       6
#     4   4   4   4   4   4
#     4  10  24  42  67 102 134 186 235 286 356 418
#     4  11  24  42  69  99 147 182 233 297 353 420
#     4  11  24  44  69 109 142 186 239 291 360 428
#     4  11  24  46  72 101 143 181 243 292 353 431
#     4  11  24  45  74 101 139 196 234 294 364 415
#     4  10  22  45  71  98 145 185 236 296 350 426
#
# _framework density 22.56551
#
# number of rings (size 3 to 8) (size 9 to 14) (size 15 to 20)
#    0.000    1.333    3.333    1.000    2.333    4.000 
#    6.000    0.000    0.000    0.000    0.000    0.000 
#    0.000    0.000    0.000    0.000    0.000    0.000 
#
# Total GULP energy -297586.384303 kJ/mol
# GULP energy per Si atom -12399.432679 kJ/mol
# Density = 2.251415 g / cm^3
# Si number density = 22.565510 Si / 1000 Ang^3
#
#
#
# Elastic Constant Matrix: (Units=GPa)
#
#
# Indices 1 2 3 4 5 6 
#
# 1 104.0582 38.0329 40.6486 0.0000 0.0000 0.0000
# 2 38.0329 77.4732 37.4038 0.0000 0.0000 0.0000
# 3 40.6486 37.4038 93.2524 0.0000 0.0000 0.0000
# 4 0.0000 0.0000 0.0000 37.1875 0.0000 0.0000
# 5 0.0000 0.0000 0.0000 0.0000 21.5549 0.0000
# 6 0.0000 0.0000 0.0000 0.0000 0.0000 40.5779
#
#
#
# Elastic Compliance Matrix: (Units=1/GPa)
#
#
# Indices 1 2 3 4 5 6 
#
# 1 0.012693 -0.004415 -0.003762 0.000000 0.000000 0.000000
# 2 -0.004415 0.017543 -0.005112 0.000000 0.000000 0.000000
# 3 -0.003762 -0.005112 0.014414 0.000000 0.000000 0.000000
# 4 0.000000 0.000000 0.000000 0.026891 0.000000 0.000000
# 5 0.000000 0.000000 0.000000 0.000000 0.046393 0.000000
# 6 0.000000 0.000000 0.000000 0.000000 0.000000 0.024644
#
#
# Mechanical properties :
#
#
# Convention : Reuss Voigt Hill
#
# Bulk Modulus (GPa) = 55.33437 56.32828 55.83132
# Shear Modulus (GPa) = 28.54193 30.44395 29.49294
#
# Velocity S-wave (km/s) = 3.56033 3.67704 3.61916
# Velocity P-wave (km/s) = 6.44020 6.56078 6.50077
#
# Compressibility (1/GPa) = 0.01807195
#
# Stress axis : x y z
#
# Youngs Moduli (GPa) = 78.78187 57.00209 69.37712
#
# Poissons Ratio (x) = 0.25167 0.26100
# Poissons Ratio (y) = 0.34782 0.35467
# Poissons Ratio (z) = 0.29639 0.29140
#
# Static dielectric constant tensor:
#      x y z
#    x 3.926510 0.000000 0.000000 
#    y 0.000000 4.039810 0.000000 
#    z 0.000000 0.000000 3.962060 
# 
# 
# High freq. dielectric constant tensor:
#      x y z
#    x 1.882520 0.000000 0.000000 
#    y 0.000000 1.891160 0.000000 
#    z 0.000000 0.000000 1.887330 
# 
# From -- ./inp_files/3048.got.cif
#   From: 2010.03.12/outbox.cif.g09.slc.cpg/sg33_2_cif.got.tgz:3048.got - 2010.04.14 01:49:19.
