data_PCOD8171987
_publ_section_title
;
Structure prediction by ZEFSAII (Michael W. Deem and Ramdas Pophale) SiO2 
 PCOD8171987
Probable space group: P N N 2
;
_chemical_formula_sum "Si O2"
_cell_formula_units_Z 32
_cell_length_a 12.850789
_cell_length_b 9.520704
_cell_length_c 12.681056
_cell_angle_alpha 90.000000
_cell_angle_beta 90.000000
_cell_angle_gamma 90.000000
_cell_volume 1551.508919
_symmetry_space_group_name_H-M "P N N 2"
_symmetry_group_IT_number 34
_symmetry_cell_setting 'orthorhombic'
loop_
_space_group_symop_operation_xyz
x,y,z
-x,-y,z
1/2-x,1/2+y,1/2+z
1/2+x,1/2-y,1/2+z
loop_
_atom_site_type_symbol
_atom_site_label
_atom_site_fract_x
_atom_site_fract_y
_atom_site_fract_z
Si Si1 0.716948 0.955234 0.977160
Si Si2 0.497455 0.165066 0.226903
Si Si3 0.940154 0.856569 0.301951
Si Si4 0.624412 0.251680 0.021132
Si Si5 0.228081 0.710266 0.680396
Si Si6 0.418709 0.114764 0.788401
Si Si7 0.402432 0.594442 0.343533
Si Si8 0.760536 0.977655 0.651777
O O1 0.650929 0.864459 0.892921
O O2 0.836241 0.918612 0.950366
O O3 0.698174 0.907109 0.095452
O O4 0.690688 0.121232 0.974412
O O5 0.542744 0.202380 0.110482
O O6 0.379657 0.220646 0.245544
O O7 0.567916 0.244699 0.314268
O O8 0.500000 0.000000 0.248791
O O9 0.938856 0.821034 0.425898
O O10 0.824528 0.843726 0.251830
O O11 0.019440 0.749360 0.247984
O O12 0.000000 0.000000 0.281525
O O13 0.701623 0.375334 0.059323
O O14 0.250298 0.857997 0.620957
O O15 0.352836 0.071354 0.687091
O O16 0.500000 0.000000 0.824975
O O17 0.500000 0.500000 0.365616
O O18 0.339316 0.525505 0.248511
#
# Coordination Sequence:
#
# PCOD8171987 Si02
#       8
#     4   4   4   4   4   4   4   4
#     4  11  24  40  68  95 129 173 220 263 329 399
#     4  11  23  41  70  95 131 167 219 270 324 388
#     4  12  28  41  67  99 135 172 222 281 327 392
#     4  11  24  42  66 102 126 175 218 271 326 393
#     4  12  24  43  64  99 130 172 219 273 328 390
#     4  11  21  45  67  89 127 177 216 264 335 391
#     4  10  21  41  65  94 126 172 208 266 329 386
#     4  10  23  41  68  93 130 167 220 269 328 391
#
# _framework density 20.625084000000001
#
# number of rings (size 3 to 8) (size 9 to 14) (size 15 to 20)
#    0.000    1.000    5.000    1.500    5.250    1.500 
#    0.000    0.000    0.000    0.000    0.000    0.000 
#    0.000    0.000    0.000    0.000    0.000    0.000 
#
# Total GULP energy -396683.311658 kJ/mol
# GULP energy per Si atom -12396.353489 kJ/mol
# Density = 2.057814 g / cm^3
# Si number density = 20.625084 Si / 1000 Ang^3
#
#
#
# Elastic Constant Matrix: (Units=GPa)
#
#
# Indices 1 2 3 4 5 6 
#
# 1 135.4563 48.7288 24.1765 0.0000 0.0000 0.0000
# 2 48.7288 133.0122 25.0634 0.0000 0.0000 0.0000
# 3 24.1765 25.0634 30.4708 0.0000 0.0000 0.0000
# 4 0.0000 0.0000 0.0000 25.7355 0.0000 0.0000
# 5 0.0000 0.0000 0.0000 0.0000 30.9294 0.0000
# 6 0.0000 0.0000 0.0000 0.0000 0.0000 35.8772
#
#
#
# Elastic Compliance Matrix: (Units=1/GPa)
#
#
# Indices 1 2 3 4 5 6 
#
# 1 0.009185 -0.002357 -0.005349 0.000000 0.000000 0.000000
# 2 -0.002357 0.009502 -0.005946 0.000000 0.000000 0.000000
# 3 -0.005349 -0.005946 0.041953 0.000000 0.000000 0.000000
# 4 0.000000 0.000000 0.000000 0.038857 0.000000 0.000000
# 5 0.000000 0.000000 0.000000 0.000000 0.032332 0.000000
# 6 0.000000 0.000000 0.000000 0.000000 0.000000 0.027873
#
#
# Mechanical properties :
#
#
# Convention : Reuss Voigt Hill
#
# Bulk Modulus (GPa) = 29.99700 54.98629 42.49165
# Shear Modulus (GPa) = 25.23768 31.90645 28.57206
#
# Velocity S-wave (km/s) = 3.50185 3.93742 3.72601
# Velocity P-wave (km/s) = 5.56113 6.88396 6.25760
#
# Compressibility (1/GPa) = 0.03333667
#
# Stress axis : x y z
#
# Youngs Moduli (GPa) = 108.87235 105.24198 23.83632
#
# Poissons Ratio (x) = 0.24806 0.12750
# Poissons Ratio (y) = 0.25662 0.14172
# Poissons Ratio (z) = 0.58236 0.62572
#
# Static dielectric constant tensor:
#      x y z
#    x 4.181290 0.000000 0.000000 
#    y 0.000000 3.808130 0.000000 
#    z 0.000000 0.000000 3.465170 
# 
# 
# High freq. dielectric constant tensor:
#      x y z
#    x 1.823020 0.000000 0.000000 
#    y 0.000000 1.817010 0.000000 
#    z 0.000000 0.000000 1.778060 
# 
# From -- ./inp_files/6826.got.cif
#   From: 2010.03.12/outbox.cif.g09.slc.cpg/sg34_4_cif.got.tgz:6826.got - 2010.04.14 01:56:33.
