data_PCOD8171969
_publ_section_title
;
Structure prediction by ZEFSAII (Michael W. Deem and Ramdas Pophale) SiO2 
 PCOD8171969
Probable space group: P N N 2
;
_chemical_formula_sum "Si O2"
_cell_formula_units_Z 30
_cell_length_a 14.048787
_cell_length_b 12.347602
_cell_length_c 8.376624
_cell_angle_alpha 90.000000
_cell_angle_beta 90.000000
_cell_angle_gamma 90.000000
_cell_volume 1453.083168
_symmetry_space_group_name_H-M "P N N 2"
_symmetry_group_IT_number 34
_symmetry_cell_setting 'orthorhombic'
loop_
_space_group_symop_operation_xyz
x,y,z
-x,-y,z
1/2-x,1/2+y,1/2+z
1/2+x,1/2-y,1/2+z
loop_
_atom_site_type_symbol
_atom_site_label
_atom_site_fract_x
_atom_site_fract_y
_atom_site_fract_z
Si Si1 0.105102 0.687322 0.855320
Si Si2 0.989947 0.882740 0.473655
Si Si3 0.834507 0.240763 0.528000
Si Si4 0.192983 0.244133 0.458510
Si Si5 0.500000 0.000000 0.538206
Si Si6 0.520117 0.383743 0.354625
Si Si7 0.281244 0.645535 0.282528
Si Si8 0.807579 0.579837 0.204225
O O1 0.108448 0.692343 0.663564
O O2 0.213447 0.677769 0.909394
O O3 0.056245 0.797863 0.920572
O O4 0.044668 0.587763 0.919721
O O5 0.900274 0.820017 0.397373
O O6 0.979061 0.891337 0.663475
O O7 0.089070 0.827668 0.430052
O O8 0.000000 0.000000 0.394103
O O9 0.804977 0.327181 0.396909
O O10 0.747209 0.166237 0.591212
O O11 0.199017 0.240395 0.651344
O O12 0.188596 0.364721 0.381255
O O13 0.415067 0.947577 0.644980
O O14 0.500000 0.500000 0.432803
O O15 0.627883 0.354333 0.400341
O O16 0.258043 0.527656 0.206618
#
# Coordination Sequence:
#
# PCOD8171969 Si02
#       8
#     4   4   4   4   2   4   4   4
#     4  10  21  40  61  94 128 179 215 272 336 415
#     4   9  18  34  61  89 118 165 209 269 321 384
#     4  10  22  41  63  92 130 165 227 269 328 407
#     4  10  21  39  64  93 132 166 225 273 335 401
#     4  12  24  40  68  92 140 180 218 274 364 412
#     4   9  17  35  64  86 117 161 219 265 326 394
#     4  11  21  41  64  96 126 174 216 278 339 396
#     4  11  24  42  66  94 132 178 216 281 342 413
#
# _framework density 20.645757
#
# number of rings (size 3 to 8) (size 9 to 14) (size 15 to 20)
#    0.000    1.867    1.333    4.800    1.867    0.000 
#    9.600    0.000    0.000    8.000    0.000    0.000 
#    0.000    0.000    0.000    0.000    0.000    0.000 
#
# Total GULP energy -371729.071966 kJ/mol
# GULP energy per Si atom -12390.969066 kJ/mol
# Density = 2.059877 g / cm^3
# Si number density = 20.645757 Si / 1000 Ang^3
#
#
#
# Elastic Constant Matrix: (Units=GPa)
#
#
# Indices 1 2 3 4 5 6 
#
# 1 146.3029 51.4403 30.3008 0.0000 0.0000 0.0000
# 2 51.4403 114.8818 48.3327 0.0000 0.0000 0.0000
# 3 30.3008 48.3327 56.4617 0.0000 0.0000 0.0000
# 4 0.0000 0.0000 0.0000 24.7008 0.0000 0.0000
# 5 0.0000 0.0000 0.0000 0.0000 32.0329 0.0000
# 6 0.0000 0.0000 0.0000 0.0000 0.0000 42.5989
#
#
#
# Elastic Compliance Matrix: (Units=1/GPa)
#
#
# Indices 1 2 3 4 5 6 
#
# 1 0.008251 -0.002863 -0.001978 0.000000 0.000000 0.000000
# 2 -0.002863 0.014597 -0.010959 0.000000 0.000000 0.000000
# 3 -0.001978 -0.010959 0.028154 0.000000 0.000000 0.000000
# 4 0.000000 0.000000 0.000000 0.040484 0.000000 0.000000
# 5 0.000000 0.000000 0.000000 0.000000 0.031218 0.000000
# 6 0.000000 0.000000 0.000000 0.000000 0.000000 0.023475
#
#
# Mechanical properties :
#
#
# Convention : Reuss Voigt Hill
#
# Bulk Modulus (GPa) = 51.53796 64.19935 57.86865
# Shear Modulus (GPa) = 27.13761 32.37137 29.75449
#
# Velocity S-wave (km/s) = 3.62945 3.96402 3.80042
# Velocity P-wave (km/s) = 6.52542 7.21903 6.88097
#
# Compressibility (1/GPa) = 0.01940317
#
# Stress axis : x y z
#
# Youngs Moduli (GPa) = 121.19427 68.50664 35.51908
#
# Poissons Ratio (x) = 0.19611 0.07024
# Poissons Ratio (y) = 0.34693 0.38926
# Poissons Ratio (z) = 0.23968 0.75078
#
# Static dielectric constant tensor:
#      x y z
#    x 4.148350 0.000000 0.000000 
#    y 0.000000 3.831550 0.000000 
#    z 0.000000 0.000000 3.395840 
# 
# 
# High freq. dielectric constant tensor:
#      x y z
#    x 1.835310 0.000000 0.000000 
#    y 0.000000 1.803020 0.000000 
#    z 0.000000 0.000000 1.769680 
# 
# From -- ./inp_files/3663.got.cif
#   From: 2010.03.12/outbox.cif.g09.slc.cpg/sg34_2_cif.got.tgz:3663.got - 2010.04.14 01:56:33.
