data_PCOD8171194
_publ_section_title
;
Structure prediction by ZEFSAII (Michael W. Deem and Ramdas Pophale) SiO2 
 PCOD8171194
Probable space group: P N A 21
;
_chemical_formula_sum "Si O2"
_cell_formula_units_Z 24
_cell_length_a 5.133341
_cell_length_b 27.533932
_cell_length_c 7.418874
_cell_angle_alpha 90.000000
_cell_angle_beta 90.000000
_cell_angle_gamma 90.000000
_cell_volume 1048.591530
_symmetry_space_group_name_H-M "P N A 21"
_symmetry_group_IT_number 33
_symmetry_cell_setting 'orthorhombic'
loop_
_space_group_symop_operation_xyz
x,y,z
-x,-y,1/2+z
1/2-x,1/2+y,1/2+z
1/2+x,1/2-y,z
loop_
_atom_site_type_symbol
_atom_site_label
_atom_site_fract_x
_atom_site_fract_y
_atom_site_fract_z
Si Si1 0.109733 0.976696 0.531750
Si Si2 0.942364 0.771829 0.644836
Si Si3 0.541582 0.229000 0.549082
Si Si4 0.489688 0.131069 0.722014
Si Si5 0.019377 0.869180 0.466695
Si Si6 0.389712 0.975975 0.156898
O O1 0.043749 0.920457 0.568951
O O2 0.335017 0.995376 0.667690
O O3 0.834946 0.005565 0.520025
O O4 0.249561 0.985349 0.344018
O O5 0.679365 0.755238 0.544305
O O6 0.970200 0.829875 0.625295
O O7 0.913953 0.751371 0.848786
O O8 0.309798 0.257646 0.650652
O O9 0.489063 0.171369 0.562406
O O10 0.548091 0.080473 0.622075
O O11 0.711647 0.143382 0.867092
O O12 0.212119 0.129208 0.821098
#
# Coordination Sequence:
#
# PCOD8171194 Si02
#       6
#     4   4   4   4   4   4
#     4  11  23  44  67 100 137 176 226 281 334 405
#     4  10  22  41  61  91 134 165 219 274 323 392
#     4  10  22  41  61  91 134 165 219 274 323 392
#     4  11  23  41  68  94 133 179 222 267 337 397
#     4  11  23  41  68  94 133 179 222 267 337 397
#     4  11  23  44  67 100 137 176 226 281 334 405
#
# _framework density 22.887846
#
# number of rings (size 3 to 8) (size 9 to 14) (size 15 to 20)
#    0.000    1.333    0.000    7.000    0.000    4.000 
#   18.000    0.000    0.000    0.000    0.000    0.000 
#    0.000    0.000    0.000    0.000    0.000    0.000 
#
# Total GULP energy -297352.606908 kJ/mol
# GULP energy per Si atom -12389.691954 kJ/mol
# Density = 2.283575 g / cm^3
# Si number density = 22.887846 Si / 1000 Ang^3
#
#
#
# Elastic Constant Matrix: (Units=GPa)
#
#
# Indices 1 2 3 4 5 6 
#
# 1 150.2441 22.9870 -5.3389 0.0000 0.0000 0.0000
# 2 22.9870 172.4486 40.1868 0.0000 0.0000 0.0000
# 3 -5.3389 40.1868 42.1985 0.0000 0.0000 0.0000
# 4 0.0000 0.0000 0.0000 30.2269 0.0000 0.0000
# 5 0.0000 0.0000 0.0000 0.0000 23.1064 0.0000
# 6 0.0000 0.0000 0.0000 0.0000 0.0000 41.1760
#
#
#
# Elastic Compliance Matrix: (Units=1/GPa)
#
#
# Indices 1 2 3 4 5 6 
#
# 1 0.006959 -0.001456 0.002267 0.000000 0.000000 0.000000
# 2 -0.001456 0.007757 -0.007572 0.000000 0.000000 0.000000
# 3 0.002267 -0.007572 0.031195 0.000000 0.000000 0.000000
# 4 0.000000 0.000000 0.000000 0.033083 0.000000 0.000000
# 5 0.000000 0.000000 0.000000 0.000000 0.043278 0.000000
# 6 0.000000 0.000000 0.000000 0.000000 0.000000 0.024286
#
#
# Mechanical properties :
#
#
# Convention : Reuss Voigt Hill
#
# Bulk Modulus (GPa) = 30.87346 53.39565 42.13456
# Shear Modulus (GPa) = 29.26079 39.37228 34.31654
#
# Velocity S-wave (km/s) = 3.57941 4.15206 3.87632
# Velocity P-wave (km/s) = 5.53184 6.80926 6.20352
#
# Compressibility (1/GPa) = 0.03239028
#
# Stress axis : x y z
#
# Youngs Moduli (GPa) = 143.69576 128.90912 32.05623
#
# Poissons Ratio (x) = 0.18768 -0.07267
# Poissons Ratio (y) = 0.20921 0.24272
# Poissons Ratio (z) = -0.32576 0.97607
#
# Static dielectric constant tensor:
#      x y z
#    x 6.662380 0.000000 0.000000 
#    y 0.000000 4.243630 0.000000 
#    z 0.000000 0.000000 3.765680 
# 
# 
# High freq. dielectric constant tensor:
#      x y z
#    x 1.949570 0.000000 0.000000 
#    y 0.000000 1.907450 0.000000 
#    z 0.000000 0.000000 1.870160 
# 
# From -- ./inp_files/2708.got.cif
#   From: 2010.03.12/outbox.cif.g09.slc.cpg/sg33_2_cif.got.tgz:2708.got - 2010.04.14 01:49:19.
