data_PCOD8171067
_publ_section_title
;
Structure prediction by ZEFSAII (Michael W. Deem and Ramdas Pophale) SiO2 
 PCOD8171067
Probable space group: P N A 21
;
_chemical_formula_sum "Si O2"
_cell_formula_units_Z 32
_cell_length_a 13.903178
_cell_length_b 17.883126
_cell_length_c 6.290457
_cell_angle_alpha 90.000000
_cell_angle_beta 90.000000
_cell_angle_gamma 90.000000
_cell_volume 1564.010691
_symmetry_space_group_name_H-M "P N A 21"
_symmetry_group_IT_number 33
_symmetry_cell_setting 'orthorhombic'
loop_
_space_group_symop_operation_xyz
x,y,z
-x,-y,1/2+z
1/2-x,1/2+y,1/2+z
1/2+x,1/2-y,z
loop_
_atom_site_type_symbol
_atom_site_label
_atom_site_fract_x
_atom_site_fract_y
_atom_site_fract_z
Si Si1 0.183064 0.701421 0.497610
Si Si2 0.690392 0.186319 0.778560
Si Si3 0.054637 0.914462 0.604624
Si Si4 0.263103 0.466993 0.860955
Si Si5 0.883251 0.006496 0.476307
Si Si6 0.779592 0.904513 0.169178
Si Si7 0.320814 0.727993 0.881156
Si Si8 0.475856 0.747132 0.545761
O O1 0.215559 0.779386 0.392448
O O2 0.205265 0.632858 0.336553
O O3 0.238463 0.698642 0.721780
O O4 0.069482 0.700075 0.545582
O O5 0.683170 0.098765 0.842606
O O6 0.706243 0.199867 0.525901
O O7 0.593528 0.229020 0.852292
O O8 0.137981 0.931657 0.439932
O O9 0.095972 0.915287 0.848688
O O10 0.006775 0.838336 0.527962
O O11 0.974673 0.979843 0.610116
O O12 0.287492 0.491691 0.620531
O O13 0.226416 0.535429 0.010206
O O14 0.863664 0.946026 0.292622
O O15 0.836773 0.842242 0.035830
O O16 0.417619 0.754221 0.765083
#
# Coordination Sequence:
#
# PCOD8171067 Si02
#       8
#     4   4   4   4   4   4   4   4
#     4  10  21  41  63  90 123 163 213 259 317 382
#     4  10  23  41  60  92 129 163 211 264 323 386
#     4  11  21  34  57  93 128 157 201 257 325 399
#     4  11  22  38  61  88 125 167 206 261 327 381
#     4  11  22  34  58  93 128 159 198 254 329 397
#     4  10  22  40  62  84 129 169 206 257 321 392
#     4  10  22  38  61  92 127 162 203 267 332 380
#     4  11  23  38  64  92 125 166 218 265 316 395
#
# _framework density 20.460217
#
# number of rings (size 3 to 8) (size 9 to 14) (size 15 to 20)
#    0.000    1.500    2.500    3.750    3.500    4.000 
#    0.000    0.000    5.500    0.000    0.000    0.000 
#    0.000    0.000    0.000    0.000    0.000    0.000 
#
# Total GULP energy -396554.094896 kJ/mol
# GULP energy per Si atom -12392.315465 kJ/mol
# Density = 2.041365 g / cm^3
# Si number density = 20.460217 Si / 1000 Ang^3
#
#
#
# Elastic Constant Matrix: (Units=GPa)
#
#
# Indices 1 2 3 4 5 6 
#
# 1 94.1109 39.0979 42.2803 0.0000 0.0000 0.0000
# 2 39.0979 101.5300 47.5658 0.0000 0.0000 0.0000
# 3 42.2803 47.5658 126.4189 0.0000 0.0000 0.0000
# 4 0.0000 0.0000 0.0000 29.9618 0.0000 0.0000
# 5 0.0000 0.0000 0.0000 0.0000 15.1750 0.0000
# 6 0.0000 0.0000 0.0000 0.0000 0.0000 34.7904
#
#
#
# Elastic Compliance Matrix: (Units=1/GPa)
#
#
# Indices 1 2 3 4 5 6 
#
# 1 0.013598 -0.003770 -0.003129 0.000000 0.000000 0.000000
# 2 -0.003770 0.013002 -0.003631 0.000000 0.000000 0.000000
# 3 -0.003129 -0.003631 0.010323 0.000000 0.000000 0.000000
# 4 0.000000 0.000000 0.000000 0.033376 0.000000 0.000000
# 5 0.000000 0.000000 0.000000 0.000000 0.065898 0.000000
# 6 0.000000 0.000000 0.000000 0.000000 0.000000 0.028744
#
#
# Mechanical properties :
#
#
# Convention : Reuss Voigt Hill
#
# Bulk Modulus (GPa) = 63.04451 64.43865 63.74158
# Shear Modulus (GPa) = 26.13836 28.85982 27.49909
#
# Velocity S-wave (km/s) = 3.57812 3.75978 3.67008
# Velocity P-wave (km/s) = 6.92464 7.10006 7.01290
#
# Compressibility (1/GPa) = 0.01586181
#
# Stress axis : x y z
#
# Youngs Moduli (GPa) = 73.54043 76.90864 96.87097
#
# Poissons Ratio (x) = 0.28998 0.30312
# Poissons Ratio (y) = 0.27728 0.35176
# Poissons Ratio (z) = 0.23012 0.27927
#
# Static dielectric constant tensor:
#      x y z
#    x 3.428720 0.000000 0.000000 
#    y 0.000000 3.741680 0.000000 
#    z 0.000000 0.000000 4.013530 
# 
# 
# High freq. dielectric constant tensor:
#      x y z
#    x 1.764250 0.000000 0.000000 
#    y 0.000000 1.790570 0.000000 
#    z 0.000000 0.000000 1.819310 
# 
# From -- ./inp_files/1510.got.cif
#   From: 2010.03.12/outbox.cif.g09.slc.cpg/sg33_1_cif.got.tgz:1510.got - 2010.04.14 01:49:19.
