data_PCOD8171653
_publ_section_title
;
Structure prediction by ZEFSAII (Michael W. Deem and Ramdas Pophale) SiO2 
 PCOD8171653
Probable space group: P N A 21
;
_chemical_formula_sum "Si O2"
_cell_formula_units_Z 24
_cell_length_a 15.115224
_cell_length_b 8.733858
_cell_length_c 8.416600
_cell_angle_alpha 90.000000
_cell_angle_beta 90.000000
_cell_angle_gamma 90.000000
_cell_volume 1111.110885
_symmetry_space_group_name_H-M "P N A 21"
_symmetry_group_IT_number 33
_symmetry_cell_setting 'orthorhombic'
loop_
_space_group_symop_operation_xyz
x,y,z
-x,-y,1/2+z
1/2-x,1/2+y,1/2+z
1/2+x,1/2-y,z
loop_
_atom_site_type_symbol
_atom_site_label
_atom_site_fract_x
_atom_site_fract_y
_atom_site_fract_z
Si Si1 0.161438 0.824008 0.250000
Si Si2 0.495945 0.831074 0.121164
Si Si3 0.163271 0.149907 0.753387
Si Si4 0.991908 0.662929 0.752489
Si Si5 0.843256 0.178591 0.116838
Si Si6 0.832976 0.849219 0.621771
O O1 0.077730 0.784230 0.141272
O O2 0.243816 0.720079 0.197185
O O3 0.136050 0.793786 0.432384
O O4 0.186928 0.000424 0.224577
O O5 0.412461 0.774475 0.222198
O O6 0.525559 0.995759 0.183380
O O7 0.469725 0.838918 0.937842
O O8 0.142422 0.999035 0.653455
O O9 0.165873 0.105753 0.937589
O O10 0.091894 0.715957 0.720370
O O11 0.927319 0.781152 0.666905
O O12 0.743165 0.225768 0.159674
#
# Coordination Sequence:
#
# PCOD8171653 Si02
#       6
#     4   4   4   4   4   4
#     4  11  24  42  65  93 126 164 207 255 308 366
#     4  12  25  42  65  92 126 164 206 256 309 368
#     4  11  24  42  65  93 126 164 207 255 308 366
#     4  12  25  42  65  92 126 164 206 256 309 368
#     4  11  24  42  65  93 126 164 207 255 308 366
#     4  11  24  42  65  93 126 164 207 255 308 366
#
# _framework density 21.600004999999999
#
# number of rings (size 3 to 8) (size 9 to 14) (size 15 to 20)
#    0.000    0.667    0.000    8.000    0.000   10.667 
#    0.000    0.000    0.000    0.000    0.000    0.000 
#    0.000    0.000    0.000    0.000    0.000    0.000 
#
# Total GULP energy -297868.279038 kJ/mol
# GULP energy per Si atom -12411.178293 kJ/mol
# Density = 2.155084 g / cm^3
# Si number density = 21.600005 Si / 1000 Ang^3
#
#
#
# Elastic Constant Matrix: (Units=GPa)
#
#
# Indices 1 2 3 4 5 6 
#
# 1 103.3321 13.4616 30.5307 0.0000 0.0000 0.0000
# 2 13.4616 103.4003 21.8237 0.0000 0.0000 0.0000
# 3 30.5307 21.8237 56.9232 0.0000 0.0000 0.0000
# 4 0.0000 0.0000 0.0000 36.6438 0.0000 0.0000
# 5 0.0000 0.0000 0.0000 0.0000 13.8769 0.0000
# 6 0.0000 0.0000 0.0000 0.0000 0.0000 41.5830
#
#
#
# Elastic Compliance Matrix: (Units=1/GPa)
#
#
# Indices 1 2 3 4 5 6 
#
# 1 0.011504 -0.000213 -0.006089 0.000000 0.000000 0.000000
# 2 -0.000213 0.010527 -0.003922 0.000000 0.000000 0.000000
# 3 -0.006089 -0.003922 0.022337 0.000000 0.000000 0.000000
# 4 0.000000 0.000000 0.000000 0.027290 0.000000 0.000000
# 5 0.000000 0.000000 0.000000 0.000000 0.072062 0.000000
# 6 0.000000 0.000000 0.000000 0.000000 0.000000 0.024048
#
#
# Mechanical properties :
#
#
# Convention : Reuss Voigt Hill
#
# Bulk Modulus (GPa) = 41.80369 43.92085 42.86227
# Shear Modulus (GPa) = 25.48580 31.61005 28.54792
#
# Velocity S-wave (km/s) = 3.43869 3.82963 3.63941
# Velocity P-wave (km/s) = 5.92973 6.31922 6.12757
#
# Compressibility (1/GPa) = 0.02392134
#
# Stress axis : x y z
#
# Youngs Moduli (GPa) = 86.92460 94.99781 44.76925
#
# Poissons Ratio (x) = 0.02020 0.27259
# Poissons Ratio (y) = 0.01848 0.17557
# Poissons Ratio (z) = 0.52926 0.37255
#
# Static dielectric constant tensor:
#      x y z
#    x 3.915520 0.000000 0.000000 
#    y 0.000000 3.856950 0.000000 
#    z 0.000000 0.000000 3.873910 
# 
# 
# High freq. dielectric constant tensor:
#      x y z
#    x 1.860260 0.000000 0.000000 
#    y 0.000000 1.859650 0.000000 
#    z 0.000000 0.000000 1.856160 
# 
# From -- ./inp_files/4239.got.cif
#   From: 2010.03.12/outbox.cif.g09.slc.cpg/sg33_3_cif.got.tgz:4239.got - 2010.04.14 01:49:19.
