data_PCOD8171769
_publ_section_title
;
Structure prediction by ZEFSAII (Michael W. Deem and Ramdas Pophale) SiO2 
 PCOD8171769
Probable space group: P N A 21
;
_chemical_formula_sum "Si O2"
_cell_formula_units_Z 24
_cell_length_a 25.035274
_cell_length_b 4.833819
_cell_length_c 8.402131
_cell_angle_alpha 90.000000
_cell_angle_beta 90.000000
_cell_angle_gamma 90.000000
_cell_volume 1016.792143
_symmetry_space_group_name_H-M "P N A 21"
_symmetry_group_IT_number 33
_symmetry_cell_setting 'orthorhombic'
loop_
_space_group_symop_operation_xyz
x,y,z
-x,-y,1/2+z
1/2-x,1/2+y,1/2+z
1/2+x,1/2-y,z
loop_
_atom_site_type_symbol
_atom_site_label
_atom_site_fract_x
_atom_site_fract_y
_atom_site_fract_z
Si Si1 0.061678 0.627985 0.890500
Si Si2 0.278279 0.565256 0.290743
Si Si3 0.102034 0.880267 0.213987
Si Si4 0.280122 0.561357 0.662752
Si Si5 0.602505 0.385167 0.713301
Si Si6 0.939025 0.633612 0.890580
O O1 0.091710 0.343983 0.848999
O O2 0.000258 0.561772 0.928885
O O3 0.065680 0.846050 0.745205
O O4 0.090850 0.760192 0.040974
O O5 0.277347 0.500437 0.476585
O O6 0.263537 0.881747 0.256519
O O7 0.336788 0.510884 0.220071
O O8 0.234369 0.378381 0.200467
O O9 0.161978 0.989207 0.230893
O O10 0.091747 0.646237 0.346116
O O11 0.063809 0.143676 0.247107
O O12 0.589592 0.263936 0.542189
#
# Coordination Sequence:
#
# PCOD8171769 Si02
#       6
#     4   4   4   4   4   4
#     4  12  24  48  73 105 148 193 238 290 363 424
#     4  12  28  49  76 106 141 189 241 301 363 425
#     4  12  27  47  73 106 149 187 240 299 358 426
#     4  12  28  49  74 106 141 189 242 300 362 425
#     4  12  27  47  73 107 149 186 241 299 357 426
#     4  12  26  44  75 110 144 192 238 293 353 438
#
# _framework density 23.603642000000001
#
# number of rings (size 3 to 8) (size 9 to 14) (size 15 to 20)
#    0.000    0.000    1.667    8.000    9.333    0.000 
#    0.000    0.000    0.000    0.000    0.000    0.000 
#    0.000    0.000    0.000    0.000    0.000    0.000 
#
# Total GULP energy -297853.347080 kJ/mol
# GULP energy per Si atom -12410.556128 kJ/mol
# Density = 2.354992 g / cm^3
# Si number density = 23.603642 Si / 1000 Ang^3
#
#
#
# Elastic Constant Matrix: (Units=GPa)
#
#
# Indices 1 2 3 4 5 6 
#
# 1 128.1948 37.6010 43.1479 0.0000 0.0000 0.0000
# 2 37.6010 96.8579 4.3066 0.0000 0.0000 0.0000
# 3 43.1479 4.3066 57.9452 0.0000 0.0000 0.0000
# 4 0.0000 0.0000 0.0000 45.4214 0.0000 0.0000
# 5 0.0000 0.0000 0.0000 0.0000 34.7789 0.0000
# 6 0.0000 0.0000 0.0000 0.0000 0.0000 48.4445
#
#
#
# Elastic Compliance Matrix: (Units=1/GPa)
#
#
# Indices 1 2 3 4 5 6 
#
# 1 0.011932 -0.004251 -0.008569 0.000000 0.000000 0.000000
# 2 -0.004251 0.011873 0.002283 0.000000 0.000000 0.000000
# 3 -0.008569 0.002283 0.023469 0.000000 0.000000 0.000000
# 4 0.000000 0.000000 0.000000 0.022016 0.000000 0.000000
# 5 0.000000 0.000000 0.000000 0.000000 0.028753 0.000000
# 6 0.000000 0.000000 0.000000 0.000000 0.000000 0.020642
#
#
# Mechanical properties :
#
#
# Convention : Reuss Voigt Hill
#
# Bulk Modulus (GPa) = 38.16809 50.34543 44.25676
# Shear Modulus (GPa) = 33.67203 38.92511 36.29857
#
# Velocity S-wave (km/s) = 3.78108 4.06533 3.92578
# Velocity P-wave (km/s) = 5.93866 6.58876 6.27214
#
# Compressibility (1/GPa) = 0.02619989
#
# Stress axis : x y z
#
# Youngs Moduli (GPa) = 83.81153 84.22378 42.61020
#
# Poissons Ratio (x) = 0.35803 0.36511
# Poissons Ratio (y) = 0.35628 -0.09728
# Poissons Ratio (z) = 0.71815 -0.19228
#
# Static dielectric constant tensor:
#      x y z
#    x 4.248710 0.000000 0.000000 
#    y 0.000000 4.521470 0.000000 
#    z 0.000000 0.000000 4.200760 
# 
# 
# High freq. dielectric constant tensor:
#      x y z
#    x 1.940810 0.000000 0.000000 
#    y 0.000000 1.953910 0.000000 
#    z 0.000000 0.000000 1.942770 
# 
# From -- ./inp_files/5099.got.cif
#   From: 2010.03.12/outbox.cif.g09.slc.cpg/sg33_3_cif.got.tgz:5099.got - 2010.04.14 01:49:19.
