data_PCOD8171119
_publ_section_title
;
Structure prediction by ZEFSAII (Michael W. Deem and Ramdas Pophale) SiO2 
 PCOD8171119
Probable space group: P N A 21
;
_chemical_formula_sum "Si O2"
_cell_formula_units_Z 28
_cell_length_a 10.089543
_cell_length_b 14.588807
_cell_length_c 8.971687
_cell_angle_alpha 90.000000
_cell_angle_beta 90.000000
_cell_angle_gamma 90.000000
_cell_volume 1320.582045
_symmetry_space_group_name_H-M "P N A 21"
_symmetry_group_IT_number 33
_symmetry_cell_setting 'orthorhombic'
loop_
_space_group_symop_operation_xyz
x,y,z
-x,-y,1/2+z
1/2-x,1/2+y,1/2+z
1/2+x,1/2-y,z
loop_
_atom_site_type_symbol
_atom_site_label
_atom_site_fract_x
_atom_site_fract_y
_atom_site_fract_z
Si Si1 0.923917 0.048664 0.822710
Si Si2 0.093534 0.912414 0.655485
Si Si3 0.150799 0.393495 0.340583
Si Si4 0.330671 0.676641 0.339402
Si Si5 0.463868 0.772384 0.598405
Si Si6 0.682035 0.144103 0.673121
Si Si7 0.557818 0.913865 0.359341
O O1 0.784797 0.075207 0.749934
O O2 0.032800 0.127645 0.792282
O O3 0.901695 0.034223 0.998475
O O4 0.971551 0.952798 0.751604
O O5 0.229680 0.930846 0.739880
O O6 0.076646 0.803509 0.628316
O O7 0.083587 0.307755 0.258305
O O8 0.204316 0.358212 0.497468
O O9 0.046782 0.476047 0.372407
O O10 0.347161 0.724349 0.501942
O O11 0.289546 0.752292 0.219658
O O12 0.213048 0.604361 0.336679
O O13 0.515145 0.861367 0.509170
O O14 0.532488 0.117849 0.721133
#
# Coordination Sequence:
#
# PCOD8171119 Si02
#       7
#     4   4   4   4   4   4   4
#     4  11  23  42  69  97 129 177 220 275 332 393
#     4  11  23  43  68  96 134 173 228 271 333 404
#     4  12  24  42  63  99 132 169 220 276 325 397
#     4  10  21  44  68  89 131 176 217 264 338 395
#     4  10  23  41  67  96 130 174 218 274 336 392
#     4  11  24  38  65  97 130 167 223 268 325 392
#     4  11  22  44  66  92 128 178 216 266 331 397
#
# _framework density 21.202773000000001
#
# number of rings (size 3 to 8) (size 9 to 14) (size 15 to 20)
#    0.000    1.143    1.429    6.857    2.000    3.429 
#    2.571    0.000    0.000    0.000    0.000    0.000 
#    0.000    0.000    0.000    0.000    0.000    0.000 
#
# Total GULP energy -347261.136302 kJ/mol
# GULP energy per Si atom -12402.183439 kJ/mol
# Density = 2.115451 g / cm^3
# Si number density = 21.202773 Si / 1000 Ang^3
#
#
#
# Elastic Constant Matrix: (Units=GPa)
#
#
# Indices 1 2 3 4 5 6 
#
# 1 80.2584 10.8828 26.0027 0.0000 0.0000 0.0000
# 2 10.8828 80.4048 32.6533 0.0000 0.0000 0.0000
# 3 26.0027 32.6533 147.1129 0.0000 0.0000 0.0000
# 4 0.0000 0.0000 0.0000 37.4282 0.0000 0.0000
# 5 0.0000 0.0000 0.0000 0.0000 27.1407 0.0000
# 6 0.0000 0.0000 0.0000 0.0000 0.0000 24.2979
#
#
#
# Elastic Compliance Matrix: (Units=1/GPa)
#
#
# Indices 1 2 3 4 5 6 
#
# 1 0.013279 -0.000928 -0.002141 0.000000 0.000000 0.000000
# 2 -0.000928 0.013734 -0.002884 0.000000 0.000000 0.000000
# 3 -0.002141 -0.002884 0.007816 0.000000 0.000000 0.000000
# 4 0.000000 0.000000 0.000000 0.026718 0.000000 0.000000
# 5 0.000000 0.000000 0.000000 0.000000 0.036845 0.000000
# 6 0.000000 0.000000 0.000000 0.000000 0.000000 0.041156
#
#
# Mechanical properties :
#
#
# Convention : Reuss Voigt Hill
#
# Bulk Modulus (GPa) = 43.62496 49.65041 46.63769
# Shear Modulus (GPa) = 31.42758 33.65586 32.54172
#
# Velocity S-wave (km/s) = 3.85416 3.98846 3.92188
# Velocity P-wave (km/s) = 6.35813 6.68417 6.52319
#
# Compressibility (1/GPa) = 0.02292266
#
# Stress axis : x y z
#
# Youngs Moduli (GPa) = 75.30524 72.81180 127.93943
#
# Poissons Ratio (x) = 0.06755 0.27395
# Poissons Ratio (y) = 0.06987 0.36903
# Poissons Ratio (z) = 0.16125 0.21002
#
# Static dielectric constant tensor:
#      x y z
#    x 3.724750 0.000000 0.000000 
#    y 0.000000 3.904720 0.000000 
#    z 0.000000 0.000000 3.874740 
# 
# 
# High freq. dielectric constant tensor:
#      x y z
#    x 1.828610 0.000000 0.000000 
#    y 0.000000 1.836590 0.000000 
#    z 0.000000 0.000000 1.829560 
# 
# From -- ./inp_files/3205.got.cif
#   From: 2010.03.12/outbox.cif.g09.slc.cpg/sg33_2_cif.got.tgz:3205.got - 2010.04.14 01:49:19.
