data_PCOD8171513
_publ_section_title
;
Structure prediction by ZEFSAII (Michael W. Deem and Ramdas Pophale) SiO2 
 PCOD8171513
Probable space group: P N A 21
;
_chemical_formula_sum "Si O2"
_cell_formula_units_Z 32
_cell_length_a 19.123869
_cell_length_b 11.933138
_cell_length_c 6.425532
_cell_angle_alpha 90.000000
_cell_angle_beta 90.000000
_cell_angle_gamma 90.000000
_cell_volume 1466.356315
_symmetry_space_group_name_H-M "P N A 21"
_symmetry_group_IT_number 33
_symmetry_cell_setting 'orthorhombic'
loop_
_space_group_symop_operation_xyz
x,y,z
-x,-y,1/2+z
1/2-x,1/2+y,1/2+z
1/2+x,1/2-y,z
loop_
_atom_site_type_symbol
_atom_site_label
_atom_site_fract_x
_atom_site_fract_y
_atom_site_fract_z
Si Si1 0.093719 0.433508 0.948470
Si Si2 0.578023 0.602929 0.733356
Si Si3 0.013513 0.632863 0.117579
Si Si4 0.683346 0.989026 0.593011
Si Si5 0.108139 0.318126 0.349511
Si Si6 0.334069 0.427507 0.620822
Si Si7 0.626577 0.763523 0.385284
Si Si8 0.925106 0.922401 0.894187
O O1 0.150686 0.509724 0.826190
O O2 0.046425 0.365938 0.789977
O O3 0.047266 0.511305 0.097216
O O4 0.125667 0.342102 0.106829
O O5 0.586162 0.707326 0.577227
O O6 0.581552 0.484081 0.614935
O O7 0.504693 0.613301 0.851295
O O8 0.643362 0.611004 0.891041
O O9 0.072150 0.718785 0.195110
O O10 0.974919 0.664372 0.902163
O O11 0.658077 0.101934 0.481856
O O12 0.766493 0.993320 0.609965
O O13 0.661514 0.878870 0.462954
O O14 0.124035 0.188334 0.400783
O O15 0.318241 0.322364 0.777781
O O16 0.398757 0.498390 0.709669
#
# Coordination Sequence:
#
# PCOD8171513 Si02
#       8
#     4   4   4   4   4   4   4   4
#     4  11  21  38  64 100 141 171 219 272 342 402
#     4  11  24  44  71  99 131 180 231 292 346 408
#     4  11  20  37  65 102 132 173 220 279 334 394
#     4  11  27  44  65 103 138 186 226 276 346 424
#     4  11  24  38  67 101 141 176 222 284 343 399
#     4  11  27  47  67  96 138 182 232 282 344 415
#     4  11  25  44  70 101 136 183 233 279 352 415
#     4  11  24  42  69 100 131 177 233 288 343 407
#
# _framework density 21.822799
#
# number of rings (size 3 to 8) (size 9 to 14) (size 15 to 20)
#    0.000    1.000    3.750    2.250    5.250    7.000 
#    0.000    0.000    0.000    0.000    0.000    0.000 
#    0.000    0.000    0.000    0.000    0.000    0.000 
#
# Total GULP energy -396757.429827 kJ/mol
# GULP energy per Si atom -12398.669682 kJ/mol
# Density = 2.177313 g / cm^3
# Si number density = 21.822799 Si / 1000 Ang^3
#
#
#
# Elastic Constant Matrix: (Units=GPa)
#
#
# Indices 1 2 3 4 5 6 
#
# 1 83.6217 13.2914 26.1746 0.0000 0.0000 0.0000
# 2 13.2914 121.1186 34.7105 0.0000 0.0000 0.0000
# 3 26.1746 34.7105 105.2585 0.0000 0.0000 0.0000
# 4 0.0000 0.0000 0.0000 33.6476 0.0000 0.0000
# 5 0.0000 0.0000 0.0000 0.0000 22.7143 0.0000
# 6 0.0000 0.0000 0.0000 0.0000 0.0000 22.3150
#
#
#
# Elastic Compliance Matrix: (Units=1/GPa)
#
#
# Indices 1 2 3 4 5 6 
#
# 1 0.013001 -0.000552 -0.003051 0.000000 0.000000 0.000000
# 2 -0.000552 0.009142 -0.002877 0.000000 0.000000 0.000000
# 3 -0.003051 -0.002877 0.011208 0.000000 0.000000 0.000000
# 4 0.000000 0.000000 0.000000 0.029720 0.000000 0.000000
# 5 0.000000 0.000000 0.000000 0.000000 0.044025 0.000000
# 6 0.000000 0.000000 0.000000 0.000000 0.000000 0.044813
#
#
# Mechanical properties :
#
#
# Convention : Reuss Voigt Hill
#
# Bulk Modulus (GPa) = 49.04406 50.92798 49.98602
# Shear Modulus (GPa) = 29.12626 31.45685 30.29155
#
# Velocity S-wave (km/s) = 3.65728 3.80078 3.72972
# Velocity P-wave (km/s) = 6.35270 6.53062 6.44227
#
# Compressibility (1/GPa) = 0.02038983
#
# Stress axis : x y z
#
# Youngs Moduli (GPa) = 76.91487 109.39067 89.22301
#
# Poissons Ratio (x) = 0.06043 0.27221
# Poissons Ratio (y) = 0.04249 0.25671
# Poissons Ratio (z) = 0.23466 0.31474
#
# Static dielectric constant tensor:
#      x y z
#    x 3.683810 0.000000 0.000000 
#    y 0.000000 3.958240 0.000000 
#    z 0.000000 0.000000 4.156880 
# 
# 
# High freq. dielectric constant tensor:
#      x y z
#    x 1.829000 0.000000 0.000000 
#    y 0.000000 1.865380 0.000000 
#    z 0.000000 0.000000 1.870730 
# 
# From -- ./inp_files/2090.got.cif
#   From: 2010.03.12/outbox.cif.g09.slc.cpg/sg33_2_cif.got.tgz:2090.got - 2010.04.14 01:49:19.
