data_PCOD8171172
_publ_section_title
;
Structure prediction by ZEFSAII (Michael W. Deem and Ramdas Pophale) SiO2 
 PCOD8171172
Probable space group: P N A 21
;
_chemical_formula_sum "Si O2"
_cell_formula_units_Z 28
_cell_length_a 8.915595
_cell_length_b 27.920065
_cell_length_c 5.129240
_cell_angle_alpha 90.000000
_cell_angle_beta 90.000000
_cell_angle_gamma 90.000000
_cell_volume 1276.790896
_symmetry_space_group_name_H-M "P N A 21"
_symmetry_group_IT_number 33
_symmetry_cell_setting 'orthorhombic'
loop_
_space_group_symop_operation_xyz
x,y,z
-x,-y,1/2+z
1/2-x,1/2+y,1/2+z
1/2+x,1/2-y,z
loop_
_atom_site_type_symbol
_atom_site_label
_atom_site_fract_x
_atom_site_fract_y
_atom_site_fract_z
Si Si1 0.090694 0.487205 0.885840
Si Si2 0.080462 0.884903 0.946068
Si Si3 0.927658 0.705956 0.309156
Si Si4 0.312176 0.235124 0.109541
Si Si5 0.769172 0.610441 0.427033
Si Si6 0.575292 0.478304 0.323446
Si Si7 0.541297 0.285514 0.413688
O O1 0.113658 0.432197 0.974259
O O2 0.248356 0.514116 0.855635
O O3 0.004398 0.487379 0.611573
O O4 0.195601 0.876230 0.704843
O O5 0.953178 0.921478 0.852532
O O6 0.005680 0.835157 0.049960
O O7 0.154513 0.908128 0.204447
O O8 0.810977 0.744816 0.414063
O O9 0.848503 0.655133 0.280553
O O10 0.076276 0.696289 0.481665
O O11 0.982466 0.733489 0.050438
O O12 0.417195 0.280245 0.185706
O O13 0.215504 0.209221 0.334233
O O14 0.480942 0.507630 0.536596
#
# Coordination Sequence:
#
# PCOD8171172 Si02
#       7
#     4   4   4   4   4   4   4
#     4  12  26  47  72 107 147 180 235 310 373 428
#     4  12  24  44  74 102 133 188 248 290 353 444
#     4  11  23  42  65  95 139 184 233 290 356 419
#     4  10  22  40  62  91 134 176 227 288 348 409
#     4  12  25  45  73 100 139 192 238 290 372 437
#     4  12  23  47  75 102 139 186 238 299 352 439
#     4  11  23  41  65  97 135 182 235 291 348 424
#
# _framework density 21.929983
#
# number of rings (size 3 to 8) (size 9 to 14) (size 15 to 20)
#    0.000    0.571    4.286    4.286    4.000    1.143 
#    5.143    0.000    0.000    0.000    0.000    0.000 
#    0.000    0.000    0.000    0.000    0.000    0.000 
#
# Total GULP energy -347010.891952 kJ/mol
# GULP energy per Si atom -12393.246141 kJ/mol
# Density = 2.188007 g / cm^3
# Si number density = 21.929983 Si / 1000 Ang^3
#
#
#
# Elastic Constant Matrix: (Units=GPa)
#
#
# Indices 1 2 3 4 5 6 
#
# 1 133.0848 25.0649 27.0928 0.0000 0.0000 0.0000
# 2 25.0649 99.4510 7.5410 0.0000 0.0000 0.0000
# 3 27.0928 7.5410 86.8940 0.0000 0.0000 0.0000
# 4 0.0000 0.0000 0.0000 29.7248 0.0000 0.0000
# 5 0.0000 0.0000 0.0000 0.0000 32.8136 0.0000
# 6 0.0000 0.0000 0.0000 0.0000 0.0000 32.7420
#
#
#
# Elastic Compliance Matrix: (Units=1/GPa)
#
#
# Indices 1 2 3 4 5 6 
#
# 1 0.008374 -0.001925 -0.002444 0.000000 0.000000 0.000000
# 2 -0.001925 0.010564 -0.000317 0.000000 0.000000 0.000000
# 3 -0.002444 -0.000317 0.012298 0.000000 0.000000 0.000000
# 4 0.000000 0.000000 0.000000 0.033642 0.000000 0.000000
# 5 0.000000 0.000000 0.000000 0.000000 0.030475 0.000000
# 6 0.000000 0.000000 0.000000 0.000000 0.000000 0.030542
#
#
# Mechanical properties :
#
#
# Convention : Reuss Voigt Hill
#
# Bulk Modulus (GPa) = 45.73538 48.75857 47.24698
# Shear Modulus (GPa) = 35.07422 36.37150 35.72286
#
# Velocity S-wave (km/s) = 4.00355 4.07692 4.04040
# Velocity P-wave (km/s) = 6.50167 6.66661 6.58466
#
# Compressibility (1/GPa) = 0.02186491
#
# Stress axis : x y z
#
# Youngs Moduli (GPa) = 119.41560 94.65729 81.31581
#
# Poissons Ratio (x) = 0.18224 0.19873
# Poissons Ratio (y) = 0.22990 0.02574
# Poissons Ratio (z) = 0.29184 0.02996
#
# Static dielectric constant tensor:
#      x y z
#    x 4.177460 0.000000 0.000000 
#    y 0.000000 3.821150 0.000000 
#    z 0.000000 0.000000 3.979590 
# 
# 
# High freq. dielectric constant tensor:
#      x y z
#    x 1.872310 0.000000 0.000000 
#    y 0.000000 1.852910 0.000000 
#    z 0.000000 0.000000 1.866850 
# 
# From -- ./inp_files/524.got.cif
#   From: 2010.03.12/outbox.cif.g09.slc.cpg/sg33_1_cif.got.tgz:524.got - 2010.04.14 01:49:19.
