data_PCOD8171583
_publ_section_title
;
Structure prediction by ZEFSAII (Michael W. Deem and Ramdas Pophale) SiO2 
 PCOD8171583
Probable space group: P N A 21
;
_chemical_formula_sum "Si O2"
_cell_formula_units_Z 16
_cell_length_a 16.829751
_cell_length_b 4.790225
_cell_length_c 8.428742
_cell_angle_alpha 90.000000
_cell_angle_beta 90.000000
_cell_angle_gamma 90.000000
_cell_volume 679.510800
_symmetry_space_group_name_H-M "P N A 21"
_symmetry_group_IT_number 33
_symmetry_cell_setting 'orthorhombic'
loop_
_space_group_symop_operation_xyz
x,y,z
-x,-y,1/2+z
1/2-x,1/2+y,1/2+z
1/2+x,1/2-y,z
loop_
_atom_site_type_symbol
_atom_site_label
_atom_site_fract_x
_atom_site_fract_y
_atom_site_fract_z
Si Si1 0.192363 0.986551 0.204860
Si Si2 0.564792 0.730532 0.562203
Si Si3 0.538737 0.267205 0.353981
Si Si4 0.759011 0.032830 0.039547
O O1 0.248094 0.059167 0.356743
O O2 0.208081 0.667479 0.154673
O O3 0.102821 0.056026 0.252879
O O4 0.218131 0.167343 0.054938
O O5 0.507151 0.494654 0.482531
O O6 0.530364 0.826100 0.732446
O O7 0.648691 0.573169 0.587477
O O8 0.573669 0.996980 0.445157
#
# Coordination Sequence:
#
# PCOD8171583 Si02
#       4
#     4   4   4   4
#     4  11  23  41  63  92 129 169 214 266 318 383
#     4  11  24  43  65  96 131 169 217 272 326 389
#     4  11  24  43  65  96 131 169 217 272 326 389
#     4  11  23  41  63  92 129 169 214 266 318 383
#
# _framework density 23.54635
#
# number of rings (size 3 to 8) (size 9 to 14) (size 15 to 20)
#    0.000    1.000    0.000    9.000    0.000    6.000 
#    0.000    0.000    0.000    0.000    0.000    0.000 
#    0.000    0.000    0.000    0.000    0.000    0.000 
#
# Total GULP energy -198276.425702 kJ/mol
# GULP energy per Si atom -12392.276606 kJ/mol
# Density = 2.349276 g / cm^3
# Si number density = 23.546350 Si / 1000 Ang^3
#
#
#
# Elastic Constant Matrix: (Units=GPa)
#
#
# Indices 1 2 3 4 5 6 
#
# 1 34.2727 22.3177 4.5346 0.0000 0.0000 0.0000
# 2 22.3177 118.4843 28.5723 0.0000 0.0000 0.0000
# 3 4.5346 28.5723 36.5270 0.0000 0.0000 0.0000
# 4 0.0000 0.0000 0.0000 44.5268 0.0000 0.0000
# 5 0.0000 0.0000 0.0000 0.0000 36.0805 0.0000
# 6 0.0000 0.0000 0.0000 0.0000 0.0000 31.4574
#
#
#
# Elastic Compliance Matrix: (Units=1/GPa)
#
#
# Indices 1 2 3 4 5 6 
#
# 1 0.033284 -0.006499 0.000952 0.000000 0.000000 0.000000
# 2 -0.006499 0.011671 -0.008323 0.000000 0.000000 0.000000
# 3 0.000952 -0.008323 0.033769 0.000000 0.000000 0.000000
# 4 0.000000 0.000000 0.000000 0.022458 0.000000 0.000000
# 5 0.000000 0.000000 0.000000 0.000000 0.027716 0.000000
# 6 0.000000 0.000000 0.000000 0.000000 0.000000 0.031789
#
#
# Mechanical properties :
#
#
# Convention : Reuss Voigt Hill
#
# Bulk Modulus (GPa) = 19.61396 33.34815 26.48105
# Shear Modulus (GPa) = 24.34022 31.33689 27.83855
#
# Velocity S-wave (km/s) = 3.21863 3.65205 3.44217
# Velocity P-wave (km/s) = 4.70753 5.65481 5.20277
#
# Compressibility (1/GPa) = 0.05098410
#
# Stress axis : x y z
#
# Youngs Moduli (GPa) = 30.04471 85.68223 29.61297
#
# Poissons Ratio (x) = 0.55683 -0.02818
# Poissons Ratio (y) = 0.19525 0.24646
# Poissons Ratio (z) = -0.02859 0.71310
#
# Static dielectric constant tensor:
#      x y z
#    x 3.852070 0.000000 0.000000 
#    y 0.000000 4.255440 0.000000 
#    z 0.000000 0.000000 4.807230 
# 
# 
# High freq. dielectric constant tensor:
#      x y z
#    x 1.904490 0.000000 0.000000 
#    y 0.000000 1.947960 0.000000 
#    z 0.000000 0.000000 1.942360 
# 
# From -- ./inp_files/4549.got.cif
#   From: 2010.03.12/outbox.cif.g09.slc.cpg/sg33_3_cif.got.tgz:4549.got - 2010.04.14 01:49:19.
