data_PCOD8171608
_publ_section_title
;
Structure prediction by ZEFSAII (Michael W. Deem and Ramdas Pophale) SiO2 
 PCOD8171608
Probable space group: P N A 21
;
_chemical_formula_sum "Si O2"
_cell_formula_units_Z 24
_cell_length_a 9.287845
_cell_length_b 7.401939
_cell_length_c 16.765026
_cell_angle_alpha 90.000000
_cell_angle_beta 90.000000
_cell_angle_gamma 90.000000
_cell_volume 1152.563049
_symmetry_space_group_name_H-M "P N A 21"
_symmetry_group_IT_number 33
_symmetry_cell_setting 'orthorhombic'
loop_
_space_group_symop_operation_xyz
x,y,z
-x,-y,1/2+z
1/2-x,1/2+y,1/2+z
1/2+x,1/2-y,z
loop_
_atom_site_type_symbol
_atom_site_label
_atom_site_fract_x
_atom_site_fract_y
_atom_site_fract_z
Si Si1 0.214065 0.555853 0.302310
Si Si2 0.412905 0.268374 0.523540
Si Si3 0.970939 0.133276 0.867567
Si Si4 0.661070 0.259359 0.414065
Si Si5 0.193206 0.447363 0.122396
Si Si6 0.496764 0.346370 0.048525
O O1 0.116732 0.734713 0.309086
O O2 0.373941 0.601415 0.330019
O O3 0.135617 0.404365 0.354445
O O4 0.221891 0.470742 0.215052
O O5 0.576199 0.226137 0.497156
O O6 0.326955 0.237838 0.440829
O O7 0.404107 0.474649 0.554243
O O8 0.359858 0.142027 0.593672
O O9 0.883642 0.946134 0.872489
O O10 0.987956 0.218545 0.956258
O O11 0.336073 0.384363 0.077867
O O12 0.067506 0.304256 0.104371
#
# Coordination Sequence:
#
# PCOD8171608 Si02
#       6
#     4   4   4   4   4   4
#     4  12  28  43  67 104 139 176 221 287 347 387
#     4  11  23  44  71  99 133 178 229 272 330 409
#     4  11  25  47  72  98 133 181 234 269 334 409
#     4  11  23  44  71  99 133 178 229 272 330 409
#     4  12  28  43  67 104 139 176 221 287 347 387
#     4  11  25  47  72  98 133 181 234 269 334 409
#
# _framework density 20.823153999999999
#
# number of rings (size 3 to 8) (size 9 to 14) (size 15 to 20)
#    0.000    0.667    6.667    2.000    9.333    0.000 
#    0.000    0.000    0.000    0.000    0.000    0.000 
#    0.000    0.000    0.000    0.000    0.000    0.000 
#
# Total GULP energy -297663.526298 kJ/mol
# GULP energy per Si atom -12402.646929 kJ/mol
# Density = 2.077576 g / cm^3
# Si number density = 20.823154 Si / 1000 Ang^3
#
#
#
# Elastic Constant Matrix: (Units=GPa)
#
#
# Indices 1 2 3 4 5 6 
#
# 1 67.5070 35.8158 14.1970 0.0000 0.0000 0.0000
# 2 35.8158 88.7005 20.5956 0.0000 0.0000 0.0000
# 3 14.1970 20.5956 72.3599 0.0000 0.0000 0.0000
# 4 0.0000 0.0000 0.0000 19.9406 0.0000 0.0000
# 5 0.0000 0.0000 0.0000 0.0000 22.0530 0.0000
# 6 0.0000 0.0000 0.0000 0.0000 0.0000 34.7069
#
#
#
# Elastic Compliance Matrix: (Units=1/GPa)
#
#
# Indices 1 2 3 4 5 6 
#
# 1 0.019036 -0.007302 -0.001657 0.000000 0.000000 0.000000
# 2 -0.007302 0.014872 -0.002801 0.000000 0.000000 0.000000
# 3 -0.001657 -0.002801 0.014942 0.000000 0.000000 0.000000
# 4 0.000000 0.000000 0.000000 0.050149 0.000000 0.000000
# 5 0.000000 0.000000 0.000000 0.000000 0.045345 0.000000
# 6 0.000000 0.000000 0.000000 0.000000 0.000000 0.028813
#
#
# Mechanical properties :
#
#
# Convention : Reuss Voigt Hill
#
# Bulk Modulus (GPa) = 39.47488 41.08712 40.28100
# Shear Modulus (GPa) = 24.37619 25.87071 25.12345
#
# Velocity S-wave (km/s) = 3.42516 3.52860 3.47726
# Velocity P-wave (km/s) = 5.88563 6.03122 5.95887
#
# Compressibility (1/GPa) = 0.02533257
#
# Stress axis : x y z
#
# Youngs Moduli (GPa) = 52.53342 67.23860 66.92579
#
# Poissons Ratio (x) = 0.49095 0.11086
# Poissons Ratio (y) = 0.38358 0.18743
# Poissons Ratio (z) = 0.08702 0.18830
#
# Static dielectric constant tensor:
#      x y z
#    x 3.839890 0.000000 0.000000 
#    y 0.000000 3.952890 0.000000 
#    z 0.000000 0.000000 3.703020 
# 
# 
# High freq. dielectric constant tensor:
#      x y z
#    x 1.829660 0.000000 0.000000 
#    y 0.000000 1.827090 0.000000 
#    z 0.000000 0.000000 1.803130 
# 
# From -- ./inp_files/7556.got.cif
#   From: 2010.03.12/outbox.cif.g09.slc.cpg/sg33_4_cif.got.tgz:7556.got - 2010.04.14 01:49:19.
