data_PCOD8171786
_publ_section_title
;
Structure prediction by ZEFSAII (Michael W. Deem and Ramdas Pophale) SiO2 
 PCOD8171786
Probable space group: P N A 21
;
_chemical_formula_sum "Si O2"
_cell_formula_units_Z 24
_cell_length_a 8.963806
_cell_length_b 17.745639
_cell_length_c 6.479906
_cell_angle_alpha 90.000000
_cell_angle_beta 90.000000
_cell_angle_gamma 90.000000
_cell_volume 1030.748703
_symmetry_space_group_name_H-M "P N A 21"
_symmetry_group_IT_number 33
_symmetry_cell_setting 'orthorhombic'
loop_
_space_group_symop_operation_xyz
x,y,z
-x,-y,1/2+z
1/2-x,1/2+y,1/2+z
1/2+x,1/2-y,z
loop_
_atom_site_type_symbol
_atom_site_label
_atom_site_fract_x
_atom_site_fract_y
_atom_site_fract_z
Si Si1 0.728219 0.746970 0.626590
Si Si2 0.012967 0.228460 0.842519
Si Si3 0.116462 0.927106 0.219260
Si Si4 0.694661 0.476340 0.586704
Si Si5 0.178732 0.397988 0.348160
Si Si6 0.878427 0.336756 0.494948
O O1 0.814429 0.769568 0.412388
O O2 0.558903 0.759278 0.554557
O O3 0.764555 0.661240 0.679658
O O4 0.736040 0.796441 0.834392
O O5 0.961360 0.142617 0.830901
O O6 0.967707 0.278010 0.642179
O O7 0.214077 0.981117 0.368030
O O8 0.230264 0.889872 0.059002
O O9 0.983832 0.976374 0.119556
O O10 0.787196 0.519422 0.761838
O O11 0.761887 0.392338 0.604181
O O12 0.002601 0.387876 0.383905
#
# Coordination Sequence:
#
# PCOD8171786 Si02
#       6
#     4   4   4   4   4   4
#     4  12  26  46  76 108 148 191 251 306 375 447
#     4  12  26  47  76 109 144 198 250 308 375 449
#     4  12  26  48  76 106 146 195 253 305 376 450
#     4  12  29  47  74 108 149 198 246 308 376 451
#     4  12  27  49  72 108 152 193 243 313 375 446
#     4  12  30  47  76 113 151 195 255 314 375 453
#
# _framework density 23.284044999999999
#
# number of rings (size 3 to 8) (size 9 to 14) (size 15 to 20)
#    0.000    0.000    6.667    2.000    9.333    1.333 
#    0.000    0.000    0.000    0.000    0.000    0.000 
#    0.000    0.000    0.000    0.000    0.000    0.000 
#
# Total GULP energy -297507.358574 kJ/mol
# GULP energy per Si atom -12396.139941 kJ/mol
# Density = 2.323105 g / cm^3
# Si number density = 23.284045 Si / 1000 Ang^3
#
#
#
# Elastic Constant Matrix: (Units=GPa)
#
#
# Indices 1 2 3 4 5 6 
#
# 1 78.3266 11.0639 21.0545 0.0000 0.0000 0.0000
# 2 11.0639 97.7702 27.7638 0.0000 0.0000 0.0000
# 3 21.0545 27.7638 90.6433 0.0000 0.0000 0.0000
# 4 0.0000 0.0000 0.0000 49.5972 0.0000 0.0000
# 5 0.0000 0.0000 0.0000 0.0000 51.3772 0.0000
# 6 0.0000 0.0000 0.0000 0.0000 0.0000 37.0804
#
#
#
# Elastic Compliance Matrix: (Units=1/GPa)
#
#
# Indices 1 2 3 4 5 6 
#
# 1 0.013662 -0.000706 -0.002957 0.000000 0.000000 0.000000
# 2 -0.000706 0.011239 -0.003278 0.000000 0.000000 0.000000
# 3 -0.002957 -0.003278 0.012723 0.000000 0.000000 0.000000
# 4 0.000000 0.000000 0.000000 0.020162 0.000000 0.000000
# 5 0.000000 0.000000 0.000000 0.000000 0.019464 0.000000
# 6 0.000000 0.000000 0.000000 0.000000 0.000000 0.026968
#
#
# Mechanical properties :
#
#
# Convention : Reuss Voigt Hill
#
# Bulk Modulus (GPa) = 42.12204 42.94494 42.53349
# Shear Modulus (GPa) = 39.67767 41.40149 40.53958
#
# Velocity S-wave (km/s) = 4.13252 4.22133 4.17716
# Velocity P-wave (km/s) = 6.39532 6.49950 6.44762
#
# Compressibility (1/GPa) = 0.02374054
#
# Stress axis : x y z
#
# Youngs Moduli (GPa) = 73.19746 88.97624 78.59622
#
# Poissons Ratio (x) = 0.06284 0.23241
# Poissons Ratio (y) = 0.05170 0.25767
# Poissons Ratio (z) = 0.21644 0.29170
#
# Static dielectric constant tensor:
#      x y z
#    x 4.217120 0.000000 0.000000 
#    y 0.000000 4.036980 0.000000 
#    z 0.000000 0.000000 4.129840 
# 
# 
# High freq. dielectric constant tensor:
#      x y z
#    x 1.928160 0.000000 0.000000 
#    y 0.000000 1.924130 0.000000 
#    z 0.000000 0.000000 1.928490 
# 
# From -- ./inp_files/392.got.cif
#   From: 2010.03.12/outbox.cif.g09.slc.cpg/sg33_1_cif.got.tgz:392.got - 2010.04.14 01:49:19.
