data_PCOD8171283
_publ_section_title
;
Structure prediction by ZEFSAII (Michael W. Deem and Ramdas Pophale) SiO2 
 PCOD8171283
Probable space group: P N A 21
;
_chemical_formula_sum "Si O2"
_cell_formula_units_Z 32
_cell_length_a 12.249871
_cell_length_b 15.057255
_cell_length_c 8.270921
_cell_angle_alpha 90.000000
_cell_angle_beta 90.000000
_cell_angle_gamma 90.000000
_cell_volume 1525.566675
_symmetry_space_group_name_H-M "P N A 21"
_symmetry_group_IT_number 33
_symmetry_cell_setting 'orthorhombic'
loop_
_space_group_symop_operation_xyz
x,y,z
-x,-y,1/2+z
1/2-x,1/2+y,1/2+z
1/2+x,1/2-y,z
loop_
_atom_site_type_symbol
_atom_site_label
_atom_site_fract_x
_atom_site_fract_y
_atom_site_fract_z
Si Si1 0.717264 0.339598 0.329900
Si Si2 0.097470 0.585403 0.625093
Si Si3 0.606735 0.012318 0.300626
Si Si4 0.213758 0.845746 0.729004
Si Si5 0.012819 0.911300 0.918418
Si Si6 0.552449 0.397297 0.783114
Si Si7 0.897964 0.233179 0.940313
Si Si8 0.711563 0.846730 0.189821
O O1 0.789324 0.406962 0.222722
O O2 0.714351 0.241767 0.255676
O O3 0.595973 0.376924 0.330831
O O4 0.769404 0.325424 0.504991
O O5 0.108013 0.507046 0.492962
O O6 0.069533 0.679945 0.543607
O O7 0.004071 0.561688 0.753289
O O8 0.710355 0.069392 0.246377
O O9 0.614964 0.919096 0.205706
O O10 0.113380 0.852899 0.854196
O O11 0.166409 0.839851 0.547189
O O12 0.026117 0.014455 0.881178
O O13 0.004819 0.899387 0.109384
O O14 0.508821 0.311989 0.879461
O O15 0.681911 0.388253 0.773398
O O16 0.822821 0.258311 0.786443
#
# Coordination Sequence:
#
# PCOD8171283 Si02
#       8
#     4   4   4   4   4   4   4   4
#     4  10  24  42  66  95 130 167 215 267 323 391
#     4  10  24  44  66  95 130 173 214 270 326 383
#     4  11  23  43  65  94 127 174 215 267 319 394
#     4  11  24  40  66  95 128 172 213 264 326 388
#     4  11  24  41  67  98 129 172 214 273 328 389
#     4  11  23  41  66  96 131 166 217 269 328 390
#     4  10  24  40  66  93 130 172 211 270 322 389
#     4  10  22  45  62  94 131 166 215 268 324 388
#
# _framework density 20.975812000000001
#
# number of rings (size 3 to 8) (size 9 to 14) (size 15 to 20)
#    0.000    1.500    1.250    2.250    8.750    3.000 
#    9.000    0.000    0.000    0.000    0.000    0.000 
#    0.000    0.000    0.000    0.000    0.000    0.000 
#
# Total GULP energy -396912.605211 kJ/mol
# GULP energy per Si atom -12403.518913 kJ/mol
# Density = 2.092807 g / cm^3
# Si number density = 20.975812 Si / 1000 Ang^3
#
#
#
# Elastic Constant Matrix: (Units=GPa)
#
#
# Indices 1 2 3 4 5 6 
#
# 1 59.3784 35.3021 14.0046 0.0000 0.0000 0.0000
# 2 35.3021 80.9782 28.5840 0.0000 0.0000 0.0000
# 3 14.0046 28.5840 70.4274 0.0000 0.0000 0.0000
# 4 0.0000 0.0000 0.0000 30.2394 0.0000 0.0000
# 5 0.0000 0.0000 0.0000 0.0000 26.6029 0.0000
# 6 0.0000 0.0000 0.0000 0.0000 0.0000 30.2354
#
#
#
# Elastic Compliance Matrix: (Units=1/GPa)
#
#
# Indices 1 2 3 4 5 6 
#
# 1 0.022754 -0.009714 -0.000582 0.000000 0.000000 0.000000
# 2 -0.009714 0.018561 -0.005602 0.000000 0.000000 0.000000
# 3 -0.000582 -0.005602 0.016588 0.000000 0.000000 0.000000
# 4 0.000000 0.000000 0.000000 0.033069 0.000000 0.000000
# 5 0.000000 0.000000 0.000000 0.000000 0.037590 0.000000
# 6 0.000000 0.000000 0.000000 0.000000 0.000000 0.033074
#
#
# Mechanical properties :
#
#
# Convention : Reuss Voigt Hill
#
# Bulk Modulus (GPa) = 38.30285 40.72947 39.51616
# Shear Modulus (GPa) = 24.73611 26.27510 25.50561
#
# Velocity S-wave (km/s) = 3.43777 3.54310 3.49084
# Velocity P-wave (km/s) = 5.83591 6.01644 5.92686
#
# Compressibility (1/GPa) = 0.02610772
#
# Stress axis : x y z
#
# Youngs Moduli (GPa) = 43.94916 53.87644 60.28352
#
# Poissons Ratio (x) = 0.52335 0.03509
# Poissons Ratio (y) = 0.42692 0.33769
# Poissons Ratio (z) = 0.02558 0.30180
#
# Static dielectric constant tensor:
#      x y z
#    x 3.762810 0.000000 0.000000 
#    y 0.000000 3.761920 0.000000 
#    z 0.000000 0.000000 3.921670 
# 
# 
# High freq. dielectric constant tensor:
#      x y z
#    x 1.822530 0.000000 0.000000 
#    y 0.000000 1.824420 0.000000 
#    z 0.000000 0.000000 1.832740 
# 
# From -- ./inp_files/3968.got.cif
#   From: 2010.03.12/outbox.cif.g09.slc.cpg/sg33_2_cif.got.tgz:3968.got - 2010.04.14 01:49:19.
