data_PCOD8171366
_publ_section_title
;
Structure prediction by ZEFSAII (Michael W. Deem and Ramdas Pophale) SiO2 
 PCOD8171366
Probable space group: P N A 21
;
_chemical_formula_sum "Si O2"
_cell_formula_units_Z 20
_cell_length_a 22.266631
_cell_length_b 7.580004
_cell_length_c 5.268056
_cell_angle_alpha 90.000000
_cell_angle_beta 90.000000
_cell_angle_gamma 90.000000
_cell_volume 889.148561
_symmetry_space_group_name_H-M "P N A 21"
_symmetry_group_IT_number 33
_symmetry_cell_setting 'orthorhombic'
loop_
_space_group_symop_operation_xyz
x,y,z
-x,-y,1/2+z
1/2-x,1/2+y,1/2+z
1/2+x,1/2-y,z
loop_
_atom_site_type_symbol
_atom_site_label
_atom_site_fract_x
_atom_site_fract_y
_atom_site_fract_z
Si Si1 0.718020 0.949174 0.863590
Si Si2 0.464373 0.956052 0.707288
Si Si3 0.746887 0.311329 0.858940
Si Si4 0.130299 0.745281 0.162081
Si Si5 0.036527 0.045994 0.166477
O O1 0.759481 0.918130 0.618308
O O2 0.697933 0.154149 0.852792
O O3 0.761427 0.934053 0.112606
O O4 0.659621 0.823644 0.893093
O O5 0.444970 0.751167 0.684802
O O6 0.489343 0.026445 0.439067
O O7 0.409122 0.084169 0.774228
O O8 0.814585 0.226111 0.856424
O O9 0.095157 0.926733 0.114580
O O10 0.008209 0.979868 0.430488
#
# Coordination Sequence:
#
# PCOD8171366 Si02
#       5
#     4   4   4   4   4
#     4  10  23  43  68  93 133 169 223 274 329 393
#     4  12  24  43  67  95 136 177 221 275 332 401
#     4  10  23  43  68  93 133 169 223 274 329 393
#     4  10  26  40  72  96 140 168 234 264 350 386
#     4  12  24  43  67  95 136 177 221 275 332 401
#
# _framework density 22.493428000000002
#
# number of rings (size 3 to 8) (size 9 to 14) (size 15 to 20)
#    1.200    0.000    4.000    1.200    5.600    1.600 
#    0.000    0.000    0.000    0.000    0.000    0.000 
#    0.000    0.000    0.000    0.000    0.000    0.000 
#
# Total GULP energy -247764.426695 kJ/mol
# GULP energy per Si atom -12388.221335 kJ/mol
# Density = 2.244223 g / cm^3
# Si number density = 22.493428 Si / 1000 Ang^3
#
#
#
# Elastic Constant Matrix: (Units=GPa)
#
#
# Indices 1 2 3 4 5 6 
#
# 1 26.2440 13.1186 4.8426 0.0000 0.0000 0.0000
# 2 13.1186 131.7914 12.0144 0.0000 0.0000 0.0000
# 3 4.8426 12.0144 137.1622 0.0000 0.0000 0.0000
# 4 0.0000 0.0000 0.0000 33.4204 0.0000 0.0000
# 5 0.0000 0.0000 0.0000 0.0000 -38.3519 0.0000
# 6 0.0000 0.0000 0.0000 0.0000 0.0000 40.8860
#
#
#
# Elastic Compliance Matrix: (Units=1/GPa)
#
#
# Indices 1 2 3 4 5 6 
#
# 1 0.040257 -0.003909 -0.001079 0.000000 0.000000 0.000000
# 2 -0.003909 0.008028 -0.000565 0.000000 0.000000 0.000000
# 3 -0.001079 -0.000565 0.007378 0.000000 0.000000 0.000000
# 4 0.000000 0.000000 0.000000 0.029922 0.000000 0.000000
# 5 0.000000 0.000000 0.000000 0.000000 -0.026074 0.000000
# 6 0.000000 0.000000 0.000000 0.000000 0.000000 0.024458
#
#
# Mechanical properties :
#
#
# Convention : Reuss Voigt Hill
#
# Bulk Modulus (GPa) = 22.44289 39.46097 30.95193
# Shear Modulus (GPa) = 45.48443 24.87237 35.17840
#
# Velocity S-wave (km/s) = 4.50168 3.32891 3.95896
# Velocity P-wave (km/s) = 6.08435 5.68831 5.88966
#
# Compressibility (1/GPa) = 0.04455755
#
# Stress axis : x y z
#
# Youngs Moduli (GPa) = 24.84047 124.55834 135.53370
#
# Poissons Ratio (x) = 0.48688 0.14623
# Poissons Ratio (y) = 0.09710 0.07661
# Poissons Ratio (z) = 0.02680 0.07040
#
# Static dielectric constant tensor:
#      x y z
#    x 3.725300 0.000000 0.000000 
#    y 0.000000 4.178640 0.000000 
#    z 0.000000 0.000000 4.017520 
# 
# 
# High freq. dielectric constant tensor:
#      x y z
#    x 1.851310 0.000000 0.000000 
#    y 0.000000 1.903840 0.000000 
#    z 0.000000 0.000000 1.893270 
# 
# From -- ./inp_files/1605.got.cif
#   From: 2010.03.12/outbox.cif.g09.slc.cpg/sg33_1_cif.got.tgz:1605.got - 2010.04.14 01:49:19.
