data_PCOD8171832
_publ_section_title
;
Structure prediction by ZEFSAII (Michael W. Deem and Ramdas Pophale) SiO2 
 PCOD8171832
Probable space group: P N N 2
;
_chemical_formula_sum "Si O2"
_cell_formula_units_Z 26
_cell_length_a 9.286088
_cell_length_b 9.154036
_cell_length_c 16.175497
_cell_angle_alpha 90.000000
_cell_angle_beta 90.000000
_cell_angle_gamma 90.000000
_cell_volume 1375.001096
_symmetry_space_group_name_H-M "P N N 2"
_symmetry_group_IT_number 34
_symmetry_cell_setting 'orthorhombic'
loop_
_space_group_symop_operation_xyz
x,y,z
-x,-y,z
1/2-x,1/2+y,1/2+z
1/2+x,1/2-y,1/2+z
loop_
_atom_site_type_symbol
_atom_site_label
_atom_site_fract_x
_atom_site_fract_y
_atom_site_fract_z
Si Si1 0.186900 0.744546 0.442870
Si Si2 0.991638 0.332931 0.606440
Si Si3 0.345068 0.955109 0.853131
Si Si4 0.495684 0.832453 0.421005
Si Si5 0.500000 0.500000 0.936564
Si Si6 0.580744 0.649213 0.263363
Si Si7 0.206804 0.227076 0.494957
O O1 0.107560 0.699540 0.527079
O O2 0.222874 0.604154 0.387765
O O3 0.343854 0.806909 0.465768
O O4 0.087519 0.865875 0.391857
O O5 0.925794 0.246941 0.682575
O O6 0.000000 0.500000 0.631901
O O7 0.157764 0.288285 0.584552
O O8 0.247849 0.887461 0.780882
O O9 0.359739 0.836572 0.926089
O O10 0.500000 0.000000 0.816700
O O11 0.511029 0.733748 0.340016
O O12 0.621790 0.790674 0.486294
O O13 0.500000 0.000000 0.392735
O O14 0.370832 0.569821 0.989649
O O15 0.500000 0.500000 0.246187
#
# Coordination Sequence:
#
# PCOD8171832 Si02
#       7
#     4   4   4   4   2   4   4
#     4  11  20  37  64  90 121 159 217 255 307 369
#     4  11  22  42  61  88 123 169 205 259 313 381
#     4  11  19  40  63  89 117 167 212 256 304 379
#     4  11  22  37  59  94 124 159 205 268 306 371
#     4  10  18  30  56  96 112 148 198 260 290 358
#     4  11  25  37  60  92 128 163 206 259 326 374
#     4  10  20  34  62  90 114 159 214 249 301 371
#
# _framework density 18.909075999999999
#
# number of rings (size 3 to 8) (size 9 to 14) (size 15 to 20)
#    0.000    1.231    7.692    0.462    4.308    0.000 
#    0.000    2.308    0.000    0.000    0.000    0.000 
#    0.000    0.000    0.000    0.000    0.000    0.000 
#
# Total GULP energy -322104.552660 kJ/mol
# GULP energy per Si atom -12388.636641 kJ/mol
# Density = 1.886604 g / cm^3
# Si number density = 18.909076 Si / 1000 Ang^3
#
#
#
# Elastic Constant Matrix: (Units=GPa)
#
#
# Indices 1 2 3 4 5 6 
#
# 1 146.1036 50.5074 45.6902 0.0000 0.0000 0.0000
# 2 50.5074 135.1279 38.3236 0.0000 0.0000 0.0000
# 3 45.6902 38.3236 77.2213 0.0000 0.0000 0.0000
# 4 0.0000 0.0000 0.0000 13.4679 0.0000 0.0000
# 5 0.0000 0.0000 0.0000 0.0000 11.4024 0.0000
# 6 0.0000 0.0000 0.0000 0.0000 0.0000 33.0426
#
#
#
# Elastic Compliance Matrix: (Units=1/GPa)
#
#
# Indices 1 2 3 4 5 6 
#
# 1 0.008897 -0.002133 -0.004206 0.000000 0.000000 0.000000
# 2 -0.002133 0.009124 -0.003266 0.000000 0.000000 0.000000
# 3 -0.004206 -0.003266 0.017059 0.000000 0.000000 0.000000
# 4 0.000000 0.000000 0.000000 0.074251 0.000000 0.000000
# 5 0.000000 0.000000 0.000000 0.000000 0.087701 0.000000
# 6 0.000000 0.000000 0.000000 0.000000 0.000000 0.030264
#
#
# Mechanical properties :
#
#
# Convention : Reuss Voigt Hill
#
# Bulk Modulus (GPa) = 63.00853 69.72170 66.36512
# Shear Modulus (GPa) = 19.85740 26.51134 23.18437
#
# Velocity S-wave (km/s) = 3.24412 3.74845 3.50537
# Velocity P-wave (km/s) = 6.88670 7.46235 7.18029
#
# Compressibility (1/GPa) = 0.01587087
#
# Stress axis : x y z
#
# Youngs Moduli (GPa) = 112.39803 109.60296 58.61948
#
# Poissons Ratio (x) = 0.23375 0.24654
# Poissons Ratio (y) = 0.23971 0.19146
# Poissons Ratio (z) = 0.47272 0.35798
#
# Static dielectric constant tensor:
#      x y z
#    x 3.770820 0.000000 0.000000 
#    y 0.000000 3.915400 0.000000 
#    z 0.000000 0.000000 2.998750 
# 
# 
# High freq. dielectric constant tensor:
#      x y z
#    x 1.747820 0.000000 0.000000 
#    y 0.000000 1.769890 0.000000 
#    z 0.000000 0.000000 1.673940 
# 
# From -- ./inp_files/7519.got.cif
#   From: 2010.03.12/outbox.cif.g09.slc.cpg/sg34_4_cif.got.tgz:7519.got - 2010.04.14 01:56:33.
