data_PCOD8171463
_publ_section_title
;
Structure prediction by ZEFSAII (Michael W. Deem and Ramdas Pophale) SiO2 
 PCOD8171463
Probable space group: P N A 21
;
_chemical_formula_sum "Si O2"
_cell_formula_units_Z 24
_cell_length_a 18.659341
_cell_length_b 5.315070
_cell_length_c 9.136298
_cell_angle_alpha 90.000000
_cell_angle_beta 90.000000
_cell_angle_gamma 90.000000
_cell_volume 906.098782
_symmetry_space_group_name_H-M "P N A 21"
_symmetry_group_IT_number 33
_symmetry_cell_setting 'orthorhombic'
loop_
_space_group_symop_operation_xyz
x,y,z
-x,-y,1/2+z
1/2-x,1/2+y,1/2+z
1/2+x,1/2-y,z
loop_
_atom_site_type_symbol
_atom_site_label
_atom_site_fract_x
_atom_site_fract_y
_atom_site_fract_z
Si Si1 0.051192 0.042739 0.691220
Si Si2 0.895974 0.007581 0.665471
Si Si3 0.188342 0.379622 0.018641
Si Si4 0.100568 0.313473 0.439146
Si Si5 0.792863 0.364054 0.808167
Si Si6 0.050716 0.541466 0.877912
O O1 0.108486 0.093034 0.561069
O O2 0.059943 0.267444 0.806777
O O3 0.061782 0.770754 0.763629
O O4 0.974713 0.072293 0.604600
O O5 0.840901 0.904433 0.544389
O O6 0.910363 0.776938 0.774846
O O7 0.865397 0.231069 0.760160
O O8 0.236882 0.339469 0.872965
O O9 0.120301 0.566646 0.986934
O O10 0.233005 0.483821 0.160982
O O11 0.176974 0.461437 0.441177
O O12 0.025156 0.465313 0.466341
#
# Coordination Sequence:
#
# PCOD8171463 Si02
#       6
#     4   4   4   4   4   4
#     4  11  25  44  79 118 155 195 263 327 394 461
#     4  10  24  45  74 109 154 201 252 327 387 461
#     4  11  28  48  79 108 158 208 262 319 393 471
#     4  10  24  45  74 111 154 201 256 324 392 458
#     4  11  25  51  76 107 156 207 260 319 390 473
#     4  11  26  45  78 119 151 202 261 324 392 466
#
# _framework density 26.487178
#
# number of rings (size 3 to 8) (size 9 to 14) (size 15 to 20)
#    0.000    1.333    1.667    1.000   14.000    5.333 
#    0.000    0.000    0.000    0.000    0.000    0.000 
#    0.000    0.000    0.000    0.000    0.000    0.000 
#
# Total GULP energy -297340.976375 kJ/mol
# GULP energy per Si atom -12389.207349 kJ/mol
# Density = 2.642689 g / cm^3
# Si number density = 26.487178 Si / 1000 Ang^3
#
#
#
# Elastic Constant Matrix: (Units=GPa)
#
#
# Indices 1 2 3 4 5 6 
#
# 1 85.1920 14.9783 39.2867 0.0000 0.0000 0.0000
# 2 14.9783 85.6201 21.1200 0.0000 0.0000 0.0000
# 3 39.2867 21.1200 88.6442 0.0000 0.0000 0.0000
# 4 0.0000 0.0000 0.0000 36.0027 0.0000 0.0000
# 5 0.0000 0.0000 0.0000 0.0000 37.8187 0.0000
# 6 0.0000 0.0000 0.0000 0.0000 0.0000 39.7642
#
#
#
# Elastic Compliance Matrix: (Units=1/GPa)
#
#
# Indices 1 2 3 4 5 6 
#
# 1 0.014839 -0.001034 -0.006330 0.000000 0.000000 0.000000
# 2 -0.001034 0.012481 -0.002515 0.000000 0.000000 0.000000
# 3 -0.006330 -0.002515 0.014686 0.000000 0.000000 0.000000
# 4 0.000000 0.000000 0.000000 0.027776 0.000000 0.000000
# 5 0.000000 0.000000 0.000000 0.000000 0.026442 0.000000
# 6 0.000000 0.000000 0.000000 0.000000 0.000000 0.025148
#
#
# Mechanical properties :
#
#
# Convention : Reuss Voigt Hill
#
# Bulk Modulus (GPa) = 44.95139 45.58070 45.26605
# Shear Modulus (GPa) = 33.65936 34.98854 34.32395
#
# Velocity S-wave (km/s) = 3.56867 3.63845 3.60373
# Velocity P-wave (km/s) = 5.82995 5.90737 5.86879
#
# Compressibility (1/GPa) = 0.02224625
#
# Stress axis : x y z
#
# Youngs Moduli (GPa) = 67.38868 80.12246 68.09283
#
# Poissons Ratio (x) = 0.08289 0.43104
# Poissons Ratio (y) = 0.06971 0.17126
# Poissons Ratio (z) = 0.42659 0.20152
#
# Static dielectric constant tensor:
#      x y z
#    x 4.797350 0.000000 0.000000 
#    y 0.000000 4.783410 0.000000 
#    z 0.000000 0.000000 4.803170 
# 
# 
# High freq. dielectric constant tensor:
#      x y z
#    x 2.048450 0.000000 0.000000 
#    y 0.000000 2.068470 0.000000 
#    z 0.000000 0.000000 2.063010 
# 
# From -- ./inp_files/4632.got.cif
#   From: 2010.03.12/outbox.cif.g09.slc.cpg/sg33_3_cif.got.tgz:4632.got - 2010.04.14 01:49:19.
