data_PCOD8171220
_publ_section_title
;
Structure prediction by ZEFSAII (Michael W. Deem and Ramdas Pophale) SiO2 
 PCOD8171220
Probable space group: P N A 21
;
_chemical_formula_sum "Si O2"
_cell_formula_units_Z 28
_cell_length_a 13.677022
_cell_length_b 14.257793
_cell_length_c 6.790050
_cell_angle_alpha 90.000000
_cell_angle_beta 90.000000
_cell_angle_gamma 90.000000
_cell_volume 1324.087919
_symmetry_space_group_name_H-M "P N A 21"
_symmetry_group_IT_number 33
_symmetry_cell_setting 'orthorhombic'
loop_
_space_group_symop_operation_xyz
x,y,z
-x,-y,1/2+z
1/2-x,1/2+y,1/2+z
1/2+x,1/2-y,z
loop_
_atom_site_type_symbol
_atom_site_label
_atom_site_fract_x
_atom_site_fract_y
_atom_site_fract_z
Si Si1 0.646988 0.509144 0.910040
Si Si2 0.201578 0.333651 0.488529
Si Si3 0.414444 0.093328 0.435457
Si Si4 0.040811 0.286937 0.172093
Si Si5 0.952085 0.604902 0.283210
Si Si6 0.945500 0.919271 0.768954
Si Si7 0.710009 0.376636 0.579981
O O1 0.704017 0.608197 0.918225
O O2 0.543048 0.521842 0.804416
O O3 0.707541 0.428990 0.791458
O O4 0.629661 0.475906 0.132393
O O5 0.136528 0.315069 0.295660
O O6 0.143936 0.396257 0.646808
O O7 0.228765 0.235359 0.595432
O O8 0.443723 0.166662 0.265552
O O9 0.454094 0.127607 0.647713
O O10 0.298185 0.082118 0.448513
O O11 0.465074 0.994606 0.387874
O O12 0.024008 0.176521 0.162852
O O13 0.055332 0.315402 0.946774
O O14 0.892478 0.897597 0.974512
#
# Coordination Sequence:
#
# PCOD8171220 Si02
#       7
#     4   4   4   4   4   4   4
#     4  12  23  43  68  95 128 180 219 267 335 384
#     4  10  24  41  65  94 132 169 216 273 325 388
#     4  11  22  37  65  93 127 165 209 265 323 387
#     4  10  22  42  63  95 133 167 214 266 329 384
#     4  11  21  39  62  95 126 166 206 266 325 385
#     4  11  24  43  66  91 131 174 219 271 319 393
#     4  11  24  43  63  97 129 169 223 270 322 397
#
# _framework density 21.146630999999999
#
# number of rings (size 3 to 8) (size 9 to 14) (size 15 to 20)
#    0.000    1.143    2.857    3.429    2.000    1.143 
#    2.571    0.000    0.000    0.000    0.000    0.000 
#    0.000    0.000    0.000    0.000    0.000    0.000 
#
# Total GULP energy -347332.658024 kJ/mol
# GULP energy per Si atom -12404.737787 kJ/mol
# Density = 2.109850 g / cm^3
# Si number density = 21.146631 Si / 1000 Ang^3
#
#
#
# Elastic Constant Matrix: (Units=GPa)
#
#
# Indices 1 2 3 4 5 6 
#
# 1 83.9069 17.6256 16.7177 0.0000 0.0000 0.0000
# 2 17.6256 104.1273 25.9889 0.0000 0.0000 0.0000
# 3 16.7177 25.9889 88.8484 0.0000 0.0000 0.0000
# 4 0.0000 0.0000 0.0000 34.1065 0.0000 0.0000
# 5 0.0000 0.0000 0.0000 0.0000 27.8452 0.0000
# 6 0.0000 0.0000 0.0000 0.0000 0.0000 32.4036
#
#
#
# Elastic Compliance Matrix: (Units=1/GPa)
#
#
# Indices 1 2 3 4 5 6 
#
# 1 0.012645 -0.001668 -0.001891 0.000000 0.000000 0.000000
# 2 -0.001668 0.010580 -0.002781 0.000000 0.000000 0.000000
# 3 -0.001891 -0.002781 0.012424 0.000000 0.000000 0.000000
# 4 0.000000 0.000000 0.000000 0.029320 0.000000 0.000000
# 5 0.000000 0.000000 0.000000 0.000000 0.035913 0.000000
# 6 0.000000 0.000000 0.000000 0.000000 0.000000 0.030861
#
#
# Mechanical properties :
#
#
# Convention : Reuss Voigt Hill
#
# Bulk Modulus (GPa) = 43.53757 44.17188 43.85472
# Shear Modulus (GPa) = 32.87730 33.30776 33.09253
#
# Velocity S-wave (km/s) = 3.94728 3.97304 3.96018
# Velocity P-wave (km/s) = 6.43489 6.47923 6.45710
#
# Compressibility (1/GPa) = 0.02296867
#
# Stress axis : x y z
#
# Youngs Moduli (GPa) = 79.08097 94.51704 80.48670
#
# Poissons Ratio (x) = 0.15769 0.15223
# Poissons Ratio (y) = 0.13194 0.22382
# Poissons Ratio (z) = 0.14957 0.26284
#
# Static dielectric constant tensor:
#      x y z
#    x 3.698570 0.000000 0.000000 
#    y 0.000000 3.830020 0.000000 
#    z 0.000000 0.000000 3.748050 
# 
# 
# High freq. dielectric constant tensor:
#      x y z
#    x 1.824170 0.000000 0.000000 
#    y 0.000000 1.834290 0.000000 
#    z 0.000000 0.000000 1.830020 
# 
# From -- ./inp_files/1386.got.cif
#   From: 2010.03.12/outbox.cif.g09.slc.cpg/sg33_1_cif.got.tgz:1386.got - 2010.04.14 01:49:19.
