data_PCOD8171734
_publ_section_title
;
Structure prediction by ZEFSAII (Michael W. Deem and Ramdas Pophale) SiO2 
 PCOD8171734
Probable space group: P N A 21
;
_chemical_formula_sum "Si O2"
_cell_formula_units_Z 28
_cell_length_a 25.401241
_cell_length_b 8.476499
_cell_length_c 5.023939
_cell_angle_alpha 90.000000
_cell_angle_beta 90.000000
_cell_angle_gamma 90.000000
_cell_volume 1081.722362
_symmetry_space_group_name_H-M "P N A 21"
_symmetry_group_IT_number 33
_symmetry_cell_setting 'orthorhombic'
loop_
_space_group_symop_operation_xyz
x,y,z
-x,-y,1/2+z
1/2-x,1/2+y,1/2+z
1/2+x,1/2-y,z
loop_
_atom_site_type_symbol
_atom_site_label
_atom_site_fract_x
_atom_site_fract_y
_atom_site_fract_z
Si Si1 0.239868 0.651931 0.311800
Si Si2 0.979981 0.921703 0.863138
Si Si3 0.982074 0.411673 0.540085
Si Si4 0.690267 0.619491 0.658107
Si Si5 0.362687 0.134868 0.467910
Si Si6 0.134433 0.112301 0.274518
Si Si7 0.338721 0.807398 0.246143
O O1 0.273914 0.492945 0.340116
O O2 0.226114 0.726800 0.597769
O O3 0.276929 0.783899 0.164751
O O4 0.183853 0.618455 0.179361
O O5 0.923709 0.953309 0.723181
O O6 0.020385 0.985886 0.642642
O O7 0.990568 0.739060 0.913179
O O8 0.920195 0.380433 0.598332
O O9 0.990358 0.550104 0.322179
O O10 0.641273 0.692277 0.825740
O O11 0.671416 0.530247 0.387764
O O12 0.354639 0.988525 0.267847
O O13 0.126228 0.241721 0.506838
O O14 0.155171 0.197042 0.009255
#
# Coordination Sequence:
#
# PCOD8171734 Si02
#       7
#     4   4   4   4   4   4   4
#     4  11  27  44  70 109 152 193 244 306 372 457
#     4  12  25  45  77 110 152 193 258 318 379 437
#     4  12  28  51  78 112 150 200 259 321 376 447
#     4  11  28  44  77 103 156 194 256 301 383 454
#     4  12  28  46  78 109 152 201 255 310 383 446
#     4  11  26  49  73 109 151 202 250 309 383 442
#     4  11  26  47  73 104 151 199 244 307 374 457
#
# _framework density 25.884644999999999
#
# number of rings (size 3 to 8) (size 9 to 14) (size 15 to 20)
#    0.000    0.571    1.429    4.286   16.000    0.000 
#    0.000    0.000    0.000    0.000    0.000    0.000 
#    0.000    0.000    0.000    0.000    0.000    0.000 
#
# Total GULP energy -347066.535178 kJ/mol
# GULP energy per Si atom -12395.233399 kJ/mol
# Density = 2.582573 g / cm^3
# Si number density = 25.884645 Si / 1000 Ang^3
#
#
#
# Elastic Constant Matrix: (Units=GPa)
#
#
# Indices 1 2 3 4 5 6 
#
# 1 137.4648 31.5801 12.9775 0.0000 0.0000 0.0000
# 2 31.5801 94.0205 15.5943 0.0000 0.0000 0.0000
# 3 12.9775 15.5943 94.7550 0.0000 0.0000 0.0000
# 4 0.0000 0.0000 0.0000 41.9417 0.0000 0.0000
# 5 0.0000 0.0000 0.0000 0.0000 27.2981 0.0000
# 6 0.0000 0.0000 0.0000 0.0000 0.0000 33.9454
#
#
#
# Elastic Compliance Matrix: (Units=1/GPa)
#
#
# Indices 1 2 3 4 5 6 
#
# 1 0.007923 -0.002551 -0.000665 0.000000 0.000000 0.000000
# 2 -0.002551 0.011756 -0.001585 0.000000 0.000000 0.000000
# 3 -0.000665 -0.001585 0.010906 0.000000 0.000000 0.000000
# 4 0.000000 0.000000 0.000000 0.023843 0.000000 0.000000
# 5 0.000000 0.000000 0.000000 0.000000 0.036633 0.000000
# 6 0.000000 0.000000 0.000000 0.000000 0.000000 0.029459
#
#
# Mechanical properties :
#
#
# Convention : Reuss Voigt Hill
#
# Bulk Modulus (GPa) = 47.66124 49.61601 48.63863
# Shear Modulus (GPa) = 36.46542 38.37627 37.42085
#
# Velocity S-wave (km/s) = 3.75743 3.85462 3.80633
# Velocity P-wave (km/s) = 6.10551 6.24664 6.17648
#
# Compressibility (1/GPa) = 0.02098141
#
# Stress axis : x y z
#
# Youngs Moduli (GPa) = 126.20754 85.06460 91.69636
#
# Poissons Ratio (x) = 0.21700 0.06101
# Poissons Ratio (y) = 0.32196 0.14537
# Poissons Ratio (z) = 0.08397 0.13485
#
# Static dielectric constant tensor:
#      x y z
#    x 4.751510 0.000000 0.000000 
#    y 0.000000 4.917710 0.000000 
#    z 0.000000 0.000000 4.490800 
# 
# 
# High freq. dielectric constant tensor:
#      x y z
#    x 2.043950 0.000000 0.000000 
#    y 0.000000 2.050760 0.000000 
#    z 0.000000 0.000000 2.027300 
# 
# From -- ./inp_files/2259.got.cif
#   From: 2010.03.12/outbox.cif.g09.slc.cpg/sg33_2_cif.got.tgz:2259.got - 2010.04.14 01:49:19.
