data_PCOD8171250
_publ_section_title
;
Structure prediction by ZEFSAII (Michael W. Deem and Ramdas Pophale) SiO2 
 PCOD8171250
Probable space group: P N A 21
;
_chemical_formula_sum "Si O2"
_cell_formula_units_Z 32
_cell_length_a 31.172963
_cell_length_b 5.300971
_cell_length_c 8.344032
_cell_angle_alpha 90.000000
_cell_angle_beta 90.000000
_cell_angle_gamma 90.000000
_cell_volume 1378.826029
_symmetry_space_group_name_H-M "P N A 21"
_symmetry_group_IT_number 33
_symmetry_cell_setting 'orthorhombic'
loop_
_space_group_symop_operation_xyz
x,y,z
-x,-y,1/2+z
1/2-x,1/2+y,1/2+z
1/2+x,1/2-y,z
loop_
_atom_site_type_symbol
_atom_site_label
_atom_site_fract_x
_atom_site_fract_y
_atom_site_fract_z
Si Si1 0.881685 0.456930 0.106270
Si Si2 0.040538 0.500631 0.414104
Si Si3 0.530500 0.733862 0.107530
Si Si4 0.645901 0.473959 0.443907
Si Si5 0.785777 0.364971 0.558524
Si Si6 0.912715 0.844184 0.685329
Si Si7 0.119998 0.545356 0.982223
Si Si8 0.769086 0.873284 0.755686
O O1 0.850181 0.237638 0.039736
O O2 0.878172 0.442959 0.294312
O O3 0.869784 0.741001 0.054170
O O4 0.931215 0.380750 0.058306
O O5 0.016969 0.688781 0.289959
O O6 0.006233 0.302295 0.483423
O O7 0.077363 0.380228 0.305984
O O8 0.540266 0.435095 0.119817
O O9 0.577427 0.821881 0.048747
O O10 0.613756 0.539770 0.295418
O O11 0.691219 0.390991 0.375954
O O12 0.837375 0.337485 0.561006
O O13 0.765741 0.118168 0.642199
O O14 0.772138 0.372247 0.372053
O O15 0.770717 0.618374 0.650532
O O16 0.883222 0.747480 0.538926
#
# Coordination Sequence:
#
# PCOD8171250 Si02
#       8
#     4   4   4   4   4   4   4   4
#     4  11  25  42  70 105 138 185 238 292 349 423
#     4  10  23  39  63  99 134 181 237 288 355 413
#     4  11  22  43  67  92 142 184 237 295 358 419
#     4  11  23  45  72  94 141 185 232 283 362 423
#     4  12  28  47  76 106 148 184 244 293 372 427
#     4  10  22  43  66  93 134 189 229 294 356 419
#     4  11  26  43  69 102 136 186 244 293 357 431
#     4  12  27  48  75 107 145 188 237 300 363 437
#
# _framework density 23.20815
#
# number of rings (size 3 to 8) (size 9 to 14) (size 15 to 20)
#    0.000    1.000    2.500    3.000    7.000    3.000 
#    2.250    0.000    0.000    0.000    0.000    0.000 
#    0.000    0.000    0.000    0.000    0.000    0.000 
#
# Total GULP energy -396463.499451 kJ/mol
# GULP energy per Si atom -12389.484358 kJ/mol
# Density = 2.315533 g / cm^3
# Si number density = 23.208150 Si / 1000 Ang^3
#
#
#
# Elastic Constant Matrix: (Units=GPa)
#
#
# Indices 1 2 3 4 5 6 
#
# 1 58.6504 0.3889 11.9133 0.0000 0.0000 0.0000
# 2 0.3889 107.0335 44.5279 0.0000 0.0000 0.0000
# 3 11.9133 44.5279 115.1763 0.0000 0.0000 0.0000
# 4 0.0000 0.0000 0.0000 29.0358 0.0000 0.0000
# 5 0.0000 0.0000 0.0000 0.0000 40.9569 0.0000
# 6 0.0000 0.0000 0.0000 0.0000 0.0000 26.8508
#
#
#
# Elastic Compliance Matrix: (Units=1/GPa)
#
#
# Indices 1 2 3 4 5 6 
#
# 1 0.017476 0.000820 -0.002125 0.000000 0.000000 0.000000
# 2 0.000820 0.011172 -0.004404 0.000000 0.000000 0.000000
# 3 -0.002125 -0.004404 0.010605 0.000000 0.000000 0.000000
# 4 0.000000 0.000000 0.000000 0.034440 0.000000 0.000000
# 5 0.000000 0.000000 0.000000 0.000000 0.024416 0.000000
# 6 0.000000 0.000000 0.000000 0.000000 0.000000 0.037243
#
#
# Mechanical properties :
#
#
# Convention : Reuss Voigt Hill
#
# Bulk Modulus (GPa) = 35.92435 43.83562 39.87998
# Shear Modulus (GPa) = 32.04145 34.30403 33.17274
#
# Velocity S-wave (km/s) = 3.71969 3.84878 3.78479
# Velocity P-wave (km/s) = 5.82760 6.21931 6.02664
#
# Compressibility (1/GPa) = 0.02783627
#
# Stress axis : x y z
#
# Youngs Moduli (GPa) = 57.22014 89.50908 94.29722
#
# Poissons Ratio (x) = -0.07344 0.20037
# Poissons Ratio (y) = -0.04695 0.41529
# Poissons Ratio (z) = 0.12159 0.39420
#
# Static dielectric constant tensor:
#      x y z
#    x 4.166160 0.000000 0.000000 
#    y 0.000000 4.624550 0.000000 
#    z 0.000000 0.000000 4.479660 
# 
# 
# High freq. dielectric constant tensor:
#      x y z
#    x 1.913110 0.000000 0.000000 
#    y 0.000000 1.917150 0.000000 
#    z 0.000000 0.000000 1.931590 
# 
# From -- ./inp_files/5305.got.cif
#   From: 2010.03.12/outbox.cif.g09.slc.cpg/sg33_3_cif.got.tgz:5305.got - 2010.04.14 01:49:19.
