data_PCOD8171124
_publ_section_title
;
Structure prediction by ZEFSAII (Michael W. Deem and Ramdas Pophale) SiO2 
 PCOD8171124
Probable space group: P N A 21
;
_chemical_formula_sum "Si O2"
_cell_formula_units_Z 24
_cell_length_a 15.748674
_cell_length_b 5.162992
_cell_length_c 12.556473
_cell_angle_alpha 90.000000
_cell_angle_beta 90.000000
_cell_angle_gamma 90.000000
_cell_volume 1020.970309
_symmetry_space_group_name_H-M "P N A 21"
_symmetry_group_IT_number 33
_symmetry_cell_setting 'orthorhombic'
loop_
_space_group_symop_operation_xyz
x,y,z
-x,-y,1/2+z
1/2-x,1/2+y,1/2+z
1/2+x,1/2-y,z
loop_
_atom_site_type_symbol
_atom_site_label
_atom_site_fract_x
_atom_site_fract_y
_atom_site_fract_z
Si Si1 0.783395 0.034513 0.356810
Si Si2 0.812597 0.849529 0.129528
Si Si3 0.045805 0.128193 0.250114
Si Si4 0.682067 0.535825 0.406864
Si Si5 0.981624 0.639417 0.165667
Si Si6 0.634334 0.610256 0.069160
O O1 0.821544 0.004709 0.239829
O O2 0.707800 0.822543 0.367937
O O3 0.752778 0.328426 0.371491
O O4 0.854805 0.997911 0.449452
O O5 0.721294 0.722242 0.115975
O O6 0.886146 0.626679 0.118134
O O7 0.827838 0.052832 0.034089
O O8 0.093821 0.069005 0.359795
O O9 0.998790 0.402675 0.246105
O O10 0.977871 0.898505 0.237955
O O11 0.111595 0.124817 0.149504
O O12 0.057169 0.676346 0.076983
#
# Coordination Sequence:
#
# PCOD8171124 Si02
#       6
#     4   4   4   4   4   4
#     4  11  24  39  69 100 127 181 227 271 330 409
#     4  11  24  45  69 102 129 180 232 264 338 410
#     4  10  21  45  62  93 135 172 211 277 338 375
#     4  11  24  41  70  96 135 178 219 281 335 392
#     4  10  24  41  68 100 131 174 222 272 328 406
#     4   9  23  43  66  93 139 167 215 279 331 376
#
# _framework density 23.507048999999999
#
# number of rings (size 3 to 8) (size 9 to 14) (size 15 to 20)
#    1.000    0.667    1.667    2.000    7.000    5.333 
#    3.000    0.000    0.000    0.000    0.000    0.000 
#    0.000    0.000    0.000    0.000    0.000    0.000 
#
# Total GULP energy -297326.022636 kJ/mol
# GULP energy per Si atom -12388.584276 kJ/mol
# Density = 2.345355 g / cm^3
# Si number density = 23.507049 Si / 1000 Ang^3
#
#
#
# Elastic Constant Matrix: (Units=GPa)
#
#
# Indices 1 2 3 4 5 6 
#
# 1 52.9886 8.4428 5.5002 0.0000 0.0000 0.0000
# 2 8.4428 97.4599 18.0816 0.0000 0.0000 0.0000
# 3 5.5002 18.0816 149.7858 0.0000 0.0000 0.0000
# 4 0.0000 0.0000 0.0000 17.2632 0.0000 0.0000
# 5 0.0000 0.0000 0.0000 0.0000 9.9985 0.0000
# 6 0.0000 0.0000 0.0000 0.0000 0.0000 14.9358
#
#
#
# Elastic Compliance Matrix: (Units=1/GPa)
#
#
# Indices 1 2 3 4 5 6 
#
# 1 0.019175 -0.001566 -0.000515 0.000000 0.000000 0.000000
# 2 -0.001566 0.010624 -0.001225 0.000000 0.000000 0.000000
# 3 -0.000515 -0.001225 0.006843 0.000000 0.000000 0.000000
# 4 0.000000 0.000000 0.000000 0.057927 0.000000 0.000000
# 5 0.000000 0.000000 0.000000 0.000000 0.100015 0.000000
# 6 0.000000 0.000000 0.000000 0.000000 0.000000 0.066953
#
#
# Mechanical properties :
#
#
# Convention : Reuss Voigt Hill
#
# Bulk Modulus (GPa) = 33.29982 40.47594 36.88788
# Shear Modulus (GPa) = 17.97539 26.32013 22.14776
#
# Velocity S-wave (km/s) = 2.76829 3.34978 3.07282
# Velocity P-wave (km/s) = 4.94110 5.67603 5.32127
#
# Compressibility (1/GPa) = 0.03003019
#
# Stress axis : x y z
#
# Youngs Moduli (GPa) = 52.15157 94.13080 146.13503
#
# Poissons Ratio (x) = 0.14736 0.07528
# Poissons Ratio (y) = 0.08164 0.17901
# Poissons Ratio (z) = 0.02686 0.11530
#
# Static dielectric constant tensor:
#      x y z
#    x 4.160460 0.000000 0.000000 
#    y 0.000000 3.892920 0.000000 
#    z 0.000000 0.000000 4.381940 
# 
# 
# High freq. dielectric constant tensor:
#      x y z
#    x 1.931580 0.000000 0.000000 
#    y 0.000000 1.913200 0.000000 
#    z 0.000000 0.000000 1.925510 
# 
# From -- ./inp_files/6894.got.cif
#   From: 2010.03.12/outbox.cif.g09.slc.cpg/sg33_4_cif.got.tgz:6894.got - 2010.04.14 01:49:19.
