data_PCOD8171923
_publ_section_title
;
Structure prediction by ZEFSAII (Michael W. Deem and Ramdas Pophale) SiO2 
 PCOD8171923
Probable space group: P N N 2
;
_chemical_formula_sum "Si O2"
_cell_formula_units_Z 26
_cell_length_a 8.086763
_cell_length_b 11.420060
_cell_length_c 14.833359
_cell_angle_alpha 90.000000
_cell_angle_beta 90.000000
_cell_angle_gamma 90.000000
_cell_volume 1369.880264
_symmetry_space_group_name_H-M "P N N 2"
_symmetry_group_IT_number 34
_symmetry_cell_setting 'orthorhombic'
loop_
_space_group_symop_operation_xyz
x,y,z
-x,-y,z
1/2-x,1/2+y,1/2+z
1/2+x,1/2-y,1/2+z
loop_
_atom_site_type_symbol
_atom_site_label
_atom_site_fract_x
_atom_site_fract_y
_atom_site_fract_z
Si Si1 0.805140 0.299295 0.559500
Si Si2 0.753704 0.071151 0.866030
Si Si3 0.546295 0.622595 0.189799
Si Si4 0.445380 0.375277 0.549013
Si Si5 0.095527 0.680012 0.369077
Si Si6 0.232062 0.304008 0.713664
Si Si7 0.000000 0.500000 0.660377
O O1 0.823881 0.194550 0.630290
O O2 0.613073 0.303562 0.532527
O O3 0.904935 0.266353 0.469279
O O4 0.880663 0.421428 0.597418
O O5 0.880992 0.097420 0.787681
O O6 0.590227 0.145020 0.844537
O O7 0.715307 0.933147 0.869213
O O8 0.838084 0.111539 0.958765
O O9 0.500000 0.500000 0.141854
O O10 0.377227 0.690539 0.201049
O O11 0.500000 0.500000 0.588437
O O12 0.340089 0.310048 0.624042
O O13 0.154219 0.782447 0.301090
O O14 0.116331 0.419519 0.724006
#
# Coordination Sequence:
#
# PCOD8171923 Si02
#       7
#     4   4   4   4   4   4   2
#     4  11  22  38  63  88 125 159 205 248 304 358
#     4  11  21  38  64  94 119 152 214 257 295 359
#     4  11  22  40  61  90 124 161 198 253 306 359
#     4  12  21  37  63  94 119 155 205 260 301 348
#     4  11  21  37  63  94 120 159 202 254 305 363
#     4  11  22  37  62  90 124 158 201 253 306 358
#     4  10  20  38  60  90 118 162 204 254 294 358
#
# _framework density 18.979761
#
# number of rings (size 3 to 8) (size 9 to 14) (size 15 to 20)
#    0.000    0.923    4.615    5.077    0.000    0.000 
#    0.000    0.769   10.154    0.000    0.000    0.000 
#    0.000    0.000    0.000    0.000    0.000    0.000 
#
# Total GULP energy -322418.510979 kJ/mol
# GULP energy per Si atom -12400.711961 kJ/mol
# Density = 1.893656 g / cm^3
# Si number density = 18.979761 Si / 1000 Ang^3
#
#
#
# Elastic Constant Matrix: (Units=GPa)
#
#
# Indices 1 2 3 4 5 6 
#
# 1 110.2511 46.4063 42.6845 0.0000 0.0000 0.0000
# 2 46.4063 93.9201 51.5548 0.0000 0.0000 0.0000
# 3 42.6845 51.5548 115.5151 0.0000 0.0000 0.0000
# 4 0.0000 0.0000 0.0000 23.6592 0.0000 0.0000
# 5 0.0000 0.0000 0.0000 0.0000 40.2301 0.0000
# 6 0.0000 0.0000 0.0000 0.0000 0.0000 30.1102
#
#
#
# Elastic Compliance Matrix: (Units=1/GPa)
#
#
# Indices 1 2 3 4 5 6 
#
# 1 0.011915 -0.004597 -0.002351 0.000000 0.000000 0.000000
# 2 -0.004597 0.015876 -0.005387 0.000000 0.000000 0.000000
# 3 -0.002351 -0.005387 0.011930 0.000000 0.000000 0.000000
# 4 0.000000 0.000000 0.000000 0.042267 0.000000 0.000000
# 5 0.000000 0.000000 0.000000 0.000000 0.024857 0.000000
# 6 0.000000 0.000000 0.000000 0.000000 0.000000 0.033211
#
#
# Mechanical properties :
#
#
# Convention : Reuss Voigt Hill
#
# Bulk Modulus (GPa) = 66.44040 66.77530 66.60785
# Shear Modulus (GPa) = 29.45638 30.73597 30.09617
#
# Velocity S-wave (km/s) = 3.94380 4.02855 3.98640
# Velocity P-wave (km/s) = 7.47128 7.54306 7.50725
#
# Compressibility (1/GPa) = 0.01505108
#
# Stress axis : x y z
#
# Youngs Moduli (GPa) = 83.92518 62.99006 83.82324
#
# Poissons Ratio (x) = 0.28955 0.19710
# Poissons Ratio (y) = 0.38578 0.45153
# Poissons Ratio (z) = 0.19734 0.33931
#
# Static dielectric constant tensor:
#      x y z
#    x 3.723060 0.000000 0.000000 
#    y 0.000000 3.556520 0.000000 
#    z 0.000000 0.000000 3.490740 
# 
# 
# High freq. dielectric constant tensor:
#      x y z
#    x 1.761180 0.000000 0.000000 
#    y 0.000000 1.720510 0.000000 
#    z 0.000000 0.000000 1.733300 
# 
# From -- ./inp_files/4974.got.cif
#   From: 2010.03.12/outbox.cif.g09.slc.cpg/sg34_3_cif.got.tgz:4974.got - 2010.04.14 01:56:33.
