data_PCOD8171759
_publ_section_title
;
Structure prediction by ZEFSAII (Michael W. Deem and Ramdas Pophale) SiO2 
 PCOD8171759
Probable space group: P N A 21
;
_chemical_formula_sum "Si O2"
_cell_formula_units_Z 32
_cell_length_a 17.853823
_cell_length_b 11.630741
_cell_length_c 6.562231
_cell_angle_alpha 90.000000
_cell_angle_beta 90.000000
_cell_angle_gamma 90.000000
_cell_volume 1362.668208
_symmetry_space_group_name_H-M "P N A 21"
_symmetry_group_IT_number 33
_symmetry_cell_setting 'orthorhombic'
loop_
_space_group_symop_operation_xyz
x,y,z
-x,-y,1/2+z
1/2-x,1/2+y,1/2+z
1/2+x,1/2-y,z
loop_
_atom_site_type_symbol
_atom_site_label
_atom_site_fract_x
_atom_site_fract_y
_atom_site_fract_z
Si Si1 0.514964 0.368731 0.623500
Si Si2 0.028673 0.713983 0.753063
Si Si3 0.290223 0.465367 0.680645
Si Si4 0.632577 0.138858 0.165718
Si Si5 0.233949 0.253383 0.499500
Si Si6 0.587765 0.593599 0.460287
Si Si7 0.656228 0.334556 0.881255
Si Si8 0.839694 0.439463 0.383483
O O1 0.508844 0.277784 0.443814
O O2 0.534619 0.493465 0.539066
O O3 0.434640 0.370840 0.730898
O O4 0.570588 0.336444 0.807260
O O5 0.080077 0.799071 0.614785
O O6 0.079308 0.605895 0.816991
O O7 0.956651 0.659515 0.642863
O O8 0.296816 0.343219 0.569974
O O9 0.329154 0.456907 0.908675
O O10 0.327127 0.558294 0.529348
O O11 0.199982 0.478829 0.715697
O O12 0.666974 0.178898 0.382374
O O13 0.673206 0.218089 0.000286
O O14 0.650531 0.006509 0.100910
O O15 0.205593 0.170357 0.679416
O O16 0.279933 0.163897 0.366227
#
# Coordination Sequence:
#
# PCOD8171759 Si02
#       8
#     4   4   4   4   4   4   4   4
#     4  12  23  45  74 111 144 200 249 314 385 454
#     4  12  28  48  75 112 157 207 257 312 394 470
#     4  12  27  46  74 114 147 202 256 323 382 451
#     4  12  26  52  74 107 157 203 253 319 390 463
#     4  12  26  49  79 106 152 203 254 322 384 459
#     4  12  25  43  74 110 156 190 258 324 378 455
#     4  12  24  46  76 107 150 197 257 316 389 455
#     4  12  29  49  76 111 153 202 258 312 382 471
#
# _framework density 23.483340999999999
#
# number of rings (size 3 to 8) (size 9 to 14) (size 15 to 20)
#    0.000    0.000    6.250    3.750    5.250    2.000 
#    4.500    0.000    0.000    0.000    0.000    0.000 
#    0.000    0.000    0.000    0.000    0.000    0.000 
#
# Total GULP energy -396538.280401 kJ/mol
# GULP energy per Si atom -12391.821263 kJ/mol
# Density = 2.342989 g / cm^3
# Si number density = 23.483341 Si / 1000 Ang^3
#
#
#
# Elastic Constant Matrix: (Units=GPa)
#
#
# Indices 1 2 3 4 5 6 
#
# 1 92.6755 40.2738 36.6748 0.0000 0.0000 0.0000
# 2 40.2738 108.9471 45.5798 0.0000 0.0000 0.0000
# 3 36.6748 45.5798 104.8675 0.0000 0.0000 0.0000
# 4 0.0000 0.0000 0.0000 43.6926 0.0000 0.0000
# 5 0.0000 0.0000 0.0000 0.0000 38.5223 0.0000
# 6 0.0000 0.0000 0.0000 0.0000 0.0000 36.9895
#
#
#
# Elastic Compliance Matrix: (Units=1/GPa)
#
#
# Indices 1 2 3 4 5 6 
#
# 1 0.013660 -0.003729 -0.003156 0.000000 0.000000 0.000000
# 2 -0.003729 0.012237 -0.004014 0.000000 0.000000 0.000000
# 3 -0.003156 -0.004014 0.012385 0.000000 0.000000 0.000000
# 4 0.000000 0.000000 0.000000 0.022887 0.000000 0.000000
# 5 0.000000 0.000000 0.000000 0.000000 0.025959 0.000000
# 6 0.000000 0.000000 0.000000 0.000000 0.000000 0.027035
#
#
# Mechanical properties :
#
#
# Convention : Reuss Voigt Hill
#
# Bulk Modulus (GPa) = 60.67439 61.28299 60.97869
# Shear Modulus (GPa) = 35.34670 36.10499 35.72584
#
# Velocity S-wave (km/s) = 3.88388 3.92532 3.90465
# Velocity P-wave (km/s) = 6.78277 6.83353 6.80820
#
# Compressibility (1/GPa) = 0.01648142
#
# Stress axis : x y z
#
# Youngs Moduli (GPa) = 73.20658 81.72075 80.74557
#
# Poissons Ratio (x) = 0.30474 0.25487
# Poissons Ratio (y) = 0.27299 0.32415
# Poissons Ratio (z) = 0.23107 0.32807
#
# Static dielectric constant tensor:
#      x y z
#    x 4.463350 0.000000 0.000000 
#    y 0.000000 4.275970 0.000000 
#    z 0.000000 0.000000 4.202110 
# 
# 
# High freq. dielectric constant tensor:
#      x y z
#    x 1.935850 0.000000 0.000000 
#    y 0.000000 1.934880 0.000000 
#    z 0.000000 0.000000 1.930270 
# 
# From -- ./inp_files/2067.got.cif
#   From: 2010.03.12/outbox.cif.g09.slc.cpg/sg33_2_cif.got.tgz:2067.got - 2010.04.14 01:49:19.
