data_PCOD8171835
_publ_section_title
;
Structure prediction by ZEFSAII (Michael W. Deem and Ramdas Pophale) SiO2 
 PCOD8171835
Probable space group: P N N 2
;
_chemical_formula_sum "Si O2"
_cell_formula_units_Z 28
_cell_length_a 12.332652
_cell_length_b 4.993365
_cell_length_c 25.249467
_cell_angle_alpha 90.000000
_cell_angle_beta 90.000000
_cell_angle_gamma 90.000000
_cell_volume 1554.898357
_symmetry_space_group_name_H-M "P N N 2"
_symmetry_group_IT_number 34
_symmetry_cell_setting 'orthorhombic'
loop_
_space_group_symop_operation_xyz
x,y,z
-x,-y,z
1/2-x,1/2+y,1/2+z
1/2+x,1/2-y,1/2+z
loop_
_atom_site_type_symbol
_atom_site_label
_atom_site_fract_x
_atom_site_fract_y
_atom_site_fract_z
Si Si1 0.708502 0.554997 0.427190
Si Si2 0.806852 0.979246 0.289187
Si Si3 0.628709 0.500909 0.541604
Si Si4 0.432168 0.740627 0.886757
Si Si5 0.128232 0.501174 0.107155
Si Si6 0.875901 0.534590 0.868459
Si Si7 0.870725 0.491045 0.225673
O O1 0.688850 0.452799 0.486327
O O2 0.834258 0.638115 0.421371
O O3 0.667057 0.325424 0.386925
O O4 0.640944 0.823701 0.416022
O O5 0.893904 0.907964 0.333874
O O6 0.819011 0.774433 0.241063
O O7 0.688348 0.957526 0.315221
O O8 0.826932 0.273789 0.266742
O O9 0.500000 0.500000 0.531591
O O10 0.667647 0.279790 0.583613
O O11 0.669903 0.776678 0.566477
O O12 0.500000 0.500000 0.916814
O O13 0.500000 0.000000 0.870344
O O14 0.172599 0.560017 0.166086
O O15 0.000000 0.500000 0.110495
O O16 0.000000 0.500000 0.852360
O O17 0.000000 0.500000 0.227573
#
# Coordination Sequence:
#
# PCOD8171835 Si02
#       7
#     4   4   4   4   4   4   4
#     4  11  22  34  54  78 102 140 175 203 260 313
#     4  11  21  32  51  74 100 137 170 197 252 305
#     4  10  18  32  50  72 101 131 163 204 252 305
#     4  11  21  35  51  75 108 137 171 213 249 303
#     4   9  19  31  47  72 101 129 162 205 254 302
#     4  11  22  36  51  76 108 135 172 216 249 303
#     4  11  20  32  50  75 104 133 165 206 252 305
#
# _framework density 18.007608000000001
#
# number of rings (size 3 to 8) (size 9 to 14) (size 15 to 20)
#    0.000    1.429    0.000    9.000    0.000    3.429 
#    0.000    0.000    0.000    0.000    0.000   10.000 
#    0.000    0.000    0.000    0.000    0.000    0.000 
#
# Total GULP energy -347126.879457 kJ/mol
# GULP energy per Si atom -12397.388552 kJ/mol
# Density = 1.796662 g / cm^3
# Si number density = 18.007608 Si / 1000 Ang^3
#
#
#
# Elastic Constant Matrix: (Units=GPa)
#
#
# Indices 1 2 3 4 5 6 
#
# 1 99.6001 33.5960 36.0149 0.0000 0.0000 0.0000
# 2 33.5960 99.4464 16.8914 0.0000 0.0000 0.0000
# 3 36.0149 16.8914 97.6636 0.0000 0.0000 0.0000
# 4 0.0000 0.0000 0.0000 2.7235 0.0000 0.0000
# 5 0.0000 0.0000 0.0000 0.0000 3.6567 0.0000
# 6 0.0000 0.0000 0.0000 0.0000 0.0000 24.1774
#
#
#
# Elastic Compliance Matrix: (Units=1/GPa)
#
#
# Indices 1 2 3 4 5 6 
#
# 1 0.012729 -0.003609 -0.004070 0.000000 0.000000 0.000000
# 2 -0.003609 0.011383 -0.000638 0.000000 0.000000 0.000000
# 3 -0.004070 -0.000638 0.011850 0.000000 0.000000 0.000000
# 4 0.000000 0.000000 0.000000 0.367181 0.000000 0.000000
# 5 0.000000 0.000000 0.000000 0.000000 0.273467 0.000000
# 6 0.000000 0.000000 0.000000 0.000000 0.000000 0.041361
#
#
# Mechanical properties :
#
#
# Convention : Reuss Voigt Hill
#
# Bulk Modulus (GPa) = 51.73519 52.19054 51.96286
# Shear Modulus (GPa) = 6.74720 20.12538 13.43629
#
# Velocity S-wave (km/s) = 1.93778 3.34669 2.73453
# Velocity P-wave (km/s) = 5.81366 6.63168 6.23610
#
# Compressibility (1/GPa) = 0.01932920
#
# Stress axis : x y z
#
# Youngs Moduli (GPa) = 78.55982 87.84835 84.38547
#
# Poissons Ratio (x) = 0.31705 0.34344
# Poissons Ratio (y) = 0.28352 0.05383
# Poissons Ratio (z) = 0.31973 0.05604
#
# Static dielectric constant tensor:
#      x y z
#    x 3.198700 0.000000 0.000000 
#    y 0.000000 3.726660 0.000000 
#    z 0.000000 0.000000 3.278010 
# 
# 
# High freq. dielectric constant tensor:
#      x y z
#    x 1.661360 0.000000 0.000000 
#    y 0.000000 1.724140 0.000000 
#    z 0.000000 0.000000 1.687820 
# 
# From -- ./inp_files/8462.got.cif
#   From: 2010.03.12/outbox.cif.g09.slc.cpg/sg34_5_cif.got.tgz:8462.got - 2010.04.14 01:56:33.
