data_PCOD8171024
_publ_section_title
;
Structure prediction by ZEFSAII (Michael W. Deem and Ramdas Pophale) SiO2 
 PCOD8171024
Probable space group: P N A 21
;
_chemical_formula_sum "Si O2"
_cell_formula_units_Z 28
_cell_length_a 20.658111
_cell_length_b 5.000361
_cell_length_c 12.841042
_cell_angle_alpha 90.000000
_cell_angle_beta 90.000000
_cell_angle_gamma 90.000000
_cell_volume 1326.454118
_symmetry_space_group_name_H-M "P N A 21"
_symmetry_group_IT_number 33
_symmetry_cell_setting 'orthorhombic'
loop_
_space_group_symop_operation_xyz
x,y,z
-x,-y,1/2+z
1/2-x,1/2+y,1/2+z
1/2+x,1/2-y,z
loop_
_atom_site_type_symbol
_atom_site_label
_atom_site_fract_x
_atom_site_fract_y
_atom_site_fract_z
Si Si1 0.130296 0.274248 0.562230
Si Si2 0.082442 0.763346 0.815810
Si Si3 0.790357 0.101932 0.195470
Si Si4 0.731849 0.233113 0.394260
Si Si5 0.424179 0.769459 0.457269
Si Si6 0.217300 0.255661 0.995237
Si Si7 0.954882 0.217877 0.099160
O O1 0.182778 0.184922 0.652502
O O2 0.161967 0.299608 0.447866
O O3 0.101126 0.559252 0.590683
O O4 0.073390 0.056034 0.552599
O O5 0.067049 0.475803 0.863446
O O6 0.030748 0.818221 0.722649
O O7 0.153154 0.756842 0.761904
O O8 0.074717 0.978068 0.906653
O O9 0.729324 0.117950 0.275468
O O10 0.764939 0.256036 0.093956
O O11 0.783812 0.043610 0.451757
O O12 0.755973 0.538217 0.407746
O O13 0.480708 0.803863 0.540768
O O14 0.357361 0.825853 0.519754
#
# Coordination Sequence:
#
# PCOD8171024 Si02
#       7
#     4   4   4   4   4   4   4
#     4  10  22  40  64  95 123 169 216 259 314 381
#     4  11  22  41  68  90 121 176 210 249 329 383
#     4  10  21  39  67  90 127 162 208 261 324 383
#     4  11  21  38  64  91 129 157 206 259 323 373
#     4  12  23  43  65  94 129 164 217 259 312 379
#     4  11  23  38  61 101 122 160 207 268 309 380
#     4  11  24  43  65  91 127 170 218 261 301 385
#
# _framework density 21.108910000000002
#
# number of rings (size 3 to 8) (size 9 to 14) (size 15 to 20)
#    0.000    1.143    2.857    5.143    0.000    3.429 
#    5.143    0.000    0.000    0.000    0.000    0.000 
#    0.000    0.000    0.000    0.000    0.000    0.000 
#
# Total GULP energy -346983.324190 kJ/mol
# GULP energy per Si atom -12392.261578 kJ/mol
# Density = 2.106087 g / cm^3
# Si number density = 21.108910 Si / 1000 Ang^3
#
#
#
# Elastic Constant Matrix: (Units=GPa)
#
#
# Indices 1 2 3 4 5 6 
#
# 1 63.0482 -1.0146 32.6694 0.0000 0.0000 0.0000
# 2 -1.0146 55.0393 5.9632 0.0000 0.0000 0.0000
# 3 32.6694 5.9632 94.4712 0.0000 0.0000 0.0000
# 4 0.0000 0.0000 0.0000 27.5849 0.0000 0.0000
# 5 0.0000 0.0000 0.0000 0.0000 42.8433 0.0000
# 6 0.0000 0.0000 0.0000 0.0000 0.0000 22.2631
#
#
#
# Elastic Compliance Matrix: (Units=1/GPa)
#
#
# Indices 1 2 3 4 5 6 
#
# 1 0.019388 0.001091 -0.006774 0.000000 0.000000 0.000000
# 2 0.001091 0.018355 -0.001536 0.000000 0.000000 0.000000
# 3 -0.006774 -0.001536 0.013025 0.000000 0.000000 0.000000
# 4 0.000000 0.000000 0.000000 0.036252 0.000000 0.000000
# 5 0.000000 0.000000 0.000000 0.000000 0.023341 0.000000
# 6 0.000000 0.000000 0.000000 0.000000 0.000000 0.044917
#
#
# Mechanical properties :
#
#
# Convention : Reuss Voigt Hill
#
# Bulk Modulus (GPa) = 27.52423 31.97717 29.75070
# Shear Modulus (GPa) = 27.49892 30.20099 28.84995
#
# Velocity S-wave (km/s) = 3.61323 3.78659 3.70093
# Velocity P-wave (km/s) = 5.52039 5.85656 5.69096
#
# Compressibility (1/GPa) = 0.03633162
#
# Stress axis : x y z
#
# Youngs Moduli (GPa) = 51.57753 54.47997 76.77786
#
# Poissons Ratio (x) = -0.05945 0.52006
# Poissons Ratio (y) = -0.05629 0.11793
# Poissons Ratio (z) = 0.34937 0.08368
#
# Static dielectric constant tensor:
#      x y z
#    x 3.715270 0.000000 0.000000 
#    y 0.000000 3.795130 0.000000 
#    z 0.000000 0.000000 4.135280 
# 
# 
# High freq. dielectric constant tensor:
#      x y z
#    x 1.804610 0.000000 0.000000 
#    y 0.000000 1.838500 0.000000 
#    z 0.000000 0.000000 1.825710 
# 
# From -- ./inp_files/7136.got.cif
#   From: 2010.03.12/outbox.cif.g09.slc.cpg/sg33_4_cif.got.tgz:7136.got - 2010.04.14 01:49:19.
