data_PCOD8171635
_publ_section_title
;
Structure prediction by ZEFSAII (Michael W. Deem and Ramdas Pophale) SiO2 
 PCOD8171635
Probable space group: P N A 21
;
_chemical_formula_sum "Si O2"
_cell_formula_units_Z 24
_cell_length_a 9.143840
_cell_length_b 14.355648
_cell_length_c 8.021624
_cell_angle_alpha 90.000000
_cell_angle_beta 90.000000
_cell_angle_gamma 90.000000
_cell_volume 1052.964478
_symmetry_space_group_name_H-M "P N A 21"
_symmetry_group_IT_number 33
_symmetry_cell_setting 'orthorhombic'
loop_
_space_group_symop_operation_xyz
x,y,z
-x,-y,1/2+z
1/2-x,1/2+y,1/2+z
1/2+x,1/2-y,z
loop_
_atom_site_type_symbol
_atom_site_label
_atom_site_fract_x
_atom_site_fract_y
_atom_site_fract_z
Si Si1 0.841319 0.087821 0.167420
Si Si2 0.146383 0.402624 0.674678
Si Si3 0.965163 0.556507 0.813217
Si Si4 0.597747 0.788557 0.592422
Si Si5 0.441775 0.450295 0.798715
Si Si6 0.142632 0.216146 0.861371
O O1 0.687496 0.044687 0.218978
O O2 0.836454 0.199219 0.189953
O O3 0.866510 0.057874 0.977443
O O4 0.974439 0.047828 0.278490
O O5 0.048113 0.457069 0.812140
O O6 0.310903 0.444639 0.662996
O O7 0.166484 0.295127 0.723260
O O8 0.063364 0.410613 0.500201
O O9 0.075507 0.627901 0.721561
O O10 0.703555 0.818930 0.439092
O O11 0.443104 0.758340 0.517888
O O12 0.559245 0.368044 0.771460
#
# Coordination Sequence:
#
# PCOD8171635 Si02
#       6
#     4   4   4   4   4   4
#     4  11  24  44  68 104 138 185 233 291 353 421
#     4  12  26  46  69 105 139 188 242 292 354 422
#     4  12  27  43  74 101 142 189 239 295 353 422
#     4  11  23  47  70  98 143 182 230 292 358 420
#     4  11  25  43  72 103 143 186 236 296 353 424
#     4  11  23  47  71  97 141 184 228 292 359 419
#
# _framework density 22.792791000000001
#
# number of rings (size 3 to 8) (size 9 to 14) (size 15 to 20)
#    0.000    0.667    5.000    3.000    9.333    2.667 
#    0.000    0.000    0.000    0.000    0.000    0.000 
#    0.000    0.000    0.000    0.000    0.000    0.000 
#
# Total GULP energy -297706.881100 kJ/mol
# GULP energy per Si atom -12404.453379 kJ/mol
# Density = 2.274091 g / cm^3
# Si number density = 22.792791 Si / 1000 Ang^3
#
#
#
# Elastic Constant Matrix: (Units=GPa)
#
#
# Indices 1 2 3 4 5 6 
#
# 1 127.5928 36.8543 35.5947 0.0000 0.0000 0.0000
# 2 36.8543 57.7858 31.1737 0.0000 0.0000 0.0000
# 3 35.5947 31.1737 99.8818 0.0000 0.0000 0.0000
# 4 0.0000 0.0000 0.0000 35.1625 0.0000 0.0000
# 5 0.0000 0.0000 0.0000 0.0000 45.8595 0.0000
# 6 0.0000 0.0000 0.0000 0.0000 0.0000 34.8228
#
#
#
# Elastic Compliance Matrix: (Units=1/GPa)
#
#
# Indices 1 2 3 4 5 6 
#
# 1 0.009890 -0.005298 -0.001871 0.000000 0.000000 0.000000
# 2 -0.005298 0.023647 -0.005492 0.000000 0.000000 0.000000
# 3 -0.001871 -0.005492 0.012393 0.000000 0.000000 0.000000
# 4 0.000000 0.000000 0.000000 0.028439 0.000000 0.000000
# 5 0.000000 0.000000 0.000000 0.000000 0.021806 0.000000
# 6 0.000000 0.000000 0.000000 0.000000 0.000000 0.028717
#
#
# Mechanical properties :
#
#
# Convention : Reuss Voigt Hill
#
# Bulk Modulus (GPa) = 48.52699 54.72286 51.62493
# Shear Modulus (GPa) = 31.83026 35.27812 33.55419
#
# Velocity S-wave (km/s) = 3.74104 3.93845 3.84101
# Velocity P-wave (km/s) = 6.32434 6.68900 6.50922
#
# Compressibility (1/GPa) = 0.02060709
#
# Stress axis : x y z
#
# Youngs Moduli (GPa) = 101.11569 42.28819 80.69253
#
# Poissons Ratio (x) = 0.22405 0.15096
# Poissons Ratio (y) = 0.53573 0.44319
# Poissons Ratio (z) = 0.18917 0.23226
#
# Static dielectric constant tensor:
#      x y z
#    x 4.320340 0.000000 0.000000 
#    y 0.000000 4.229640 0.000000 
#    z 0.000000 0.000000 3.839010 
# 
# 
# High freq. dielectric constant tensor:
#      x y z
#    x 1.922640 0.000000 0.000000 
#    y 0.000000 1.900340 0.000000 
#    z 0.000000 0.000000 1.879870 
# 
# From -- ./inp_files/3148.got.cif
#   From: 2010.03.12/outbox.cif.g09.slc.cpg/sg33_2_cif.got.tgz:3148.got - 2010.04.14 01:49:19.
