data_PCOD8171400
_publ_section_title
;
Structure prediction by ZEFSAII (Michael W. Deem and Ramdas Pophale) SiO2 
 PCOD8171400
Probable space group: P N A 21
;
_chemical_formula_sum "Si O2"
_cell_formula_units_Z 28
_cell_length_a 11.849108
_cell_length_b 18.747774
_cell_length_c 5.543978
_cell_angle_alpha 90.000000
_cell_angle_beta 90.000000
_cell_angle_gamma 90.000000
_cell_volume 1231.563660
_symmetry_space_group_name_H-M "P N A 21"
_symmetry_group_IT_number 33
_symmetry_cell_setting 'orthorhombic'
loop_
_space_group_symop_operation_xyz
x,y,z
-x,-y,1/2+z
1/2-x,1/2+y,1/2+z
1/2+x,1/2-y,z
loop_
_atom_site_type_symbol
_atom_site_label
_atom_site_fract_x
_atom_site_fract_y
_atom_site_fract_z
Si Si1 0.567014 0.992521 0.672970
Si Si2 0.357397 0.151777 0.034150
Si Si3 0.659136 0.340772 0.695304
Si Si4 0.755981 0.734754 0.820829
Si Si5 0.246949 0.890270 0.153439
Si Si6 0.013276 0.959785 0.177437
Si Si7 0.087027 0.293963 0.934300
O O1 0.663344 0.048150 0.594599
O O2 0.487392 0.987667 0.432716
O O3 0.620685 0.913870 0.717330
O O4 0.335064 0.231657 0.136924
O O5 0.473574 0.162155 0.884574
O O6 0.251294 0.126818 0.877464
O O7 0.732047 0.302355 0.493511
O O8 0.582076 0.403875 0.596541
O O9 0.575164 0.282819 0.811221
O O10 0.881428 0.719104 0.714003
O O11 0.712873 0.659548 0.925418
O O12 0.132298 0.924667 0.250570
O O13 0.302624 0.836270 0.342461
O O14 0.971831 0.994817 0.430621
#
# Coordination Sequence:
#
# PCOD8171400 Si02
#       7
#     4   4   4   4   4   4   4
#     4  12  27  46  75 109 153 194 248 311 378 449
#     4  11  24  44  75 106 148 190 250 308 376 439
#     4  10  26  44  71 107 142 194 249 301 370 440
#     4  10  25  42  73 106 147 192 248 315 367 448
#     4  11  26  47  72 108 148 197 249 308 380 437
#     4  12  31  50  77 105 153 201 246 301 369 459
#     4  10  23  45  71 109 141 188 248 312 370 436
#
# _framework density 22.735323999999999
#
# number of rings (size 3 to 8) (size 9 to 14) (size 15 to 20)
#    0.000    1.143    1.429    1.714   18.000    1.143 
#    0.000    0.000    0.000    0.000    0.000    0.000 
#    0.000    0.000    0.000    0.000    0.000    0.000 
#
# Total GULP energy -346896.813457 kJ/mol
# GULP energy per Si atom -12389.171909 kJ/mol
# Density = 2.268358 g / cm^3
# Si number density = 22.735324 Si / 1000 Ang^3
#
#
#
# Elastic Constant Matrix: (Units=GPa)
#
#
# Indices 1 2 3 4 5 6 
#
# 1 104.6705 41.3864 12.0291 0.0000 0.0000 0.0000
# 2 41.3864 105.9569 15.2703 0.0000 0.0000 0.0000
# 3 12.0291 15.2703 74.8679 0.0000 0.0000 0.0000
# 4 0.0000 0.0000 0.0000 27.2659 0.0000 0.0000
# 5 0.0000 0.0000 0.0000 0.0000 18.3704 0.0000
# 6 0.0000 0.0000 0.0000 0.0000 0.0000 41.0508
#
#
#
# Elastic Compliance Matrix: (Units=1/GPa)
#
#
# Indices 1 2 3 4 5 6 
#
# 1 0.011364 -0.004302 -0.000948 0.000000 0.000000 0.000000
# 2 -0.004302 0.011352 -0.001624 0.000000 0.000000 0.000000
# 3 -0.000948 -0.001624 0.013841 0.000000 0.000000 0.000000
# 4 0.000000 0.000000 0.000000 0.036676 0.000000 0.000000
# 5 0.000000 0.000000 0.000000 0.000000 0.054435 0.000000
# 6 0.000000 0.000000 0.000000 0.000000 0.000000 0.024360
#
#
# Mechanical properties :
#
#
# Convention : Reuss Voigt Hill
#
# Bulk Modulus (GPa) = 43.84554 46.98520 45.41537
# Shear Modulus (GPa) = 28.83849 31.79138 30.31493
#
# Velocity S-wave (km/s) = 3.56539 3.74348 3.65552
# Velocity P-wave (km/s) = 6.02299 6.27661 6.15111
#
# Compressibility (1/GPa) = 0.02280734
#
# Stress axis : x y z
#
# Youngs Moduli (GPa) = 87.99892 88.08846 72.25159
#
# Poissons Ratio (x) = 0.37895 0.06852
# Poissons Ratio (y) = 0.37857 0.11735
# Poissons Ratio (z) = 0.08346 0.14308
#
# Static dielectric constant tensor:
#      x y z
#    x 3.939330 0.000000 0.000000 
#    y 0.000000 4.383670 0.000000 
#    z 0.000000 0.000000 4.015120 
# 
# 
# High freq. dielectric constant tensor:
#      x y z
#    x 1.896500 0.000000 0.000000 
#    y 0.000000 1.917430 0.000000 
#    z 0.000000 0.000000 1.884640 
# 
# From -- ./inp_files/893.got.cif
#   From: 2010.03.12/outbox.cif.g09.slc.cpg/sg33_1_cif.got.tgz:893.got - 2010.04.14 01:49:19.
