data_PCOD8171469
_publ_section_title
;
Structure prediction by ZEFSAII (Michael W. Deem and Ramdas Pophale) SiO2 
 PCOD8171469
Probable space group: P N A 21
;
_chemical_formula_sum "Si O2"
_cell_formula_units_Z 28
_cell_length_a 16.053524
_cell_length_b 8.472463
_cell_length_c 9.181240
_cell_angle_alpha 90.000000
_cell_angle_beta 90.000000
_cell_angle_gamma 90.000000
_cell_volume 1248.766969
_symmetry_space_group_name_H-M "P N A 21"
_symmetry_group_IT_number 33
_symmetry_cell_setting 'orthorhombic'
loop_
_space_group_symop_operation_xyz
x,y,z
-x,-y,1/2+z
1/2-x,1/2+y,1/2+z
1/2+x,1/2-y,z
loop_
_atom_site_type_symbol
_atom_site_label
_atom_site_fract_x
_atom_site_fract_y
_atom_site_fract_z
Si Si1 0.655293 0.332854 0.845490
Si Si2 0.177556 0.980501 0.316199
Si Si3 0.669503 0.886247 0.249470
Si Si4 0.023315 0.378288 0.315236
Si Si5 0.554800 0.386260 0.103682
Si Si6 0.652131 0.992791 0.923624
Si Si7 0.577241 0.367509 0.555315
O O1 0.740867 0.434336 0.822768
O O2 0.665974 0.179822 0.948970
O O3 0.625435 0.278762 0.685151
O O4 0.580915 0.418050 0.934512
O O5 0.160881 0.798494 0.280705
O O6 0.272016 0.045932 0.314411
O O7 0.137569 0.091249 0.196426
O O8 0.138509 0.012372 0.474290
O O9 0.594908 0.987763 0.319887
O O10 0.664526 0.904522 0.075854
O O11 0.021003 0.286651 0.158223
O O12 0.037305 0.259166 0.448246
O O13 0.934252 0.457631 0.342574
O O14 0.489459 0.523078 0.138150
#
# Coordination Sequence:
#
# PCOD8171469 Si02
#       7
#     4   4   4   4   4   4   4
#     4  11  24  44  71  98 145 183 231 302 352 434
#     4  10  24  46  70  99 142 184 234 289 364 429
#     4  11  24  45  70 103 140 185 236 296 357 425
#     4  11  26  44  74 103 139 184 247 295 350 442
#     4  11  24  46  68 106 135 186 237 287 359 428
#     4  11  24  45  69 107 138 183 237 301 357 423
#     4  11  24  46  70 102 139 189 234 292 367 425
#
# _framework density 22.422118000000001
#
# number of rings (size 3 to 8) (size 9 to 14) (size 15 to 20)
#    0.000    1.143    2.857    2.571    6.000    2.286 
#   15.429    0.000    0.000    0.000    0.000    0.000 
#    0.000    0.000    0.000    0.000    0.000    0.000 
#
# Total GULP energy -346956.478205 kJ/mol
# GULP energy per Si atom -12391.302793 kJ/mol
# Density = 2.237108 g / cm^3
# Si number density = 22.422118 Si / 1000 Ang^3
#
#
#
# Elastic Constant Matrix: (Units=GPa)
#
#
# Indices 1 2 3 4 5 6 
#
# 1 166.1433 56.9761 50.2023 0.0000 0.0000 0.0000
# 2 56.9761 94.6565 37.5263 0.0000 0.0000 0.0000
# 3 50.2023 37.5263 115.9163 0.0000 0.0000 0.0000
# 4 0.0000 0.0000 0.0000 33.0211 0.0000 0.0000
# 5 0.0000 0.0000 0.0000 0.0000 37.8538 0.0000
# 6 0.0000 0.0000 0.0000 0.0000 0.0000 34.6122
#
#
#
# Elastic Compliance Matrix: (Units=1/GPa)
#
#
# Indices 1 2 3 4 5 6 
#
# 1 0.008045 -0.003971 -0.002199 0.000000 0.000000 0.000000
# 2 -0.003971 0.014080 -0.002838 0.000000 0.000000 0.000000
# 3 -0.002199 -0.002838 0.010498 0.000000 0.000000 0.000000
# 4 0.000000 0.000000 0.000000 0.030284 0.000000 0.000000
# 5 0.000000 0.000000 0.000000 0.000000 0.026417 0.000000
# 6 0.000000 0.000000 0.000000 0.000000 0.000000 0.028892
#
#
# Mechanical properties :
#
#
# Convention : Reuss Voigt Hill
#
# Bulk Modulus (GPa) = 68.46019 74.01394 71.23707
# Shear Modulus (GPa) = 35.43570 36.56485 36.00027
#
# Velocity S-wave (km/s) = 3.97973 4.04263 4.01130
# Velocity P-wave (km/s) = 7.19141 7.40753 7.30027
#
# Compressibility (1/GPa) = 0.01460703
#
# Stress axis : x y z
#
# Youngs Moduli (GPa) = 124.30092 71.02298 95.25551
#
# Poissons Ratio (x) = 0.28202 0.20944
# Poissons Ratio (y) = 0.49357 0.27038
# Poissons Ratio (z) = 0.27330 0.20160
#
# Static dielectric constant tensor:
#      x y z
#    x 4.429010 0.000000 0.000000 
#    y 0.000000 3.907980 0.000000 
#    z 0.000000 0.000000 4.072480 
# 
# 
# High freq. dielectric constant tensor:
#      x y z
#    x 1.900730 0.000000 0.000000 
#    y 0.000000 1.873990 0.000000 
#    z 0.000000 0.000000 1.887710 
# 
# From -- ./inp_files/4696.got.cif
#   From: 2010.03.12/outbox.cif.g09.slc.cpg/sg33_3_cif.got.tgz:4696.got - 2010.04.14 01:49:19.
