data_PCOD8171021
_publ_section_title
;
Structure prediction by ZEFSAII (Michael W. Deem and Ramdas Pophale) SiO2 
 PCOD8171021
Probable space group: P N A 21
;
_chemical_formula_sum "Si O2"
_cell_formula_units_Z 32
_cell_length_a 17.275782
_cell_length_b 9.990079
_cell_length_c 9.130475
_cell_angle_alpha 90.000000
_cell_angle_beta 90.000000
_cell_angle_gamma 90.000000
_cell_volume 1575.796057
_symmetry_space_group_name_H-M "P N A 21"
_symmetry_group_IT_number 33
_symmetry_cell_setting 'orthorhombic'
loop_
_space_group_symop_operation_xyz
x,y,z
-x,-y,1/2+z
1/2-x,1/2+y,1/2+z
1/2+x,1/2-y,z
loop_
_atom_site_type_symbol
_atom_site_label
_atom_site_fract_x
_atom_site_fract_y
_atom_site_fract_z
Si Si1 0.711756 0.580393 0.917550
Si Si2 0.468172 0.382262 0.404632
Si Si3 0.801931 0.788116 0.741287
Si Si4 0.526121 0.633189 0.232257
Si Si5 0.801109 0.085699 0.739358
Si Si6 0.965709 0.641648 0.743312
Si Si7 0.219021 0.683664 0.437056
Si Si8 0.959643 0.371722 0.929253
O O1 0.619723 0.568306 0.912174
O O2 0.738517 0.712413 0.836267
O O3 0.743466 0.584999 0.084458
O O4 0.750754 0.447102 0.847511
O O5 0.512874 0.493413 0.312335
O O6 0.507888 0.369207 0.566288
O O7 0.473491 0.240895 0.321326
O O8 0.882865 0.712345 0.740718
O O9 0.770004 0.803153 0.580180
O O10 0.810450 0.937389 0.807995
O O11 0.616912 0.655490 0.210589
O O12 0.496859 0.757573 0.331638
O O13 0.756633 0.182790 0.849919
O O14 0.993265 0.608339 0.579289
O O15 0.960232 0.507305 0.837020
O O16 0.127557 0.673024 0.469638
#
# Coordination Sequence:
#
# PCOD8171021 Si02
#       8
#     4   4   4   4   4   4   4   4
#     4  10  22  41  63  90 129 162 210 262 318 382
#     4  11  22  41  65  95 128 171 215 261 323 385
#     4  11  22  42  63  95 126 170 209 265 321 381
#     4  10  21  39  66  94 124 163 212 263 314 383
#     4   9  21  41  63  88 123 162 208 261 312 380
#     4  12  24  44  64  94 134 171 219 271 321 392
#     4  10  22  43  64  93 127 165 214 266 324 381
#     4  11  24  43  66  93 131 170 215 271 327 384
#
# _framework density 20.307196999999999
#
# number of rings (size 3 to 8) (size 9 to 14) (size 15 to 20)
#    0.000    1.500    2.500    2.250    3.500    2.000 
#   11.250    0.000    0.000    0.000    0.000    0.000 
#    0.000    0.000    0.000    0.000    0.000    0.000 
#
# Total GULP energy -396753.446124 kJ/mol
# GULP energy per Si atom -12398.545191 kJ/mol
# Density = 2.026098 g / cm^3
# Si number density = 20.307197 Si / 1000 Ang^3
#
#
#
# Elastic Constant Matrix: (Units=GPa)
#
#
# Indices 1 2 3 4 5 6 
#
# 1 35.4418 7.2929 9.7571 0.0000 0.0000 0.0000
# 2 7.2929 150.3137 58.9852 0.0000 0.0000 0.0000
# 3 9.7571 58.9852 107.2989 0.0000 0.0000 0.0000
# 4 0.0000 0.0000 0.0000 39.2330 0.0000 0.0000
# 5 0.0000 0.0000 0.0000 0.0000 23.0750 0.0000
# 6 0.0000 0.0000 0.0000 0.0000 0.0000 31.8269
#
#
#
# Elastic Compliance Matrix: (Units=1/GPa)
#
#
# Indices 1 2 3 4 5 6 
#
# 1 0.028966 -0.000474 -0.002373 0.000000 0.000000 0.000000
# 2 -0.000474 0.008490 -0.004624 0.000000 0.000000 0.000000
# 3 -0.002373 -0.004624 0.012078 0.000000 0.000000 0.000000
# 4 0.000000 0.000000 0.000000 0.025489 0.000000 0.000000
# 5 0.000000 0.000000 0.000000 0.000000 0.043337 0.000000
# 6 0.000000 0.000000 0.000000 0.000000 0.000000 0.031420
#
#
# Mechanical properties :
#
#
# Convention : Reuss Voigt Hill
#
# Bulk Modulus (GPa) = 28.90940 49.45829 39.18384
# Shear Modulus (GPa) = 28.36820 33.29493 30.83156
#
# Velocity S-wave (km/s) = 3.74164 4.05354 3.90071
# Velocity P-wave (km/s) = 5.73876 6.80560 6.29482
#
# Compressibility (1/GPa) = 0.03459083
#
# Stress axis : x y z
#
# Youngs Moduli (GPa) = 34.52298 117.78022 82.79729
#
# Poissons Ratio (x) = 0.05583 0.19651
# Poissons Ratio (y) = 0.01636 0.38288
# Poissons Ratio (z) = 0.08194 0.54465
#
# Static dielectric constant tensor:
#      x y z
#    x 3.503620 0.000000 0.000000 
#    y 0.000000 4.079060 0.000000 
#    z 0.000000 0.000000 3.841750 
# 
# 
# High freq. dielectric constant tensor:
#      x y z
#    x 1.779840 0.000000 0.000000 
#    y 0.000000 1.811790 0.000000 
#    z 0.000000 0.000000 1.795170 
# 
# From -- ./inp_files/5019.got.cif
#   From: 2010.03.12/outbox.cif.g09.slc.cpg/sg33_3_cif.got.tgz:5019.got - 2010.04.14 01:49:19.
