data_PCOD8171740
_publ_section_title
;
Structure prediction by ZEFSAII (Michael W. Deem and Ramdas Pophale) SiO2 
 PCOD8171740
Probable space group: P N A 21
;
_chemical_formula_sum "Si O2"
_cell_formula_units_Z 20
_cell_length_a 10.543888
_cell_length_b 9.251624
_cell_length_c 8.532848
_cell_angle_alpha 90.000000
_cell_angle_beta 90.000000
_cell_angle_gamma 90.000000
_cell_volume 832.363001
_symmetry_space_group_name_H-M "P N A 21"
_symmetry_group_IT_number 33
_symmetry_cell_setting 'orthorhombic'
loop_
_space_group_symop_operation_xyz
x,y,z
-x,-y,1/2+z
1/2-x,1/2+y,1/2+z
1/2+x,1/2-y,z
loop_
_atom_site_type_symbol
_atom_site_label
_atom_site_fract_x
_atom_site_fract_y
_atom_site_fract_z
Si Si1 0.585051 0.938899 0.902160
Si Si2 0.812285 0.902049 0.138291
Si Si3 0.062479 0.801758 0.646905
Si Si4 0.645437 0.090903 0.598920
Si Si5 0.202977 0.152264 0.992123
O O1 0.564589 0.784760 0.812530
O O2 0.616491 0.066415 0.781652
O O3 0.692660 0.944561 0.034310
O O4 0.458667 0.988645 0.991338
O O5 0.866584 0.758905 0.053245
O O6 0.774220 0.845478 0.308014
O O7 0.917303 0.025709 0.165162
O O8 0.184247 0.751239 0.552982
O O9 0.930124 0.782237 0.553789
O O10 0.779125 0.012917 0.557181
#
# Coordination Sequence:
#
# PCOD8171740 Si02
#       5
#     4   4   4   4   4
#     4  11  27  48  76 111 154 204 253 326 390 469
#     4  12  27  45  80 110 150 201 261 315 394 460
#     4  11  29  49  78 111 161 196 268 319 389 465
#     4  11  27  45  76 104 154 196 257 307 398 452
#     4  11  28  49  74 112 153 205 253 327 381 470
#
# _framework density 24.027977
#
# number of rings (size 3 to 8) (size 9 to 14) (size 15 to 20)
#    0.000    0.800    0.000    3.600   28.000    0.000 
#    0.000    0.000    0.000    0.000    0.000    0.000 
#    0.000    0.000    0.000    0.000    0.000    0.000 
#
# Total GULP energy -247878.499473 kJ/mol
# GULP energy per Si atom -12393.924974 kJ/mol
# Density = 2.397329 g / cm^3
# Si number density = 24.027977 Si / 1000 Ang^3
#
#
#
# Elastic Constant Matrix: (Units=GPa)
#
#
# Indices 1 2 3 4 5 6 
#
# 1 145.9512 27.7849 48.1050 0.0000 0.0000 0.0000
# 2 27.7849 101.4868 -12.1737 0.0000 0.0000 0.0000
# 3 48.1050 -12.1737 111.3398 0.0000 0.0000 0.0000
# 4 0.0000 0.0000 0.0000 29.3064 0.0000 0.0000
# 5 0.0000 0.0000 0.0000 0.0000 37.6384 0.0000
# 6 0.0000 0.0000 0.0000 0.0000 0.0000 14.9318
#
#
#
# Elastic Compliance Matrix: (Units=1/GPa)
#
#
# Indices 1 2 3 4 5 6 
#
# 1 0.008752 -0.002887 -0.004097 0.000000 0.000000 0.000000
# 2 -0.002887 0.010937 0.002443 0.000000 0.000000 0.000000
# 3 -0.004097 0.002443 0.011019 0.000000 0.000000 0.000000
# 4 0.000000 0.000000 0.000000 0.034122 0.000000 0.000000
# 5 0.000000 0.000000 0.000000 0.000000 0.026569 0.000000
# 6 0.000000 0.000000 0.000000 0.000000 0.000000 0.066971
#
#
# Mechanical properties :
#
#
# Convention : Reuss Voigt Hill
#
# Bulk Modulus (GPa) = 46.24157 54.02337 50.13247
# Shear Modulus (GPa) = 28.62705 36.04608 32.33657
#
# Velocity S-wave (km/s) = 3.45542 3.87741 3.67248
# Velocity P-wave (km/s) = 5.93351 6.52519 6.23637
#
# Compressibility (1/GPa) = 0.02162556
#
# Stress axis : x y z
#
# Youngs Moduli (GPa) = 114.26460 91.43182 90.75435
#
# Poissons Ratio (x) = 0.26400 0.37181
# Poissons Ratio (y) = 0.32993 -0.22175
# Poissons Ratio (z) = 0.46813 -0.22340
#
# Static dielectric constant tensor:
#      x y z
#    x 4.292640 0.000000 0.000000 
#    y 0.000000 4.759580 0.000000 
#    z 0.000000 0.000000 4.381760 
# 
# 
# High freq. dielectric constant tensor:
#      x y z
#    x 1.946690 0.000000 0.000000 
#    y 0.000000 1.974300 0.000000 
#    z 0.000000 0.000000 1.963740 
# 
# From -- ./inp_files/2936.got.cif
#   From: 2010.03.12/outbox.cif.g09.slc.cpg/sg33_2_cif.got.tgz:2936.got - 2010.04.14 01:49:19.
