data_PCOD8171459
_publ_section_title
;
Structure prediction by ZEFSAII (Michael W. Deem and Ramdas Pophale) SiO2 
 PCOD8171459
Probable space group: P N A 21
;
_chemical_formula_sum "Si O2"
_cell_formula_units_Z 28
_cell_length_a 13.233556
_cell_length_b 13.180963
_cell_length_c 7.124152
_cell_angle_alpha 90.000000
_cell_angle_beta 90.000000
_cell_angle_gamma 90.000000
_cell_volume 1242.673043
_symmetry_space_group_name_H-M "P N A 21"
_symmetry_group_IT_number 33
_symmetry_cell_setting 'orthorhombic'
loop_
_space_group_symop_operation_xyz
x,y,z
-x,-y,1/2+z
1/2-x,1/2+y,1/2+z
1/2+x,1/2-y,z
loop_
_atom_site_type_symbol
_atom_site_label
_atom_site_fract_x
_atom_site_fract_y
_atom_site_fract_z
Si Si1 0.902129 0.083831 0.344210
Si Si2 0.427134 0.067848 0.732997
Si Si3 0.031770 0.902260 0.427868
Si Si4 0.666743 0.271832 0.886434
Si Si5 0.148056 0.776948 0.159905
Si Si6 0.732121 0.955505 0.525641
Si Si7 0.860296 0.543088 0.373931
O O1 0.877576 0.189558 0.448417
O O2 0.001195 0.021197 0.415052
O O3 0.806924 0.011358 0.380100
O O4 0.922585 0.117669 0.132500
O O5 0.429677 0.188857 0.713249
O O6 0.376424 0.036307 0.928718
O O7 0.540807 0.028928 0.745017
O O8 0.364509 0.026477 0.555964
O O9 0.939402 0.829327 0.363681
O O10 0.123715 0.875968 0.288387
O O11 0.735559 0.261072 0.694570
O O12 0.732038 0.337339 0.037914
O O13 0.650294 0.156966 0.954983
O O14 0.729223 0.006090 0.732896
#
# Coordination Sequence:
#
# PCOD8171459 Si02
#       7
#     4   4   4   4   4   4   4
#     4  11  23  41  73 101 136 184 234 293 354 414
#     4  11  25  40  68  97 136 184 223 286 350 420
#     4  11  23  43  69 103 137 180 235 293 348 420
#     4  10  24  44  69  94 144 179 222 299 343 414
#     4  11  23  44  65 101 139 182 229 289 354 419
#     4  10  24  45  64 102 135 179 240 282 355 424
#     4  12  22  45  70  96 139 182 229 288 352 415
#
# _framework density 22.532074999999999
#
# number of rings (size 3 to 8) (size 9 to 14) (size 15 to 20)
#    0.000    1.143    5.714    0.000    2.000    3.429 
#    0.000    1.429    0.000    0.000    0.000    0.000 
#    0.000    0.000    0.000    0.000    0.000    0.000 
#
# Total GULP energy -346956.904529 kJ/mol
# GULP energy per Si atom -12391.318019 kJ/mol
# Density = 2.248079 g / cm^3
# Si number density = 22.532075 Si / 1000 Ang^3
#
#
#
# Elastic Constant Matrix: (Units=GPa)
#
#
# Indices 1 2 3 4 5 6 
#
# 1 72.4418 19.4108 24.4049 0.0000 0.0000 0.0000
# 2 19.4108 77.6455 21.1969 0.0000 0.0000 0.0000
# 3 24.4049 21.1969 85.2856 0.0000 0.0000 0.0000
# 4 0.0000 0.0000 0.0000 33.8428 0.0000 0.0000
# 5 0.0000 0.0000 0.0000 0.0000 23.0254 0.0000
# 6 0.0000 0.0000 0.0000 0.0000 0.0000 33.6389
#
#
#
# Elastic Compliance Matrix: (Units=1/GPa)
#
#
# Indices 1 2 3 4 5 6 
#
# 1 0.015874 -0.002927 -0.003815 0.000000 0.000000 0.000000
# 2 -0.002927 0.014356 -0.002731 0.000000 0.000000 0.000000
# 3 -0.003815 -0.002731 0.013496 0.000000 0.000000 0.000000
# 4 0.000000 0.000000 0.000000 0.029548 0.000000 0.000000
# 5 0.000000 0.000000 0.000000 0.000000 0.043430 0.000000
# 6 0.000000 0.000000 0.000000 0.000000 0.000000 0.029727
#
#
# Mechanical properties :
#
#
# Convention : Reuss Voigt Hill
#
# Bulk Modulus (GPa) = 40.35373 40.59978 40.47675
# Shear Modulus (GPa) = 28.79580 29.45877 29.12729
#
# Velocity S-wave (km/s) = 3.57878 3.61974 3.59932
# Velocity P-wave (km/s) = 5.91821 5.96052 5.93940
#
# Compressibility (1/GPa) = 0.02478086
#
# Stress axis : x y z
#
# Youngs Moduli (GPa) = 62.99753 69.65645 74.09821
#
# Poissons Ratio (x) = 0.20387 0.28268
# Poissons Ratio (y) = 0.18438 0.20233
# Poissons Ratio (z) = 0.24033 0.19020
#
# Static dielectric constant tensor:
#      x y z
#    x 4.103520 0.000000 0.000000 
#    y 0.000000 4.220380 0.000000 
#    z 0.000000 0.000000 3.692060 
# 
# 
# High freq. dielectric constant tensor:
#      x y z
#    x 1.898010 0.000000 0.000000 
#    y 0.000000 1.894380 0.000000 
#    z 0.000000 0.000000 1.863130 
# 
# From -- ./inp_files/1433.got.cif
#   From: 2010.03.12/outbox.cif.g09.slc.cpg/sg33_1_cif.got.tgz:1433.got - 2010.04.14 01:49:19.
