data_PCOD8171464
_publ_section_title
;
Structure prediction by ZEFSAII (Michael W. Deem and Ramdas Pophale) SiO2 
 PCOD8171464
Probable space group: P N A 21
;
_chemical_formula_sum "Si O2"
_cell_formula_units_Z 20
_cell_length_a 10.207701
_cell_length_b 9.053680
_cell_length_c 9.524153
_cell_angle_alpha 90.000000
_cell_angle_beta 90.000000
_cell_angle_gamma 90.000000
_cell_volume 880.196109
_symmetry_space_group_name_H-M "P N A 21"
_symmetry_group_IT_number 33
_symmetry_cell_setting 'orthorhombic'
loop_
_space_group_symop_operation_xyz
x,y,z
-x,-y,1/2+z
1/2-x,1/2+y,1/2+z
1/2+x,1/2-y,z
loop_
_atom_site_type_symbol
_atom_site_label
_atom_site_fract_x
_atom_site_fract_y
_atom_site_fract_z
Si Si1 0.688882 0.842635 0.508190
Si Si2 0.846072 0.102370 0.586249
Si Si3 0.426661 0.816841 0.644619
Si Si4 0.785525 0.403695 0.700869
Si Si5 0.529605 0.546597 0.790582
O O1 0.535802 0.807449 0.523791
O O2 0.785563 0.735022 0.591607
O O3 0.720422 0.817585 0.346514
O O4 0.712703 0.009852 0.564703
O O5 0.806043 0.276052 0.582041
O O6 0.938773 0.044062 0.456974
O O7 0.913577 0.061992 0.736093
O O8 0.483052 0.715013 0.768492
O O9 0.408568 0.984471 0.697502
O O10 0.651910 0.498727 0.691222
#
# Coordination Sequence:
#
# PCOD8171464 Si02
#       5
#     4   4   4   4   4
#     4  10  25  44  67 102 138 183 227 290 347 405
#     4  10  25  43  70  98 140 177 238 279 350 410
#     4  11  23  46  69 100 143 181 229 290 345 410
#     4  11  25  41  71 100 134 186 234 275 352 415
#     4  10  24  46  63 104 137 181 228 290 340 410
#
# _framework density 22.722207999999998
#
# number of rings (size 3 to 8) (size 9 to 14) (size 15 to 20)
#    0.000    1.600    2.000    0.000   14.000    1.600 
#    0.000    0.000    0.000    0.000    0.000    0.000 
#    0.000    0.000    0.000    0.000    0.000    0.000 
#
# Total GULP energy -247779.353213 kJ/mol
# GULP energy per Si atom -12388.967661 kJ/mol
# Density = 2.267049 g / cm^3
# Si number density = 22.722208 Si / 1000 Ang^3
#
#
#
# Elastic Constant Matrix: (Units=GPa)
#
#
# Indices 1 2 3 4 5 6 
#
# 1 81.3740 35.4627 15.3202 0.0000 0.0000 0.0000
# 2 35.4627 137.5389 28.1349 0.0000 0.0000 0.0000
# 3 15.3202 28.1349 67.2436 0.0000 0.0000 0.0000
# 4 0.0000 0.0000 0.0000 23.9943 0.0000 0.0000
# 5 0.0000 0.0000 0.0000 0.0000 32.2198 0.0000
# 6 0.0000 0.0000 0.0000 0.0000 0.0000 12.7498
#
#
#
# Elastic Compliance Matrix: (Units=1/GPa)
#
#
# Indices 1 2 3 4 5 6 
#
# 1 0.014050 -0.003246 -0.001843 0.000000 0.000000 0.000000
# 2 -0.003246 0.008701 -0.002901 0.000000 0.000000 0.000000
# 3 -0.001843 -0.002901 0.016505 0.000000 0.000000 0.000000
# 4 0.000000 0.000000 0.000000 0.041677 0.000000 0.000000
# 5 0.000000 0.000000 0.000000 0.000000 0.031037 0.000000
# 6 0.000000 0.000000 0.000000 0.000000 0.000000 0.078433
#
#
# Mechanical properties :
#
#
# Convention : Reuss Voigt Hill
#
# Bulk Modulus (GPa) = 42.96143 49.33246 46.14694
# Shear Modulus (GPa) = 23.34909 27.60869 25.47889
#
# Velocity S-wave (km/s) = 3.20908 3.48954 3.35225
# Velocity P-wave (km/s) = 5.71657 6.16394 5.94447
#
# Compressibility (1/GPa) = 0.02327670
#
# Stress axis : x y z
#
# Youngs Moduli (GPa) = 71.17227 114.92970 60.58764
#
# Poissons Ratio (x) = 0.37303 0.11167
# Poissons Ratio (y) = 0.23100 0.17577
# Poissons Ratio (z) = 0.13118 0.33341
#
# Static dielectric constant tensor:
#      x y z
#    x 4.148370 0.000000 0.000000 
#    y 0.000000 4.331090 0.000000 
#    z 0.000000 0.000000 3.698660 
# 
# 
# High freq. dielectric constant tensor:
#      x y z
#    x 1.895830 0.000000 0.000000 
#    y 0.000000 1.906740 0.000000 
#    z 0.000000 0.000000 1.874050 
# 
# From -- ./inp_files/2939.got.cif
#   From: 2010.03.12/outbox.cif.g09.slc.cpg/sg33_2_cif.got.tgz:2939.got - 2010.04.14 01:49:19.
