data_PCOD8171545
_publ_section_title
;
Structure prediction by ZEFSAII (Michael W. Deem and Ramdas Pophale) SiO2 
 PCOD8171545
Probable space group: P N A 21
;
_chemical_formula_sum "Si O2"
_cell_formula_units_Z 32
_cell_length_a 12.063837
_cell_length_b 5.295508
_cell_length_c 21.548870
_cell_angle_alpha 90.000000
_cell_angle_beta 90.000000
_cell_angle_gamma 90.000000
_cell_volume 1376.631143
_symmetry_space_group_name_H-M "P N A 21"
_symmetry_group_IT_number 33
_symmetry_cell_setting 'orthorhombic'
loop_
_space_group_symop_operation_xyz
x,y,z
-x,-y,1/2+z
1/2-x,1/2+y,1/2+z
1/2+x,1/2-y,z
loop_
_atom_site_type_symbol
_atom_site_label
_atom_site_fract_x
_atom_site_fract_y
_atom_site_fract_z
Si Si1 0.244266 0.813876 0.879460
Si Si2 0.849386 0.696945 0.522331
Si Si3 0.253468 0.160978 0.142002
Si Si4 0.649661 0.824627 0.191574
Si Si5 0.037625 0.035003 0.919306
Si Si6 0.149853 0.169096 0.501283
Si Si7 0.352203 0.303629 0.829975
Si Si8 0.035302 0.466047 0.600146
O O1 0.286758 0.568683 0.841401
O O2 0.109113 0.809715 0.886326
O O3 0.272445 0.072158 0.845118
O O4 0.301513 0.844475 0.946919
O O5 0.816937 0.885005 0.578330
O O6 0.868239 0.797600 0.452968
O O7 0.740731 0.533126 0.517283
O O8 0.960728 0.556927 0.543035
O O9 0.210389 0.404872 0.180708
O O10 0.234237 0.901845 0.178530
O O11 0.387485 0.184578 0.131673
O O12 0.609272 0.760135 0.260715
O O13 0.538043 0.819527 0.150613
O O14 0.964842 0.190008 0.870172
O O15 0.964870 0.943294 0.976756
O O16 0.127798 0.292616 0.567644
#
# Coordination Sequence:
#
# PCOD8171545 Si02
#       8
#     4   4   4   4   4   4   4   4
#     4  11  24  43  68 101 137 178 225 283 342 407
#     4  11  22  40  67 104 142 175 221 283 345 419
#     4  11  24  43  68 101 137 178 225 283 342 407
#     4  11  26  47  69  97 136 180 238 289 332 399
#     4  11  22  40  70 100 138 183 224 275 350 411
#     4  11  22  40  67 104 142 175 221 283 345 419
#     4  11  26  47  69  97 136 180 238 289 332 399
#     4  11  22  40  70 100 138 183 224 275 350 411
#
# _framework density 23.245152999999998
#
# number of rings (size 3 to 8) (size 9 to 14) (size 15 to 20)
#    0.000    1.000    0.000    7.500    0.000    7.000 
#    0.000    7.500    0.000    0.000    0.000    0.000 
#    0.000    0.000    0.000    0.000    0.000    0.000 
#
# Total GULP energy -396536.393323 kJ/mol
# GULP energy per Si atom -12391.762291 kJ/mol
# Density = 2.319225 g / cm^3
# Si number density = 23.245153 Si / 1000 Ang^3
#
#
#
# Elastic Constant Matrix: (Units=GPa)
#
#
# Indices 1 2 3 4 5 6 
#
# 1 115.0149 45.2871 32.2012 0.0000 0.0000 0.0000
# 2 45.2871 123.7618 38.2823 0.0000 0.0000 0.0000
# 3 32.2012 38.2823 126.0595 0.0000 0.0000 0.0000
# 4 0.0000 0.0000 0.0000 24.3377 0.0000 0.0000
# 5 0.0000 0.0000 0.0000 0.0000 22.6943 0.0000
# 6 0.0000 0.0000 0.0000 0.0000 0.0000 28.8207
#
#
#
# Elastic Compliance Matrix: (Units=1/GPa)
#
#
# Indices 1 2 3 4 5 6 
#
# 1 0.010466 -0.003314 -0.001667 0.000000 0.000000 0.000000
# 2 -0.003314 0.009967 -0.002180 0.000000 0.000000 0.000000
# 3 -0.001667 -0.002180 0.009021 0.000000 0.000000 0.000000
# 4 0.000000 0.000000 0.000000 0.041089 0.000000 0.000000
# 5 0.000000 0.000000 0.000000 0.000000 0.044064 0.000000
# 6 0.000000 0.000000 0.000000 0.000000 0.000000 0.034697
#
#
# Mechanical properties :
#
#
# Convention : Reuss Voigt Hill
#
# Bulk Modulus (GPa) = 66.08917 66.26414 66.17666
# Shear Modulus (GPa) = 29.64357 31.77491 30.70924
#
# Velocity S-wave (km/s) = 3.57495 3.70124 3.63864
# Velocity P-wave (km/s) = 6.74785 6.84354 6.79586
#
# Compressibility (1/GPa) = 0.01513107
#
# Stress axis : x y z
#
# Youngs Moduli (GPa) = 95.54559 100.32937 110.85580
#
# Poissons Ratio (x) = 0.33251 0.18481
# Poissons Ratio (y) = 0.31665 0.24170
# Poissons Ratio (z) = 0.15928 0.21875
#
# Static dielectric constant tensor:
#      x y z
#    x 4.326720 0.000000 0.000000 
#    y 0.000000 4.073260 0.000000 
#    z 0.000000 0.000000 5.366310 
# 
# 
# High freq. dielectric constant tensor:
#      x y z
#    x 1.937400 0.000000 0.000000 
#    y 0.000000 1.910170 0.000000 
#    z 0.000000 0.000000 1.918130 
# 
# From -- ./inp_files/9148.got.cif
#   From: 2010.03.12/outbox.cif.g09.slc.cpg/sg33_5_cif.got.tgz:9148.got - 2010.04.14 01:49:19.
