data_PCOD8171610
_publ_section_title
;
Structure prediction by ZEFSAII (Michael W. Deem and Ramdas Pophale) SiO2 
 PCOD8171610
Probable space group: P N A 21
;
_chemical_formula_sum "Si O2"
_cell_formula_units_Z 28
_cell_length_a 17.436029
_cell_length_b 12.634815
_cell_length_c 5.411294
_cell_angle_alpha 90.000000
_cell_angle_beta 90.000000
_cell_angle_gamma 90.000000
_cell_volume 1192.113484
_symmetry_space_group_name_H-M "P N A 21"
_symmetry_group_IT_number 33
_symmetry_cell_setting 'orthorhombic'
loop_
_space_group_symop_operation_xyz
x,y,z
-x,-y,1/2+z
1/2-x,1/2+y,1/2+z
1/2+x,1/2-y,z
loop_
_atom_site_type_symbol
_atom_site_label
_atom_site_fract_x
_atom_site_fract_y
_atom_site_fract_z
Si Si1 0.576343 0.250000 0.011000
Si Si2 0.210329 0.173353 0.307286
Si Si3 0.478273 0.447816 0.093338
Si Si4 0.305777 0.456183 0.054133
Si Si5 0.710329 0.173354 0.714712
Si Si6 0.805777 0.456183 0.967862
Si Si7 0.478273 0.052183 0.928663
O O1 0.633611 0.261342 0.242602
O O2 0.522043 0.349393 0.972146
O O3 0.522043 0.150607 0.049856
O O4 0.633610 0.238658 0.779396
O O5 0.251154 0.249999 0.511001
O O6 0.184299 0.054369 0.370059
O O7 0.270226 0.151723 0.084238
O O8 0.515737 0.471112 0.361614
O O9 0.389374 0.424428 0.154549
O O10 0.250000 0.500002 0.260995
O O11 0.270226 0.348277 0.937762
O O12 0.684300 0.054371 0.651933
O O13 0.889374 0.424428 0.867450
O O14 0.484263 0.971112 0.160387
#
# Coordination Sequence:
#
# PCOD8171610 Si02
#       7
#     4   4   4   4   4   4   4
#     4  12  26  46  74 106 152 204 256 314 394 454
#     4  11  23  44  72 105 144 196 255 310 383 457
#     4  12  27  49  76 113 154 198 257 320 385 457
#     4  11  25  46  73 107 151 197 252 320 379 462
#     4  11  23  44  72 105 144 196 255 310 383 457
#     4  11  25  46  73 107 151 197 252 320 379 462
#     4  12  27  49  76 113 154 198 257 320 385 457
#
# _framework density 23.487697000000001
#
# number of rings (size 3 to 8) (size 9 to 14) (size 15 to 20)
#    0.000    0.571    2.857    5.143    4.000    3.429 
#    0.000    0.000    0.000    0.000    0.000    0.000 
#    0.000    0.000    0.000    0.000    0.000    0.000 
#
# Total GULP energy -346926.381018 kJ/mol
# GULP energy per Si atom -12390.227894 kJ/mol
# Density = 2.343424 g / cm^3
# Si number density = 23.487697 Si / 1000 Ang^3
#
#
#
# Elastic Constant Matrix: (Units=GPa)
#
#
# Indices 1 2 3 4 5 6 
#
# 1 194.9979 45.6553 54.7427 0.0000 0.0000 0.0000
# 2 45.6553 94.8111 20.2699 0.0000 0.0000 0.0000
# 3 54.7427 20.2699 123.0762 0.0000 0.0000 0.0000
# 4 0.0000 0.0000 0.0000 48.7913 0.0000 0.0000
# 5 0.0000 0.0000 0.0000 0.0000 23.1692 0.0000
# 6 0.0000 0.0000 0.0000 0.0000 0.0000 44.6655
#
#
#
# Elastic Compliance Matrix: (Units=1/GPa)
#
#
# Indices 1 2 3 4 5 6 
#
# 1 0.006411 -0.002568 -0.002429 0.000000 0.000000 0.000000
# 2 -0.002568 0.011961 -0.000828 0.000000 0.000000 0.000000
# 3 -0.002429 -0.000828 0.009342 0.000000 0.000000 0.000000
# 4 0.000000 0.000000 0.000000 0.020495 0.000000 0.000000
# 5 0.000000 0.000000 0.000000 0.000000 0.043161 0.000000
# 6 0.000000 0.000000 0.000000 0.000000 0.000000 0.022389
#
#
# Mechanical properties :
#
#
# Convention : Reuss Voigt Hill
#
# Bulk Modulus (GPa) = 62.24736 72.69121 67.46929
# Shear Modulus (GPa) = 38.23723 42.80636 40.52179
#
# Velocity S-wave (km/s) = 4.03919 4.27371 4.15810
# Velocity P-wave (km/s) = 6.95076 7.44101 7.20006
#
# Compressibility (1/GPa) = 0.01606494
#
# Stress axis : x y z
#
# Youngs Moduli (GPa) = 155.97307 83.60605 107.04769
#
# Poissons Ratio (x) = 0.21471 0.25999
# Poissons Ratio (y) = 0.40055 0.08860
# Poissons Ratio (z) = 0.37882 0.06920
#
# Static dielectric constant tensor:
#      x y z
#    x 4.326060 0.000000 0.000000 
#    y 0.000000 2.889040 0.000000 
#    z 0.000000 0.000000 5.052990 
# 
# 
# High freq. dielectric constant tensor:
#      x y z
#    x 1.933900 0.000000 0.000000 
#    y 0.000000 1.935390 0.000000 
#    z 0.000000 0.000000 1.929090 
# 
# From -- ./inp_files/1743.got.cif
#   From: 2010.03.12/outbox.cif.g09.slc.cpg/sg33_1_cif.got.tgz:1743.got - 2010.04.14 01:49:19.
