data_PCOD8171371
_publ_section_title
;
Structure prediction by ZEFSAII (Michael W. Deem and Ramdas Pophale) SiO2 
 PCOD8171371
Probable space group: P N A 21
;
_chemical_formula_sum "Si O2"
_cell_formula_units_Z 28
_cell_length_a 13.225222
_cell_length_b 11.069290
_cell_length_c 8.563843
_cell_angle_alpha 90.000000
_cell_angle_beta 90.000000
_cell_angle_gamma 90.000000
_cell_volume 1253.693670
_symmetry_space_group_name_H-M "P N A 21"
_symmetry_group_IT_number 33
_symmetry_cell_setting 'orthorhombic'
loop_
_space_group_symop_operation_xyz
x,y,z
-x,-y,1/2+z
1/2-x,1/2+y,1/2+z
1/2+x,1/2-y,z
loop_
_atom_site_type_symbol
_atom_site_label
_atom_site_fract_x
_atom_site_fract_y
_atom_site_fract_z
Si Si1 0.597280 0.462723 0.652960
Si Si2 0.308996 0.014482 0.558571
Si Si3 0.144749 0.443500 0.717639
Si Si4 0.504161 0.140335 0.147836
Si Si5 0.492784 0.354146 0.362212
Si Si6 0.506841 0.256468 0.821549
Si Si7 0.829270 0.203631 0.598464
O O1 0.707200 0.525106 0.648492
O O2 0.575800 0.408074 0.480439
O O3 0.516793 0.564121 0.706722
O O4 0.591864 0.357613 0.784418
O O5 0.306371 0.158527 0.560696
O O6 0.303706 0.967470 0.382966
O O7 0.404147 0.954602 0.644527
O O8 0.103173 0.568908 0.644742
O O9 0.043029 0.364448 0.734521
O O10 0.227655 0.375336 0.613574
O O11 0.519459 0.217753 0.306837
O O12 0.500761 0.234296 0.005399
O O13 0.386777 0.354867 0.452923
O O14 0.399192 0.300875 0.753909
#
# Coordination Sequence:
#
# PCOD8171371 Si02
#       7
#     4   4   4   4   4   4   4
#     4  11  25  46  68 101 143 185 233 290 357 417
#     4  11  24  43  71 103 141 180 236 286 353 416
#     4  11  23  43  71 106 135 183 232 294 344 420
#     4  11  24  46  73 102 138 186 239 289 351 414
#     4  11  26  45  70 100 144 187 232 292 356 414
#     4  10  23  43  70  96 142 182 231 284 353 410
#     4  11  23  44  69 102 139 185 229 289 354 413
#
# _framework density 22.334005000000001
#
# number of rings (size 3 to 8) (size 9 to 14) (size 15 to 20)
#    0.000    1.143    4.286    0.857    6.000    2.286 
#    0.000    0.000    0.000    0.000    0.000    0.000 
#    0.000    0.000    0.000    0.000    0.000    0.000 
#
# Total GULP energy -347131.883368 kJ/mol
# GULP energy per Si atom -12397.567263 kJ/mol
# Density = 2.228317 g / cm^3
# Si number density = 22.334005 Si / 1000 Ang^3
#
#
#
# Elastic Constant Matrix: (Units=GPa)
#
#
# Indices 1 2 3 4 5 6 
#
# 1 95.5743 42.3997 47.0542 0.0000 0.0000 0.0000
# 2 42.3997 111.4814 44.3069 0.0000 0.0000 0.0000
# 3 47.0542 44.3069 76.6921 0.0000 0.0000 0.0000
# 4 0.0000 0.0000 0.0000 45.1492 0.0000 0.0000
# 5 0.0000 0.0000 0.0000 0.0000 16.2626 0.0000
# 6 0.0000 0.0000 0.0000 0.0000 0.0000 31.7673
#
#
#
# Elastic Compliance Matrix: (Units=1/GPa)
#
#
# Indices 1 2 3 4 5 6 
#
# 1 0.015623 -0.002768 -0.007986 0.000000 0.000000 0.000000
# 2 -0.002768 0.012134 -0.005312 0.000000 0.000000 0.000000
# 3 -0.007986 -0.005312 0.021008 0.000000 0.000000 0.000000
# 4 0.000000 0.000000 0.000000 0.022149 0.000000 0.000000
# 5 0.000000 0.000000 0.000000 0.000000 0.061491 0.000000
# 6 0.000000 0.000000 0.000000 0.000000 0.000000 0.031479
#
#
# Mechanical properties :
#
#
# Convention : Reuss Voigt Hill
#
# Bulk Modulus (GPa) = 60.12250 61.25214 60.68732
# Shear Modulus (GPa) = 24.80657 28.63496 26.72076
#
# Velocity S-wave (km/s) = 3.33635 3.58456 3.46268
# Velocity P-wave (km/s) = 6.46682 6.67961 6.57407
#
# Compressibility (1/GPa) = 0.01663271
#
# Stress axis : x y z
#
# Youngs Moduli (GPa) = 64.00876 82.41358 47.60099
#
# Poissons Ratio (x) = 0.22810 0.38016
# Poissons Ratio (y) = 0.17716 0.25285
# Poissons Ratio (z) = 0.51120 0.43777
#
# Static dielectric constant tensor:
#      x y z
#    x 4.080700 0.000000 0.000000 
#    y 0.000000 4.168890 0.000000 
#    z 0.000000 0.000000 3.861700 
# 
# 
# High freq. dielectric constant tensor:
#      x y z
#    x 1.871220 0.000000 0.000000 
#    y 0.000000 1.893660 0.000000 
#    z 0.000000 0.000000 1.873420 
# 
# From -- ./inp_files/3863.got.cif
#   From: 2010.03.12/outbox.cif.g09.slc.cpg/sg33_2_cif.got.tgz:3863.got - 2010.04.14 01:49:19.
