data_PCOD8171376
_publ_section_title
;
Structure prediction by ZEFSAII (Michael W. Deem and Ramdas Pophale) SiO2 
 PCOD8171376
Probable space group: P N A 21
;
_chemical_formula_sum "Si O2"
_cell_formula_units_Z 32
_cell_length_a 18.795913
_cell_length_b 12.506278
_cell_length_c 6.466150
_cell_angle_alpha 90.000000
_cell_angle_beta 90.000000
_cell_angle_gamma 90.000000
_cell_volume 1519.977921
_symmetry_space_group_name_H-M "P N A 21"
_symmetry_group_IT_number 33
_symmetry_cell_setting 'orthorhombic'
loop_
_space_group_symop_operation_xyz
x,y,z
-x,-y,1/2+z
1/2-x,1/2+y,1/2+z
1/2+x,1/2-y,z
loop_
_atom_site_type_symbol
_atom_site_label
_atom_site_fract_x
_atom_site_fract_y
_atom_site_fract_z
Si Si1 0.200812 0.380715 0.417050
Si Si2 0.200812 0.619285 0.500967
Si Si3 0.162844 0.759316 0.858841
Si Si4 0.931287 0.889707 0.852309
Si Si5 0.837156 0.759316 0.559176
Si Si6 0.925220 0.294801 0.745376
Si Si7 0.431287 0.389707 0.065708
Si Si8 0.925220 0.705199 0.172641
O O1 0.228436 0.500000 0.459009
O O2 0.265486 0.300348 0.472081
O O3 0.177766 0.352432 0.181239
O O4 0.133573 0.368661 0.567835
O O5 0.177766 0.647568 0.736778
O O6 0.265486 0.699652 0.445936
O O7 0.133573 0.631339 0.350182
O O8 0.136368 0.849454 0.697560
O O9 0.101978 0.742366 0.023710
O O10 0.863632 0.849454 0.720457
O O11 0.000000 0.905215 0.709009
O O12 0.946832 0.805948 0.033116
O O13 0.908977 0.000000 0.959009
O O14 0.898022 0.742366 0.394307
O O15 1.000000 0.358234 0.709009
O O16 0.946832 0.194052 0.884901
#
# Coordination Sequence:
#
# PCOD8171376 Si02
#       8
#     4   4   4   4   4   4   4   4
#     4  10  24  43  64  96 129 171 219 271 324 385
#     4  10  24  43  64  96 129 171 219 271 324 385
#     4  10  23  44  64  94 131 169 218 268 326 393
#     4  11  23  36  61  97 130 169 213 267 334 397
#     4  10  23  44  64  94 131 169 218 268 326 393
#     4  11  22  42  65  91 131 171 213 271 323 387
#     4  11  23  36  61  97 130 169 213 267 334 397
#     4  11  22  42  65  91 131 171 213 271 323 387
#
# _framework density 21.052938000000001
#
# number of rings (size 3 to 8) (size 9 to 14) (size 15 to 20)
#    0.000    1.500    2.500    1.500    3.500    1.000 
#    4.500    0.000    0.000    0.000    0.000    0.000 
#    0.000    0.000    0.000    0.000    0.000    0.000 
#
# Total GULP energy -396751.211572 kJ/mol
# GULP energy per Si atom -12398.475362 kJ/mol
# Density = 2.100502 g / cm^3
# Si number density = 21.052938 Si / 1000 Ang^3
#
#
#
# Elastic Constant Matrix: (Units=GPa)
#
#
# Indices 1 2 3 4 5 6 
#
# 1 145.8009 16.4427 48.0291 0.0000 0.0000 0.0000
# 2 16.4427 83.7833 34.9302 0.0000 0.0000 0.0000
# 3 48.0291 34.9302 104.7794 0.0000 0.0000 0.0000
# 4 0.0000 0.0000 0.0000 12.3124 0.0000 0.0000
# 5 0.0000 0.0000 0.0000 0.0000 34.4466 0.0000
# 6 0.0000 0.0000 0.0000 0.0000 0.0000 22.3812
#
#
#
# Elastic Compliance Matrix: (Units=1/GPa)
#
#
# Indices 1 2 3 4 5 6 
#
# 1 0.008079 -0.000048 -0.003687 0.000000 0.000000 0.000000
# 2 -0.000048 0.013862 -0.004599 0.000000 0.000000 0.000000
# 3 -0.003687 -0.004599 0.012767 0.000000 0.000000 0.000000
# 4 0.000000 0.000000 0.000000 0.081219 0.000000 0.000000
# 5 0.000000 0.000000 0.000000 0.000000 0.029030 0.000000
# 6 0.000000 0.000000 0.000000 0.000000 0.000000 0.044680
#
#
# Mechanical properties :
#
#
# Convention : Reuss Voigt Hill
#
# Bulk Modulus (GPa) = 55.43453 59.24084 57.33768
# Shear Modulus (GPa) = 23.54935 29.49215 26.52075
#
# Velocity S-wave (km/s) = 3.34814 3.74686 3.55310
# Velocity P-wave (km/s) = 6.42922 6.84972 6.64280
#
# Compressibility (1/GPa) = 0.01803930
#
# Stress axis : x y z
#
# Youngs Moduli (GPa) = 123.78255 72.13722 78.32597
#
# Poissons Ratio (x) = 0.00348 0.28879
# Poissons Ratio (y) = 0.00598 0.36023
# Poissons Ratio (z) = 0.45639 0.33177
#
# Static dielectric constant tensor:
#      x y z
#    x 3.913890 0.000000 0.000000 
#    y 0.000000 3.459610 0.000000 
#    z 0.000000 0.000000 3.924500 
# 
# 
# High freq. dielectric constant tensor:
#      x y z
#    x 1.846730 0.000000 0.000000 
#    y 0.000000 1.792770 0.000000 
#    z 0.000000 0.000000 1.834120 
# 
# From -- ./inp_files/2030.got.cif
#   From: 2010.03.12/outbox.cif.g09.slc.cpg/sg33_2_cif.got.tgz:2030.got - 2010.04.14 01:49:19.
