data_PCOD8171644
_publ_section_title
;
Structure prediction by ZEFSAII (Michael W. Deem and Ramdas Pophale) SiO2 
 PCOD8171644
Probable space group: P N A 21
;
_chemical_formula_sum "Si O2"
_cell_formula_units_Z 24
_cell_length_a 9.260466
_cell_length_b 9.642974
_cell_length_c 11.713982
_cell_angle_alpha 90.000000
_cell_angle_beta 90.000000
_cell_angle_gamma 90.000000
_cell_volume 1046.040235
_symmetry_space_group_name_H-M "P N A 21"
_symmetry_group_IT_number 33
_symmetry_cell_setting 'orthorhombic'
loop_
_space_group_symop_operation_xyz
x,y,z
-x,-y,1/2+z
1/2-x,1/2+y,1/2+z
1/2+x,1/2-y,z
loop_
_atom_site_type_symbol
_atom_site_label
_atom_site_fract_x
_atom_site_fract_y
_atom_site_fract_z
Si Si1 0.465955 0.820350 0.626480
Si Si2 0.836971 0.392745 0.328895
Si Si3 0.584038 0.474750 0.174724
Si Si4 0.762100 0.955470 0.206941
Si Si5 0.090419 0.530933 0.431837
Si Si6 0.262270 0.296901 0.539245
O O1 0.567936 0.812076 0.736457
O O2 0.393334 0.670729 0.608388
O O3 0.573553 0.845007 0.520976
O O4 0.341960 0.937395 0.640306
O O5 0.694277 0.468973 0.281393
O O6 0.805114 0.278067 0.423313
O O7 0.932474 0.517074 0.377424
O O8 0.421957 0.485054 0.220598
O O9 0.614427 0.599737 0.086820
O O10 0.706880 0.930139 0.335736
O O11 0.773180 0.811399 0.138904
O O12 0.125209 0.391573 0.505020
#
# Coordination Sequence:
#
# PCOD8171644 Si02
#       6
#     4   4   4   4   4   4
#     4  11  23  50  73 109 151 198 244 313 371 442
#     4  11  23  48  79 104 147 197 243 308 374 439
#     4  12  26  47  78 113 143 194 258 303 376 446
#     4  11  27  46  76 113 148 196 253 305 376 442
#     4  11  24  48  74 104 156 193 244 312 371 440
#     4  12  25  49  78 109 149 200 248 309 372 447
#
# _framework density 22.943669
#
# number of rings (size 3 to 8) (size 9 to 14) (size 15 to 20)
#    0.000    0.667    3.333    5.000    0.000    1.333 
#   12.000    0.000    0.000    0.000    0.000    0.000 
#    0.000    0.000    0.000    0.000    0.000    0.000 
#
# Total GULP energy -297584.364362 kJ/mol
# GULP energy per Si atom -12399.348515 kJ/mol
# Density = 2.289145 g / cm^3
# Si number density = 22.943669 Si / 1000 Ang^3
#
#
#
# Elastic Constant Matrix: (Units=GPa)
#
#
# Indices 1 2 3 4 5 6 
#
# 1 141.9079 33.7083 59.4800 0.0000 0.0000 0.0000
# 2 33.7083 105.1993 66.8673 0.0000 0.0000 0.0000
# 3 59.4800 66.8673 138.8924 0.0000 0.0000 0.0000
# 4 0.0000 0.0000 0.0000 29.7503 0.0000 0.0000
# 5 0.0000 0.0000 0.0000 0.0000 31.7992 0.0000
# 6 0.0000 0.0000 0.0000 0.0000 0.0000 31.7704
#
#
#
# Elastic Compliance Matrix: (Units=1/GPa)
#
#
# Indices 1 2 3 4 5 6 
#
# 1 0.008614 -0.000599 -0.003401 0.000000 0.000000 0.000000
# 2 -0.000599 0.013739 -0.006358 0.000000 0.000000 0.000000
# 3 -0.003401 -0.006358 0.011717 0.000000 0.000000 0.000000
# 4 0.000000 0.000000 0.000000 0.033613 0.000000 0.000000
# 5 0.000000 0.000000 0.000000 0.000000 0.031447 0.000000
# 6 0.000000 0.000000 0.000000 0.000000 0.000000 0.031476
#
#
# Mechanical properties :
#
#
# Convention : Reuss Voigt Hill
#
# Bulk Modulus (GPa) = 74.87528 78.45676 76.66602
# Shear Modulus (GPa) = 32.09785 33.72692 32.91238
#
# Velocity S-wave (km/s) = 3.74436 3.83820 3.79157
# Velocity P-wave (km/s) = 7.16930 7.34248 7.25641
#
# Compressibility (1/GPa) = 0.01335554
#
# Stress axis : x y z
#
# Youngs Moduli (GPa) = 116.08343 72.78622 85.34448
#
# Poissons Ratio (x) = 0.04357 0.29025
# Poissons Ratio (y) = 0.06948 0.54262
# Poissons Ratio (z) = 0.39480 0.46278
#
# Static dielectric constant tensor:
#      x y z
#    x 4.265350 0.000000 0.000000 
#    y 0.000000 4.094310 0.000000 
#    z 0.000000 0.000000 4.270950 
# 
# 
# High freq. dielectric constant tensor:
#      x y z
#    x 1.917150 0.000000 0.000000 
#    y 0.000000 1.903930 0.000000 
#    z 0.000000 0.000000 1.911110 
# 
# From -- ./inp_files/5757.got.cif
#   From: 2010.03.12/outbox.cif.g09.slc.cpg/sg33_3_cif.got.tgz:5757.got - 2010.04.14 01:49:19.
