data_PCOD8171060
_publ_section_title
;
Structure prediction by ZEFSAII (Michael W. Deem and Ramdas Pophale) SiO2 
 PCOD8171060
Probable space group: P N A 21
;
_chemical_formula_sum "Si O2"
_cell_formula_units_Z 32
_cell_length_a 13.402322
_cell_length_b 14.459767
_cell_length_c 8.773293
_cell_angle_alpha 90.000000
_cell_angle_beta 90.000000
_cell_angle_gamma 90.000000
_cell_volume 1700.215521
_symmetry_space_group_name_H-M "P N A 21"
_symmetry_group_IT_number 33
_symmetry_cell_setting 'orthorhombic'
loop_
_space_group_symop_operation_xyz
x,y,z
-x,-y,1/2+z
1/2-x,1/2+y,1/2+z
1/2+x,1/2-y,z
loop_
_atom_site_type_symbol
_atom_site_label
_atom_site_fract_x
_atom_site_fract_y
_atom_site_fract_z
Si Si1 0.508265 0.606985 0.589180
Si Si2 0.019199 0.400628 0.100022
Si Si3 0.568695 0.913668 0.272480
Si Si4 0.669753 0.264037 0.100422
Si Si5 0.732705 0.322907 0.778589
Si Si6 0.478174 0.589130 0.238109
Si Si7 0.626597 0.765267 0.740690
Si Si8 0.603672 0.742201 0.093547
O O1 0.399384 0.646807 0.628186
O O2 0.516512 0.589078 0.410204
O O3 0.527906 0.515112 0.682715
O O4 0.591487 0.681381 0.633836
O O5 0.050054 0.496587 0.173012
O O6 0.109830 0.330254 0.122822
O O7 0.920857 0.361029 0.182098
O O8 0.998595 0.416316 0.922264
O O9 0.687134 0.905462 0.312279
O O10 0.537123 0.823118 0.173227
O O11 0.754455 0.270920 0.228448
O O12 0.716438 0.264878 0.931986
O O13 0.630275 0.365161 0.716356
O O14 0.781415 0.253602 0.652203
O O15 0.559412 0.643154 0.138144
O O16 0.595519 0.749414 0.913433
#
# Coordination Sequence:
#
# PCOD8171060 Si02
#       8
#     4   4   4   4   4   4   4   4
#     4  10  23  37  64  90 118 165 201 259 301 371
#     4  11  22  39  66  89 124 163 200 265 301 374
#     4  10  21  41  60  93 120 160 208 247 316 364
#     4  10  21  41  63  88 120 164 205 247 321 356
#     4   9  21  39  63  83 122 157 206 256 294 381
#     4  11  21  42  63  88 125 158 206 256 312 354
#     4  11  21  39  61  88 126 157 205 251 306 372
#     4  10  22  38  60  89 121 162 199 257 305 368
#
# _framework density 18.821144
#
# number of rings (size 3 to 8) (size 9 to 14) (size 15 to 20)
#    0.750    1.000    1.250    4.500    1.750    3.000 
#    0.000    5.000    0.000    0.000    0.000    0.000 
#    0.000    0.000    0.000    0.000    0.000    0.000 
#
# Total GULP energy -396800.495814 kJ/mol
# GULP energy per Si atom -12400.015494 kJ/mol
# Density = 1.877831 g / cm^3
# Si number density = 18.821144 Si / 1000 Ang^3
#
#
#
# Elastic Constant Matrix: (Units=GPa)
#
#
# Indices 1 2 3 4 5 6 
#
# 1 78.9247 6.3084 18.4114 0.0000 0.0000 0.0000
# 2 6.3084 48.0522 0.8536 0.0000 0.0000 0.0000
# 3 18.4114 0.8536 79.8559 0.0000 0.0000 0.0000
# 4 0.0000 0.0000 0.0000 39.3473 0.0000 0.0000
# 5 0.0000 0.0000 0.0000 0.0000 24.0194 0.0000
# 6 0.0000 0.0000 0.0000 0.0000 0.0000 17.0016
#
#
#
# Elastic Compliance Matrix: (Units=1/GPa)
#
#
# Indices 1 2 3 4 5 6 
#
# 1 0.013531 -0.001721 -0.003101 0.000000 0.000000 0.000000
# 2 -0.001721 0.021034 0.000172 0.000000 0.000000 0.000000
# 3 -0.003101 0.000172 0.013236 0.000000 0.000000 0.000000
# 4 0.000000 0.000000 0.000000 0.025415 0.000000 0.000000
# 5 0.000000 0.000000 0.000000 0.000000 0.041633 0.000000
# 6 0.000000 0.000000 0.000000 0.000000 0.000000 0.058818
#
#
# Mechanical properties :
#
#
# Convention : Reuss Voigt Hill
#
# Bulk Modulus (GPa) = 25.97443 28.66442 27.31943
# Shear Modulus (GPa) = 25.53612 28.15762 26.84687
#
# Velocity S-wave (km/s) = 3.68744 3.87209 3.78090
# Velocity P-wave (km/s) = 5.65334 5.93749 5.79716
#
# Compressibility (1/GPa) = 0.03849940
#
# Stress axis : x y z
#
# Youngs Moduli (GPa) = 73.90237 47.54291 75.55291
#
# Poissons Ratio (x) = 0.08184 0.23432
# Poissons Ratio (y) = 0.12721 -0.01300
# Poissons Ratio (z) = 0.22920 -0.00818
#
# Static dielectric constant tensor:
#      x y z
#    x 3.507210 0.000000 0.000000 
#    y 0.000000 3.386740 0.000000 
#    z 0.000000 0.000000 3.399290 
# 
# 
# High freq. dielectric constant tensor:
#      x y z
#    x 1.730310 0.000000 0.000000 
#    y 0.000000 1.727440 0.000000 
#    z 0.000000 0.000000 1.738060 
# 
# From -- ./inp_files/4000.got.cif
#   From: 2010.03.12/outbox.cif.g09.slc.cpg/sg33_2_cif.got.tgz:4000.got - 2010.04.14 01:49:19.
