data_PCOD8171100
_publ_section_title
;
Structure prediction by ZEFSAII (Michael W. Deem and Ramdas Pophale) SiO2 
 PCOD8171100
Probable space group: P N A 21
;
_chemical_formula_sum "Si O2"
_cell_formula_units_Z 28
_cell_length_a 8.963957
_cell_length_b 17.657034
_cell_length_c 8.362335
_cell_angle_alpha 90.000000
_cell_angle_beta 90.000000
_cell_angle_gamma 90.000000
_cell_volume 1323.564406
_symmetry_space_group_name_H-M "P N A 21"
_symmetry_group_IT_number 33
_symmetry_cell_setting 'orthorhombic'
loop_
_space_group_symop_operation_xyz
x,y,z
-x,-y,1/2+z
1/2-x,1/2+y,1/2+z
1/2+x,1/2-y,z
loop_
_atom_site_type_symbol
_atom_site_label
_atom_site_fract_x
_atom_site_fract_y
_atom_site_fract_z
Si Si1 0.901076 0.388541 0.445980
Si Si2 0.395480 0.851132 0.688673
Si Si3 0.829998 0.976078 0.771088
Si Si4 0.602668 0.584264 0.570033
Si Si5 0.095691 0.530354 0.518730
Si Si6 0.337309 0.155908 0.792623
Si Si7 0.941630 0.769913 0.448888
O O1 0.750445 0.400812 0.341171
O O2 0.848379 0.346193 0.602920
O O3 0.035564 0.339072 0.366327
O O4 0.967644 0.472099 0.474182
O O5 0.245296 0.900854 0.683559
O O6 0.528107 0.898192 0.609127
O O7 0.369799 0.769901 0.605462
O O8 0.721658 0.009363 0.630806
O O9 0.984590 0.955713 0.685434
O O10 0.856869 0.035080 0.913998
O O11 0.551321 0.664701 0.504293
O O12 0.164650 0.569222 0.358998
O O13 0.184502 0.196103 0.837187
O O14 0.476452 0.204859 0.850699
#
# Coordination Sequence:
#
# PCOD8171100 Si02
#       7
#     4   4   4   4   4   4   4
#     4  11  24  43  70 101 131 174 235 275 330 411
#     4  10  23  43  67  96 131 185 220 266 336 405
#     4  11  26  40  68 102 134 174 218 288 344 388
#     4  12  25  45  67 101 139 170 225 281 343 400
#     4  10  21  42  70  97 134 174 223 274 330 401
#     4  11  23  44  70  97 133 179 225 274 337 403
#     4  11  24  45  68  92 138 182 218 272 342 402
#
# _framework density 21.154996000000001
#
# number of rings (size 3 to 8) (size 9 to 14) (size 15 to 20)
#    0.000    1.143    4.286    1.714    6.000    0.000 
#    5.143    0.000    0.000    0.000    0.000    0.000 
#    0.000    0.000    0.000    0.000    0.000    0.000 
#
# Total GULP energy -347090.809121 kJ/mol
# GULP energy per Si atom -12396.100326 kJ/mol
# Density = 2.110685 g / cm^3
# Si number density = 21.154996 Si / 1000 Ang^3
#
#
#
# Elastic Constant Matrix: (Units=GPa)
#
#
# Indices 1 2 3 4 5 6 
#
# 1 115.0329 32.6883 56.6999 0.0000 0.0000 0.0000
# 2 32.6883 74.4678 31.9270 0.0000 0.0000 0.0000
# 3 56.6999 31.9270 120.1090 0.0000 0.0000 0.0000
# 4 0.0000 0.0000 0.0000 14.2883 0.0000 0.0000
# 5 0.0000 0.0000 0.0000 0.0000 48.7717 0.0000
# 6 0.0000 0.0000 0.0000 0.0000 0.0000 26.6516
#
#
#
# Elastic Compliance Matrix: (Units=1/GPa)
#
#
# Indices 1 2 3 4 5 6 
#
# 1 0.011967 -0.003195 -0.004800 0.000000 0.000000 0.000000
# 2 -0.003195 0.016009 -0.002747 0.000000 0.000000 0.000000
# 3 -0.004800 -0.002747 0.011322 0.000000 0.000000 0.000000
# 4 0.000000 0.000000 0.000000 0.069987 0.000000 0.000000
# 5 0.000000 0.000000 0.000000 0.000000 0.020504 0.000000
# 6 0.000000 0.000000 0.000000 0.000000 0.000000 0.037521
#
#
# Mechanical properties :
#
#
# Convention : Reuss Voigt Hill
#
# Bulk Modulus (GPa) = 56.13728 61.36001 58.74865
# Shear Modulus (GPa) = 25.67627 30.49528 28.08578
#
# Velocity S-wave (km/s) = 3.48763 3.80085 3.64760
# Velocity P-wave (km/s) = 6.54308 6.95197 6.75062
#
# Compressibility (1/GPa) = 0.01781347
#
# Stress axis : x y z
#
# Youngs Moduli (GPa) = 83.56306 62.46514 88.32425
#
# Poissons Ratio (x) = 0.19958 0.42395
# Poissons Ratio (y) = 0.26699 0.24264
# Poissons Ratio (z) = 0.40110 0.17160
#
# Static dielectric constant tensor:
#      x y z
#    x 3.926750 0.000000 0.000000 
#    y 0.000000 3.686680 0.000000 
#    z 0.000000 0.000000 4.113830 
# 
# 
# High freq. dielectric constant tensor:
#      x y z
#    x 1.842660 0.000000 0.000000 
#    y 0.000000 1.812180 0.000000 
#    z 0.000000 0.000000 1.833780 
# 
# From -- ./inp_files/3207.got.cif
#   From: 2010.03.12/outbox.cif.g09.slc.cpg/sg33_2_cif.got.tgz:3207.got - 2010.04.14 01:49:19.
