data_PCOD8171760
_publ_section_title
;
Structure prediction by ZEFSAII (Michael W. Deem and Ramdas Pophale) SiO2 
 PCOD8171760
Probable space group: P N A 21
;
_chemical_formula_sum "Si O2"
_cell_formula_units_Z 32
_cell_length_a 8.940715
_cell_length_b 14.502564
_cell_length_c 10.930222
_cell_angle_alpha 90.000000
_cell_angle_beta 90.000000
_cell_angle_gamma 90.000000
_cell_volume 1417.248561
_symmetry_space_group_name_H-M "P N A 21"
_symmetry_group_IT_number 33
_symmetry_cell_setting 'orthorhombic'
loop_
_space_group_symop_operation_xyz
x,y,z
-x,-y,1/2+z
1/2-x,1/2+y,1/2+z
1/2+x,1/2-y,z
loop_
_atom_site_type_symbol
_atom_site_label
_atom_site_fract_x
_atom_site_fract_y
_atom_site_fract_z
Si Si1 0.225562 0.580591 0.389780
Si Si2 0.256017 0.938875 0.089718
Si Si3 0.526594 0.969400 0.767033
Si Si4 0.932997 0.739631 0.033021
Si Si5 0.710922 0.825845 0.880736
Si Si6 0.387411 0.269884 0.998156
Si Si7 0.645366 0.204090 0.167912
Si Si8 0.497073 0.357811 0.751437
O O1 0.298807 0.505724 0.481410
O O2 0.067354 0.545240 0.338947
O O3 0.189223 0.673245 0.462703
O O4 0.342300 0.595060 0.277869
O O5 0.312372 0.842688 0.033758
O O6 0.118676 0.926417 0.184141
O O7 0.404014 0.983103 0.148626
O O8 0.665159 0.930345 0.847311
O O9 0.420544 0.883806 0.735764
O O10 0.984990 0.765656 0.169305
O O11 0.844477 0.828582 0.979350
O O12 0.066863 0.722576 0.940321
O O13 0.766520 0.770611 0.761355
O O14 0.432949 0.326383 0.880093
O O15 0.519645 0.259887 0.095072
O O16 0.262686 0.330997 0.066490
#
# Coordination Sequence:
#
# PCOD8171760 Si02
#       8
#     4   4   4   4   4   4   4   4
#     4  12  26  47  68 106 146 187 237 304 366 426
#     4  12  26  47  68 106 146 187 237 304 366 426
#     4  12  27  44  71 106 142 180 240 302 365 420
#     4  12  25  48  76 102 144 191 247 291 354 448
#     4  12  23  46  75 106 136 191 241 292 355 432
#     4  12  25  48  76 102 144 191 247 291 354 448
#     4  12  23  46  75 106 136 191 241 292 355 432
#     4  12  29  46  73 106 144 198 242 296 363 444
#
# _framework density 22.578963000000002
#
# number of rings (size 3 to 8) (size 9 to 14) (size 15 to 20)
#    0.000    0.000    7.500    1.500    3.500    2.000 
#    0.000    0.000    0.000    0.000    0.000    0.000 
#    0.000    0.000    0.000    0.000    0.000    0.000 
#
# Total GULP energy -396813.105682 kJ/mol
# GULP energy per Si atom -12400.409553 kJ/mol
# Density = 2.252757 g / cm^3
# Si number density = 22.578963 Si / 1000 Ang^3
#
#
#
# Elastic Constant Matrix: (Units=GPa)
#
#
# Indices 1 2 3 4 5 6 
#
# 1 91.3755 10.5172 30.4295 0.0000 0.0000 0.0000
# 2 10.5172 48.4375 17.9739 0.0000 0.0000 0.0000
# 3 30.4295 17.9739 95.9056 0.0000 0.0000 0.0000
# 4 0.0000 0.0000 0.0000 29.7043 0.0000 0.0000
# 5 0.0000 0.0000 0.0000 0.0000 52.7631 0.0000
# 6 0.0000 0.0000 0.0000 0.0000 0.0000 36.5172
#
#
#
# Elastic Compliance Matrix: (Units=1/GPa)
#
#
# Indices 1 2 3 4 5 6 
#
# 1 0.012314 -0.001315 -0.003661 0.000000 0.000000 0.000000
# 2 -0.001315 0.022329 -0.003767 0.000000 0.000000 0.000000
# 3 -0.003661 -0.003767 0.012294 0.000000 0.000000 0.000000
# 4 0.000000 0.000000 0.000000 0.033665 0.000000 0.000000
# 5 0.000000 0.000000 0.000000 0.000000 0.018953 0.000000
# 6 0.000000 0.000000 0.000000 0.000000 0.000000 0.027384
#
#
# Mechanical properties :
#
#
# Convention : Reuss Voigt Hill
#
# Bulk Modulus (GPa) = 33.95505 39.28444 36.61975
# Shear Modulus (GPa) = 32.41632 35.58344 33.99988
#
# Velocity S-wave (km/s) = 3.79316 3.97414 3.88470
# Velocity P-wave (km/s) = 5.85278 6.20442 6.03116
#
# Compressibility (1/GPa) = 0.02945070
#
# Stress axis : x y z
#
# Youngs Moduli (GPa) = 81.20634 44.78533 81.33767
#
# Poissons Ratio (x) = 0.05891 0.29775
# Poissons Ratio (y) = 0.10682 0.30643
# Poissons Ratio (z) = 0.29727 0.16872
#
# Static dielectric constant tensor:
#      x y z
#    x 4.451130 0.000000 0.000000 
#    y 0.000000 4.013800 0.000000 
#    z 0.000000 0.000000 4.439930 
# 
# 
# High freq. dielectric constant tensor:
#      x y z
#    x 1.908070 0.000000 0.000000 
#    y 0.000000 1.871200 0.000000 
#    z 0.000000 0.000000 1.910850 
# 
# From -- ./inp_files/5976.got.cif
#   From: 2010.03.12/outbox.cif.g09.slc.cpg/sg33_3_cif.got.tgz:5976.got - 2010.04.14 01:49:19.
