data_PCOD8171855
_publ_section_title
;
Structure prediction by ZEFSAII (Michael W. Deem and Ramdas Pophale) SiO2 
 PCOD8171855
Probable space group: P N N 2
;
_chemical_formula_sum "Si O2"
_cell_formula_units_Z 24
_cell_length_a 16.500856
_cell_length_b 11.725270
_cell_length_c 5.454221
_cell_angle_alpha 90.000000
_cell_angle_beta 90.000000
_cell_angle_gamma 90.000000
_cell_volume 1055.266272
_symmetry_space_group_name_H-M "P N N 2"
_symmetry_group_IT_number 34
_symmetry_cell_setting 'orthorhombic'
loop_
_space_group_symop_operation_xyz
x,y,z
-x,-y,z
1/2-x,1/2+y,1/2+z
1/2+x,1/2-y,1/2+z
loop_
_atom_site_type_symbol
_atom_site_label
_atom_site_fract_x
_atom_site_fract_y
_atom_site_fract_z
Si Si1 0.501504 0.293004 0.897960
Si Si2 0.210817 0.435205 0.064742
Si Si3 0.876671 0.118219 0.762754
Si Si4 0.500000 0.000000 0.208201
Si Si5 0.399062 0.156318 0.536006
Si Si6 0.862505 0.640121 0.556327
Si Si7 0.500000 0.500000 0.561504
O O1 0.444454 0.191395 0.788167
O O2 0.524667 0.384752 0.697045
O O3 0.454105 0.356360 0.104435
O O4 0.584347 0.253138 0.028148
O O5 0.308055 0.434888 0.083573
O O6 0.170827 0.560713 0.072947
O O7 0.192554 0.367964 0.316614
O O8 0.185474 0.366528 0.817279
O O9 0.854044 0.234140 0.914008
O O10 0.912911 0.019107 0.931728
O O11 0.473041 0.108237 0.371827
O O12 0.575918 0.033410 0.041695
#
# Coordination Sequence:
#
# PCOD8171855 Si02
#       7
#     4   4   4   2   4   4   2
#     4  11  22  46  72 104 136 196 251 298 361 442
#     4  11  27  45  70 111 150 180 237 306 379 431
#     4  11  25  49  67 107 144 195 246 295 373 437
#     4  10  18  42  72 102 132 174 244 294 366 424
#     4  10  22  42  73 102 141 187 234 313 358 441
#     4  11  23  43  72 107 139 184 239 304 364 435
#     4  10  26  46  76  96 146 202 250 310 348 456
#
# _framework density 22.743077
#
# number of rings (size 3 to 8) (size 9 to 14) (size 15 to 20)
#    0.000    1.333    1.667    3.500    9.333    0.667 
#    9.000    0.000    0.000    0.000    0.000    0.000 
#    0.000    0.000    0.000    0.000    0.000    0.000 
#
# Total GULP energy -297346.883185 kJ/mol
# GULP energy per Si atom -12389.453466 kJ/mol
# Density = 2.269131 g / cm^3
# Si number density = 22.743077 Si / 1000 Ang^3
#
#
#
# Elastic Constant Matrix: (Units=GPa)
#
#
# Indices 1 2 3 4 5 6 
#
# 1 71.4842 61.8675 34.4060 0.0000 0.0000 0.0000
# 2 61.8675 112.0022 40.1298 0.0000 0.0000 0.0000
# 3 34.4060 40.1298 124.6901 0.0000 0.0000 0.0000
# 4 0.0000 0.0000 0.0000 17.9225 0.0000 0.0000
# 5 0.0000 0.0000 0.0000 0.0000 42.3779 0.0000
# 6 0.0000 0.0000 0.0000 0.0000 0.0000 31.9019
#
#
#
# Elastic Compliance Matrix: (Units=1/GPa)
#
#
# Indices 1 2 3 4 5 6 
#
# 1 0.027815 -0.014259 -0.003086 0.000000 0.000000 0.000000
# 2 -0.014259 0.017401 -0.001666 0.000000 0.000000 0.000000
# 3 -0.003086 -0.001666 0.009408 0.000000 0.000000 0.000000
# 4 0.000000 0.000000 0.000000 0.055796 0.000000 0.000000
# 5 0.000000 0.000000 0.000000 0.000000 0.023597 0.000000
# 6 0.000000 0.000000 0.000000 0.000000 0.000000 0.031346
#
#
# Mechanical properties :
#
#
# Convention : Reuss Voigt Hill
#
# Bulk Modulus (GPa) = 60.23167 64.55369 62.39268
# Shear Modulus (GPa) = 23.93277 29.89200 26.91239
#
# Velocity S-wave (km/s) = 3.24745 3.62931 3.44368
# Velocity P-wave (km/s) = 6.37199 6.78292 6.58066
#
# Compressibility (1/GPa) = 0.01660256
#
# Stress axis : x y z
#
# Youngs Moduli (GPa) = 35.95197 57.46646 106.29680
#
# Poissons Ratio (x) = 0.81939 0.32804
# Poissons Ratio (y) = 0.51262 0.17709
# Poissons Ratio (z) = 0.11095 0.09574
#
# Static dielectric constant tensor:
#      x y z
#    x 3.864480 0.000000 0.000000 
#    y 0.000000 3.666710 0.000000 
#    z 0.000000 0.000000 4.429190 
# 
# 
# High freq. dielectric constant tensor:
#      x y z
#    x 1.887970 0.000000 0.000000 
#    y 0.000000 1.896350 0.000000 
#    z 0.000000 0.000000 1.909130 
# 
# From -- ./inp_files/939.got.cif
#   From: 2010.03.12/outbox.cif.g09.slc.cpg/sg34_1_cif.got.tgz:939.got - 2010.04.14 01:56:33.
