data_PCOD8171028
_publ_section_title
;
Structure prediction by ZEFSAII (Michael W. Deem and Ramdas Pophale) SiO2 
 PCOD8171028
Probable space group: P N A 21
;
_chemical_formula_sum "Si O2"
_cell_formula_units_Z 28
_cell_length_a 5.092208
_cell_length_b 16.488619
_cell_length_c 16.417134
_cell_angle_alpha 90.000000
_cell_angle_beta 90.000000
_cell_angle_gamma 90.000000
_cell_volume 1378.439663
_symmetry_space_group_name_H-M "P N A 21"
_symmetry_group_IT_number 33
_symmetry_cell_setting 'orthorhombic'
loop_
_space_group_symop_operation_xyz
x,y,z
-x,-y,1/2+z
1/2-x,1/2+y,1/2+z
1/2+x,1/2-y,z
loop_
_atom_site_type_symbol
_atom_site_label
_atom_site_fract_x
_atom_site_fract_y
_atom_site_fract_z
Si Si1 0.491773 0.912423 0.847130
Si Si2 0.250000 0.067870 0.896216
Si Si3 0.491775 0.412423 0.445302
Si Si4 0.437311 0.197752 0.199163
Si Si5 0.526125 0.802799 0.513260
Si Si6 0.526123 0.302798 0.779173
Si Si7 0.562690 0.302248 0.593269
O O1 0.750000 0.889416 0.896216
O O2 0.510461 0.879755 0.755544
O O3 0.250000 0.870646 0.896216
O O4 0.444403 0.009959 0.843194
O O5 0.071420 0.120468 0.836263
O O6 0.428582 0.120467 0.956170
O O7 0.055596 0.009958 0.949238
O O8 0.510462 0.379755 0.536889
O O9 0.148795 0.232232 0.216992
O O10 0.457074 0.167380 0.106292
O O11 0.739679 0.733108 0.494136
O O12 0.239674 0.266893 0.798296
O O13 0.542927 0.332621 0.686141
O O14 0.351206 0.232232 0.575441
#
# Coordination Sequence:
#
# PCOD8171028 Si02
#       7
#     4   4   4   4   4   4   4
#     4  10  23  38  56  90 118 159 190 240 305 347
#     4  10  24  40  58  90 122 154 198 240 302 366
#     4  10  23  38  56  90 118 159 190 240 305 347
#     4  10  21  40  60  87 116 152 203 243 288 348
#     4  10  22  39  64  86 113 156 199 248 290 344
#     4  10  22  39  64  86 113 156 199 248 290 344
#     4  10  21  40  60  87 116 152 203 243 288 348
#
# _framework density 20.312823000000002
#
# number of rings (size 3 to 8) (size 9 to 14) (size 15 to 20)
#    0.857    1.143    0.000    2.571    4.000    3.429 
#    5.143    0.000    0.000    0.000    0.000    0.000 
#    0.000    0.000    0.000    0.000    0.000    0.000 
#
# Total GULP energy -347189.717592 kJ/mol
# GULP energy per Si atom -12399.632771 kJ/mol
# Density = 2.026659 g / cm^3
# Si number density = 20.312823 Si / 1000 Ang^3
#
#
#
# Elastic Constant Matrix: (Units=GPa)
#
#
# Indices 1 2 3 4 5 6 
#
# 1 87.2440 3.9553 15.0321 0.0000 0.0000 0.0000
# 2 3.9553 93.2723 75.7629 0.0000 0.0000 0.0000
# 3 15.0321 75.7629 117.6146 0.0000 0.0000 0.0000
# 4 0.0000 0.0000 0.0000 23.4129 0.0000 0.0000
# 5 0.0000 0.0000 0.0000 0.0000 25.1927 0.0000
# 6 0.0000 0.0000 0.0000 0.0000 0.0000 5.7904
#
#
#
# Elastic Compliance Matrix: (Units=1/GPa)
#
#
# Indices 1 2 3 4 5 6 
#
# 1 0.011822 0.001523 -0.002492 0.000000 0.000000 0.000000
# 2 0.001523 0.022684 -0.014807 0.000000 0.000000 0.000000
# 3 -0.002492 -0.014807 0.018359 0.000000 0.000000 0.000000
# 4 0.000000 0.000000 0.000000 0.042712 0.000000 0.000000
# 5 0.000000 0.000000 0.000000 0.000000 0.039694 0.000000
# 6 0.000000 0.000000 0.000000 0.000000 0.000000 0.172701
#
#
# Mechanical properties :
#
#
# Convention : Reuss Voigt Hill
#
# Bulk Modulus (GPa) = 46.91896 54.18127 50.55012
# Shear Modulus (GPa) = 14.42469 24.43788 19.43129
#
# Velocity S-wave (km/s) = 2.66771 3.47230 3.09625
# Velocity P-wave (km/s) = 5.71290 6.54272 6.14184
#
# Compressibility (1/GPa) = 0.02131335
#
# Stress axis : x y z
#
# Youngs Moduli (GPa) = 84.58503 44.08423 54.46993
#
# Poissons Ratio (x) = -0.06713 0.13573
# Poissons Ratio (y) = -0.12880 0.80652
# Poissons Ratio (z) = 0.21078 0.65274
#
# Static dielectric constant tensor:
#      x y z
#    x 3.845600 0.000000 0.000000 
#    y 0.000000 3.336220 0.000000 
#    z 0.000000 0.000000 3.820990 
# 
# 
# High freq. dielectric constant tensor:
#      x y z
#    x 1.811610 0.000000 0.000000 
#    y 0.000000 1.769040 0.000000 
#    z 0.000000 0.000000 1.797790 
# 
# From -- ./inp_files/7428.got.cif
#   From: 2010.03.12/outbox.cif.g09.slc.cpg/sg33_4_cif.got.tgz:7428.got - 2010.04.14 01:49:19.
