data_PCOD8171978
_publ_section_title
;
Structure prediction by ZEFSAII (Michael W. Deem and Ramdas Pophale) SiO2 
 PCOD8171978
Probable space group: P N N 2
;
_chemical_formula_sum "Si O2"
_cell_formula_units_Z 24
_cell_length_a 12.298460
_cell_length_b 15.982147
_cell_length_c 5.209804
_cell_angle_alpha 90.000000
_cell_angle_beta 90.000000
_cell_angle_gamma 90.000000
_cell_volume 1024.017170
_symmetry_space_group_name_H-M "P N N 2"
_symmetry_group_IT_number 34
_symmetry_cell_setting 'orthorhombic'
loop_
_space_group_symop_operation_xyz
x,y,z
-x,-y,z
1/2-x,1/2+y,1/2+z
1/2+x,1/2-y,1/2+z
loop_
_atom_site_type_symbol
_atom_site_label
_atom_site_fract_x
_atom_site_fract_y
_atom_site_fract_z
Si Si1 0.388480 0.948120 0.666860
Si Si2 0.895329 0.649170 0.657581
Si Si3 0.263293 0.682037 0.663131
Si Si4 0.357934 0.136660 0.663197
Si Si5 0.992970 0.782899 0.979916
Si Si6 0.701614 0.644356 0.342981
O O1 0.421409 0.909253 0.396960
O O2 0.256003 0.938423 0.712919
O O3 0.421975 0.046311 0.661953
O O4 0.445391 0.894065 0.900239
O O5 0.950123 0.739060 0.717205
O O6 0.766125 0.663813 0.611227
O O7 0.210872 0.635440 0.422388
O O8 0.394673 0.679811 0.647099
O O9 0.225819 0.778218 0.652883
O O10 0.224213 0.635870 0.921080
O O11 0.439812 0.214592 0.644368
O O12 0.072939 0.860164 0.901128
#
# Coordination Sequence:
#
# PCOD8171978 Si02
#       6
#     4   4   4   4   4   4
#     4  10  22  45  63  91 137 169 202 277 324 382
#     4  10  21  40  64  92 132 160 223 264 313 390
#     4  11  23  42  62  99 128 166 225 266 308 408
#     4  11  26  42  69  93 137 170 213 271 336 377
#     4  11  21  41  67  99 123 175 218 268 323 373
#     4   9  23  40  68  87 136 169 209 269 324 368
#
# _framework density 23.437107000000001
#
# number of rings (size 3 to 8) (size 9 to 14) (size 15 to 20)
#    1.000    0.667    1.667    3.000    0.000    8.667 
#    0.000    4.167    0.000    0.000    0.000    0.000 
#    0.000    0.000    0.000    0.000    0.000    0.000 
#
# Total GULP energy -297395.729684 kJ/mol
# GULP energy per Si atom -12391.488737 kJ/mol
# Density = 2.338376 g / cm^3
# Si number density = 23.437107 Si / 1000 Ang^3
#
#
#
# Elastic Constant Matrix: (Units=GPa)
#
#
# Indices 1 2 3 4 5 6 
#
# 1 121.5915 7.7258 27.6929 0.0000 0.0000 0.0000
# 2 7.7258 55.8873 25.5997 0.0000 0.0000 0.0000
# 3 27.6929 25.5997 153.4684 0.0000 0.0000 0.0000
# 4 0.0000 0.0000 0.0000 29.6618 0.0000 0.0000
# 5 0.0000 0.0000 0.0000 0.0000 36.0124 0.0000
# 6 0.0000 0.0000 0.0000 0.0000 0.0000 52.0677
#
#
#
# Elastic Compliance Matrix: (Units=1/GPa)
#
#
# Indices 1 2 3 4 5 6 
#
# 1 0.008591 -0.000517 -0.001464 0.000000 0.000000 0.000000
# 2 -0.000517 0.019405 -0.003144 0.000000 0.000000 0.000000
# 3 -0.001464 -0.003144 0.007305 0.000000 0.000000 0.000000
# 4 0.000000 0.000000 0.000000 0.033713 0.000000 0.000000
# 5 0.000000 0.000000 0.000000 0.000000 0.027768 0.000000
# 6 0.000000 0.000000 0.000000 0.000000 0.000000 0.019206
#
#
# Mechanical properties :
#
#
# Convention : Reuss Voigt Hill
#
# Bulk Modulus (GPa) = 39.91899 50.33156 45.12527
# Shear Modulus (GPa) = 37.15094 41.54363 39.34729
#
# Velocity S-wave (km/s) = 3.98569 4.21474 4.10182
# Velocity P-wave (km/s) = 6.18469 6.72363 6.45978
#
# Compressibility (1/GPa) = 0.02505073
#
# Stress axis : x y z
#
# Youngs Moduli (GPa) = 116.40741 51.53430 136.90154
#
# Poissons Ratio (x) = 0.02664 0.20041
# Poissons Ratio (y) = 0.06018 0.43035
# Poissons Ratio (z) = 0.17041 0.16200
#
# Static dielectric constant tensor:
#      x y z
#    x 4.643200 0.000000 0.000000 
#    y 0.000000 3.942240 0.000000 
#    z 0.000000 0.000000 4.239310 
# 
# 
# High freq. dielectric constant tensor:
#      x y z
#    x 1.942450 0.000000 0.000000 
#    y 0.000000 1.885860 0.000000 
#    z 0.000000 0.000000 1.937060 
# 
# From -- ./inp_files/930.got.cif
#   From: 2010.03.12/outbox.cif.g09.slc.cpg/sg34_1_cif.got.tgz:930.got - 2010.04.14 01:56:33.
