data_PCOD8171552
_publ_section_title
;
Structure prediction by ZEFSAII (Michael W. Deem and Ramdas Pophale) SiO2 
 PCOD8171552
Probable space group: P N A 21
;
_chemical_formula_sum "Si O2"
_cell_formula_units_Z 28
_cell_length_a 8.933581
_cell_length_b 22.928752
_cell_length_c 6.342667
_cell_angle_alpha 90.000000
_cell_angle_beta 90.000000
_cell_angle_gamma 90.000000
_cell_volume 1299.205670
_symmetry_space_group_name_H-M "P N A 21"
_symmetry_group_IT_number 33
_symmetry_cell_setting 'orthorhombic'
loop_
_space_group_symop_operation_xyz
x,y,z
-x,-y,1/2+z
1/2-x,1/2+y,1/2+z
1/2+x,1/2-y,z
loop_
_atom_site_type_symbol
_atom_site_label
_atom_site_fract_x
_atom_site_fract_y
_atom_site_fract_z
Si Si1 0.861906 0.370934 0.815100
Si Si2 0.356388 0.060141 0.217691
Si Si3 0.356093 0.631156 0.963162
Si Si4 0.176240 0.835377 0.027806
Si Si5 0.917178 0.248280 0.901956
Si Si6 0.906953 0.564567 0.059115
Si Si7 0.824357 0.756541 0.715527
O O1 0.698485 0.364567 0.706379
O O2 0.957210 0.310424 0.793870
O O3 0.956996 0.423310 0.716551
O O4 0.839513 0.386593 0.056761
O O5 0.217240 0.071277 0.375334
O O6 0.521008 0.064745 0.325158
O O7 0.334070 0.997681 0.110096
O O8 0.282585 0.686868 0.848791
O O9 0.533872 0.632238 0.922562
O O10 0.093457 0.800965 0.220788
O O11 0.281804 0.887181 0.103301
O O12 0.276582 0.797774 0.864830
O O13 0.749159 0.254593 0.985530
O O14 0.005022 0.239490 0.126644
#
# Coordination Sequence:
#
# PCOD8171552 Si02
#       7
#     4   4   4   4   4   4   4
#     4  11  22  42  71  97 134 179 227 280 344 403
#     4  11  23  47  72  98 132 180 243 280 343 402
#     4  11  25  43  63  99 141 178 219 288 344 409
#     4  12  27  44  65 104 144 176 229 284 356 416
#     4  12  24  40  69 100 136 183 222 279 350 414
#     4  11  25  45  72 100 131 182 235 291 330 419
#     4  12  24  41  64 100 138 176 227 278 345 421
#
# _framework density 21.551628999999998
#
# number of rings (size 3 to 8) (size 9 to 14) (size 15 to 20)
#    0.000    0.571    5.714    2.571    4.000    0.000 
#    2.571    0.000    0.000    0.000    0.000    0.000 
#    0.000    0.000    0.000    0.000    0.000    0.000 
#
# Total GULP energy -346903.683377 kJ/mol
# GULP energy per Si atom -12389.417263 kJ/mol
# Density = 2.150258 g / cm^3
# Si number density = 21.551629 Si / 1000 Ang^3
#
#
#
# Elastic Constant Matrix: (Units=GPa)
#
#
# Indices 1 2 3 4 5 6 
#
# 1 84.3700 40.3512 32.0151 0.0000 0.0000 0.0000
# 2 40.3512 109.3364 39.3375 0.0000 0.0000 0.0000
# 3 32.0151 39.3375 102.5585 0.0000 0.0000 0.0000
# 4 0.0000 0.0000 0.0000 37.0646 0.0000 0.0000
# 5 0.0000 0.0000 0.0000 0.0000 37.2249 0.0000
# 6 0.0000 0.0000 0.0000 0.0000 0.0000 28.0883
#
#
#
# Elastic Compliance Matrix: (Units=1/GPa)
#
#
# Indices 1 2 3 4 5 6 
#
# 1 0.015148 -0.004512 -0.002998 0.000000 0.000000 0.000000
# 2 -0.004512 0.011954 -0.003177 0.000000 0.000000 0.000000
# 3 -0.002998 -0.003177 0.011905 0.000000 0.000000 0.000000
# 4 0.000000 0.000000 0.000000 0.026980 0.000000 0.000000
# 5 0.000000 0.000000 0.000000 0.000000 0.026864 0.000000
# 6 0.000000 0.000000 0.000000 0.000000 0.000000 0.035602
#
#
# Mechanical properties :
#
#
# Convention : Reuss Voigt Hill
#
# Bulk Modulus (GPa) = 56.70928 57.74138 57.22533
# Shear Modulus (GPa) = 32.11221 32.77963 32.44592
#
# Velocity S-wave (km/s) = 3.86426 3.90421 3.88428
# Velocity P-wave (km/s) = 6.80296 6.86834 6.83573
#
# Compressibility (1/GPa) = 0.01763380
#
# Stress axis : x y z
#
# Youngs Moduli (GPa) = 66.01508 83.65313 83.99894
#
# Poissons Ratio (x) = 0.37743 0.25184
# Poissons Ratio (y) = 0.29785 0.26684
# Poissons Ratio (z) = 0.19792 0.26574
#
# Static dielectric constant tensor:
#      x y z
#    x 3.722860 0.000000 0.000000 
#    y 0.000000 3.763330 0.000000 
#    z 0.000000 0.000000 3.885930 
# 
# 
# High freq. dielectric constant tensor:
#      x y z
#    x 1.839880 0.000000 0.000000 
#    y 0.000000 1.840570 0.000000 
#    z 0.000000 0.000000 1.854840 
# 
# From -- ./inp_files/470.got.cif
#   From: 2010.03.12/outbox.cif.g09.slc.cpg/sg33_1_cif.got.tgz:470.got - 2010.04.14 01:49:19.
