data_PCOD8171399
_publ_section_title
;
Structure prediction by ZEFSAII (Michael W. Deem and Ramdas Pophale) SiO2 
 PCOD8171399
Probable space group: P N A 21
;
_chemical_formula_sum "Si O2"
_cell_formula_units_Z 28
_cell_length_a 22.426865
_cell_length_b 6.518711
_cell_length_c 8.232426
_cell_angle_alpha 90.000000
_cell_angle_beta 90.000000
_cell_angle_gamma 90.000000
_cell_volume 1203.533358
_symmetry_space_group_name_H-M "P N A 21"
_symmetry_group_IT_number 33
_symmetry_cell_setting 'orthorhombic'
loop_
_space_group_symop_operation_xyz
x,y,z
-x,-y,1/2+z
1/2-x,1/2+y,1/2+z
1/2+x,1/2-y,z
loop_
_atom_site_type_symbol
_atom_site_label
_atom_site_fract_x
_atom_site_fract_y
_atom_site_fract_z
Si Si1 0.775073 0.346117 0.662810
Si Si2 0.338782 0.414773 0.222954
Si Si3 0.487560 0.291777 0.748856
Si Si4 0.895584 0.792484 0.434993
Si Si5 0.202100 0.498479 0.804253
Si Si6 0.606107 0.050366 0.250875
Si Si7 0.925793 0.896740 0.970465
O O1 0.726762 0.493476 0.742640
O O2 0.777019 0.389076 0.470025
O O3 0.837063 0.401193 0.750764
O O4 0.757370 0.109277 0.707880
O O5 0.377896 0.471349 0.386740
O O6 0.329658 0.173144 0.197374
O O7 0.372368 0.492966 0.063402
O O8 0.537580 0.238813 0.881948
O O9 0.515836 0.374292 0.582588
O O10 0.443839 0.468456 0.814836
O O11 0.451782 0.084466 0.711681
O O12 0.849538 0.666758 0.324511
O O13 0.886087 0.733657 0.620447
O O14 0.597636 0.170745 0.419866
#
# Coordination Sequence:
#
# PCOD8171399 Si02
#       7
#     4   4   4   4   4   4   4
#     4  10  25  42  68 103 133 189 237 294 350 426
#     4  10  24  44  68  96 139 184 232 293 346 421
#     4  11  24  42  68 104 140 183 234 290 353 426
#     4   9  22  44  64  99 134 184 230 282 353 421
#     4  10  23  45  70  95 141 180 239 290 359 417
#     4  11  24  42  71 101 140 182 236 291 359 420
#     4  11  26  43  69 104 141 186 234 290 358 429
#
# _framework density 23.264828999999999
#
# number of rings (size 3 to 8) (size 9 to 14) (size 15 to 20)
#    0.000    1.714    0.000    1.714    4.000   17.143 
#    0.000    0.000    0.000    0.000    0.000    0.000 
#    0.000    0.000    0.000    0.000    0.000    0.000 
#
# Total GULP energy -347178.076445 kJ/mol
# GULP energy per Si atom -12399.217016 kJ/mol
# Density = 2.321188 g / cm^3
# Si number density = 23.264829 Si / 1000 Ang^3
#
#
#
# Elastic Constant Matrix: (Units=GPa)
#
#
# Indices 1 2 3 4 5 6 
#
# 1 124.7262 47.7329 32.1384 0.0000 0.0000 0.0000
# 2 47.7329 132.7783 49.1124 0.0000 0.0000 0.0000
# 3 32.1384 49.1124 71.0359 0.0000 0.0000 0.0000
# 4 0.0000 0.0000 0.0000 30.4597 0.0000 0.0000
# 5 0.0000 0.0000 0.0000 0.0000 29.6779 0.0000
# 6 0.0000 0.0000 0.0000 0.0000 0.0000 42.2750
#
#
#
# Elastic Compliance Matrix: (Units=1/GPa)
#
#
# Indices 1 2 3 4 5 6 
#
# 1 0.009653 -0.002492 -0.002644 0.000000 0.000000 0.000000
# 2 -0.002492 0.010762 -0.006313 0.000000 0.000000 0.000000
# 3 -0.002644 -0.006313 0.019639 0.000000 0.000000 0.000000
# 4 0.000000 0.000000 0.000000 0.032830 0.000000 0.000000
# 5 0.000000 0.000000 0.000000 0.000000 0.033695 0.000000
# 6 0.000000 0.000000 0.000000 0.000000 0.000000 0.023655
#
#
# Mechanical properties :
#
#
# Convention : Reuss Voigt Hill
#
# Bulk Modulus (GPa) = 58.29392 65.16753 61.73073
# Shear Modulus (GPa) = 31.47604 33.78630 32.63117
#
# Velocity S-wave (km/s) = 3.68223 3.81497 3.74919
# Velocity P-wave (km/s) = 6.57187 6.89038 6.73301
#
# Compressibility (1/GPa) = 0.01715445
#
# Stress axis : x y z
#
# Youngs Moduli (GPa) = 103.59922 92.91578 50.92009
#
# Poissons Ratio (x) = 0.23155 0.13464
# Poissons Ratio (y) = 0.25817 0.32148
# Poissons Ratio (z) = 0.27393 0.58662
#
# Static dielectric constant tensor:
#      x y z
#    x 4.286140 0.000000 0.000000 
#    y 0.000000 4.233820 0.000000 
#    z 0.000000 0.000000 3.988650 
# 
# 
# High freq. dielectric constant tensor:
#      x y z
#    x 1.931770 0.000000 0.000000 
#    y 0.000000 1.921270 0.000000 
#    z 0.000000 0.000000 1.912760 
# 
# From -- ./inp_files/5174.got.cif
#   From: 2010.03.12/outbox.cif.g09.slc.cpg/sg33_3_cif.got.tgz:5174.got - 2010.04.14 01:49:19.
