data_PCOD8171845
_publ_section_title
;
Structure prediction by ZEFSAII (Michael W. Deem and Ramdas Pophale) SiO2 
 PCOD8171845
Probable space group: P N N 2
;
_chemical_formula_sum "Si O2"
_cell_formula_units_Z 30
_cell_length_a 13.044451
_cell_length_b 13.812994
_cell_length_c 8.324050
_cell_angle_alpha 90.000000
_cell_angle_beta 90.000000
_cell_angle_gamma 90.000000
_cell_volume 1499.851663
_symmetry_space_group_name_H-M "P N N 2"
_symmetry_group_IT_number 34
_symmetry_cell_setting 'orthorhombic'
loop_
_space_group_symop_operation_xyz
x,y,z
-x,-y,z
1/2-x,1/2+y,1/2+z
1/2+x,1/2-y,1/2+z
loop_
_atom_site_type_symbol
_atom_site_label
_atom_site_fract_x
_atom_site_fract_y
_atom_site_fract_z
Si Si1 0.909535 0.874166 0.131000
Si Si2 0.103895 0.542321 0.671600
Si Si3 0.293263 0.432988 0.287393
Si Si4 0.601662 0.949142 0.786440
Si Si5 0.000000 0.000000 0.862340
Si Si6 0.297203 0.440940 0.665295
Si Si7 0.589954 0.731885 0.799270
Si Si8 0.696612 0.768412 0.128555
O O1 0.805915 0.816684 0.075685
O O2 0.976919 0.811126 0.257322
O O3 0.878444 0.975711 0.217442
O O4 0.975581 0.904463 0.972927
O O5 0.101881 0.546943 0.478713
O O6 0.187217 0.467052 0.739074
O O7 0.132316 0.651068 0.730066
O O8 0.000000 0.500000 0.745027
O O9 0.201878 0.497883 0.212387
O O10 0.405856 0.474429 0.242402
O O11 0.287167 0.442703 0.476153
O O12 0.277854 0.322498 0.238272
O O13 0.599405 0.838786 0.725097
O O14 0.500000 0.000000 0.717916
O O15 0.324697 0.334733 0.719956
O O16 0.620798 0.733952 0.986224
#
# Coordination Sequence:
#
# PCOD8171845 Si02
#       8
#     4   4   4   4   2   4   4   4
#     4  10  18  37  61  79 112 154 193 227 282 352
#     4   8  16  34  52  76 107 144 181 224 271 337
#     4  10  19  38  53  82 114 147 185 235 285 339
#     4   9  18  32  56  78 107 144 184 223 277 341
#     4  10  18  36  62  78 108 164 188 224 278 372
#     4   9  18  34  59  79 107 149 193 215 279 364
#     4  11  18  34  59  85 103 147 192 230 284 338
#     4  10  22  34  57  87 113 138 190 249 280 328
#
# _framework density 20.00198
#
# number of rings (size 3 to 8) (size 9 to 14) (size 15 to 20)
#    0.000    2.400    2.667    3.200    0.000    1.067 
#    7.200    2.667    0.000    1.600    0.000    0.000 
#    0.000    0.000    0.000    0.000    0.000    0.000 
#
# Total GULP energy -371661.883615 kJ/mol
# GULP energy per Si atom -12388.729454 kJ/mol
# Density = 1.995645 g / cm^3
# Si number density = 20.001980 Si / 1000 Ang^3
#
#
#
# Elastic Constant Matrix: (Units=GPa)
#
#
# Indices 1 2 3 4 5 6 
#
# 1 167.5649 95.1674 22.8379 0.0000 0.0000 0.0000
# 2 95.1674 178.1331 16.5835 0.0000 0.0000 0.0000
# 3 22.8379 16.5835 11.2819 0.0000 0.0000 0.0000
# 4 0.0000 0.0000 0.0000 24.4281 0.0000 0.0000
# 5 0.0000 0.0000 0.0000 0.0000 10.3985 0.0000
# 6 0.0000 0.0000 0.0000 0.0000 0.0000 41.7732
#
#
#
# Elastic Compliance Matrix: (Units=1/GPa)
#
#
# Indices 1 2 3 4 5 6 
#
# 1 0.010346 -0.004145 -0.014851 0.000000 0.000000 0.000000
# 2 -0.004145 0.008164 -0.003611 0.000000 0.000000 0.000000
# 3 -0.014851 -0.003611 0.124007 0.000000 0.000000 0.000000
# 4 0.000000 0.000000 0.000000 0.040937 0.000000 0.000000
# 5 0.000000 0.000000 0.000000 0.000000 0.096167 0.000000
# 6 0.000000 0.000000 0.000000 0.000000 0.000000 0.023939
#
#
# Mechanical properties :
#
#
# Convention : Reuss Voigt Hill
#
# Bulk Modulus (GPa) = 10.27694 69.57306 39.92500
# Shear Modulus (GPa) = 13.11624 30.14604 21.63114
#
# Velocity S-wave (km/s) = 2.56353 3.88642 3.29211
# Velocity P-wave (km/s) = 3.72980 7.41604 5.86979
#
# Compressibility (1/GPa) = 0.09730521
#
# Stress axis : x y z
#
# Youngs Moduli (GPa) = 96.65706 122.48562 8.06405
#
# Poissons Ratio (x) = 0.50767 0.11976
# Poissons Ratio (y) = 0.40062 0.02912
# Poissons Ratio (z) = 1.43542 0.44224
#
# Static dielectric constant tensor:
#      x y z
#    x 4.382670 0.000000 0.000000 
#    y 0.000000 4.001180 0.000000 
#    z 0.000000 0.000000 2.998060 
# 
# 
# High freq. dielectric constant tensor:
#      x y z
#    x 1.803040 0.000000 0.000000 
#    y 0.000000 1.794280 0.000000 
#    z 0.000000 0.000000 1.712040 
# 
# From -- ./inp_files/3661.got.cif
#   From: 2010.03.12/outbox.cif.g09.slc.cpg/sg34_2_cif.got.tgz:3661.got - 2010.04.14 01:56:33.
