data_PCOD8171288
_publ_section_title
;
Structure prediction by ZEFSAII (Michael W. Deem and Ramdas Pophale) SiO2 
 PCOD8171288
Probable space group: P N A 21
;
_chemical_formula_sum "Si O2"
_cell_formula_units_Z 28
_cell_length_a 14.903832
_cell_length_b 5.130981
_cell_length_c 16.770454
_cell_angle_alpha 90.000000
_cell_angle_beta 90.000000
_cell_angle_gamma 90.000000
_cell_volume 1282.458064
_symmetry_space_group_name_H-M "P N A 21"
_symmetry_group_IT_number 33
_symmetry_cell_setting 'orthorhombic'
loop_
_space_group_symop_operation_xyz
x,y,z
-x,-y,1/2+z
1/2-x,1/2+y,1/2+z
1/2+x,1/2-y,z
loop_
_atom_site_type_symbol
_atom_site_label
_atom_site_fract_x
_atom_site_fract_y
_atom_site_fract_z
Si Si1 0.760752 0.023507 0.703880
Si Si2 0.208865 0.145184 0.439018
Si Si3 0.298914 0.139542 0.837253
Si Si4 0.086102 0.684479 0.653332
Si Si5 0.551975 0.317186 0.553957
Si Si6 0.092590 0.360116 0.221393
Si Si7 0.353424 0.180677 0.570316
O O1 0.682427 0.809495 0.695649
O O2 0.845124 0.882224 0.745543
O O3 0.733299 0.258150 0.764960
O O4 0.790926 0.113033 0.616183
O O5 0.239453 0.378640 0.379584
O O6 0.115327 0.241493 0.478461
O O7 0.291581 0.081612 0.498169
O O8 0.186520 0.869975 0.399274
O O9 0.392622 0.076057 0.790264
O O10 0.074623 0.391146 0.621617
O O11 0.010051 0.734503 0.720080
O O12 0.079550 0.896395 0.584013
O O13 0.445322 0.307623 0.534704
O O14 0.119831 0.452530 0.131849
#
# Coordination Sequence:
#
# PCOD8171288 Si02
#       7
#     4   4   4   4   4   4   4
#     4  11  21  45  68  96 129 173 226 271 325 391
#     4  12  24  44  64  95 137 173 212 267 342 387
#     4  11  26  43  62  91 139 178 207 269 330 398
#     4  11  23  38  73  98 122 165 228 276 325 383
#     4  11  23  41  65 104 123 167 219 278 330 385
#     4  10  22  45  67  98 130 170 227 275 325 388
#     4  10  23  40  73  96 128 170 223 278 321 394
#
# _framework density 21.833074
#
# number of rings (size 3 to 8) (size 9 to 14) (size 15 to 20)
#    0.000    1.143    4.286    1.714    4.000    0.000 
#    5.143    0.000    0.000    0.000    0.000    0.000 
#    0.000    0.000    0.000    0.000    0.000    0.000 
#
# Total GULP energy -347040.868304 kJ/mol
# GULP energy per Si atom -12394.316725 kJ/mol
# Density = 2.178338 g / cm^3
# Si number density = 21.833074 Si / 1000 Ang^3
#
#
#
# Elastic Constant Matrix: (Units=GPa)
#
#
# Indices 1 2 3 4 5 6 
#
# 1 84.9951 7.3188 12.4431 0.0000 0.0000 0.0000
# 2 7.3188 86.2098 9.9494 0.0000 0.0000 0.0000
# 3 12.4431 9.9494 62.8841 0.0000 0.0000 0.0000
# 4 0.0000 0.0000 0.0000 39.6065 0.0000 0.0000
# 5 0.0000 0.0000 0.0000 0.0000 13.4361 0.0000
# 6 0.0000 0.0000 0.0000 0.0000 0.0000 28.0042
#
#
#
# Elastic Compliance Matrix: (Units=1/GPa)
#
#
# Indices 1 2 3 4 5 6 
#
# 1 0.012166 -0.000769 -0.002286 0.000000 0.000000 0.000000
# 2 -0.000769 0.011864 -0.001725 0.000000 0.000000 0.000000
# 3 -0.002286 -0.001725 0.016627 0.000000 0.000000 0.000000
# 4 0.000000 0.000000 0.000000 0.025248 0.000000 0.000000
# 5 0.000000 0.000000 0.000000 0.000000 0.074426 0.000000
# 6 0.000000 0.000000 0.000000 0.000000 0.000000 0.035709
#
#
# Mechanical properties :
#
#
# Convention : Reuss Voigt Hill
#
# Bulk Modulus (GPa) = 32.15608 32.61239 32.38423
# Shear Modulus (GPa) = 25.51452 29.83454 27.67453
#
# Velocity S-wave (km/s) = 3.42221 3.70061 3.56413
# Velocity P-wave (km/s) = 5.51140 5.76445 5.63935
#
# Compressibility (1/GPa) = 0.03109832
#
# Stress axis : x y z
#
# Youngs Moduli (GPa) = 82.19471 84.28881 60.14148
#
# Poissons Ratio (x) = 0.06482 0.13746
# Poissons Ratio (y) = 0.06321 0.10374
# Poissons Ratio (z) = 0.18787 0.14539
#
# Static dielectric constant tensor:
#      x y z
#    x 4.090350 0.000000 0.000000 
#    y 0.000000 3.978660 0.000000 
#    z 0.000000 0.000000 3.937080 
# 
# 
# High freq. dielectric constant tensor:
#      x y z
#    x 1.847190 0.000000 0.000000 
#    y 0.000000 1.869270 0.000000 
#    z 0.000000 0.000000 1.844810 
# 
# From -- ./inp_files/8740.got.cif
#   From: 2010.03.12/outbox.cif.g09.slc.cpg/sg33_5_cif.got.tgz:8740.got - 2010.04.14 01:49:19.
