data_PCOD8171839
_publ_section_title
;
Structure prediction by ZEFSAII (Michael W. Deem and Ramdas Pophale) SiO2 
 PCOD8171839
Probable space group: P N N 2
;
_chemical_formula_sum "Si O2"
_cell_formula_units_Z 22
_cell_length_a 7.691050
_cell_length_b 9.064026
_cell_length_c 15.677044
_cell_angle_alpha 90.000000
_cell_angle_beta 90.000000
_cell_angle_gamma 90.000000
_cell_volume 1092.876166
_symmetry_space_group_name_H-M "P N N 2"
_symmetry_group_IT_number 34
_symmetry_cell_setting 'orthorhombic'
loop_
_space_group_symop_operation_xyz
x,y,z
-x,-y,z
1/2-x,1/2+y,1/2+z
1/2+x,1/2-y,1/2+z
loop_
_atom_site_type_symbol
_atom_site_label
_atom_site_fract_x
_atom_site_fract_y
_atom_site_fract_z
Si Si1 0.134786 0.177252 0.415400
Si Si2 0.255317 0.414429 0.211382
Si Si3 0.921012 0.290725 0.262564
Si Si4 0.500000 0.500000 0.064009
Si Si5 0.043850 0.837735 0.872222
Si Si6 0.826861 0.580927 0.818075
O O1 0.298835 0.282821 0.431512
O O2 0.994018 0.262530 0.358022
O O3 0.053647 0.139453 0.506800
O O4 0.202996 0.026028 0.371821
O O5 0.193121 0.561077 0.261035
O O6 0.335626 0.449943 0.120111
O O7 0.397863 0.338754 0.272106
O O8 0.087099 0.306357 0.198985
O O9 0.792765 0.151608 0.241901
O O10 0.885594 0.720351 0.877539
O O11 0.000000 0.000000 0.906166
O O12 0.000000 0.500000 0.782049
#
# Coordination Sequence:
#
# PCOD8171839 Si02
#       6
#     4   4   4   2   4   4
#     4  10  22  34  61  94 124 157 208 264 311 364
#     4  10  21  33  64  89 122 157 212 259 313 375
#     4  10  18  38  55  94 115 166 208 252 296 397
#     4  12  20  40  54 100 126 162 202 286 322 368
#     4  10  18  36  60  91 116 167 211 249 291 396
#     4  10  18  32  57  95 118 152 207 261 302 366
#
# _framework density 20.130368000000001
#
# number of rings (size 3 to 8) (size 9 to 14) (size 15 to 20)
#    0.000    1.818    4.545    0.000    0.000    0.000 
#    9.818    0.000    0.000    4.364  160.727    0.000 
#    0.000    0.000    0.000    0.000    0.000    0.000 
#
# Total GULP energy -272598.008941 kJ/mol
# GULP energy per Si atom -12390.818588 kJ/mol
# Density = 2.008455 g / cm^3
# Si number density = 20.130368 Si / 1000 Ang^3
#
#
#
# Elastic Constant Matrix: (Units=GPa)
#
#
# Indices 1 2 3 4 5 6 
#
# 1 129.3152 64.7622 50.6687 0.0000 0.0000 0.0000
# 2 64.7622 127.9193 35.9144 0.0000 0.0000 0.0000
# 3 50.6687 35.9144 89.7985 0.0000 0.0000 0.0000
# 4 0.0000 0.0000 0.0000 25.0954 0.0000 0.0000
# 5 0.0000 0.0000 0.0000 0.0000 25.9925 0.0000
# 6 0.0000 0.0000 0.0000 0.0000 0.0000 58.4651
#
#
#
# Elastic Compliance Matrix: (Units=1/GPa)
#
#
# Indices 1 2 3 4 5 6 
#
# 1 0.012006 -0.004705 -0.004893 0.000000 0.000000 0.000000
# 2 -0.004705 0.010650 -0.001605 0.000000 0.000000 0.000000
# 3 -0.004893 -0.001605 0.014539 0.000000 0.000000 0.000000
# 4 0.000000 0.000000 0.000000 0.039848 0.000000 0.000000
# 5 0.000000 0.000000 0.000000 0.000000 0.038473 0.000000
# 6 0.000000 0.000000 0.000000 0.000000 0.000000 0.017104
#
#
# Mechanical properties :
#
#
# Convention : Reuss Voigt Hill
#
# Bulk Modulus (GPa) = 67.61278 72.19151 69.90214
# Shear Modulus (GPa) = 31.25885 34.95644 33.10765
#
# Velocity S-wave (km/s) = 3.94486 4.17166 4.05984
# Velocity P-wave (km/s) = 7.37629 7.69048 7.53502
#
# Compressibility (1/GPa) = 0.01479010
#
# Stress axis : x y z
#
# Youngs Moduli (GPa) = 83.28883 93.89790 68.78207
#
# Poissons Ratio (x) = 0.44177 0.33655
# Poissons Ratio (y) = 0.39186 0.11037
# Poissons Ratio (z) = 0.40753 0.15068
#
# Static dielectric constant tensor:
#      x y z
#    x 4.265260 0.000000 0.000000 
#    y 0.000000 3.989730 0.000000 
#    z 0.000000 0.000000 2.993540 
# 
# 
# High freq. dielectric constant tensor:
#      x y z
#    x 1.826160 0.000000 0.000000 
#    y 0.000000 1.797670 0.000000 
#    z 0.000000 0.000000 1.702240 
# 
# From -- ./inp_files/6338.got.cif
#   From: 2010.03.12/outbox.cif.g09.slc.cpg/sg34_4_cif.got.tgz:6338.got - 2010.04.14 01:56:33.
