data_PCOD8171048
_publ_section_title
;
Structure prediction by ZEFSAII (Michael W. Deem and Ramdas Pophale) SiO2 
 PCOD8171048
Probable space group: P N A 21
;
_chemical_formula_sum "Si O2"
_cell_formula_units_Z 32
_cell_length_a 11.038407
_cell_length_b 9.744888
_cell_length_c 13.667355
_cell_angle_alpha 90.000000
_cell_angle_beta 90.000000
_cell_angle_gamma 90.000000
_cell_volume 1470.170588
_symmetry_space_group_name_H-M "P N A 21"
_symmetry_group_IT_number 33
_symmetry_cell_setting 'orthorhombic'
loop_
_space_group_symop_operation_xyz
x,y,z
-x,-y,1/2+z
1/2-x,1/2+y,1/2+z
1/2+x,1/2-y,z
loop_
_atom_site_type_symbol
_atom_site_label
_atom_site_fract_x
_atom_site_fract_y
_atom_site_fract_z
Si Si1 0.625503 0.763509 0.144100
Si Si2 0.622624 0.534201 0.983048
Si Si3 0.021853 0.215915 0.093643
Si Si4 0.335575 0.934956 0.681364
Si Si5 0.887161 0.464854 0.023172
Si Si6 0.124732 0.344876 0.710645
Si Si7 0.097970 0.841043 0.785502
Si Si8 0.538558 0.946176 0.845417
O O1 0.622220 0.673700 0.046006
O O2 0.742747 0.723398 0.210043
O O3 0.493874 0.744444 0.198397
O O4 0.653028 0.922811 0.121196
O O5 0.539764 0.417251 0.028765
O O6 0.758387 0.477813 0.970039
O O7 0.565605 0.560953 0.876444
O O8 0.136559 0.318084 0.100329
O O9 0.911401 0.304455 0.047741
O O10 0.007796 0.164854 0.205789
O O11 0.206574 0.905350 0.725397
O O12 0.427011 0.936851 0.771398
O O13 0.886579 0.542538 0.125611
O O14 0.989142 0.534603 0.954955
O O15 0.117678 0.420974 0.815378
O O16 0.121111 0.690254 0.833151
#
# Coordination Sequence:
#
# PCOD8171048 Si02
#       8
#     4   4   4   4   4   4   4   4
#     4  10  22  40  67  98 137 175 231 283 346 411
#     4  11  25  41  69 102 133 180 244 293 343 437
#     4  11  24  42  68  98 139 181 231 293 360 418
#     4  10  21  42  64  93 136 180 218 282 358 408
#     4  11  20  44  67  92 139 180 232 282 363 418
#     4  10  21  41  65 100 134 182 219 291 347 417
#     4  11  22  42  68  96 135 182 228 288 352 427
#     4  10  21  40  68  91 129 184 223 280 357 424
#
# _framework density 21.766182000000001
#
# number of rings (size 3 to 8) (size 9 to 14) (size 15 to 20)
#    0.000    1.500    5.000    1.500    3.500    1.000 
#    2.250    0.000    5.500    0.000    0.000    0.000 
#    0.000    0.000    0.000    0.000    0.000    0.000 
#
# Total GULP energy -396534.820687 kJ/mol
# GULP energy per Si atom -12391.713146 kJ/mol
# Density = 2.171664 g / cm^3
# Si number density = 21.766182 Si / 1000 Ang^3
#
#
#
# Elastic Constant Matrix: (Units=GPa)
#
#
# Indices 1 2 3 4 5 6 
#
# 1 72.4713 37.8088 2.8731 0.0000 0.0000 0.0000
# 2 37.8088 132.8711 56.3335 0.0000 0.0000 0.0000
# 3 2.8731 56.3335 69.5499 0.0000 0.0000 0.0000
# 4 0.0000 0.0000 0.0000 32.5560 0.0000 0.0000
# 5 0.0000 0.0000 0.0000 0.0000 25.1733 0.0000
# 6 0.0000 0.0000 0.0000 0.0000 0.0000 38.5014
#
#
#
# Elastic Compliance Matrix: (Units=1/GPa)
#
#
# Indices 1 2 3 4 5 6 
#
# 1 0.017265 -0.007022 0.004974 0.000000 0.000000 0.000000
# 2 -0.007022 0.014318 -0.011307 0.000000 0.000000 0.000000
# 3 0.004974 -0.011307 0.023331 0.000000 0.000000 0.000000
# 4 0.000000 0.000000 0.000000 0.030716 0.000000 0.000000
# 5 0.000000 0.000000 0.000000 0.000000 0.039725 0.000000
# 6 0.000000 0.000000 0.000000 0.000000 0.000000 0.025973
#
#
# Mechanical properties :
#
#
# Convention : Reuss Voigt Hill
#
# Bulk Modulus (GPa) = 35.45535 52.10258 43.77896
# Shear Modulus (GPa) = 26.67543 31.10459 28.89001
#
# Velocity S-wave (km/s) = 3.50458 3.78436 3.64715
# Velocity P-wave (km/s) = 5.71845 6.56388 6.15569
#
# Compressibility (1/GPa) = 0.02820449
#
# Stress axis : x y z
#
# Youngs Moduli (GPa) = 57.92217 69.84227 42.86117
#
# Poissons Ratio (x) = 0.49040 -0.21319
# Poissons Ratio (y) = 0.40670 0.48464
# Poissons Ratio (z) = -0.28811 0.78971
#
# Static dielectric constant tensor:
#      x y z
#    x 4.165440 0.000000 0.000000 
#    y 0.000000 4.229360 0.000000 
#    z 0.000000 0.000000 3.847790 
# 
# 
# High freq. dielectric constant tensor:
#      x y z
#    x 1.844470 0.000000 0.000000 
#    y 0.000000 1.860350 0.000000 
#    z 0.000000 0.000000 1.847100 
# 
# From -- ./inp_files/7953.got.cif
#   From: 2010.03.12/outbox.cif.g09.slc.cpg/sg33_4_cif.got.tgz:7953.got - 2010.04.14 01:49:19.
