data_PCOD8171977
_publ_section_title
;
Structure prediction by ZEFSAII (Michael W. Deem and Ramdas Pophale) SiO2 
 PCOD8171977
Probable space group: P N N 2
;
_chemical_formula_sum "Si O2"
_cell_formula_units_Z 32
_cell_length_a 4.978702
_cell_length_b 22.886924
_cell_length_c 12.830158
_cell_angle_alpha 90.000000
_cell_angle_beta 90.000000
_cell_angle_gamma 90.000000
_cell_volume 1461.960250
_symmetry_space_group_name_H-M "P N N 2"
_symmetry_group_IT_number 34
_symmetry_cell_setting 'orthorhombic'
loop_
_space_group_symop_operation_xyz
x,y,z
-x,-y,z
1/2-x,1/2+y,1/2+z
1/2+x,1/2-y,1/2+z
loop_
_atom_site_type_symbol
_atom_site_label
_atom_site_fract_x
_atom_site_fract_y
_atom_site_fract_z
Si Si1 0.638258 0.368922 0.593810
Si Si2 0.750178 0.459623 0.753497
Si Si3 0.653214 0.753232 0.151743
Si Si4 0.972971 0.433773 0.254493
Si Si5 0.027628 0.933701 0.891478
Si Si6 0.126306 0.359671 0.057116
Si Si7 0.593918 0.370132 0.928907
Si Si8 0.367480 0.295463 0.752516
O O1 0.805273 0.420408 0.650809
O O2 0.828676 0.311807 0.579648
O O3 0.523698 0.388609 0.483784
O O4 0.393112 0.350398 0.671560
O O5 0.500000 0.500000 0.729027
O O6 0.708727 0.419177 0.853575
O O7 0.000000 0.500000 0.778288
O O8 0.903910 0.740410 0.731251
O O9 0.680098 0.696722 0.079136
O O10 0.903942 0.747865 0.229854
O O11 0.673999 0.422050 0.295837
O O12 0.000000 0.500000 0.213264
O O13 0.173370 0.422216 0.350505
O O14 0.028563 0.390685 0.160554
O O15 0.000000 0.000000 0.933134
O O16 0.355499 0.398931 0.999444
O O17 0.857121 0.345156 0.990199
O O18 0.424221 0.319243 0.868641
#
# Coordination Sequence:
#
# PCOD8171977 Si02
#       8
#     4   4   4   4   4   4   4   4
#     4   9  23  38  66  92 139 164 213 273 335 400
#     4  11  24  39  64 101 134 172 217 265 340 415
#     4  10  22  41  63  92 135 167 216 266 325 409
#     4  10  24  43  63  89 129 167 224 276 317 373
#     4  10  21  40  63  92 123 169 216 267 327 385
#     4  12  24  44  68  95 128 180 227 269 330 394
#     4  11  24  42  68  94 136 169 219 276 327 399
#     4   9  21  41  63  91 137 164 203 271 337 385
#
# _framework density 21.88842
#
# number of rings (size 3 to 8) (size 9 to 14) (size 15 to 20)
#    0.750    1.000    0.000    3.375    5.250    3.000 
#    6.750    0.000    0.000    0.000    0.000    0.000 
#    0.000    0.000    0.000    0.000    0.000    0.000 
#
# Total GULP energy -396478.455268 kJ/mol
# GULP energy per Si atom -12389.951727 kJ/mol
# Density = 2.183860 g / cm^3
# Si number density = 21.888420 Si / 1000 Ang^3
#
#
#
# Elastic Constant Matrix: (Units=GPa)
#
#
# Indices 1 2 3 4 5 6 
#
# 1 129.1173 36.4960 25.3365 0.0000 0.0000 0.0000
# 2 36.4960 82.2278 46.9259 0.0000 0.0000 0.0000
# 3 25.3365 46.9259 91.9891 0.0000 0.0000 0.0000
# 4 0.0000 0.0000 0.0000 13.1092 0.0000 0.0000
# 5 0.0000 0.0000 0.0000 0.0000 24.7737 0.0000
# 6 0.0000 0.0000 0.0000 0.0000 0.0000 23.6366
#
#
#
# Elastic Compliance Matrix: (Units=1/GPa)
#
#
# Indices 1 2 3 4 5 6 
#
# 1 0.008880 -0.003591 -0.000614 0.000000 0.000000 0.000000
# 2 -0.003591 0.018608 -0.008503 0.000000 0.000000 0.000000
# 3 -0.000614 -0.008503 0.015378 0.000000 0.000000 0.000000
# 4 0.000000 0.000000 0.000000 0.076283 0.000000 0.000000
# 5 0.000000 0.000000 0.000000 0.000000 0.040365 0.000000
# 6 0.000000 0.000000 0.000000 0.000000 0.000000 0.042307
#
#
# Mechanical properties :
#
#
# Convention : Reuss Voigt Hill
#
# Bulk Modulus (GPa) = 57.30896 57.87232 57.59064
# Shear Modulus (GPa) = 21.45423 25.27561 23.36492
#
# Velocity S-wave (km/s) = 3.13415 3.40184 3.27074
# Velocity P-wave (km/s) = 6.27187 6.47512 6.37431
#
# Compressibility (1/GPa) = 0.01744928
#
# Stress axis : x y z
#
# Youngs Moduli (GPa) = 112.60715 53.74085 65.02934
#
# Poissons Ratio (x) = 0.19299 0.03993
# Poissons Ratio (y) = 0.40438 0.55296
# Poissons Ratio (z) = 0.06915 0.45697
#
# Static dielectric constant tensor:
#      x y z
#    x 4.040290 0.000000 0.000000 
#    y 0.000000 3.792890 0.000000 
#    z 0.000000 0.000000 3.792450 
# 
# 
# High freq. dielectric constant tensor:
#      x y z
#    x 1.872270 0.000000 0.000000 
#    y 0.000000 1.846480 0.000000 
#    z 0.000000 0.000000 1.854180 
# 
# From -- ./inp_files/4554.got.cif
#   From: 2010.03.12/outbox.cif.g09.slc.cpg/sg34_3_cif.got.tgz:4554.got - 2010.04.14 01:56:33.
