data_PCOD8171336
_publ_section_title
;
Structure prediction by ZEFSAII (Michael W. Deem and Ramdas Pophale) SiO2 
 PCOD8171336
Probable space group: P N A 21
;
_chemical_formula_sum "Si O2"
_cell_formula_units_Z 24
_cell_length_a 12.039529
_cell_length_b 14.602108
_cell_length_c 6.356989
_cell_angle_alpha 90.000000
_cell_angle_beta 90.000000
_cell_angle_gamma 90.000000
_cell_volume 1117.574576
_symmetry_space_group_name_H-M "P N A 21"
_symmetry_group_IT_number 33
_symmetry_cell_setting 'orthorhombic'
loop_
_space_group_symop_operation_xyz
x,y,z
-x,-y,1/2+z
1/2-x,1/2+y,1/2+z
1/2+x,1/2-y,z
loop_
_atom_site_type_symbol
_atom_site_label
_atom_site_fract_x
_atom_site_fract_y
_atom_site_fract_z
Si Si1 0.197098 0.342317 0.768410
Si Si2 0.849219 0.487295 0.554339
Si Si3 0.880116 0.916083 0.939594
Si Si4 0.942970 0.112208 0.782182
Si Si5 0.945601 0.617333 0.881881
Si Si6 0.583658 0.278871 0.092185
O O1 0.327102 0.342262 0.715579
O O2 0.132507 0.332710 0.550314
O O3 0.158939 0.436763 0.874062
O O4 0.171142 0.255780 0.917485
O O5 0.730515 0.437089 0.574576
O O6 0.880540 0.530966 0.779642
O O7 0.940963 0.413602 0.489696
O O8 0.851365 0.842937 0.757863
O O9 0.930300 0.005599 0.830688
O O10 0.971610 0.872607 0.092725
O O11 0.984330 0.163587 0.990341
O O12 0.973264 0.691366 0.702933
#
# Coordination Sequence:
#
# PCOD8171336 Si02
#       6
#     4   4   4   4   4   4
#     4  10  24  44  67 101 135 176 226 286 338 403
#     4  10  23  41  72  98 130 179 225 277 341 406
#     4  11  24  43  69  99 133 182 226 281 344 406
#     4  11  24  45  70  99 135 178 232 282 341 408
#     4  11  22  45  69 101 136 174 228 280 341 404
#     4  11  25  44  65 102 135 179 227 280 345 399
#
# _framework density 21.475076999999999
#
# number of rings (size 3 to 8) (size 9 to 14) (size 15 to 20)
#    0.000    1.333    3.333    1.000    4.667    1.333 
#    9.000    0.000    0.000    0.000    0.000    0.000 
#    0.000    0.000    0.000    0.000    0.000    0.000 
#
# Total GULP energy -297741.997265 kJ/mol
# GULP energy per Si atom -12405.916553 kJ/mol
# Density = 2.142620 g / cm^3
# Si number density = 21.475077 Si / 1000 Ang^3
#
#
#
# Elastic Constant Matrix: (Units=GPa)
#
#
# Indices 1 2 3 4 5 6 
#
# 1 139.4611 51.7810 58.1462 0.0000 0.0000 0.0000
# 2 51.7810 104.9004 48.2821 0.0000 0.0000 0.0000
# 3 58.1462 48.2821 113.9008 0.0000 0.0000 0.0000
# 4 0.0000 0.0000 0.0000 46.3021 0.0000 0.0000
# 5 0.0000 0.0000 0.0000 0.0000 32.3614 0.0000
# 6 0.0000 0.0000 0.0000 0.0000 0.0000 17.7727
#
#
#
# Elastic Compliance Matrix: (Units=1/GPa)
#
#
# Indices 1 2 3 4 5 6 
#
# 1 0.009895 -0.003180 -0.003704 0.000000 0.000000 0.000000
# 2 -0.003180 0.012865 -0.003830 0.000000 0.000000 0.000000
# 3 -0.003704 -0.003830 0.012294 0.000000 0.000000 0.000000
# 4 0.000000 0.000000 0.000000 0.021597 0.000000 0.000000
# 5 0.000000 0.000000 0.000000 0.000000 0.030901 0.000000
# 6 0.000000 0.000000 0.000000 0.000000 0.000000 0.056266
#
#
# Mechanical properties :
#
#
# Convention : Reuss Voigt Hill
#
# Bulk Modulus (GPa) = 73.38312 74.96454 74.17383
# Shear Modulus (GPa) = 29.44835 32.62412 31.03623
#
# Velocity S-wave (km/s) = 3.70710 3.90187 3.80573
# Velocity P-wave (km/s) = 7.25044 7.43525 7.34343
#
# Compressibility (1/GPa) = 0.01362711
#
# Stress axis : x y z
#
# Youngs Moduli (GPa) = 101.05822 77.72748 81.34115
#
# Poissons Ratio (x) = 0.24716 0.30125
# Poissons Ratio (y) = 0.32135 0.31156
# Poissons Ratio (z) = 0.37428 0.29772
#
# Static dielectric constant tensor:
#      x y z
#    x 3.778900 0.000000 0.000000 
#    y 0.000000 3.931130 0.000000 
#    z 0.000000 0.000000 3.866640 
# 
# 
# High freq. dielectric constant tensor:
#      x y z
#    x 1.835140 0.000000 0.000000 
#    y 0.000000 1.853010 0.000000 
#    z 0.000000 0.000000 1.847010 
# 
# From -- ./inp_files/785.got.cif
#   From: 2010.03.12/outbox.cif.g09.slc.cpg/sg33_1_cif.got.tgz:785.got - 2010.04.14 01:49:19.
