data_PCOD8171599
_publ_section_title
;
Structure prediction by ZEFSAII (Michael W. Deem and Ramdas Pophale) SiO2 
 PCOD8171599
Probable space group: P N A 21
;
_chemical_formula_sum "Si O2"
_cell_formula_units_Z 28
_cell_length_a 19.329524
_cell_length_b 6.566438
_cell_length_c 10.004974
_cell_angle_alpha 90.000000
_cell_angle_beta 90.000000
_cell_angle_gamma 90.000000
_cell_volume 1269.892540
_symmetry_space_group_name_H-M "P N A 21"
_symmetry_group_IT_number 33
_symmetry_cell_setting 'orthorhombic'
loop_
_space_group_symop_operation_xyz
x,y,z
-x,-y,1/2+z
1/2-x,1/2+y,1/2+z
1/2+x,1/2-y,z
loop_
_atom_site_type_symbol
_atom_site_label
_atom_site_fract_x
_atom_site_fract_y
_atom_site_fract_z
Si Si1 0.383873 0.460509 0.109490
Si Si2 0.321466 0.367449 0.372070
Si Si3 0.932331 0.440411 0.473845
Si Si4 0.370266 0.671116 0.584979
Si Si5 0.928706 0.361131 0.911460
Si Si6 0.668253 0.246790 0.376717
Si Si7 0.523111 0.625834 0.176555
O O1 0.321441 0.434479 0.215742
O O2 0.443563 0.565953 0.199962
O O3 0.408784 0.240351 0.053346
O O4 0.363428 0.606197 0.988064
O O5 0.385725 0.211382 0.386322
O O6 0.325825 0.557520 0.472515
O O7 0.248767 0.269863 0.410510
O O8 0.879395 0.597829 0.539836
O O9 0.974656 0.327376 0.588353
O O10 0.993792 0.548073 0.392086
O O11 0.334259 0.657511 0.729135
O O12 0.444767 0.563809 0.596067
O O13 0.871529 0.530276 0.876268
O O14 0.931460 0.170650 0.808491
#
# Coordination Sequence:
#
# PCOD8171599 Si02
#       7
#     4   4   4   4   4   4   4
#     4  12  27  47  73 109 147 185 247 307 358 430
#     4  11  31  46  72 105 146 197 241 293 366 438
#     4  11  24  44  72 103 140 187 236 294 361 421
#     4  11  24  49  72 100 147 183 238 303 356 425
#     4  12  25  42  76 108 138 188 243 295 361 430
#     4  12  28  48  72 105 147 193 243 295 364 439
#     4  11  23  42  71 110 137 179 238 301 360 413
#
# _framework density 22.049109000000001
#
# number of rings (size 3 to 8) (size 9 to 14) (size 15 to 20)
#    0.000    0.571    5.714    0.857   10.000    1.143 
#    0.000    0.000    0.000    0.000    0.000    0.000 
#    0.000    0.000    0.000    0.000    0.000    0.000 
#
# Total GULP energy -347173.726035 kJ/mol
# GULP energy per Si atom -12399.061644 kJ/mol
# Density = 2.199892 g / cm^3
# Si number density = 22.049109 Si / 1000 Ang^3
#
#
#
# Elastic Constant Matrix: (Units=GPa)
#
#
# Indices 1 2 3 4 5 6 
#
# 1 103.1124 27.1669 22.4067 0.0000 0.0000 0.0000
# 2 27.1669 98.9819 40.2774 0.0000 0.0000 0.0000
# 3 22.4067 40.2774 118.8869 0.0000 0.0000 0.0000
# 4 0.0000 0.0000 0.0000 37.4063 0.0000 0.0000
# 5 0.0000 0.0000 0.0000 0.0000 27.6790 0.0000
# 6 0.0000 0.0000 0.0000 0.0000 0.0000 17.3713
#
#
#
# Elastic Compliance Matrix: (Units=1/GPa)
#
#
# Indices 1 2 3 4 5 6 
#
# 1 0.010593 -0.002430 -0.001173 0.000000 0.000000 0.000000
# 2 -0.002430 0.012276 -0.003701 0.000000 0.000000 0.000000
# 3 -0.001173 -0.003701 0.009886 0.000000 0.000000 0.000000
# 4 0.000000 0.000000 0.000000 0.026733 0.000000 0.000000
# 5 0.000000 0.000000 0.000000 0.000000 0.036128 0.000000
# 6 0.000000 0.000000 0.000000 0.000000 0.000000 0.057566
#
#
# Mechanical properties :
#
#
# Convention : Reuss Voigt Hill
#
# Bulk Modulus (GPa) = 55.10554 55.63149 55.36851
# Shear Modulus (GPa) = 28.76194 31.90001 30.33098
#
# Velocity S-wave (km/s) = 3.61563 3.80777 3.71295
# Velocity P-wave (km/s) = 6.51743 6.67964 6.59903
#
# Compressibility (1/GPa) = 0.01814699
#
# Stress axis : x y z
#
# Youngs Moduli (GPa) = 94.39880 81.46123 101.15008
#
# Poissons Ratio (x) = 0.19796 0.11868
# Poissons Ratio (y) = 0.22940 0.37435
# Poissons Ratio (z) = 0.11075 0.30148
#
# Static dielectric constant tensor:
#      x y z
#    x 3.782630 0.000000 0.000000 
#    y 0.000000 4.094550 0.000000 
#    z 0.000000 0.000000 3.978830 
# 
# 
# High freq. dielectric constant tensor:
#      x y z
#    x 1.856920 0.000000 0.000000 
#    y 0.000000 1.878390 0.000000 
#    z 0.000000 0.000000 1.874640 
# 
# From -- ./inp_files/6961.got.cif
#   From: 2010.03.12/outbox.cif.g09.slc.cpg/sg33_4_cif.got.tgz:6961.got - 2010.04.14 01:49:19.
