data_PCOD8171560
_publ_section_title
;
Structure prediction by ZEFSAII (Michael W. Deem and Ramdas Pophale) SiO2 
 PCOD8171560
Probable space group: P N A 21
;
_chemical_formula_sum "Si O2"
_cell_formula_units_Z 20
_cell_length_a 8.204420
_cell_length_b 8.953392
_cell_length_c 10.822985
_cell_angle_alpha 90.000000
_cell_angle_beta 90.000000
_cell_angle_gamma 90.000000
_cell_volume 795.028213
_symmetry_space_group_name_H-M "P N A 21"
_symmetry_group_IT_number 33
_symmetry_cell_setting 'orthorhombic'
loop_
_space_group_symop_operation_xyz
x,y,z
-x,-y,1/2+z
1/2-x,1/2+y,1/2+z
1/2+x,1/2-y,z
loop_
_atom_site_type_symbol
_atom_site_label
_atom_site_fract_x
_atom_site_fract_y
_atom_site_fract_z
Si Si1 0.525439 0.901561 0.302490
Si Si2 0.676404 0.743236 0.523799
Si Si3 0.167061 0.171533 0.654173
Si Si4 0.568228 0.411784 0.169821
Si Si5 0.267865 0.070757 0.408270
O O1 0.549418 0.800474 0.422492
O O2 0.698197 0.919266 0.234354
O O3 0.382569 0.829246 0.214849
O O4 0.448012 0.062264 0.343671
O O5 0.580332 0.703556 0.650167
O O6 0.800784 0.873976 0.562559
O O7 0.754139 0.592627 0.470348
O O8 0.246073 0.193219 0.517272
O O9 0.997646 0.079716 0.647544
O O10 0.629537 0.394600 0.308684
#
# Coordination Sequence:
#
# PCOD8171560 Si02
#       5
#     4   4   4   4   4
#     4  12  22  47  70 102 144 186 235 292 352 422
#     4  11  22  43  71  99 140 184 231 293 346 420
#     4  11  25  43  73 107 137 192 235 289 358 423
#     4  11  24  42  70 105 139 182 241 284 359 416
#     4  11  25  43  70 103 138 190 226 296 347 419
#
# _framework density 25.156343
#
# number of rings (size 3 to 8) (size 9 to 14) (size 15 to 20)
#    0.000    0.800    6.000    0.000    5.600    1.600 
#    0.000    0.000    0.000    0.000    0.000    0.000 
#    0.000    0.000    0.000    0.000    0.000    0.000 
#
# Total GULP energy -247869.208775 kJ/mol
# GULP energy per Si atom -12393.460439 kJ/mol
# Density = 2.509909 g / cm^3
# Si number density = 25.156343 Si / 1000 Ang^3
#
#
#
# Elastic Constant Matrix: (Units=GPa)
#
#
# Indices 1 2 3 4 5 6 
#
# 1 99.9226 15.8443 40.4484 0.0000 0.0000 0.0000
# 2 15.8443 31.2296 30.9685 0.0000 0.0000 0.0000
# 3 40.4484 30.9685 138.3199 0.0000 0.0000 0.0000
# 4 0.0000 0.0000 0.0000 30.8623 0.0000 0.0000
# 5 0.0000 0.0000 0.0000 0.0000 48.7594 0.0000
# 6 0.0000 0.0000 0.0000 0.0000 0.0000 42.4930
#
#
#
# Elastic Compliance Matrix: (Units=1/GPa)
#
#
# Indices 1 2 3 4 5 6 
#
# 1 0.011601 -0.003241 -0.002667 0.000000 0.000000 0.000000
# 2 -0.003241 0.042065 -0.008470 0.000000 0.000000 0.000000
# 3 -0.002667 -0.008470 0.009906 0.000000 0.000000 0.000000
# 4 0.000000 0.000000 0.000000 0.032402 0.000000 0.000000
# 5 0.000000 0.000000 0.000000 0.000000 0.020509 0.000000
# 6 0.000000 0.000000 0.000000 0.000000 0.000000 0.023533
#
#
# Mechanical properties :
#
#
# Convention : Reuss Voigt Hill
#
# Bulk Modulus (GPa) = 28.72299 49.33272 39.02785
# Shear Modulus (GPa) = 27.71967 36.57032 32.14499
#
# Velocity S-wave (km/s) = 3.32308 3.81691 3.57852
# Velocity P-wave (km/s) = 5.11531 6.25124 5.71159
#
# Compressibility (1/GPa) = 0.03481532
#
# Stress axis : x y z
#
# Youngs Moduli (GPa) = 86.19780 23.77293 100.95082
#
# Poissons Ratio (x) = 0.07706 0.26921
# Poissons Ratio (y) = 0.27940 0.85506
# Poissons Ratio (z) = 0.22987 0.20136
#
# Static dielectric constant tensor:
#      x y z
#    x 4.749360 0.000000 0.000000 
#    y 0.000000 4.039820 0.000000 
#    z 0.000000 0.000000 4.887710 
# 
# 
# High freq. dielectric constant tensor:
#      x y z
#    x 2.017840 0.000000 0.000000 
#    y 0.000000 1.960380 0.000000 
#    z 0.000000 0.000000 2.016600 
# 
# From -- ./inp_files/3009.got.cif
#   From: 2010.03.12/outbox.cif.g09.slc.cpg/sg33_2_cif.got.tgz:3009.got - 2010.04.14 01:49:19.
