data_PCOD8171481
_publ_section_title
;
Structure prediction by ZEFSAII (Michael W. Deem and Ramdas Pophale) SiO2 
 PCOD8171481
Probable space group: P N A 21
;
_chemical_formula_sum "Si O2"
_cell_formula_units_Z 28
_cell_length_a 9.044335
_cell_length_b 10.159130
_cell_length_c 11.492395
_cell_angle_alpha 90.000000
_cell_angle_beta 90.000000
_cell_angle_gamma 90.000000
_cell_volume 1055.950846
_symmetry_space_group_name_H-M "P N A 21"
_symmetry_group_IT_number 33
_symmetry_cell_setting 'orthorhombic'
loop_
_space_group_symop_operation_xyz
x,y,z
-x,-y,1/2+z
1/2-x,1/2+y,1/2+z
1/2+x,1/2-y,z
loop_
_atom_site_type_symbol
_atom_site_label
_atom_site_fract_x
_atom_site_fract_y
_atom_site_fract_z
Si Si1 0.452874 0.181014 0.179720
Si Si2 0.540102 0.692199 0.015215
Si Si3 0.948414 0.489386 0.490378
Si Si4 0.744337 0.474283 0.912327
Si Si5 0.689926 0.693976 0.473739
Si Si6 0.667258 0.347180 0.305089
Si Si7 0.007075 0.901864 0.263511
O O1 0.475188 0.047092 0.107293
O O2 0.609290 0.222362 0.232312
O O3 0.345489 0.160270 0.292957
O O4 0.395094 0.301851 0.097390
O O5 0.487576 0.682033 0.147882
O O6 0.601726 0.839612 0.003740
O O7 0.674974 0.593290 0.987974
O O8 0.397223 0.657075 0.936037
O O9 0.802702 0.572191 0.457103
O O10 0.080342 0.497861 0.393179
O O11 0.721121 0.331736 0.972565
O O12 0.654204 0.464287 0.791906
O O13 0.569990 0.687180 0.369695
O O14 0.619516 0.479607 0.240181
#
# Coordination Sequence:
#
# PCOD8171481 Si02
#       7
#     4   4   4   4   4   4   4
#     4  11  24  51  76 110 149 213 262 320 401 488
#     4  11  28  49  74 121 158 207 259 344 394 477
#     4  11  25  48  81 117 156 194 276 331 394 471
#     4  10  24  49  76 107 157 208 257 319 397 481
#     4  11  24  48  81 113 149 215 261 323 393 496
#     4  11  27  48  80 107 159 210 266 327 401 485
#     4  11  26  47  78 109 162 205 267 320 408 468
#
# _framework density 26.516385
#
# number of rings (size 3 to 8) (size 9 to 14) (size 15 to 20)
#    0.000    1.143    1.429    3.429   12.000    3.429 
#   10.286    0.000    0.000    0.000    0.000    0.000 
#    0.000    0.000    0.000    0.000    0.000    0.000 
#
# Total GULP energy -347136.684056 kJ/mol
# GULP energy per Si atom -12397.738716 kJ/mol
# Density = 2.645603 g / cm^3
# Si number density = 26.516385 Si / 1000 Ang^3
#
#
#
# Elastic Constant Matrix: (Units=GPa)
#
#
# Indices 1 2 3 4 5 6 
#
# 1 118.2493 34.9453 35.2036 0.0000 0.0000 0.0000
# 2 34.9453 163.6568 27.5020 0.0000 0.0000 0.0000
# 3 35.2036 27.5020 124.4914 0.0000 0.0000 0.0000
# 4 0.0000 0.0000 0.0000 15.9781 0.0000 0.0000
# 5 0.0000 0.0000 0.0000 0.0000 19.6469 0.0000
# 6 0.0000 0.0000 0.0000 0.0000 0.0000 36.9613
#
#
#
# Elastic Compliance Matrix: (Units=1/GPa)
#
#
# Indices 1 2 3 4 5 6 
#
# 1 0.009652 -0.001664 -0.002362 0.000000 0.000000 0.000000
# 2 -0.001664 0.006633 -0.000995 0.000000 0.000000 0.000000
# 3 -0.002362 -0.000995 0.008920 0.000000 0.000000 0.000000
# 4 0.000000 0.000000 0.000000 0.062586 0.000000 0.000000
# 5 0.000000 0.000000 0.000000 0.000000 0.050899 0.000000
# 6 0.000000 0.000000 0.000000 0.000000 0.000000 0.027055
#
#
# Mechanical properties :
#
#
# Convention : Reuss Voigt Hill
#
# Bulk Modulus (GPa) = 65.94643 66.85548 66.40096
# Shear Modulus (GPa) = 27.64882 35.10036 31.37459
#
# Velocity S-wave (km/s) = 3.23260 3.64225 3.44352
# Velocity P-wave (km/s) = 6.23354 6.55405 6.39580
#
# Compressibility (1/GPa) = 0.01516382
#
# Stress axis : x y z
#
# Youngs Moduli (GPa) = 103.61039 150.76538 112.10425
#
# Poissons Ratio (x) = 0.25087 0.26475
# Poissons Ratio (y) = 0.17241 0.11152
# Poissons Ratio (z) = 0.24469 0.14997
#
# Static dielectric constant tensor:
#      x y z
#    x 4.847990 0.000000 0.000000 
#    y 0.000000 4.996040 0.000000 
#    z 0.000000 0.000000 4.650530 
# 
# 
# High freq. dielectric constant tensor:
#      x y z
#    x 2.072330 0.000000 0.000000 
#    y 0.000000 2.073750 0.000000 
#    z 0.000000 0.000000 2.055800 
# 
# From -- ./inp_files/5862.got.cif
#   From: 2010.03.12/outbox.cif.g09.slc.cpg/sg33_3_cif.got.tgz:5862.got - 2010.04.14 01:49:19.
