data_PCOD8171798
_publ_section_title
;
Structure prediction by ZEFSAII (Michael W. Deem and Ramdas Pophale) SiO2 
 PCOD8171798
Probable space group: P N A 21
;
_chemical_formula_sum "Si O2"
_cell_formula_units_Z 16
_cell_length_a 4.837517
_cell_length_b 26.482910
_cell_length_c 4.953218
_cell_angle_alpha 90.000000
_cell_angle_beta 90.000000
_cell_angle_gamma 90.000000
_cell_volume 634.564323
_symmetry_space_group_name_H-M "P N A 21"
_symmetry_group_IT_number 33
_symmetry_cell_setting 'orthorhombic'
loop_
_space_group_symop_operation_xyz
x,y,z
-x,-y,1/2+z
1/2-x,1/2+y,1/2+z
1/2+x,1/2-y,z
loop_
_atom_site_type_symbol
_atom_site_label
_atom_site_fract_x
_atom_site_fract_y
_atom_site_fract_z
Si Si1 0.012027 0.284049 0.750000
Si Si2 0.931808 0.082072 0.158133
Si Si3 0.567646 0.850725 0.751395
Si Si4 0.192002 0.494935 0.798646
O O1 0.823105 0.234812 0.705515
O O2 0.913567 0.327894 0.549301
O O3 0.015115 0.305847 0.051727
O O4 0.647753 0.103271 0.280677
O O5 0.143123 0.128421 0.135193
O O6 0.073345 0.038163 0.338643
O O7 0.844782 0.058070 0.867749
O O8 0.936695 0.505822 0.001234
#
# Coordination Sequence:
#
# PCOD8171798 Si02
#       4
#     4   4   4   4
#     4  12  26  50  76 106 146 186 240 310 392 442
#     4  12  28  49  73 114 152 198 257 297 372 430
#     4  12  28  45  79 108 146 190 251 309 358 464
#     4  12  28  50  76 108 162 208 252 310 372 440
#
# _framework density 25.214151999999999
#
# number of rings (size 3 to 8) (size 9 to 14) (size 15 to 20)
#    0.000    0.000    2.500    6.000    3.500    4.000 
#    0.000    0.000    0.000    0.000    0.000    0.000 
#    0.000    0.000    0.000    0.000    0.000    0.000 
#
# Total GULP energy -198437.033610 kJ/mol
# GULP energy per Si atom -12402.314601 kJ/mol
# Density = 2.515676 g / cm^3
# Si number density = 25.214152 Si / 1000 Ang^3
#
#
#
# Elastic Constant Matrix: (Units=GPa)
#
#
# Indices 1 2 3 4 5 6 
#
# 1 100.4324 3.5096 4.7146 0.0000 0.0000 0.0000
# 2 3.5096 71.9773 5.0886 0.0000 0.0000 0.0000
# 3 4.7146 5.0886 60.1208 0.0000 0.0000 0.0000
# 4 0.0000 0.0000 0.0000 33.2595 0.0000 0.0000
# 5 0.0000 0.0000 0.0000 0.0000 23.4753 0.0000
# 6 0.0000 0.0000 0.0000 0.0000 0.0000 72.8353
#
#
#
# Elastic Compliance Matrix: (Units=1/GPa)
#
#
# Indices 1 2 3 4 5 6 
#
# 1 0.010007 -0.000435 -0.000748 0.000000 0.000000 0.000000
# 2 -0.000435 0.013996 -0.001150 0.000000 0.000000 0.000000
# 3 -0.000748 -0.001150 0.016789 0.000000 0.000000 0.000000
# 4 0.000000 0.000000 0.000000 0.030067 0.000000 0.000000
# 5 0.000000 0.000000 0.000000 0.000000 0.042598 0.000000
# 6 0.000000 0.000000 0.000000 0.000000 0.000000 0.013730
#
#
# Mechanical properties :
#
#
# Convention : Reuss Voigt Hill
#
# Bulk Modulus (GPa) = 27.68143 28.79513 28.23828
# Shear Modulus (GPa) = 34.74752 40.52853 37.63802
#
# Velocity S-wave (km/s) = 3.71630 4.01355 3.86778
# Velocity P-wave (km/s) = 5.42373 5.73787 5.58301
#
# Compressibility (1/GPa) = 0.03612531
#
# Stress axis : x y z
#
# Youngs Moduli (GPa) = 99.92744 71.44989 59.56209
#
# Poissons Ratio (x) = 0.03109 0.04455
# Poissons Ratio (y) = 0.04348 0.06852
# Poissons Ratio (z) = 0.07474 0.08220
#
# Static dielectric constant tensor:
#      x y z
#    x 4.838690 0.000000 0.000000 
#    y 0.000000 4.689240 0.000000 
#    z 0.000000 0.000000 4.162470 
# 
# 
# High freq. dielectric constant tensor:
#      x y z
#    x 2.031040 0.000000 0.000000 
#    y 0.000000 2.015100 0.000000 
#    z 0.000000 0.000000 1.994410 
# 
# From -- ./inp_files/142.got.cif
#   From: 2010.03.12/outbox.cif.g09.slc.cpg/sg33_1_cif.got.tgz:142.got - 2010.04.14 01:49:19.
