data_PCOD8171483
_publ_section_title
;
Structure prediction by ZEFSAII (Michael W. Deem and Ramdas Pophale) SiO2 
 PCOD8171483
Probable space group: P N A 21
;
_chemical_formula_sum "Si O2"
_cell_formula_units_Z 32
_cell_length_a 8.373356
_cell_length_b 12.148758
_cell_length_c 14.430844
_cell_angle_alpha 90.000000
_cell_angle_beta 90.000000
_cell_angle_gamma 90.000000
_cell_volume 1467.990243
_symmetry_space_group_name_H-M "P N A 21"
_symmetry_group_IT_number 33
_symmetry_cell_setting 'orthorhombic'
loop_
_space_group_symop_operation_xyz
x,y,z
-x,-y,1/2+z
1/2-x,1/2+y,1/2+z
1/2+x,1/2-y,z
loop_
_atom_site_type_symbol
_atom_site_label
_atom_site_fract_x
_atom_site_fract_y
_atom_site_fract_z
Si Si1 0.135184 0.212047 0.670190
Si Si2 0.763772 0.005922 0.240752
Si Si3 0.106918 0.970274 0.939865
Si Si4 0.860286 0.631376 0.582442
Si Si5 0.727039 0.963240 0.942075
Si Si6 0.822210 0.331682 0.998862
Si Si7 0.977757 0.619235 0.320216
Si Si8 0.620018 0.750091 0.033560
O O1 0.112353 0.081813 0.694094
O O2 0.105978 0.284341 0.761849
O O3 0.317307 0.231239 0.639326
O O4 0.063897 0.242541 0.567438
O O5 0.596980 0.943985 0.253648
O O6 0.837440 0.046646 0.335483
O O7 0.723581 0.117434 0.182565
O O8 0.916503 0.974408 0.937690
O O9 0.174683 0.866640 0.994271
O O10 0.186688 0.075101 0.990132
O O11 0.835161 0.512686 0.537789
O O12 0.772065 0.720034 0.517851
O O13 0.052295 0.651478 0.584091
O O14 0.650720 0.029313 0.855872
O O15 0.660015 0.838780 0.952642
O O16 0.926101 0.323943 0.904925
#
# Coordination Sequence:
#
# PCOD8171483 Si02
#       8
#     4   4   4   4   4   4   4   4
#     4  12  24  42  71 101 134 176 231 289 329 407
#     4  11  25  44  65 101 139 173 236 285 341 404
#     4  11  26  44  68 101 136 185 226 281 344 423
#     4  11  22  45  66 101 131 179 225 292 326 419
#     4  11  24  44  72  97 137 180 228 278 355 406
#     4  10  25  41  73  93 141 180 229 273 358 400
#     4  10  25  41  68 101 134 178 227 287 338 416
#     4  12  25  45  71  99 138 181 228 281 351 413
#
# _framework density 21.798508999999999
#
# number of rings (size 3 to 8) (size 9 to 14) (size 15 to 20)
#    0.000    1.000    3.750    0.750   17.500    0.000 
#    4.500    0.000    0.000    0.000    0.000    0.000 
#    0.000    0.000    0.000    0.000    0.000    0.000 
#
# Total GULP energy -396506.369033 kJ/mol
# GULP energy per Si atom -12390.824032 kJ/mol
# Density = 2.174890 g / cm^3
# Si number density = 21.798509 Si / 1000 Ang^3
#
#
#
# Elastic Constant Matrix: (Units=GPa)
#
#
# Indices 1 2 3 4 5 6 
#
# 1 90.7772 39.8150 36.4362 0.0000 0.0000 0.0000
# 2 39.8150 115.8576 50.9890 0.0000 0.0000 0.0000
# 3 36.4362 50.9890 77.9275 0.0000 0.0000 0.0000
# 4 0.0000 0.0000 0.0000 46.2347 0.0000 0.0000
# 5 0.0000 0.0000 0.0000 0.0000 27.2952 0.0000
# 6 0.0000 0.0000 0.0000 0.0000 0.0000 28.1623
#
#
#
# Elastic Compliance Matrix: (Units=1/GPa)
#
#
# Indices 1 2 3 4 5 6 
#
# 1 0.014155 -0.002741 -0.004825 0.000000 0.000000 0.000000
# 2 -0.002741 0.012653 -0.006997 0.000000 0.000000 0.000000
# 3 -0.004825 -0.006997 0.019667 0.000000 0.000000 0.000000
# 4 0.000000 0.000000 0.000000 0.021629 0.000000 0.000000
# 5 0.000000 0.000000 0.000000 0.000000 0.036636 0.000000
# 6 0.000000 0.000000 0.000000 0.000000 0.000000 0.035508
#
#
# Mechanical properties :
#
#
# Convention : Reuss Voigt Hill
#
# Bulk Modulus (GPa) = 57.64304 59.89364 58.76834
# Shear Modulus (GPa) = 28.54586 30.82659 29.68623
#
# Velocity S-wave (km/s) = 3.62267 3.76461 3.69432
# Velocity P-wave (km/s) = 6.63320 6.81411 6.72426
#
# Compressibility (1/GPa) = 0.01734815
#
# Stress axis : x y z
#
# Youngs Moduli (GPa) = 70.64763 79.03432 50.84718
#
# Poissons Ratio (x) = 0.21663 0.24533
# Poissons Ratio (y) = 0.19364 0.35579
# Poissons Ratio (z) = 0.34086 0.55303
#
# Static dielectric constant tensor:
#      x y z
#    x 4.126350 0.000000 0.000000 
#    y 0.000000 3.934630 0.000000 
#    z 0.000000 0.000000 3.865430 
# 
# 
# High freq. dielectric constant tensor:
#      x y z
#    x 1.872370 0.000000 0.000000 
#    y 0.000000 1.855550 0.000000 
#    z 0.000000 0.000000 1.850890 
# 
# From -- ./inp_files/7700.got.cif
#   From: 2010.03.12/outbox.cif.g09.slc.cpg/sg33_4_cif.got.tgz:7700.got - 2010.04.14 01:49:19.
