data_PCOD8171248
_publ_section_title
;
Structure prediction by ZEFSAII (Michael W. Deem and Ramdas Pophale) SiO2 
 PCOD8171248
Probable space group: P N A 21
;
_chemical_formula_sum "Si O2"
_cell_formula_units_Z 20
_cell_length_a 12.107605
_cell_length_b 12.535840
_cell_length_c 5.610250
_cell_angle_alpha 90.000000
_cell_angle_beta 90.000000
_cell_angle_gamma 90.000000
_cell_volume 851.518129
_symmetry_space_group_name_H-M "P N A 21"
_symmetry_group_IT_number 33
_symmetry_cell_setting 'orthorhombic'
loop_
_space_group_symop_operation_xyz
x,y,z
-x,-y,1/2+z
1/2-x,1/2+y,1/2+z
1/2+x,1/2-y,z
loop_
_atom_site_type_symbol
_atom_site_label
_atom_site_fract_x
_atom_site_fract_y
_atom_site_fract_z
Si Si1 0.513939 0.440485 0.237070
Si Si2 0.056588 0.369955 0.537344
Si Si3 0.307156 0.672760 0.008610
Si Si4 0.651267 0.927933 0.341211
Si Si5 0.609899 0.765443 0.719157
O O1 0.477235 0.486517 0.500314
O O2 0.631780 0.384501 0.286640
O O3 0.422485 0.354758 0.159169
O O4 0.114198 0.260996 0.638902
O O5 0.149367 0.460074 0.482914
O O6 0.967947 0.419394 0.715544
O O7 0.996708 0.335327 0.293300
O O8 0.199826 0.738229 0.928373
O O9 0.261603 0.576812 0.177315
O O10 0.665854 0.822192 0.496746
#
# Coordination Sequence:
#
# PCOD8171248 Si02
#       5
#     4   4   4   4   4
#     4  11  28  49  72 104 149 192 234 299 362 421
#     4  10  22  43  66 101 136 178 234 296 349 426
#     4  10  26  42  69 105 138 181 243 291 356 430
#     4  11  22  44  72  99 136 189 232 294 362 419
#     4  10  24  44  67 101 139 186 235 290 353 426
#
# _framework density 23.487462000000001
#
# number of rings (size 3 to 8) (size 9 to 14) (size 15 to 20)
#    0.000    1.600    2.000    0.000   14.000    1.600 
#    0.000    0.000    0.000    0.000    0.000    0.000 
#    0.000    0.000    0.000    0.000    0.000    0.000 
#
# Total GULP energy -247814.237973 kJ/mol
# GULP energy per Si atom -12390.711899 kJ/mol
# Density = 2.343400 g / cm^3
# Si number density = 23.487462 Si / 1000 Ang^3
#
#
#
# Elastic Constant Matrix: (Units=GPa)
#
#
# Indices 1 2 3 4 5 6 
#
# 1 71.9296 33.6475 7.5761 0.0000 0.0000 0.0000
# 2 33.6475 111.5908 26.2610 0.0000 0.0000 0.0000
# 3 7.5761 26.2610 76.3833 0.0000 0.0000 0.0000
# 4 0.0000 0.0000 0.0000 38.8579 0.0000 0.0000
# 5 0.0000 0.0000 0.0000 0.0000 27.9740 0.0000
# 6 0.0000 0.0000 0.0000 0.0000 0.0000 32.1362
#
#
#
# Elastic Compliance Matrix: (Units=1/GPa)
#
#
# Indices 1 2 3 4 5 6 
#
# 1 0.016186 -0.004899 0.000079 0.000000 0.000000 0.000000
# 2 -0.004899 0.011233 -0.003376 0.000000 0.000000 0.000000
# 3 0.000079 -0.003376 0.014245 0.000000 0.000000 0.000000
# 4 0.000000 0.000000 0.000000 0.025735 0.000000 0.000000
# 5 0.000000 0.000000 0.000000 0.000000 0.035747 0.000000
# 6 0.000000 0.000000 0.000000 0.000000 0.000000 0.031118
#
#
# Mechanical properties :
#
#
# Convention : Reuss Voigt Hill
#
# Bulk Modulus (GPa) = 39.57064 43.87477 41.72271
# Shear Modulus (GPa) = 31.43080 32.62154 32.02617
#
# Velocity S-wave (km/s) = 3.66210 3.73083 3.69662
# Velocity P-wave (km/s) = 5.89622 6.10569 6.00187
#
# Compressibility (1/GPa) = 0.02527126
#
# Stress axis : x y z
#
# Youngs Moduli (GPa) = 61.78229 89.02344 70.20134
#
# Poissons Ratio (x) = 0.43613 -0.00554
# Poissons Ratio (y) = 0.30267 0.23700
# Poissons Ratio (z) = -0.00488 0.30055
#
# Static dielectric constant tensor:
#      x y z
#    x 4.264910 0.000000 0.000000 
#    y 0.000000 4.189250 0.000000 
#    z 0.000000 0.000000 4.022190 
# 
# 
# High freq. dielectric constant tensor:
#      x y z
#    x 1.934640 0.000000 0.000000 
#    y 0.000000 1.934150 0.000000 
#    z 0.000000 0.000000 1.908380 
# 
# From -- ./inp_files/677.got.cif
#   From: 2010.03.12/outbox.cif.g09.slc.cpg/sg33_1_cif.got.tgz:677.got - 2010.04.14 01:49:19.
