data_PCOD8171348
_publ_section_title
;
Structure prediction by ZEFSAII (Michael W. Deem and Ramdas Pophale) SiO2 
 PCOD8171348
Probable space group: P N A 21
;
_chemical_formula_sum "Si O2"
_cell_formula_units_Z 32
_cell_length_a 12.235959
_cell_length_b 6.642650
_cell_length_c 17.774731
_cell_angle_alpha 90.000000
_cell_angle_beta 90.000000
_cell_angle_gamma 90.000000
_cell_volume 1444.715792
_symmetry_space_group_name_H-M "P N A 21"
_symmetry_group_IT_number 33
_symmetry_cell_setting 'orthorhombic'
loop_
_space_group_symop_operation_xyz
x,y,z
-x,-y,1/2+z
1/2-x,1/2+y,1/2+z
1/2+x,1/2-y,z
loop_
_atom_site_type_symbol
_atom_site_label
_atom_site_fract_x
_atom_site_fract_y
_atom_site_fract_z
Si Si1 0.321947 0.507030 0.820830
Si Si2 0.418462 0.465590 0.517991
Si Si3 0.125135 0.629483 0.907978
Si Si4 0.910374 0.995366 0.140396
Si Si5 0.509193 0.769475 0.770972
Si Si6 0.857790 0.584134 0.199920
Si Si7 0.197870 0.663505 0.557901
Si Si8 0.547242 0.770707 0.420839
O O1 0.247072 0.546499 0.894563
O O2 0.388844 0.712681 0.801379
O O3 0.251033 0.461660 0.747300
O O4 0.397341 0.314874 0.843805
O O5 0.373155 0.254643 0.485358
O O6 0.495289 0.406375 0.587297
O O7 0.324705 0.617831 0.545303
O O8 0.486955 0.578897 0.455008
O O9 0.094164 0.777532 0.838695
O O10 0.037060 0.449482 0.904570
O O11 0.858687 0.822120 0.190725
O O12 0.817432 0.111501 0.092018
O O13 0.967569 0.142074 0.197958
O O14 0.533822 0.000829 0.743853
O O15 0.852024 0.493989 0.116475
O O16 0.136316 0.640407 0.478566
#
# Coordination Sequence:
#
# PCOD8171348 Si02
#       8
#     4   4   4   4   4   4   4   4
#     4  11  24  43  66 103 136 180 239 287 352 424
#     4  11  23  43  68  98 139 177 228 286 347 420
#     4  11  25  42  67  99 135 185 228 285 362 408
#     4  10  23  45  69  96 137 177 230 289 338 423
#     4  10  23  43  64  96 137 169 231 288 334 418
#     4  10  23  45  68  98 135 187 234 278 365 419
#     4  10  23  42  67 101 134 177 235 287 350 421
#     4  11  24  43  65  99 137 178 231 292 346 421
#
# _framework density 22.149683
#
# number of rings (size 3 to 8) (size 9 to 14) (size 15 to 20)
#    0.000    1.500    1.250    2.250    5.250    4.000 
#    6.750    2.500    0.000    0.000    0.000    0.000 
#    0.000    0.000    0.000    0.000    0.000    0.000 
#
# Total GULP energy -396658.948879 kJ/mol
# GULP energy per Si atom -12395.592152 kJ/mol
# Density = 2.209927 g / cm^3
# Si number density = 22.149683 Si / 1000 Ang^3
#
#
#
# Elastic Constant Matrix: (Units=GPa)
#
#
# Indices 1 2 3 4 5 6 
#
# 1 117.3038 51.6720 26.9935 0.0000 0.0000 0.0000
# 2 51.6720 99.4071 31.5310 0.0000 0.0000 0.0000
# 3 26.9935 31.5310 82.1872 0.0000 0.0000 0.0000
# 4 0.0000 0.0000 0.0000 37.1310 0.0000 0.0000
# 5 0.0000 0.0000 0.0000 0.0000 28.4013 0.0000
# 6 0.0000 0.0000 0.0000 0.0000 0.0000 36.1950
#
#
#
# Elastic Compliance Matrix: (Units=1/GPa)
#
#
# Indices 1 2 3 4 5 6 
#
# 1 0.011250 -0.005324 -0.001653 0.000000 0.000000 0.000000
# 2 -0.005324 0.013973 -0.003612 0.000000 0.000000 0.000000
# 3 -0.001653 -0.003612 0.014096 0.000000 0.000000 0.000000
# 4 0.000000 0.000000 0.000000 0.026932 0.000000 0.000000
# 5 0.000000 0.000000 0.000000 0.000000 0.035210 0.000000
# 6 0.000000 0.000000 0.000000 0.000000 0.000000 0.027628
#
#
# Mechanical properties :
#
#
# Convention : Reuss Voigt Hill
#
# Bulk Modulus (GPa) = 55.12061 57.69900 56.40981
# Shear Modulus (GPa) = 31.98724 32.92555 32.45640
#
# Velocity S-wave (km/s) = 3.80431 3.85970 3.83210
# Velocity P-wave (km/s) = 6.65105 6.78006 6.71587
#
# Compressibility (1/GPa) = 0.01814203
#
# Stress axis : x y z
#
# Youngs Moduli (GPa) = 88.88702 71.56847 70.94271
#
# Poissons Ratio (x) = 0.38101 0.11724
# Poissons Ratio (y) = 0.47321 0.25625
# Poissons Ratio (z) = 0.14689 0.25851
#
# Static dielectric constant tensor:
#      x y z
#    x 3.986450 0.000000 0.000000 
#    y 0.000000 3.921460 0.000000 
#    z 0.000000 0.000000 4.236230 
# 
# 
# High freq. dielectric constant tensor:
#      x y z
#    x 1.865100 0.000000 0.000000 
#    y 0.000000 1.862500 0.000000 
#    z 0.000000 0.000000 1.891420 
# 
# From -- ./inp_files/9153.got.cif
#   From: 2010.03.12/outbox.cif.g09.slc.cpg/sg33_5_cif.got.tgz:9153.got - 2010.04.14 01:49:19.
