data_PCOD8171847
_publ_section_title
;
Structure prediction by ZEFSAII (Michael W. Deem and Ramdas Pophale) SiO2 
 PCOD8171847
Probable space group: P N N 2
;
_chemical_formula_sum "Si O2"
_cell_formula_units_Z 32
_cell_length_a 10.957697
_cell_length_b 14.289622
_cell_length_c 9.629273
_cell_angle_alpha 90.000000
_cell_angle_beta 90.000000
_cell_angle_gamma 90.000000
_cell_volume 1507.764548
_symmetry_space_group_name_H-M "P N N 2"
_symmetry_group_IT_number 34
_symmetry_cell_setting 'orthorhombic'
loop_
_space_group_symop_operation_xyz
x,y,z
-x,-y,z
1/2-x,1/2+y,1/2+z
1/2+x,1/2-y,1/2+z
loop_
_atom_site_type_symbol
_atom_site_label
_atom_site_fract_x
_atom_site_fract_y
_atom_site_fract_z
Si Si1 0.360962 0.974583 0.781730
Si Si2 0.754721 0.828861 0.826829
Si Si3 0.440327 0.648540 0.099265
Si Si4 0.139440 0.985315 0.250844
Si Si5 0.834113 0.815547 0.127917
Si Si6 0.317613 0.452865 0.048606
Si Si7 0.812805 0.715762 0.403135
Si Si8 0.115878 0.796530 0.120368
O O1 0.305327 0.937459 0.635993
O O2 0.351008 0.893334 0.898114
O O3 0.500000 0.000000 0.753791
O O4 0.283645 0.062832 0.833579
O O5 0.885694 0.816218 0.747610
O O6 0.650994 0.767596 0.752013
O O7 0.763416 0.794045 0.985443
O O8 0.362631 0.558470 0.061369
O O9 0.583068 0.622351 0.105578
O O10 0.421297 0.726233 0.978347
O O11 0.212997 0.945883 0.384730
O O12 0.151435 0.904753 0.137520
O O13 0.189459 0.078662 0.179527
O O14 0.000000 0.000000 0.301531
O O15 0.784612 0.748950 0.247651
O O16 0.973208 0.789353 0.096945
O O17 0.687967 0.736783 0.484931
#
# Coordination Sequence:
#
# PCOD8171847 Si02
#       8
#     4   4   4   4   4   4   4   4
#     4  11  25  41  60  90 137 178 205 258 340 407
#     4  10  23  41  63  93 133 170 215 272 326 389
#     4   9  18  38  65  96 123 156 219 282 314 377
#     4  10  18  36  64  94 121 155 211 279 324 362
#     4  11  22  40  65  94 126 167 217 272 325 381
#     4  10  18  36  67  93 121 167 218 268 326 376
#     4  11  22  41  62  95 131 173 211 265 338 387
#     4  10  23  40  64  94 131 160 214 278 324 387
#
# _framework density 21.223472000000001
#
# number of rings (size 3 to 8) (size 9 to 14) (size 15 to 20)
#    0.000    1.750    2.500    2.250    3.500    0.000 
#    4.500    0.000    0.000    4.500    0.000    0.000 
#    0.000    0.000    0.000    0.000    0.000    0.000 
#
# Total GULP energy -396773.411734 kJ/mol
# GULP energy per Si atom -12399.169117 kJ/mol
# Density = 2.117517 g / cm^3
# Si number density = 21.223472 Si / 1000 Ang^3
#
#
#
# Elastic Constant Matrix: (Units=GPa)
#
#
# Indices 1 2 3 4 5 6 
#
# 1 81.5470 27.2249 49.7124 0.0000 0.0000 0.0000
# 2 27.2249 105.3784 27.3101 0.0000 0.0000 0.0000
# 3 49.7124 27.3101 125.2902 0.0000 0.0000 0.0000
# 4 0.0000 0.0000 0.0000 28.3968 0.0000 0.0000
# 5 0.0000 0.0000 0.0000 0.0000 23.4531 0.0000
# 6 0.0000 0.0000 0.0000 0.0000 0.0000 28.9445
#
#
#
# Elastic Compliance Matrix: (Units=1/GPa)
#
#
# Indices 1 2 3 4 5 6 
#
# 1 0.016915 -0.002788 -0.006104 0.000000 0.000000 0.000000
# 2 -0.002788 0.010517 -0.001186 0.000000 0.000000 0.000000
# 3 -0.006104 -0.001186 0.010662 0.000000 0.000000 0.000000
# 4 0.000000 0.000000 0.000000 0.035215 0.000000 0.000000
# 5 0.000000 0.000000 0.000000 0.000000 0.042638 0.000000
# 6 0.000000 0.000000 0.000000 0.000000 0.000000 0.034549
#
#
# Mechanical properties :
#
#
# Convention : Reuss Voigt Hill
#
# Bulk Modulus (GPa) = 55.74817 57.85671 56.80244
# Shear Modulus (GPa) = 28.30756 30.02343 29.16550
#
# Velocity S-wave (km/s) = 3.65607 3.76524 3.71105
# Velocity P-wave (km/s) = 6.64430 6.79872 6.72195
#
# Compressibility (1/GPa) = 0.01793781
#
# Stress axis : x y z
#
# Youngs Moduli (GPa) = 59.12079 95.08084 93.79276
#
# Poissons Ratio (x) = 0.26510 0.57247
# Poissons Ratio (y) = 0.16484 0.11126
# Poissons Ratio (z) = 0.36085 0.11279
#
# Static dielectric constant tensor:
#      x y z
#    x 3.600270 0.000000 0.000000 
#    y 0.000000 3.998100 0.000000 
#    z 0.000000 0.000000 3.905230 
# 
# 
# High freq. dielectric constant tensor:
#      x y z
#    x 1.803630 0.000000 0.000000 
#    y 0.000000 1.845220 0.000000 
#    z 0.000000 0.000000 1.834250 
# 
# From -- ./inp_files/3329.got.cif
#   From: 2010.03.12/outbox.cif.g09.slc.cpg/sg34_2_cif.got.tgz:3329.got - 2010.04.14 01:56:33.
