data_PCOD8171253
_publ_section_title
;
Structure prediction by ZEFSAII (Michael W. Deem and Ramdas Pophale) SiO2 
 PCOD8171253
Probable space group: P N A 21
;
_chemical_formula_sum "Si O2"
_cell_formula_units_Z 32
_cell_length_a 5.172802
_cell_length_b 30.148727
_cell_length_c 8.886360
_cell_angle_alpha 90.000000
_cell_angle_beta 90.000000
_cell_angle_gamma 90.000000
_cell_volume 1385.858014
_symmetry_space_group_name_H-M "P N A 21"
_symmetry_group_IT_number 33
_symmetry_cell_setting 'orthorhombic'
loop_
_space_group_symop_operation_xyz
x,y,z
-x,-y,1/2+z
1/2-x,1/2+y,1/2+z
1/2+x,1/2-y,z
loop_
_atom_site_type_symbol
_atom_site_label
_atom_site_fract_x
_atom_site_fract_y
_atom_site_fract_z
Si Si1 0.589286 0.776462 0.232370
Si Si2 0.785587 0.094311 0.110884
Si Si3 0.181995 0.453918 0.653210
Si Si4 0.624104 0.864440 0.090909
Si Si5 0.556408 0.403511 0.831436
Si Si6 0.219686 0.632971 0.748825
Si Si7 0.553465 0.968457 0.455833
Si Si8 0.863687 0.276735 0.083457
O O1 0.375624 0.739864 0.189290
O O2 0.490337 0.818016 0.131239
O O3 0.609897 0.788334 0.408276
O O4 0.566696 0.116736 0.209736
O O5 0.053882 0.098265 0.202788
O O6 0.689720 0.044317 0.065652
O O7 0.832711 0.116250 0.942383
O O8 0.463736 0.442660 0.718152
O O9 0.198777 0.487559 0.513900
O O10 0.057039 0.407349 0.603456
O O11 0.028658 0.478951 0.785714
O O12 0.839054 0.865390 0.223951
O O13 0.750174 0.862157 0.927334
O O14 0.761183 0.425160 0.949024
O O15 0.244101 0.680183 0.668916
O O16 0.651229 0.239360 0.128628
#
# Coordination Sequence:
#
# PCOD8171253 Si02
#       8
#     4   4   4   4   4   4   4   4
#     4  10  24  43  72  99 138 191 237 289 352 438
#     4  11  24  45  68 103 133 195 239 282 355 426
#     4  10  25  43  71 101 148 186 244 296 352 428
#     4  11  27  44  67 112 144 188 239 301 366 423
#     4  10  23  45  71  99 142 192 241 295 345 441
#     4  12  26  42  73 103 145 184 229 307 355 427
#     4  10  23  45  66 104 136 194 233 300 346 422
#     4  10  22  43  68 103 134 182 238 288 355 437
#
# _framework density 23.090385999999999
#
# number of rings (size 3 to 8) (size 9 to 14) (size 15 to 20)
#    0.000    1.500    1.250    1.500    8.750    6.000 
#    0.000    0.000    0.000    0.000    0.000    0.000 
#    0.000    0.000    0.000    0.000    0.000    0.000 
#
# Total GULP energy -396440.531878 kJ/mol
# GULP energy per Si atom -12388.766621 kJ/mol
# Density = 2.303783 g / cm^3
# Si number density = 23.090386 Si / 1000 Ang^3
#
#
#
# Elastic Constant Matrix: (Units=GPa)
#
#
# Indices 1 2 3 4 5 6 
#
# 1 102.9678 16.6473 30.6289 0.0000 0.0000 0.0000
# 2 16.6473 83.5521 51.3936 0.0000 0.0000 0.0000
# 3 30.6289 51.3936 93.9702 0.0000 0.0000 0.0000
# 4 0.0000 0.0000 0.0000 45.8098 0.0000 0.0000
# 5 0.0000 0.0000 0.0000 0.0000 23.2178 0.0000
# 6 0.0000 0.0000 0.0000 0.0000 0.0000 24.8298
#
#
#
# Elastic Compliance Matrix: (Units=1/GPa)
#
#
# Indices 1 2 3 4 5 6 
#
# 1 0.010754 0.000020 -0.003516 0.000000 0.000000 0.000000
# 2 0.000020 0.018036 -0.009871 0.000000 0.000000 0.000000
# 3 -0.003516 -0.009871 0.017186 0.000000 0.000000 0.000000
# 4 0.000000 0.000000 0.000000 0.021829 0.000000 0.000000
# 5 0.000000 0.000000 0.000000 0.000000 0.043070 0.000000
# 6 0.000000 0.000000 0.000000 0.000000 0.000000 0.040274
#
#
# Mechanical properties :
#
#
# Convention : Reuss Voigt Hill
#
# Bulk Modulus (GPa) = 51.96711 53.09218 52.52964
# Shear Modulus (GPa) = 27.12979 30.89284 29.01131
#
# Velocity S-wave (km/s) = 3.43146 3.66171 3.54845
# Velocity P-wave (km/s) = 6.18504 6.39692 6.29187
#
# Compressibility (1/GPa) = 0.01924294
#
# Stress axis : x y z
#
# Youngs Moduli (GPa) = 92.98438 55.44405 58.18584
#
# Poissons Ratio (x) = -0.00112 0.20460
# Poissons Ratio (y) = -0.00188 0.57434
# Poissons Ratio (z) = 0.32697 0.54728
#
# Static dielectric constant tensor:
#      x y z
#    x 4.237440 0.000000 0.000000 
#    y 0.000000 3.872200 0.000000 
#    z 0.000000 0.000000 4.220180 
# 
# 
# High freq. dielectric constant tensor:
#      x y z
#    x 1.915890 0.000000 0.000000 
#    y 0.000000 1.893620 0.000000 
#    z 0.000000 0.000000 1.914710 
# 
# From -- ./inp_files/2835.got.cif
#   From: 2010.03.12/outbox.cif.g09.slc.cpg/sg33_2_cif.got.tgz:2835.got - 2010.04.14 01:49:19.
