data_PCOD8171805
_publ_section_title
;
Structure prediction by ZEFSAII (Michael W. Deem and Ramdas Pophale) SiO2 
 PCOD8171805
Probable space group: P N A 21
;
_chemical_formula_sum "Si O2"
_cell_formula_units_Z 32
_cell_length_a 18.910134
_cell_length_b 11.354608
_cell_length_c 6.647299
_cell_angle_alpha 90.000000
_cell_angle_beta 90.000000
_cell_angle_gamma 90.000000
_cell_volume 1427.289155
_symmetry_space_group_name_H-M "P N A 21"
_symmetry_group_IT_number 33
_symmetry_cell_setting 'orthorhombic'
loop_
_space_group_symop_operation_xyz
x,y,z
-x,-y,1/2+z
1/2-x,1/2+y,1/2+z
1/2+x,1/2-y,z
loop_
_atom_site_type_symbol
_atom_site_label
_atom_site_fract_x
_atom_site_fract_y
_atom_site_fract_z
Si Si1 0.055257 0.618247 0.341020
Si Si2 0.998214 0.786283 0.685799
Si Si3 0.728738 0.480795 0.449374
Si Si4 0.683035 0.777196 0.094079
Si Si5 0.139598 0.896816 0.775263
Si Si6 0.806554 0.677104 0.296070
Si Si7 0.852545 0.887065 0.567399
Si Si8 0.934794 0.625505 0.028051
O O1 0.031731 0.694092 0.531075
O O2 0.112404 0.688305 0.211157
O O3 0.087331 0.493262 0.411279
O O4 0.987057 0.590316 0.207205
O O5 0.056119 0.884653 0.738719
O O6 0.934885 0.859191 0.590069
O O7 0.971398 0.719329 0.883457
O O8 0.758442 0.379872 0.593998
O O9 0.679479 0.573657 0.568527
O O10 0.802733 0.544810 0.385295
O O11 0.684725 0.415415 0.276888
O O12 0.725645 0.678032 0.214658
O O13 0.665065 0.727733 0.871633
O O14 0.155278 0.001124 0.927273
O O15 0.816810 0.772401 0.470272
O O16 0.865216 0.686563 0.121731
#
# Coordination Sequence:
#
# PCOD8171805 Si02
#       8
#     4   4   4   4   4   4   4   4
#     4  12  27  48  73 111 148 195 247 310 373 445
#     4  12  28  46  76 104 152 192 250 302 376 452
#     4  12  28  48  78 108 148 198 248 314 376 448
#     4  12  27  49  76 107 149 191 249 308 373 445
#     4  12  28  49  73 110 148 199 245 310 381 449
#     4  12  27  49  76 107 149 191 249 308 373 445
#     4  12  28  49  73 110 148 199 245 310 381 449
#     4  12  27  48  73 111 148 195 247 310 373 445
#
# _framework density 22.420124000000001
#
# number of rings (size 3 to 8) (size 9 to 14) (size 15 to 20)
#    0.000    0.000    6.250    2.250   10.500    0.000 
#    0.000    0.000    0.000    0.000    0.000    0.000 
#    0.000    0.000    0.000    0.000    0.000    0.000 
#
# Total GULP energy -396886.418707 kJ/mol
# GULP energy per Si atom -12402.700585 kJ/mol
# Density = 2.236910 g / cm^3
# Si number density = 22.420124 Si / 1000 Ang^3
#
#
#
# Elastic Constant Matrix: (Units=GPa)
#
#
# Indices 1 2 3 4 5 6 
#
# 1 112.6042 29.5836 35.7152 0.0000 0.0000 0.0000
# 2 29.5836 81.4866 29.3226 0.0000 0.0000 0.0000
# 3 35.7152 29.3226 102.1642 0.0000 0.0000 0.0000
# 4 0.0000 0.0000 0.0000 42.2698 0.0000 0.0000
# 5 0.0000 0.0000 0.0000 0.0000 42.9430 0.0000
# 6 0.0000 0.0000 0.0000 0.0000 0.0000 37.0939
#
#
#
# Elastic Compliance Matrix: (Units=1/GPa)
#
#
# Indices 1 2 3 4 5 6 
#
# 1 0.010526 -0.002785 -0.002880 0.000000 0.000000 0.000000
# 2 -0.002785 0.014422 -0.003166 0.000000 0.000000 0.000000
# 3 -0.002880 -0.003166 0.011704 0.000000 0.000000 0.000000
# 4 0.000000 0.000000 0.000000 0.023658 0.000000 0.000000
# 5 0.000000 0.000000 0.000000 0.000000 0.023287 0.000000
# 6 0.000000 0.000000 0.000000 0.000000 0.000000 0.026959
#
#
# Mechanical properties :
#
#
# Convention : Reuss Voigt Hill
#
# Bulk Modulus (GPa) = 52.66039 53.94420 53.30229
# Shear Modulus (GPa) = 37.16178 37.90359 37.53269
#
# Velocity S-wave (km/s) = 4.07568 4.11616 4.09597
# Velocity P-wave (km/s) = 6.75923 6.83397 6.79671
#
# Compressibility (1/GPa) = 0.01898961
#
# Stress axis : x y z
#
# Youngs Moduli (GPa) = 95.00366 69.33747 85.44269
#
# Poissons Ratio (x) = 0.19310 0.24611
# Poissons Ratio (y) = 0.26458 0.27050
# Poissons Ratio (z) = 0.27365 0.21951
#
# Static dielectric constant tensor:
#      x y z
#    x 4.147610 0.000000 0.000000 
#    y 0.000000 4.080950 0.000000 
#    z 0.000000 0.000000 4.137870 
# 
# 
# High freq. dielectric constant tensor:
#      x y z
#    x 1.892530 0.000000 0.000000 
#    y 0.000000 1.897390 0.000000 
#    z 0.000000 0.000000 1.895340 
# 
# From -- ./inp_files/2025.got.cif
#   From: 2010.03.12/outbox.cif.g09.slc.cpg/sg33_2_cif.got.tgz:2025.got - 2010.04.14 01:49:19.
