data_PCOD8171167
_publ_section_title
;
Structure prediction by ZEFSAII (Michael W. Deem and Ramdas Pophale) SiO2 
 PCOD8171167
Probable space group: P N A 21
;
_chemical_formula_sum "Si O2"
_cell_formula_units_Z 32
_cell_length_a 19.992523
_cell_length_b 9.029011
_cell_length_c 8.693184
_cell_angle_alpha 90.000000
_cell_angle_beta 90.000000
_cell_angle_gamma 90.000000
_cell_volume 1569.230203
_symmetry_space_group_name_H-M "P N A 21"
_symmetry_group_IT_number 33
_symmetry_cell_setting 'orthorhombic'
loop_
_space_group_symop_operation_xyz
x,y,z
-x,-y,1/2+z
1/2-x,1/2+y,1/2+z
1/2+x,1/2-y,z
loop_
_atom_site_type_symbol
_atom_site_label
_atom_site_fract_x
_atom_site_fract_y
_atom_site_fract_z
Si Si1 0.428572 0.579524 0.054150
Si Si2 0.703117 0.080519 0.735879
Si Si3 0.703117 0.419481 0.735879
Si Si4 0.332063 0.077040 0.543822
Si Si5 0.048106 0.075171 0.206726
Si Si6 0.451894 0.924829 0.706726
Si Si7 0.167937 0.922960 0.043822
Si Si8 0.428572 0.920476 0.054150
O O1 0.352202 0.556610 0.104114
O O2 0.474540 0.481938 0.165416
O O3 0.451121 0.750000 0.068426
O O4 0.434934 0.523599 0.879278
O O5 0.702333 0.250000 0.794320
O O6 0.774297 0.037379 0.664583
O O7 0.647798 0.056610 0.604114
O O8 0.690446 0.971333 0.875544
O O9 0.774297 0.462621 0.664583
O O10 0.690446 0.528667 0.875544
O O11 0.347497 0.250000 0.540181
O O12 0.399364 0.993033 0.588171
O O13 0.050694 0.250000 0.189314
O O14 0.100636 0.006967 0.088171
O O15 0.525460 0.981938 0.665416
O O16 0.434934 0.976401 0.879278
#
# Coordination Sequence:
#
# PCOD8171167 Si02
#       8
#     4   4   4   4   4   4   4   4
#     4  10  22  40  60  85 117 153 196 242 288 342
#     4  10  22  40  61  86 118 154 193 240 290 342
#     4  10  22  40  61  86 118 154 193 240 290 342
#     4  11  23  39  61  89 119 152 193 239 288 346
#     4  11  23  39  60  86 118 155 194 239 290 344
#     4  11  23  39  60  86 118 155 194 239 290 344
#     4  11  23  39  61  89 119 152 193 239 288 346
#     4  10  22  40  60  85 117 153 196 242 288 342
#
# _framework density 20.392164000000001
#
# number of rings (size 3 to 8) (size 9 to 14) (size 15 to 20)
#    0.000    1.500    0.000    4.500    0.000   11.000 
#    0.000    0.000    0.000    0.000    0.000    0.000 
#    0.000    0.000    0.000    0.000    0.000    0.000 
#
# Total GULP energy -397057.955743 kJ/mol
# GULP energy per Si atom -12408.061117 kJ/mol
# Density = 2.034575 g / cm^3
# Si number density = 20.392164 Si / 1000 Ang^3
#
#
#
# Elastic Constant Matrix: (Units=GPa)
#
#
# Indices 1 2 3 4 5 6 
#
# 1 67.4530 20.7317 -9.5206 0.0000 0.0000 0.0000
# 2 20.7317 66.8387 28.4223 0.0000 0.0000 0.0000
# 3 -9.5206 28.4223 76.2977 0.0000 0.0000 0.0000
# 4 0.0000 0.0000 0.0000 36.9882 0.0000 0.0000
# 5 0.0000 0.0000 0.0000 0.0000 35.3492 0.0000
# 6 0.0000 0.0000 0.0000 0.0000 0.0000 31.2740
#
#
#
# Elastic Compliance Matrix: (Units=1/GPa)
#
#
# Indices 1 2 3 4 5 6 
#
# 1 0.017926 -0.007737 0.005119 0.000000 0.000000 0.000000
# 2 -0.007737 0.021117 -0.008832 0.000000 0.000000 0.000000
# 3 0.005119 -0.008832 0.017035 0.000000 0.000000 0.000000
# 4 0.000000 0.000000 0.000000 0.027036 0.000000 0.000000
# 5 0.000000 0.000000 0.000000 0.000000 0.028289 0.000000
# 6 0.000000 0.000000 0.000000 0.000000 0.000000 0.031975
#
#
# Mechanical properties :
#
#
# Convention : Reuss Voigt Hill
#
# Bulk Modulus (GPa) = 30.14028 32.20626 31.17327
# Shear Modulus (GPa) = 28.19493 32.11933 30.15713
#
# Velocity S-wave (km/s) = 3.72241 3.97304 3.84977
# Velocity P-wave (km/s) = 5.76954 6.07243 5.92292
#
# Compressibility (1/GPa) = 0.03317820
#
# Stress axis : x y z
#
# Youngs Moduli (GPa) = 55.78628 47.35573 58.70155
#
# Poissons Ratio (x) = 0.36638 -0.30049
# Poissons Ratio (y) = 0.43161 0.51844
# Poissons Ratio (z) = -0.28556 0.41824
#
# Static dielectric constant tensor:
#      x y z
#    x 3.783360 0.000000 0.000000 
#    y 0.000000 3.672460 0.000000 
#    z 0.000000 0.000000 3.734710 
# 
# 
# High freq. dielectric constant tensor:
#      x y z
#    x 1.811120 0.000000 0.000000 
#    y 0.000000 1.797170 0.000000 
#    z 0.000000 0.000000 1.805820 
# 
# From -- ./inp_files/4789.got.cif
#   From: 2010.03.12/outbox.cif.g09.slc.cpg/sg33_3_cif.got.tgz:4789.got - 2010.04.14 01:49:19.
