data_PCOD8171554
_publ_section_title
;
Structure prediction by ZEFSAII (Michael W. Deem and Ramdas Pophale) SiO2 
 PCOD8171554
Probable space group: P N A 21
;
_chemical_formula_sum "Si O2"
_cell_formula_units_Z 20
_cell_length_a 9.769235
_cell_length_b 11.772043
_cell_length_c 7.374111
_cell_angle_alpha 90.000000
_cell_angle_beta 90.000000
_cell_angle_gamma 90.000000
_cell_volume 848.051188
_symmetry_space_group_name_H-M "P N A 21"
_symmetry_group_IT_number 33
_symmetry_cell_setting 'orthorhombic'
loop_
_space_group_symop_operation_xyz
x,y,z
-x,-y,1/2+z
1/2-x,1/2+y,1/2+z
1/2+x,1/2-y,z
loop_
_atom_site_type_symbol
_atom_site_label
_atom_site_fract_x
_atom_site_fract_y
_atom_site_fract_z
Si Si1 0.197276 0.419381 0.173440
Si Si2 0.429138 0.462944 0.459978
Si Si3 0.140508 0.230477 0.434247
Si Si4 0.128147 0.868641 0.348512
Si Si5 0.591193 0.840301 0.142336
O O1 0.323768 0.455221 0.297320
O O2 0.135323 0.302032 0.247744
O O3 0.092485 0.525347 0.180280
O O4 0.238692 0.399641 0.965191
O O5 0.560707 0.386308 0.410353
O O6 0.361605 0.429690 0.650884
O O7 0.490752 0.590334 0.454302
O O8 0.295897 0.201864 0.494002
O O9 0.062102 0.309013 0.580675
O O10 0.120249 0.732132 0.325237
#
# Coordination Sequence:
#
# PCOD8171554 Si02
#       5
#     4   4   4   4   4
#     4  12  24  46  74 104 144 198 234 311 368 421
#     4  11  22  45  74 100 144 193 253 293 352 452
#     4  11  23  48  69  99 153 183 238 312 348 426
#     4  11  22  42  75 102 138 196 243 288 367 428
#     4  11  25  47  70 109 147 182 252 306 347 451
#
# _framework density 23.583480999999999
#
# number of rings (size 3 to 8) (size 9 to 14) (size 15 to 20)
#    0.000    0.800    8.000    1.200    0.000    3.200 
#   10.800    0.000    0.000    0.000    0.000    0.000 
#    0.000    0.000    0.000    0.000    0.000    0.000 
#
# Total GULP energy -247929.296305 kJ/mol
# GULP energy per Si atom -12396.464815 kJ/mol
# Density = 2.352980 g / cm^3
# Si number density = 23.583481 Si / 1000 Ang^3
#
#
#
# Elastic Constant Matrix: (Units=GPa)
#
#
# Indices 1 2 3 4 5 6 
#
# 1 42.8583 4.0781 5.6535 0.0000 0.0000 0.0000
# 2 4.0781 92.0156 49.0364 0.0000 0.0000 0.0000
# 3 5.6535 49.0364 99.6481 0.0000 0.0000 0.0000
# 4 0.0000 0.0000 0.0000 36.9805 0.0000 0.0000
# 5 0.0000 0.0000 0.0000 0.0000 35.7475 0.0000
# 6 0.0000 0.0000 0.0000 0.0000 0.0000 32.5478
#
#
#
# Elastic Compliance Matrix: (Units=1/GPa)
#
#
# Indices 1 2 3 4 5 6 
#
# 1 0.023522 -0.000449 -0.001114 0.000000 0.000000 0.000000
# 2 -0.000449 0.014739 -0.007228 0.000000 0.000000 0.000000
# 3 -0.001114 -0.007228 0.013655 0.000000 0.000000 0.000000
# 4 0.000000 0.000000 0.000000 0.027041 0.000000 0.000000
# 5 0.000000 0.000000 0.000000 0.000000 0.027974 0.000000
# 6 0.000000 0.000000 0.000000 0.000000 0.000000 0.030724
#
#
# Mechanical properties :
#
#
# Convention : Reuss Voigt Hill
#
# Bulk Modulus (GPa) = 29.12373 39.11755 34.12064
# Shear Modulus (GPa) = 29.99719 32.77209 31.38464
#
# Velocity S-wave (km/s) = 3.57032 3.73181 3.65196
# Velocity P-wave (km/s) = 5.41962 5.93223 5.68171
#
# Compressibility (1/GPa) = 0.03433626
#
# Stress axis : x y z
#
# Youngs Moduli (GPa) = 42.51283 67.84554 73.23213
#
# Poissons Ratio (x) = 0.03047 0.08155
# Poissons Ratio (y) = 0.01909 0.52930
# Poissons Ratio (z) = 0.04734 0.49037
#
# Static dielectric constant tensor:
#      x y z
#    x 4.087980 0.000000 0.000000 
#    y 0.000000 4.697380 0.000000 
#    z 0.000000 0.000000 4.254380 
# 
# 
# High freq. dielectric constant tensor:
#      x y z
#    x 1.920080 0.000000 0.000000 
#    y 0.000000 1.944010 0.000000 
#    z 0.000000 0.000000 1.924910 
# 
# From -- ./inp_files/3043.got.cif
#   From: 2010.03.12/outbox.cif.g09.slc.cpg/sg33_2_cif.got.tgz:3043.got - 2010.04.14 01:49:19.
