data_PCOD8171691
_publ_section_title
;
Structure prediction by ZEFSAII (Michael W. Deem and Ramdas Pophale) SiO2 
 PCOD8171691
Probable space group: P N A 21
;
_chemical_formula_sum "Si O2"
_cell_formula_units_Z 28
_cell_length_a 11.082533
_cell_length_b 11.977806
_cell_length_c 9.113889
_cell_angle_alpha 90.000000
_cell_angle_beta 90.000000
_cell_angle_gamma 90.000000
_cell_volume 1209.818003
_symmetry_space_group_name_H-M "P N A 21"
_symmetry_group_IT_number 33
_symmetry_cell_setting 'orthorhombic'
loop_
_space_group_symop_operation_xyz
x,y,z
-x,-y,1/2+z
1/2-x,1/2+y,1/2+z
1/2+x,1/2-y,z
loop_
_atom_site_type_symbol
_atom_site_label
_atom_site_fract_x
_atom_site_fract_y
_atom_site_fract_z
Si Si1 0.137711 0.011458 0.988010
Si Si2 0.055714 0.557554 0.128242
Si Si3 0.528042 0.405948 0.261235
Si Si4 0.438543 0.183396 0.146694
Si Si5 0.695966 0.166645 0.614888
Si Si6 0.700169 0.812678 0.361575
Si Si7 0.765567 0.361992 0.397674
O O1 0.090150 0.941536 0.849996
O O2 0.181886 0.132738 0.935670
O O3 0.250434 0.951112 0.064838
O O4 0.033178 0.023995 0.110204
O O5 0.141123 0.590169 0.262899
O O6 0.011524 0.431794 0.144997
O O7 0.947547 0.648542 0.125912
O O8 0.133436 0.563322 0.978664
O O9 0.524180 0.274980 0.221681
O O10 0.644962 0.431556 0.361740
O O11 0.317366 0.174769 0.241487
O O12 0.397032 0.223459 0.984594
O O13 0.755298 0.205283 0.769438
O O14 0.728040 0.257409 0.494687
#
# Coordination Sequence:
#
# PCOD8171691 Si02
#       7
#     4   4   4   4   4   4   4
#     4  12  28  52  69 110 145 192 240 301 369 439
#     4  11  25  45  78 105 146 190 240 300 366 423
#     4  12  29  46  76 102 151 189 241 298 371 434
#     4  12  24  47  72 108 141 189 247 302 348 436
#     4  11  25  48  74 103 152 186 240 297 365 438
#     4  11  27  45  73 112 141 190 247 296 365 430
#     4  11  24  47  72 108 142 194 235 294 364 428
#
# _framework density 23.143978000000001
#
# number of rings (size 3 to 8) (size 9 to 14) (size 15 to 20)
#    0.000    0.571    4.286    1.714   12.000    0.000 
#    0.000    0.000    0.000    0.000    0.000    0.000 
#    0.000    0.000    0.000    0.000    0.000    0.000 
#
# Total GULP energy -347320.974479 kJ/mol
# GULP energy per Si atom -12404.320517 kJ/mol
# Density = 2.309130 g / cm^3
# Si number density = 23.143978 Si / 1000 Ang^3
#
#
#
# Elastic Constant Matrix: (Units=GPa)
#
#
# Indices 1 2 3 4 5 6 
#
# 1 102.9302 24.4830 38.8902 0.0000 0.0000 0.0000
# 2 24.4830 72.6328 17.1751 0.0000 0.0000 0.0000
# 3 38.8902 17.1751 116.0201 0.0000 0.0000 0.0000
# 4 0.0000 0.0000 0.0000 31.3812 0.0000 0.0000
# 5 0.0000 0.0000 0.0000 0.0000 39.1116 0.0000
# 6 0.0000 0.0000 0.0000 0.0000 0.0000 29.9748
#
#
#
# Elastic Compliance Matrix: (Units=1/GPa)
#
#
# Indices 1 2 3 4 5 6 
#
# 1 0.011780 -0.003147 -0.003483 0.000000 0.000000 0.000000
# 2 -0.003147 0.015108 -0.001182 0.000000 0.000000 0.000000
# 3 -0.003483 -0.001182 0.009962 0.000000 0.000000 0.000000
# 4 0.000000 0.000000 0.000000 0.031866 0.000000 0.000000
# 5 0.000000 0.000000 0.000000 0.000000 0.025568 0.000000
# 6 0.000000 0.000000 0.000000 0.000000 0.000000 0.033361
#
#
# Mechanical properties :
#
#
# Convention : Reuss Voigt Hill
#
# Bulk Modulus (GPa) = 47.11101 50.29775 48.70438
# Shear Modulus (GPa) = 33.25719 34.16250 33.70984
#
# Velocity S-wave (km/s) = 3.79485 3.84615 3.82059
# Velocity P-wave (km/s) = 6.29293 6.44233 6.36807
#
# Compressibility (1/GPa) = 0.02122646
#
# Stress axis : x y z
#
# Youngs Moduli (GPa) = 84.89110 66.18953 100.38620
#
# Poissons Ratio (x) = 0.20831 0.34962
# Poissons Ratio (y) = 0.26717 0.11862
# Poissons Ratio (z) = 0.29565 0.07821
#
# Static dielectric constant tensor:
#      x y z
#    x 4.156580 0.000000 0.000000 
#    y 0.000000 3.875290 0.000000 
#    z 0.000000 0.000000 4.508120 
# 
# 
# High freq. dielectric constant tensor:
#      x y z
#    x 1.919430 0.000000 0.000000 
#    y 0.000000 1.901670 0.000000 
#    z 0.000000 0.000000 1.936860 
# 
# From -- ./inp_files/3830.got.cif
#   From: 2010.03.12/outbox.cif.g09.slc.cpg/sg33_2_cif.got.tgz:3830.got - 2010.04.14 01:49:19.
