data_PCOD8171013
_publ_section_title
;
Structure prediction by ZEFSAII (Michael W. Deem and Ramdas Pophale) SiO2 
 PCOD8171013
Probable space group: P N A 21
;
_chemical_formula_sum "Si O2"
_cell_formula_units_Z 20
_cell_length_a 22.018513
_cell_length_b 8.213118
_cell_length_c 5.154860
_cell_angle_alpha 90.000000
_cell_angle_beta 90.000000
_cell_angle_gamma 90.000000
_cell_volume 932.208210
_symmetry_space_group_name_H-M "P N A 21"
_symmetry_group_IT_number 33
_symmetry_cell_setting 'orthorhombic'
loop_
_space_group_symop_operation_xyz
x,y,z
-x,-y,1/2+z
1/2-x,1/2+y,1/2+z
1/2+x,1/2-y,z
loop_
_atom_site_type_symbol
_atom_site_label
_atom_site_fract_x
_atom_site_fract_y
_atom_site_fract_z
Si Si1 0.506199 0.891740 0.455620
Si Si2 0.255823 0.256725 0.976644
Si Si3 0.121271 0.796774 0.249724
Si Si4 0.213789 0.594315 0.988613
Si Si5 0.465226 0.553741 0.548683
O O1 0.569099 0.799581 0.400985
O O2 0.456699 0.749331 0.516513
O O3 0.514633 0.007724 0.703573
O O4 0.323615 0.336126 0.947359
O O5 0.206036 0.399613 0.988111
O O6 0.242345 0.141877 0.730020
O O7 0.251853 0.147577 0.230355
O O8 0.097732 0.965931 0.126579
O O9 0.147508 0.677698 0.022019
O O10 0.485920 0.476781 0.276053
#
# Coordination Sequence:
#
# PCOD8171013 Si02
#       5
#     4   4   4   4   4
#     4  11  23  40  60  94 125 155 209 263 298 365
#     4  10  22  41  65  87 124 159 205 254 306 365
#     4   9  24  39  68  83 130 163 204 247 325 360
#     4  10  22  41  65  89 123 160 208 255 305 365
#     4  10  21  39  64  85 122 163 202 243 310 375
#
# _framework density 21.454432000000001
#
# number of rings (size 3 to 8) (size 9 to 14) (size 15 to 20)
#    1.200    0.800    0.000    3.600    8.400    0.000 
#    3.600    0.000    0.000    0.000    0.000    0.000 
#    0.000    0.000    0.000    0.000    0.000    0.000 
#
# Total GULP energy -247848.721536 kJ/mol
# GULP energy per Si atom -12392.436077 kJ/mol
# Density = 2.140560 g / cm^3
# Si number density = 21.454432 Si / 1000 Ang^3
#
#
#
# Elastic Constant Matrix: (Units=GPa)
#
#
# Indices 1 2 3 4 5 6 
#
# 1 31.1915 1.7099 -2.6991 0.0000 0.0000 0.0000
# 2 1.7099 104.8714 46.5400 0.0000 0.0000 0.0000
# 3 -2.6991 46.5400 150.5023 0.0000 0.0000 0.0000
# 4 0.0000 0.0000 0.0000 45.8873 0.0000 0.0000
# 5 0.0000 0.0000 0.0000 0.0000 -27.7215 0.0000
# 6 0.0000 0.0000 0.0000 0.0000 0.0000 33.3890
#
#
#
# Elastic Compliance Matrix: (Units=1/GPa)
#
#
# Indices 1 2 3 4 5 6 
#
# 1 0.032184 -0.000905 0.000857 0.000000 0.000000 0.000000
# 2 -0.000905 0.011078 -0.003442 0.000000 0.000000 0.000000
# 3 0.000857 -0.003442 0.007724 0.000000 0.000000 0.000000
# 4 0.000000 0.000000 0.000000 0.021793 0.000000 0.000000
# 5 0.000000 0.000000 0.000000 0.000000 -0.036073 0.000000
# 6 0.000000 0.000000 0.000000 0.000000 0.000000 0.029950
#
#
# Mechanical properties :
#
#
# Convention : Reuss Voigt Hill
#
# Bulk Modulus (GPa) = 22.72423 41.96301 32.34362
# Shear Modulus (GPa) = 56.62303 26.37858 41.50080
#
# Velocity S-wave (km/s) = 5.14291 3.51025 4.40292
# Velocity P-wave (km/s) = 6.77354 6.00256 6.39967
#
# Compressibility (1/GPa) = 0.04400589
#
# Stress axis : x y z
#
# Youngs Moduli (GPa) = 31.07151 90.27187 129.46505
#
# Poissons Ratio (x) = 0.08171 -0.11096
# Poissons Ratio (y) = 0.02812 0.44559
# Poissons Ratio (z) = -0.02663 0.31070
#
# Static dielectric constant tensor:
#      x y z
#    x 3.425940 0.000000 0.000000 
#    y 0.000000 3.978940 0.000000 
#    z 0.000000 0.000000 3.911090 
# 
# 
# High freq. dielectric constant tensor:
#      x y z
#    x 1.801900 0.000000 0.000000 
#    y 0.000000 1.847520 0.000000 
#    z 0.000000 0.000000 1.856920 
# 
# From -- ./inp_files/2164.got.cif
#   From: 2010.03.12/outbox.cif.g09.slc.cpg/sg33_2_cif.got.tgz:2164.got - 2010.04.14 01:49:19.
