data_PCOD8171849
_publ_section_title
;
Structure prediction by ZEFSAII (Michael W. Deem and Ramdas Pophale) SiO2 
 PCOD8171849
Probable space group: P N N 2
;
_chemical_formula_sum "Si O2"
_cell_formula_units_Z 32
_cell_length_a 11.766269
_cell_length_b 8.831739
_cell_length_c 14.242608
_cell_angle_alpha 90.000000
_cell_angle_beta 90.000000
_cell_angle_gamma 90.000000
_cell_volume 1480.043638
_symmetry_space_group_name_H-M "P N N 2"
_symmetry_group_IT_number 34
_symmetry_cell_setting 'orthorhombic'
loop_
_space_group_symop_operation_xyz
x,y,z
-x,-y,z
1/2-x,1/2+y,1/2+z
1/2+x,1/2-y,1/2+z
loop_
_atom_site_type_symbol
_atom_site_label
_atom_site_fract_x
_atom_site_fract_y
_atom_site_fract_z
Si Si1 0.479082 0.766269 0.728710
Si Si2 0.749348 0.403615 0.003282
Si Si3 0.931160 0.855882 0.034089
Si Si4 0.956844 0.337494 0.883700
Si Si5 0.311166 0.261582 0.031721
Si Si6 0.901899 0.110269 0.721797
Si Si7 0.319215 0.043665 0.706454
Si Si8 0.025025 0.173501 0.433239
O O1 0.479485 0.653489 0.640453
O O2 0.603916 0.831417 0.758340
O O3 0.439320 0.689089 0.824347
O O4 0.392764 0.893275 0.692906
O O5 0.730508 0.581758 0.986868
O O6 0.798622 0.378213 0.106192
O O7 0.830055 0.346879 0.921157
O O8 0.638042 0.296709 0.994264
O O9 0.791630 0.863036 0.030602
O O10 0.000000 0.000000 0.991033
O O11 0.962509 0.712753 0.969563
O O12 0.956941 0.215496 0.800523
O O13 0.000000 0.500000 0.845939
O O14 0.351226 0.287005 0.138837
O O15 0.422551 0.215752 0.969241
O O16 0.798442 0.001100 0.759013
O O17 0.000000 0.000000 0.682242
O O18 0.000000 0.000000 0.453585
#
# Coordination Sequence:
#
# PCOD8171849 Si02
#       8
#     4   4   4   4   4   4   4   4
#     4  11  20  38  63  95 128 167 217 273 332 395
#     4  10  18  37  67  89 120 169 226 260 327 409
#     4  12  24  40  66 100 134 171 222 287 337 397
#     4  12  23  41  66  95 133 177 221 279 346 410
#     4  10  21  43  66  88 132 176 220 273 340 401
#     4  11  23  41  67  97 132 175 233 279 333 409
#     4  10  20  38  67  90 121 173 221 264 332 399
#     4  10  22  37  62  94 124 169 215 269 326 399
#
# _framework density 21.620982999999999
#
# number of rings (size 3 to 8) (size 9 to 14) (size 15 to 20)
#    0.000    1.250    5.000    3.375    0.000    2.000 
#    0.000    0.000    2.750    0.000    0.000    0.000 
#    0.000    0.000    0.000    0.000    0.000    0.000 
#
# Total GULP energy -396519.567856 kJ/mol
# GULP energy per Si atom -12391.236495 kJ/mol
# Density = 2.157177 g / cm^3
# Si number density = 21.620983 Si / 1000 Ang^3
#
#
#
# Elastic Constant Matrix: (Units=GPa)
#
#
# Indices 1 2 3 4 5 6 
#
# 1 155.3692 38.6441 41.1265 0.0000 0.0000 0.0000
# 2 38.6441 49.8193 15.5361 0.0000 0.0000 0.0000
# 3 41.1265 15.5361 91.7876 0.0000 0.0000 0.0000
# 4 0.0000 0.0000 0.0000 19.6076 0.0000 0.0000
# 5 0.0000 0.0000 0.0000 0.0000 28.4522 0.0000
# 6 0.0000 0.0000 0.0000 0.0000 0.0000 35.5257
#
#
#
# Elastic Compliance Matrix: (Units=1/GPa)
#
#
# Indices 1 2 3 4 5 6 
#
# 1 0.008645 -0.005804 -0.002891 0.000000 0.000000 0.000000
# 2 -0.005804 0.025088 -0.001646 0.000000 0.000000 0.000000
# 3 -0.002891 -0.001646 0.012469 0.000000 0.000000 0.000000
# 4 0.000000 0.000000 0.000000 0.051001 0.000000 0.000000
# 5 0.000000 0.000000 0.000000 0.000000 0.035147 0.000000
# 6 0.000000 0.000000 0.000000 0.000000 0.000000 0.028149
#
#
# Mechanical properties :
#
#
# Convention : Reuss Voigt Hill
#
# Bulk Modulus (GPa) = 39.18569 54.17664 46.68117
# Shear Modulus (GPa) = 26.35918 30.16171 28.26044
#
# Velocity S-wave (km/s) = 3.49542 3.73905 3.61928
# Velocity P-wave (km/s) = 5.86974 6.61457 6.25325
#
# Compressibility (1/GPa) = 0.02551952
#
# Stress axis : x y z
#
# Youngs Moduli (GPa) = 115.67006 39.85947 80.20089
#
# Poissons Ratio (x) = 0.23136 0.23187
# Poissons Ratio (y) = 0.67140 0.13199
# Poissons Ratio (z) = 0.33442 0.06560
#
# Static dielectric constant tensor:
#      x y z
#    x 4.395870 0.000000 0.000000 
#    y 0.000000 3.552490 0.000000 
#    z 0.000000 0.000000 3.593870 
# 
# 
# High freq. dielectric constant tensor:
#      x y z
#    x 1.872170 0.000000 0.000000 
#    y 0.000000 1.810460 0.000000 
#    z 0.000000 0.000000 1.839950 
# 
# From -- ./inp_files/6822.got.cif
#   From: 2010.03.12/outbox.cif.g09.slc.cpg/sg34_4_cif.got.tgz:6822.got - 2010.04.14 01:56:33.
