data_PCOD8171500
_publ_section_title
;
Structure prediction by ZEFSAII (Michael W. Deem and Ramdas Pophale) SiO2 
 PCOD8171500
Probable space group: P N A 21
;
_chemical_formula_sum "Si O2"
_cell_formula_units_Z 28
_cell_length_a 25.619792
_cell_length_b 8.048221
_cell_length_c 5.179290
_cell_angle_alpha 90.000000
_cell_angle_beta 90.000000
_cell_angle_gamma 90.000000
_cell_volume 1067.937217
_symmetry_space_group_name_H-M "P N A 21"
_symmetry_group_IT_number 33
_symmetry_cell_setting 'orthorhombic'
loop_
_space_group_symop_operation_xyz
x,y,z
-x,-y,1/2+z
1/2-x,1/2+y,1/2+z
1/2+x,1/2-y,z
loop_
_atom_site_type_symbol
_atom_site_label
_atom_site_fract_x
_atom_site_fract_y
_atom_site_fract_z
Si Si1 0.010689 0.099743 0.197950
Si Si2 0.531114 0.864935 0.366465
Si Si3 0.780861 0.264361 0.719850
Si Si4 0.269786 0.604612 0.711764
Si Si5 0.611177 0.756669 0.987792
Si Si6 0.085021 0.425611 0.703853
Si Si7 0.119641 0.118211 0.980020
O O1 0.071090 0.151540 0.169879
O O2 0.970071 0.248837 0.127065
O O3 0.001055 0.046047 0.490183
O O4 0.555304 0.758540 0.134194
O O5 0.471690 0.919437 0.338722
O O6 0.568613 0.027799 0.408737
O O7 0.752890 0.285616 0.442454
O O8 0.842911 0.280767 0.696019
O O9 0.766304 0.081385 0.817224
O O10 0.762640 0.386803 0.945230
O O11 0.329104 0.656719 0.645673
O O12 0.618269 0.570624 0.862603
O O13 0.617884 0.913882 0.798218
O O14 0.116046 0.252897 0.743212
#
# Coordination Sequence:
#
# PCOD8171500 Si02
#       7
#     4   4   4   4   4   4   4
#     4  11  23  42  71 106 148 194 240 296 363 433
#     4  11  23  41  70 103 151 188 245 296 365 443
#     4  11  27  46  80 103 148 189 243 318 371 443
#     4  11  26  51  73 111 140 191 252 302 381 438
#     4  11  24  47  67 104 143 191 241 300 378 432
#     4  11  24  43  68 104 144 190 240 301 355 438
#     4  10  25  46  71 103 142 195 243 299 363 445
#
# _framework density 26.218772000000001
#
# number of rings (size 3 to 8) (size 9 to 14) (size 15 to 20)
#    0.000    1.143    2.857    1.714    6.000    1.143 
#    2.571    0.000    0.000    0.000    0.000    0.000 
#    0.000    0.000    0.000    0.000    0.000    0.000 
#
# Total GULP energy -346983.532191 kJ/mol
# GULP energy per Si atom -12392.269007 kJ/mol
# Density = 2.615910 g / cm^3
# Si number density = 26.218772 Si / 1000 Ang^3
#
#
#
# Elastic Constant Matrix: (Units=GPa)
#
#
# Indices 1 2 3 4 5 6 
#
# 1 66.4515 22.2310 3.2920 0.0000 0.0000 0.0000
# 2 22.2310 114.3725 7.9615 0.0000 0.0000 0.0000
# 3 3.2920 7.9615 53.9009 0.0000 0.0000 0.0000
# 4 0.0000 0.0000 0.0000 37.2746 0.0000 0.0000
# 5 0.0000 0.0000 0.0000 0.0000 30.0771 0.0000
# 6 0.0000 0.0000 0.0000 0.0000 0.0000 34.8859
#
#
#
# Elastic Compliance Matrix: (Units=1/GPa)
#
#
# Indices 1 2 3 4 5 6 
#
# 1 0.016110 -0.003095 -0.000527 0.000000 0.000000 0.000000
# 2 -0.003095 0.009429 -0.001204 0.000000 0.000000 0.000000
# 3 -0.000527 -0.001204 0.018763 0.000000 0.000000 0.000000
# 4 0.000000 0.000000 0.000000 0.026828 0.000000 0.000000
# 5 0.000000 0.000000 0.000000 0.000000 0.033248 0.000000
# 6 0.000000 0.000000 0.000000 0.000000 0.000000 0.028665
#
#
# Mechanical properties :
#
#
# Convention : Reuss Voigt Hill
#
# Bulk Modulus (GPa) = 28.85931 33.52154 31.19042
# Shear Modulus (GPa) = 32.41650 33.86356 33.14003
#
# Velocity S-wave (km/s) = 3.52004 3.59775 3.55911
# Velocity P-wave (km/s) = 5.24899 5.48375 5.36765
#
# Compressibility (1/GPa) = 0.03465087
#
# Stress axis : x y z
#
# Youngs Moduli (GPa) = 62.07335 106.05950 53.29769
#
# Poissons Ratio (x) = 0.32822 0.02808
# Poissons Ratio (y) = 0.19210 0.06415
# Poissons Ratio (z) = 0.03270 0.12766
#
# Static dielectric constant tensor:
#      x y z
#    x 4.804840 0.000000 0.000000 
#    y 0.000000 5.265340 0.000000 
#    z 0.000000 0.000000 4.303290 
# 
# 
# High freq. dielectric constant tensor:
#      x y z
#    x 2.052870 0.000000 0.000000 
#    y 0.000000 2.070170 0.000000 
#    z 0.000000 0.000000 2.029000 
# 
# From -- ./inp_files/2408.got.cif
#   From: 2010.03.12/outbox.cif.g09.slc.cpg/sg33_2_cif.got.tgz:2408.got - 2010.04.14 01:49:19.
