data_PCOD8171667
_publ_section_title
;
Structure prediction by ZEFSAII (Michael W. Deem and Ramdas Pophale) SiO2 
 PCOD8171667
Probable space group: P N A 21
;
_chemical_formula_sum "Si O2"
_cell_formula_units_Z 24
_cell_length_a 18.435147
_cell_length_b 9.140875
_cell_length_c 6.246019
_cell_angle_alpha 90.000000
_cell_angle_beta 90.000000
_cell_angle_gamma 90.000000
_cell_volume 1052.537738
_symmetry_space_group_name_H-M "P N A 21"
_symmetry_group_IT_number 33
_symmetry_cell_setting 'orthorhombic'
loop_
_space_group_symop_operation_xyz
x,y,z
-x,-y,1/2+z
1/2-x,1/2+y,1/2+z
1/2+x,1/2-y,z
loop_
_atom_site_type_symbol
_atom_site_label
_atom_site_fract_x
_atom_site_fract_y
_atom_site_fract_z
Si Si1 0.724725 0.124368 0.801480
Si Si2 0.469796 0.204187 0.030640
Si Si3 0.929855 0.607983 0.179581
Si Si4 0.356642 0.428681 0.076086
Si Si5 0.909432 0.822275 0.808591
Si Si6 0.300292 0.573265 0.466734
O O1 0.639594 0.085554 0.836950
O O2 0.747227 0.045373 0.577603
O O3 0.774241 0.058222 0.990070
O O4 0.736216 0.302708 0.810666
O O5 0.387778 0.265972 0.033268
O O6 0.514213 0.307752 0.190793
O O7 0.468939 0.041222 0.119922
O O8 0.508754 0.204684 0.798875
O O9 0.897930 0.686594 0.969344
O O10 0.355236 0.475827 0.323994
O O11 0.412038 0.530246 0.945684
O O12 0.843001 0.830306 0.642213
#
# Coordination Sequence:
#
# PCOD8171667 Si02
#       6
#     4   4   4   4   4   4
#     4  11  25  45  74 107 147 190 244 300 376 434
#     4  12  26  45  73 108 142 196 248 306 364 441
#     4  12  25  48  72 107 149 190 244 301 371 435
#     4  11  27  46  75 107 145 194 247 300 368 442
#     4  11  24  44  71 101 145 189 237 303 364 432
#     4  11  25  46  71 110 142 195 240 308 365 442
#
# _framework density 22.802033999999999
#
# number of rings (size 3 to 8) (size 9 to 14) (size 15 to 20)
#    0.000    0.667    5.000    1.000    7.000    2.667 
#    3.000    0.000    0.000    0.000    0.000    0.000 
#    0.000    0.000    0.000    0.000    0.000    0.000 
#
# Total GULP energy -297501.436051 kJ/mol
# GULP energy per Si atom -12395.893169 kJ/mol
# Density = 2.275014 g / cm^3
# Si number density = 22.802034 Si / 1000 Ang^3
#
#
#
# Elastic Constant Matrix: (Units=GPa)
#
#
# Indices 1 2 3 4 5 6 
#
# 1 84.3131 29.6334 39.4073 0.0000 0.0000 0.0000
# 2 29.6334 113.0682 54.2271 0.0000 0.0000 0.0000
# 3 39.4073 54.2271 106.9608 0.0000 0.0000 0.0000
# 4 0.0000 0.0000 0.0000 49.5182 0.0000 0.0000
# 5 0.0000 0.0000 0.0000 0.0000 28.9693 0.0000
# 6 0.0000 0.0000 0.0000 0.0000 0.0000 44.3373
#
#
#
# Elastic Compliance Matrix: (Units=1/GPa)
#
#
# Indices 1 2 3 4 5 6 
#
# 1 0.014555 -0.001642 -0.004530 0.000000 0.000000 0.000000
# 2 -0.001642 0.011871 -0.005413 0.000000 0.000000 0.000000
# 3 -0.004530 -0.005413 0.013763 0.000000 0.000000 0.000000
# 4 0.000000 0.000000 0.000000 0.020195 0.000000 0.000000
# 5 0.000000 0.000000 0.000000 0.000000 0.034519 0.000000
# 6 0.000000 0.000000 0.000000 0.000000 0.000000 0.022554
#
#
# Mechanical properties :
#
#
# Convention : Reuss Voigt Hill
#
# Bulk Modulus (GPa) = 58.76220 61.20864 59.98542
# Shear Modulus (GPa) = 34.17641 36.63659 35.40650
#
# Velocity S-wave (km/s) = 3.87567 4.01275 3.94481
# Velocity P-wave (km/s) = 6.77158 6.95495 6.86388
#
# Compressibility (1/GPa) = 0.01701774
#
# Stress axis : x y z
#
# Youngs Moduli (GPa) = 68.70510 84.24054 72.66061
#
# Poissons Ratio (x) = 0.13833 0.32915
# Poissons Ratio (y) = 0.11282 0.39333
# Poissons Ratio (z) = 0.31123 0.45602
#
# Static dielectric constant tensor:
#      x y z
#    x 3.931410 0.000000 0.000000 
#    y 0.000000 4.120700 0.000000 
#    z 0.000000 0.000000 4.187080 
# 
# 
# High freq. dielectric constant tensor:
#      x y z
#    x 1.892640 0.000000 0.000000 
#    y 0.000000 1.903250 0.000000 
#    z 0.000000 0.000000 1.899650 
# 
# From -- ./inp_files/1667.got.cif
#   From: 2010.03.12/outbox.cif.g09.slc.cpg/sg33_1_cif.got.tgz:1667.got - 2010.04.14 01:49:19.
