data_PCOD8171686
_publ_section_title
;
Structure prediction by ZEFSAII (Michael W. Deem and Ramdas Pophale) SiO2 
 PCOD8171686
Probable space group: P N A 21
;
_chemical_formula_sum "Si O2"
_cell_formula_units_Z 28
_cell_length_a 21.387536
_cell_length_b 6.671351
_cell_length_c 7.778488
_cell_angle_alpha 90.000000
_cell_angle_beta 90.000000
_cell_angle_gamma 90.000000
_cell_volume 1109.863912
_symmetry_space_group_name_H-M "P N A 21"
_symmetry_group_IT_number 33
_symmetry_cell_setting 'orthorhombic'
loop_
_space_group_symop_operation_xyz
x,y,z
-x,-y,1/2+z
1/2-x,1/2+y,1/2+z
1/2+x,1/2-y,z
loop_
_atom_site_type_symbol
_atom_site_label
_atom_site_fract_x
_atom_site_fract_y
_atom_site_fract_z
Si Si1 0.139965 0.155960 0.432270
Si Si2 0.131796 0.465856 0.169539
Si Si3 0.691947 0.011540 0.646230
Si Si4 0.468889 0.463661 0.138579
Si Si5 0.250497 0.367752 0.987671
Si Si6 0.965550 0.293329 0.818054
Si Si7 0.069515 0.605099 0.824631
O O1 0.119182 0.236744 0.241576
O O2 0.183705 0.339596 0.488705
O O3 0.082795 0.115755 0.560509
O O4 0.182752 0.960730 0.441269
O O5 0.106865 0.627376 0.312591
O O6 0.204544 0.495751 0.115456
O O7 0.087012 0.523502 0.011430
O O8 0.715323 0.147053 0.805884
O O9 0.741282 0.844876 0.582586
O O10 0.626348 0.911982 0.692228
O O11 0.527330 0.604405 0.187994
O O12 0.448195 0.343244 0.313384
O O13 0.484173 0.286507 0.005721
O O14 0.011058 0.472444 0.761673
#
# Coordination Sequence:
#
# PCOD8171686 Si02
#       7
#     4   4   4   4   4   4   4
#     4  12  26  46  72 108 147 197 255 312 384 462
#     4  11  27  47  74 107 151 197 250 318 383 452
#     4  11  24  46  72 106 150 197 250 322 381 456
#     4  12  27  46  76 111 155 205 251 316 399 462
#     4  11  25  48  71 106 146 197 256 313 387 459
#     4  12  27  46  76 113 154 197 255 314 386 476
#     4  11  24  49  73 107 153 196 251 321 378 467
#
# _framework density 25.228318000000002
#
# number of rings (size 3 to 8) (size 9 to 14) (size 15 to 20)
#    0.000    0.571    4.286    2.571    8.000    0.000 
#    0.000    0.000    0.000    0.000    0.000    0.000 
#    0.000    0.000    0.000    0.000    0.000    0.000 
#
# Total GULP energy -346949.463492 kJ/mol
# GULP energy per Si atom -12391.052268 kJ/mol
# Density = 2.517090 g / cm^3
# Si number density = 25.228318 Si / 1000 Ang^3
#
#
#
# Elastic Constant Matrix: (Units=GPa)
#
#
# Indices 1 2 3 4 5 6 
#
# 1 68.6978 49.1126 14.2125 0.0000 0.0000 0.0000
# 2 49.1126 112.6874 49.0117 0.0000 0.0000 0.0000
# 3 14.2125 49.0117 96.3945 0.0000 0.0000 0.0000
# 4 0.0000 0.0000 0.0000 55.4894 0.0000 0.0000
# 5 0.0000 0.0000 0.0000 0.0000 29.5144 0.0000
# 6 0.0000 0.0000 0.0000 0.0000 0.0000 46.0149
#
#
#
# Elastic Compliance Matrix: (Units=1/GPa)
#
#
# Indices 1 2 3 4 5 6 
#
# 1 0.021454 -0.010239 0.002043 0.000000 0.000000 0.000000
# 2 -0.010239 0.016280 -0.006768 0.000000 0.000000 0.000000
# 3 0.002043 -0.006768 0.013514 0.000000 0.000000 0.000000
# 4 0.000000 0.000000 0.000000 0.018021 0.000000 0.000000
# 5 0.000000 0.000000 0.000000 0.000000 0.033882 0.000000
# 6 0.000000 0.000000 0.000000 0.000000 0.000000 0.021732
#
#
# Mechanical properties :
#
#
# Convention : Reuss Voigt Hill
#
# Bulk Modulus (GPa) = 46.90464 55.82814 51.36639
# Shear Modulus (GPa) = 30.88000 37.23328 34.05664
#
# Velocity S-wave (km/s) = 3.50240 3.84585 3.67813
# Velocity P-wave (km/s) = 5.91508 6.47286 6.20025
#
# Compressibility (1/GPa) = 0.02131985
#
# Stress axis : x y z
#
# Youngs Moduli (GPa) = 46.61243 61.42509 73.99713
#
# Poissons Ratio (x) = 0.62890 -0.15115
# Poissons Ratio (y) = 0.47724 0.50081
# Poissons Ratio (z) = -0.09521 0.41572
#
# Static dielectric constant tensor:
#      x y z
#    x 4.536900 0.000000 0.000000 
#    y 0.000000 4.656520 0.000000 
#    z 0.000000 0.000000 4.753940 
# 
# 
# High freq. dielectric constant tensor:
#      x y z
#    x 2.004750 0.000000 0.000000 
#    y 0.000000 2.003750 0.000000 
#    z 0.000000 0.000000 2.017250 
# 
# From -- ./inp_files/5171.got.cif
#   From: 2010.03.12/outbox.cif.g09.slc.cpg/sg33_3_cif.got.tgz:5171.got - 2010.04.14 01:49:19.
