data_PCOD8171929
_publ_section_title
;
Structure prediction by ZEFSAII (Michael W. Deem and Ramdas Pophale) SiO2 
 PCOD8171929
Probable space group: P N N 2
;
_chemical_formula_sum "Si O2"
_cell_formula_units_Z 32
_cell_length_a 8.748881
_cell_length_b 16.385973
_cell_length_c 11.282497
_cell_angle_alpha 90.000000
_cell_angle_beta 90.000000
_cell_angle_gamma 90.000000
_cell_volume 1617.446673
_symmetry_space_group_name_H-M "P N N 2"
_symmetry_group_IT_number 34
_symmetry_cell_setting 'orthorhombic'
loop_
_space_group_symop_operation_xyz
x,y,z
-x,-y,z
1/2-x,1/2+y,1/2+z
1/2+x,1/2-y,1/2+z
loop_
_atom_site_type_symbol
_atom_site_label
_atom_site_fract_x
_atom_site_fract_y
_atom_site_fract_z
Si Si1 0.214746 0.642481 0.151080
Si Si2 0.776834 0.205409 0.575257
Si Si3 0.827224 0.490775 0.410270
Si Si4 0.538802 0.241174 0.224345
Si Si5 0.327738 0.472425 0.177234
Si Si6 0.201305 0.359604 0.538199
Si Si7 0.962550 0.253677 0.992862
Si Si8 0.086906 0.682813 0.392683
O O1 0.384714 0.672196 0.189068
O O2 0.214297 0.545358 0.135771
O O3 0.097227 0.679128 0.250061
O O4 0.165426 0.678535 0.024581
O O5 0.867771 0.257579 0.673497
O O6 0.789287 0.108570 0.601588
O O7 0.602768 0.235391 0.583470
O O8 0.845560 0.232677 0.446371
O O9 0.708807 0.533208 0.317681
O O10 0.803864 0.541716 0.532297
O O11 0.804138 0.394194 0.435501
O O12 0.000000 0.500000 0.360351
O O13 0.529832 0.229867 0.363691
O O14 0.641693 0.169056 0.166986
O O15 0.500000 0.500000 0.154034
O O16 0.375387 0.332150 0.510233
O O17 0.088226 0.325916 0.434749
#
# Coordination Sequence:
#
# PCOD8171929 Si02
#       8
#     4   4   4   4   4   4   4   4
#     4  10  21  38  57  89 121 155 203 253 306 373
#     4  11  22  36  62  86 121 160 197 256 311 369
#     4   9  19  35  61  91 116 156 203 260 308 360
#     4  10  20  39  57  89 119 157 204 245 310 369
#     4  11  22  35  58  89 123 154 201 264 315 365
#     4   9  20  35  57  89 119 156 201 256 304 368
#     4  11  23  35  60  88 123 162 204 248 308 373
#     4   9  19  37  60  86 121 157 200 257 313 366
#
# _framework density 19.784268000000001
#
# number of rings (size 3 to 8) (size 9 to 14) (size 15 to 20)
#    0.000    2.000    2.500    0.750    7.000    0.000 
#    0.000    0.000   13.750    0.000    0.000    0.000 
#    0.000    0.000    0.000    0.000    0.000    0.000 
#
# Total GULP energy -396446.161588 kJ/mol
# GULP energy per Si atom -12388.942550 kJ/mol
# Density = 1.973924 g / cm^3
# Si number density = 19.784268 Si / 1000 Ang^3
#
#
#
# Elastic Constant Matrix: (Units=GPa)
#
#
# Indices 1 2 3 4 5 6 
#
# 1 105.9385 22.7956 35.8350 0.0000 0.0000 0.0000
# 2 22.7956 115.5540 45.6240 0.0000 0.0000 0.0000
# 3 35.8350 45.6240 70.8191 0.0000 0.0000 0.0000
# 4 0.0000 0.0000 0.0000 31.4464 0.0000 0.0000
# 5 0.0000 0.0000 0.0000 0.0000 28.9318 0.0000
# 6 0.0000 0.0000 0.0000 0.0000 0.0000 18.4836
#
#
#
# Elastic Compliance Matrix: (Units=1/GPa)
#
#
# Indices 1 2 3 4 5 6 
#
# 1 0.011389 0.000038 -0.005788 0.000000 0.000000 0.000000
# 2 0.000038 0.011606 -0.007497 0.000000 0.000000 0.000000
# 3 -0.005788 -0.007497 0.021879 0.000000 0.000000 0.000000
# 4 0.000000 0.000000 0.000000 0.031800 0.000000 0.000000
# 5 0.000000 0.000000 0.000000 0.000000 0.034564 0.000000
# 6 0.000000 0.000000 0.000000 0.000000 0.000000 0.054102
#
#
# Mechanical properties :
#
#
# Convention : Reuss Voigt Hill
#
# Bulk Modulus (GPa) = 54.40046 55.64677 55.02361
# Shear Modulus (GPa) = 25.25777 28.30949 26.78363
#
# Velocity S-wave (km/s) = 3.57691 3.78684 3.68337
# Velocity P-wave (km/s) = 6.67949 6.87808 6.77951
#
# Compressibility (1/GPa) = 0.01838220
#
# Stress axis : x y z
#
# Youngs Moduli (GPa) = 87.80469 86.16060 45.70679
#
# Poissons Ratio (x) = -0.00331 0.26453
# Poissons Ratio (y) = -0.00337 0.34264
# Poissons Ratio (z) = 0.50818 0.64591
#
# Static dielectric constant tensor:
#      x y z
#    x 3.730380 0.000000 0.000000 
#    y 0.000000 3.725910 0.000000 
#    z 0.000000 0.000000 3.423240 
# 
# 
# High freq. dielectric constant tensor:
#      x y z
#    x 1.782060 0.000000 0.000000 
#    y 0.000000 1.761370 0.000000 
#    z 0.000000 0.000000 1.740500 
# 
# From -- ./inp_files/5163.got.cif
#   From: 2010.03.12/outbox.cif.g09.slc.cpg/sg34_3_cif.got.tgz:5163.got - 2010.04.14 01:56:33.
