data_PCOD8171393
_publ_section_title
;
Structure prediction by ZEFSAII (Michael W. Deem and Ramdas Pophale) SiO2 
 PCOD8171393
Probable space group: P N A 21
;
_chemical_formula_sum "Si O2"
_cell_formula_units_Z 28
_cell_length_a 14.506388
_cell_length_b 14.897867
_cell_length_c 5.274040
_cell_angle_alpha 90.000000
_cell_angle_beta 90.000000
_cell_angle_gamma 90.000000
_cell_volume 1139.795141
_symmetry_space_group_name_H-M "P N A 21"
_symmetry_group_IT_number 33
_symmetry_cell_setting 'orthorhombic'
loop_
_space_group_symop_operation_xyz
x,y,z
-x,-y,1/2+z
1/2-x,1/2+y,1/2+z
1/2+x,1/2-y,z
loop_
_atom_site_type_symbol
_atom_site_label
_atom_site_fract_x
_atom_site_fract_y
_atom_site_fract_z
Si Si1 0.593330 0.785531 0.832600
Si Si2 0.547710 0.469670 0.777626
Si Si3 0.713491 0.210626 0.319229
Si Si4 0.561163 0.289343 0.041262
Si Si5 0.248196 0.976122 0.634124
Si Si6 0.846314 0.463762 0.139847
Si Si7 0.558124 0.138408 0.677809
O O1 0.689052 0.743649 0.934158
O O2 0.529410 0.704525 0.721195
O O3 0.617276 0.862110 0.626072
O O4 0.538924 0.835813 0.054003
O O5 0.474093 0.487167 0.553750
O O6 0.640576 0.510861 0.673998
O O7 0.556265 0.362223 0.818398
O O8 0.658974 0.294997 0.189880
O O9 0.732264 0.130432 0.118412
O O10 0.650088 0.174413 0.542546
O O11 0.557621 0.185979 0.949401
O O12 0.273893 0.022634 0.368959
O O13 0.302041 0.020135 0.867261
O O14 0.932912 0.530820 0.194573
#
# Coordination Sequence:
#
# PCOD8171393 Si02
#       7
#     4   4   4   4   4   4   4
#     4  11  26  41  75 101 141 193 248 286 379 435
#     4  12  28  46  75 104 149 194 249 305 368 441
#     4  10  23  45  67 102 141 189 238 303 363 437
#     4  11  25  45  68 105 146 186 246 309 362 426
#     4  11  24  46  70 103 143 193 244 300 367 435
#     4  11  25  45  71 103 143 190 241 300 368 437
#     4  10  25  42  68 100 145 183 234 311 353 433
#
# _framework density 24.565819999999999
#
# number of rings (size 3 to 8) (size 9 to 14) (size 15 to 20)
#    0.000    1.143    1.429    2.571   12.000    1.143 
#    0.000    0.000    0.000    0.000    0.000    0.000 
#    0.000    0.000    0.000    0.000    0.000    0.000 
#
# Total GULP energy -347136.440524 kJ/mol
# GULP energy per Si atom -12397.730019 kJ/mol
# Density = 2.450991 g / cm^3
# Si number density = 24.565820 Si / 1000 Ang^3
#
#
#
# Elastic Constant Matrix: (Units=GPa)
#
#
# Indices 1 2 3 4 5 6 
#
# 1 164.0944 33.4949 25.1679 0.0000 0.0000 0.0000
# 2 33.4949 71.3752 7.4907 0.0000 0.0000 0.0000
# 3 25.1679 7.4907 76.8478 0.0000 0.0000 0.0000
# 4 0.0000 0.0000 0.0000 34.3771 0.0000 0.0000
# 5 0.0000 0.0000 0.0000 0.0000 32.9652 0.0000
# 6 0.0000 0.0000 0.0000 0.0000 0.0000 32.8771
#
#
#
# Elastic Compliance Matrix: (Units=1/GPa)
#
#
# Indices 1 2 3 4 5 6 
#
# 1 0.007032 -0.003090 -0.002002 0.000000 0.000000 0.000000
# 2 -0.003090 0.015513 -0.000500 0.000000 0.000000 0.000000
# 3 -0.002002 -0.000500 0.013717 0.000000 0.000000 0.000000
# 4 0.000000 0.000000 0.000000 0.029089 0.000000 0.000000
# 5 0.000000 0.000000 0.000000 0.000000 0.030335 0.000000
# 6 0.000000 0.000000 0.000000 0.000000 0.000000 0.030416
#
#
# Mechanical properties :
#
#
# Convention : Reuss Voigt Hill
#
# Bulk Modulus (GPa) = 39.87511 49.40271 44.63891
# Shear Modulus (GPa) = 34.33003 36.45481 35.39242
#
# Velocity S-wave (km/s) = 3.74233 3.85641 3.79980
# Velocity P-wave (km/s) = 5.91106 6.32322 6.12061
#
# Compressibility (1/GPa) = 0.02507830
#
# Stress axis : x y z
#
# Youngs Moduli (GPa) = 142.21208 64.46231 72.90188
#
# Poissons Ratio (x) = 0.19917 0.14593
# Poissons Ratio (y) = 0.43940 0.03647
# Poissons Ratio (z) = 0.28467 0.03224
#
# Static dielectric constant tensor:
#      x y z
#    x 4.640990 0.000000 0.000000 
#    y 0.000000 4.533030 0.000000 
#    z 0.000000 0.000000 4.200290 
# 
# 
# High freq. dielectric constant tensor:
#      x y z
#    x 1.991030 0.000000 0.000000 
#    y 0.000000 1.978160 0.000000 
#    z 0.000000 0.000000 1.965670 
# 
# From -- ./inp_files/1405.got.cif
#   From: 2010.03.12/outbox.cif.g09.slc.cpg/sg33_1_cif.got.tgz:1405.got - 2010.04.14 01:49:19.
