data_PCOD8171256
_publ_section_title
;
Structure prediction by ZEFSAII (Michael W. Deem and Ramdas Pophale) SiO2 
 PCOD8171256
Probable space group: P N A 21
;
_chemical_formula_sum "Si O2"
_cell_formula_units_Z 32
_cell_length_a 10.683604
_cell_length_b 15.871667
_cell_length_c 8.516692
_cell_angle_alpha 90.000000
_cell_angle_beta 90.000000
_cell_angle_gamma 90.000000
_cell_volume 1444.146549
_symmetry_space_group_name_H-M "P N A 21"
_symmetry_group_IT_number 33
_symmetry_cell_setting 'orthorhombic'
loop_
_space_group_symop_operation_xyz
x,y,z
-x,-y,1/2+z
1/2-x,1/2+y,1/2+z
1/2+x,1/2-y,z
loop_
_atom_site_type_symbol
_atom_site_label
_atom_site_fract_x
_atom_site_fract_y
_atom_site_fract_z
Si Si1 0.478138 0.674558 0.170460
Si Si2 0.023253 0.875796 0.825643
Si Si3 0.119648 0.458888 0.762207
Si Si4 0.162766 0.040584 0.803783
Si Si5 0.820940 0.275049 0.349739
Si Si6 0.878759 0.438760 0.556011
Si Si7 0.255737 0.794017 0.156399
Si Si8 0.210685 0.100744 0.134751
O O1 0.468548 0.588617 0.270242
O O2 0.358820 0.730559 0.226504
O O3 0.609086 0.723361 0.202748
O O4 0.458649 0.644530 0.991307
O O5 0.075241 0.785066 0.768834
O O6 0.928187 0.918056 0.701163
O O7 0.135549 0.943655 0.846876
O O8 0.217791 0.385772 0.724362
O O9 0.180147 0.544022 0.702406
O O10 0.990474 0.434956 0.680102
O O11 0.099489 0.478140 0.947374
O O12 0.250967 0.049388 0.652082
O O13 0.222524 0.090517 0.949693
O O14 0.876755 0.351625 0.456469
O O15 0.739771 0.214062 0.466091
O O16 0.739349 0.305795 0.201987
#
# Coordination Sequence:
#
# PCOD8171256 Si02
#       8
#     4   4   4   4   4   4   4   4
#     4  11  23  42  69  99 138 188 236 297 359 433
#     4  11  22  43  71  97 131 188 237 294 356 436
#     4  11  23  41  70 100 137 187 238 291 363 432
#     4  12  24  43  66 105 145 180 240 297 363 426
#     4  10  22  43  69  98 137 187 238 288 366 429
#     4  11  24  45  69 103 143 188 242 298 360 440
#     4  11  21  41  72  99 132 185 242 289 361 433
#     4  11  23  42  64 101 139 177 235 298 350 429
#
# _framework density 22.158417
#
# number of rings (size 3 to 8) (size 9 to 14) (size 15 to 20)
#    0.000    1.000    2.500    6.000    0.000    1.000 
#    6.750    0.000    0.000    0.000    0.000    0.000 
#    0.000    0.000    0.000    0.000    0.000    0.000 
#
# Total GULP energy -396474.956166 kJ/mol
# GULP energy per Si atom -12389.842380 kJ/mol
# Density = 2.210798 g / cm^3
# Si number density = 22.158417 Si / 1000 Ang^3
#
#
#
# Elastic Constant Matrix: (Units=GPa)
#
#
# Indices 1 2 3 4 5 6 
#
# 1 124.2272 45.3764 33.4675 0.0000 0.0000 0.0000
# 2 45.3764 103.0517 43.5333 0.0000 0.0000 0.0000
# 3 33.4675 43.5333 93.4509 0.0000 0.0000 0.0000
# 4 0.0000 0.0000 0.0000 35.3584 0.0000 0.0000
# 5 0.0000 0.0000 0.0000 0.0000 15.6390 0.0000
# 6 0.0000 0.0000 0.0000 0.0000 0.0000 38.9648
#
#
#
# Elastic Compliance Matrix: (Units=1/GPa)
#
#
# Indices 1 2 3 4 5 6 
#
# 1 0.009850 -0.003545 -0.001876 0.000000 0.000000 0.000000
# 2 -0.003545 0.013357 -0.004953 0.000000 0.000000 0.000000
# 3 -0.001876 -0.004953 0.013680 0.000000 0.000000 0.000000
# 4 0.000000 0.000000 0.000000 0.028282 0.000000 0.000000
# 5 0.000000 0.000000 0.000000 0.000000 0.063943 0.000000
# 6 0.000000 0.000000 0.000000 0.000000 0.000000 0.025664
#
#
# Mechanical properties :
#
#
# Convention : Reuss Voigt Hill
#
# Bulk Modulus (GPa) = 61.95993 62.83158 62.39575
# Shear Modulus (GPa) = 27.63917 31.21596 29.42756
#
# Velocity S-wave (km/s) = 3.53561 3.75742 3.64820
# Velocity P-wave (km/s) = 6.68508 6.87324 6.77982
#
# Compressibility (1/GPa) = 0.01613946
#
# Stress axis : x y z
#
# Youngs Moduli (GPa) = 101.52298 74.86775 73.09946
#
# Poissons Ratio (x) = 0.26537 0.13716
# Poissons Ratio (y) = 0.35985 0.36205
# Poissons Ratio (z) = 0.19049 0.37080
#
# Static dielectric constant tensor:
#      x y z
#    x 3.976760 0.000000 0.000000 
#    y 0.000000 4.258030 0.000000 
#    z 0.000000 0.000000 4.117680 
# 
# 
# High freq. dielectric constant tensor:
#      x y z
#    x 1.874500 0.000000 0.000000 
#    y 0.000000 1.879220 0.000000 
#    z 0.000000 0.000000 1.853040 
# 
# From -- ./inp_files/4003.got.cif
#   From: 2010.03.12/outbox.cif.g09.slc.cpg/sg33_3_cif.got.tgz:4003.got - 2010.04.14 01:49:19.
