data_PCOD8171966
_publ_section_title
;
Structure prediction by ZEFSAII (Michael W. Deem and Ramdas Pophale) SiO2 
 PCOD8171966
Probable space group: P N N 2
;
_chemical_formula_sum "Si O2"
_cell_formula_units_Z 28
_cell_length_a 8.071488
_cell_length_b 19.161423
_cell_length_c 9.110614
_cell_angle_alpha 90.000000
_cell_angle_beta 90.000000
_cell_angle_gamma 90.000000
_cell_volume 1409.058456
_symmetry_space_group_name_H-M "P N N 2"
_symmetry_group_IT_number 34
_symmetry_cell_setting 'orthorhombic'
loop_
_space_group_symop_operation_xyz
x,y,z
-x,-y,z
1/2-x,1/2+y,1/2+z
1/2+x,1/2-y,1/2+z
loop_
_atom_site_type_symbol
_atom_site_label
_atom_site_fract_x
_atom_site_fract_y
_atom_site_fract_z
Si Si1 0.383924 0.436176 0.754620
Si Si2 0.213958 0.341621 0.522917
Si Si3 0.307860 0.848009 0.685923
Si Si4 0.932650 0.286373 0.974835
Si Si5 0.360178 0.623305 0.976908
Si Si6 0.998883 0.759435 0.674165
Si Si7 0.307552 0.983598 0.515562
O O1 0.500000 0.500000 0.703381
O O2 0.298730 0.404270 0.611147
O O3 0.494087 0.383150 0.855159
O O4 0.225726 0.462396 0.847333
O O5 0.172868 0.364177 0.357856
O O6 0.343840 0.279585 0.545362
O O7 0.039949 0.311612 0.585175
O O8 0.476460 0.827634 0.604653
O O9 0.191553 0.780451 0.664449
O O10 0.241939 0.920352 0.617297
O O11 0.800536 0.340612 0.901807
O O12 0.050520 0.258317 0.843335
O O13 0.310652 0.549357 0.048695
O O14 0.404163 0.672725 0.114237
O O15 0.500000 0.000000 0.542582
#
# Coordination Sequence:
#
# PCOD8171966 Si02
#       7
#     4   4   4   4   4   4   4
#     4  10  22  42  65  90 126 168 208 258 319 392
#     4  10  24  39  61  91 126 160 205 264 315 379
#     4  11  22  40  61  92 121 162 208 260 316 373
#     4  10  22  38  63  90 122 156 211 254 321 373
#     4  10  21  38  64  92 118 166 209 256 320 380
#     4  10  22  37  60  93 119 161 201 263 313 378
#     4  11  21  39  67  87 122 165 214 257 308 387
#
# _framework density 19.871426
#
# number of rings (size 3 to 8) (size 9 to 14) (size 15 to 20)
#    0.000    1.714    2.857    0.857    6.000    1.143 
#    5.143    0.714    0.000    0.000    0.000    0.000 
#    0.000    0.000    0.000    0.000    0.000    0.000 
#
# Total GULP energy -346972.729903 kJ/mol
# GULP energy per Si atom -12391.883211 kJ/mol
# Density = 1.982620 g / cm^3
# Si number density = 19.871426 Si / 1000 Ang^3
#
#
#
# Elastic Constant Matrix: (Units=GPa)
#
#
# Indices 1 2 3 4 5 6 
#
# 1 62.5845 20.0037 43.2279 0.0000 0.0000 0.0000
# 2 20.0037 95.4048 50.6143 0.0000 0.0000 0.0000
# 3 43.2279 50.6143 123.1421 0.0000 0.0000 0.0000
# 4 0.0000 0.0000 0.0000 34.5123 0.0000 0.0000
# 5 0.0000 0.0000 0.0000 0.0000 20.6444 0.0000
# 6 0.0000 0.0000 0.0000 0.0000 0.0000 33.0686
#
#
#
# Elastic Compliance Matrix: (Units=1/GPa)
#
#
# Indices 1 2 3 4 5 6 
#
# 1 0.021123 -0.000633 -0.007155 0.000000 0.000000 0.000000
# 2 -0.000633 0.013424 -0.005295 0.000000 0.000000 0.000000
# 3 -0.007155 -0.005295 0.012809 0.000000 0.000000 0.000000
# 4 0.000000 0.000000 0.000000 0.028975 0.000000 0.000000
# 5 0.000000 0.000000 0.000000 0.000000 0.048439 0.000000
# 6 0.000000 0.000000 0.000000 0.000000 0.000000 0.030240
#
#
# Mechanical properties :
#
#
# Convention : Reuss Voigt Hill
#
# Bulk Modulus (GPa) = 47.19425 56.53591 51.86508
# Shear Modulus (GPa) = 26.56205 28.79742 27.67973
#
# Velocity S-wave (km/s) = 3.66005 3.81095 3.73626
# Velocity P-wave (km/s) = 6.45466 6.91933 6.69103
#
# Compressibility (1/GPa) = 0.02118902
#
# Stress axis : x y z
#
# Youngs Moduli (GPa) = 47.34265 74.49567 78.07172
#
# Poissons Ratio (x) = 0.04716 0.55858
# Poissons Ratio (y) = 0.02997 0.41340
# Poissons Ratio (z) = 0.33872 0.39447
#
# Static dielectric constant tensor:
#      x y z
#    x 3.723720 0.000000 0.000000 
#    y 0.000000 3.887500 0.000000 
#    z 0.000000 0.000000 3.490660 
# 
# 
# High freq. dielectric constant tensor:
#      x y z
#    x 1.773340 0.000000 0.000000 
#    y 0.000000 1.784130 0.000000 
#    z 0.000000 0.000000 1.757780 
# 
# From -- ./inp_files/2782.got.cif
#   From: 2010.03.12/outbox.cif.g09.slc.cpg/sg34_2_cif.got.tgz:2782.got - 2010.04.14 01:56:33.
