data_PCOD8171765
_publ_section_title
;
Structure prediction by ZEFSAII (Michael W. Deem and Ramdas Pophale) SiO2 
 PCOD8171765
Probable space group: P N A 21
;
_chemical_formula_sum "Si O2"
_cell_formula_units_Z 20
_cell_length_a 19.177104
_cell_length_b 6.857284
_cell_length_c 6.796681
_cell_angle_alpha 90.000000
_cell_angle_beta 90.000000
_cell_angle_gamma 90.000000
_cell_volume 893.782911
_symmetry_space_group_name_H-M "P N A 21"
_symmetry_group_IT_number 33
_symmetry_cell_setting 'orthorhombic'
loop_
_space_group_symop_operation_xyz
x,y,z
-x,-y,1/2+z
1/2-x,1/2+y,1/2+z
1/2+x,1/2-y,z
loop_
_atom_site_type_symbol
_atom_site_label
_atom_site_fract_x
_atom_site_fract_y
_atom_site_fract_z
Si Si1 0.003549 0.287181 0.596730
Si Si2 0.822266 0.144929 0.997593
Si Si3 0.086159 0.999914 0.854134
Si Si4 0.811094 0.825889 0.670160
Si Si5 0.397974 0.001914 0.831099
O O1 0.960771 0.472381 0.676649
O O2 0.026904 0.142554 0.770216
O O3 0.075223 0.370538 0.510057
O O4 0.956262 0.185858 0.430950
O O5 0.759802 0.292368 0.051330
O O6 0.857022 0.056827 0.191508
O O7 0.878368 0.278172 0.887820
O O8 0.797274 0.972907 0.851848
O O9 0.127161 0.094394 0.034991
O O10 0.832157 0.610602 0.742221
#
# Coordination Sequence:
#
# PCOD8171765 Si02
#       5
#     4   4   4   4   4
#     4  12  24  44  74 104 144 188 236 300 362 432
#     4  12  28  48  73 106 146 191 243 298 353 427
#     4  12  25  48  72 106 149 184 244 300 360 430
#     4  12  28  48  73 106 146 191 243 298 353 427
#     4  12  25  46  72 108 139 192 240 290 368 422
#
# _framework density 22.376798000000001
#
# number of rings (size 3 to 8) (size 9 to 14) (size 15 to 20)
#    0.000    0.000    4.000    6.000    5.600    3.200 
#    0.000    0.000    0.000    0.000    0.000    0.000 
#    0.000    0.000    0.000    0.000    0.000    0.000 
#
# Total GULP energy -248132.315100 kJ/mol
# GULP energy per Si atom -12406.615755 kJ/mol
# Density = 2.232587 g / cm^3
# Si number density = 22.376798 Si / 1000 Ang^3
#
#
#
# Elastic Constant Matrix: (Units=GPa)
#
#
# Indices 1 2 3 4 5 6 
#
# 1 92.0132 27.5284 27.8341 0.0000 0.0000 0.0000
# 2 27.5284 101.3283 39.3634 0.0000 0.0000 0.0000
# 3 27.8341 39.3634 99.3997 0.0000 0.0000 0.0000
# 4 0.0000 0.0000 0.0000 38.7396 0.0000 0.0000
# 5 0.0000 0.0000 0.0000 0.0000 43.7317 0.0000
# 6 0.0000 0.0000 0.0000 0.0000 0.0000 40.9288
#
#
#
# Elastic Compliance Matrix: (Units=1/GPa)
#
#
# Indices 1 2 3 4 5 6 
#
# 1 0.012339 -0.002375 -0.002515 0.000000 0.000000 0.000000
# 2 -0.002375 0.012120 -0.004135 0.000000 0.000000 0.000000
# 3 -0.002515 -0.004135 0.012402 0.000000 0.000000 0.000000
# 4 0.000000 0.000000 0.000000 0.025813 0.000000 0.000000
# 5 0.000000 0.000000 0.000000 0.000000 0.022867 0.000000
# 6 0.000000 0.000000 0.000000 0.000000 0.000000 0.024433
#
#
# Mechanical properties :
#
#
# Convention : Reuss Voigt Hill
#
# Bulk Modulus (GPa) = 53.15662 53.57700 53.36681
# Shear Modulus (GPa) = 37.23157 37.88105 37.55631
#
# Velocity S-wave (km/s) = 4.08345 4.11892 4.10122
# Velocity P-wave (km/s) = 6.78525 6.82757 6.80644
#
# Compressibility (1/GPa) = 0.01881233
#
# Stress axis : x y z
#
# Youngs Moduli (GPa) = 81.04153 82.50509 80.63279
#
# Poissons Ratio (x) = 0.19599 0.20276
# Poissons Ratio (y) = 0.19251 0.33339
# Poissons Ratio (z) = 0.20379 0.34113
#
# Static dielectric constant tensor:
#      x y z
#    x 3.943470 0.000000 0.000000 
#    y 0.000000 3.969600 0.000000 
#    z 0.000000 0.000000 4.103030 
# 
# 
# High freq. dielectric constant tensor:
#      x y z
#    x 1.892880 0.000000 0.000000 
#    y 0.000000 1.892130 0.000000 
#    z 0.000000 0.000000 1.890710 
# 
# From -- ./inp_files/1935.got.cif
#   From: 2010.03.12/outbox.cif.g09.slc.cpg/sg33_1_cif.got.tgz:1935.got - 2010.04.14 01:49:19.
