data_PCOD8171232
_publ_section_title
;
Structure prediction by ZEFSAII (Michael W. Deem and Ramdas Pophale) SiO2 
 PCOD8171232
Probable space group: P N A 21
;
_chemical_formula_sum "Si O2"
_cell_formula_units_Z 24
_cell_length_a 12.062440
_cell_length_b 4.896080
_cell_length_c 17.130964
_cell_angle_alpha 90.000000
_cell_angle_beta 90.000000
_cell_angle_gamma 90.000000
_cell_volume 1011.731971
_symmetry_space_group_name_H-M "P N A 21"
_symmetry_group_IT_number 33
_symmetry_cell_setting 'orthorhombic'
loop_
_space_group_symop_operation_xyz
x,y,z
-x,-y,1/2+z
1/2-x,1/2+y,1/2+z
1/2+x,1/2-y,z
loop_
_atom_site_type_symbol
_atom_site_label
_atom_site_fract_x
_atom_site_fract_y
_atom_site_fract_z
Si Si1 0.707504 0.260119 0.752370
Si Si2 0.403884 0.236416 0.996096
Si Si3 0.905947 0.915026 0.397021
Si Si4 0.403884 0.236416 0.178426
Si Si5 0.594053 0.415026 0.277501
Si Si6 0.292496 0.739881 0.922152
O O1 0.675423 0.221670 0.844968
O O2 0.684993 0.565891 0.721573
O O3 0.630149 0.070170 0.698866
O O4 0.836217 0.173120 0.744179
O O5 0.397425 0.290129 0.087261
O O6 0.532008 0.272246 0.969131
O O7 0.315008 0.434109 0.952949
O O8 0.369851 0.929830 0.975656
O O9 0.836217 0.173120 0.430343
O O10 1.000000 0.000000 0.337261
O O11 0.532008 0.272246 0.205392
O O12 0.675423 0.221670 0.329554
#
# Coordination Sequence:
#
# PCOD8171232 Si02
#       6
#     4   4   4   4   4   4
#     4  11  23  42  66  94 127 166 217 268 315 376
#     4  11  25  42  63  95 132 170 211 261 326 387
#     4  10  22  42  67  93 123 166 215 263 312 375
#     4  11  25  42  63  95 132 170 211 261 326 387
#     4  10  22  42  67  93 123 166 215 263 312 375
#     4  11  23  42  66  94 127 166 217 268 315 376
#
# _framework density 23.721696999999999
#
# number of rings (size 3 to 8) (size 9 to 14) (size 15 to 20)
#    0.000    1.333    0.000    6.000    0.000   10.667 
#    0.000    0.000    0.000    0.000    0.000    0.000 
#    0.000    0.000    0.000    0.000    0.000    0.000 
#
# Total GULP energy -297567.460546 kJ/mol
# GULP energy per Si atom -12398.644189 kJ/mol
# Density = 2.366771 g / cm^3
# Si number density = 23.721697 Si / 1000 Ang^3
#
#
#
# Elastic Constant Matrix: (Units=GPa)
#
#
# Indices 1 2 3 4 5 6 
#
# 1 84.9570 -7.2778 18.0166 0.0000 0.0000 0.0000
# 2 -7.2778 50.0359 6.3081 0.0000 0.0000 0.0000
# 3 18.0166 6.3081 135.7882 0.0000 0.0000 0.0000
# 4 0.0000 0.0000 0.0000 25.9482 0.0000 0.0000
# 5 0.0000 0.0000 0.0000 0.0000 28.5922 0.0000
# 6 0.0000 0.0000 0.0000 0.0000 0.0000 26.9590
#
#
#
# Elastic Compliance Matrix: (Units=1/GPa)
#
#
# Indices 1 2 3 4 5 6 
#
# 1 0.012309 0.002008 -0.001726 0.000000 0.000000 0.000000
# 2 0.002008 0.020431 -0.001216 0.000000 0.000000 0.000000
# 3 -0.001726 -0.001216 0.007650 0.000000 0.000000 0.000000
# 4 0.000000 0.000000 0.000000 0.038538 0.000000 0.000000
# 5 0.000000 0.000000 0.000000 0.000000 0.034975 0.000000
# 6 0.000000 0.000000 0.000000 0.000000 0.000000 0.037093
#
#
# Mechanical properties :
#
#
# Convention : Reuss Voigt Hill
#
# Bulk Modulus (GPa) = 25.95940 33.87500 29.91720
# Shear Modulus (GPa) = 30.17423 33.21552 31.69487
#
# Velocity S-wave (km/s) = 3.57039 3.74601 3.65925
# Velocity P-wave (km/s) = 5.28810 5.74641 5.52201
#
# Compressibility (1/GPa) = 0.03852169
#
# Stress axis : x y z
#
# Youngs Moduli (GPa) = 81.24271 48.94535 130.71990
#
# Poissons Ratio (x) = -0.09828 0.22568
# Poissons Ratio (y) = -0.16313 0.15890
# Poissons Ratio (z) = 0.14026 0.05950
#
# Static dielectric constant tensor:
#      x y z
#    x 4.999970 0.000000 0.000000 
#    y 0.000000 4.101420 0.000000 
#    z 0.000000 0.000000 4.329960 
# 
# 
# High freq. dielectric constant tensor:
#      x y z
#    x 1.957330 0.000000 0.000000 
#    y 0.000000 1.935050 0.000000 
#    z 0.000000 0.000000 1.925630 
# 
# From -- ./inp_files/8613.got.cif
#   From: 2010.03.12/outbox.cif.g09.slc.cpg/sg33_5_cif.got.tgz:8613.got - 2010.04.14 01:49:19.
