data_PCOD8171199
_publ_section_title
;
Structure prediction by ZEFSAII (Michael W. Deem and Ramdas Pophale) SiO2 
 PCOD8171199
Probable space group: P N A 21
;
_chemical_formula_sum "Si O2"
_cell_formula_units_Z 24
_cell_length_a 24.012420
_cell_length_b 5.248003
_cell_length_c 8.577625
_cell_angle_alpha 90.000000
_cell_angle_beta 90.000000
_cell_angle_gamma 90.000000
_cell_volume 1080.928733
_symmetry_space_group_name_H-M "P N A 21"
_symmetry_group_IT_number 33
_symmetry_cell_setting 'orthorhombic'
loop_
_space_group_symop_operation_xyz
x,y,z
-x,-y,1/2+z
1/2-x,1/2+y,1/2+z
1/2+x,1/2-y,z
loop_
_atom_site_type_symbol
_atom_site_label
_atom_site_fract_x
_atom_site_fract_y
_atom_site_fract_z
Si Si1 0.256881 0.801862 0.115050
Si Si2 0.578445 0.573161 0.950383
Si Si3 0.632501 0.446637 0.636890
Si Si4 0.966256 0.690920 0.954067
Si Si5 0.939331 0.561383 0.615968
Si Si6 0.277168 0.312504 0.953762
O O1 0.218213 0.813117 0.267310
O O2 0.321691 0.774843 0.167548
O O3 0.240149 0.554910 0.011105
O O4 0.247950 0.054571 0.012852
O O5 0.616930 0.579458 0.798825
O O6 0.513184 0.602330 0.901494
O O7 0.595861 0.813439 0.059674
O O8 0.588185 0.313332 0.044495
O O9 0.578313 0.325556 0.562163
O O10 0.660000 0.660105 0.522936
O O11 0.937080 0.572297 0.802578
O O12 0.996503 0.469125 0.055745
#
# Coordination Sequence:
#
# PCOD8171199 Si02
#       6
#     4   4   4   4   4   4
#     4  10  23  44  72  96 128 171 219 282 338 394
#     4  10  23  40  61  93 131 177 215 273 320 403
#     4  10  24  41  71  93 135 175 225 267 347 392
#     4  10  22  41  63  95 134 182 214 272 323 401
#     4  10  23  37  63  87 139 169 220 262 319 378
#     4  10  23  45  70  96 131 170 219 284 339 390
#
# _framework density 22.203130000000002
#
# number of rings (size 3 to 8) (size 9 to 14) (size 15 to 20)
#    2.000    0.000    0.000    3.000    4.667    1.333 
#    3.000    0.000    0.000    0.000    0.000    0.000 
#    0.000    0.000    0.000    0.000    0.000    0.000 
#
# Total GULP energy -297460.285833 kJ/mol
# GULP energy per Si atom -12394.178576 kJ/mol
# Density = 2.215259 g / cm^3
# Si number density = 22.203130 Si / 1000 Ang^3
#
#
#
# Elastic Constant Matrix: (Units=GPa)
#
#
# Indices 1 2 3 4 5 6 
#
# 1 26.7130 -4.3405 -14.7187 0.0000 0.0000 0.0000
# 2 -4.3405 155.6245 25.6698 0.0000 0.0000 0.0000
# 3 -14.7187 25.6698 69.6913 0.0000 0.0000 0.0000
# 4 0.0000 0.0000 0.0000 35.1823 0.0000 0.0000
# 5 0.0000 0.0000 0.0000 0.0000 40.9674 0.0000
# 6 0.0000 0.0000 0.0000 0.0000 0.0000 12.5105
#
#
#
# Elastic Compliance Matrix: (Units=1/GPa)
#
#
# Indices 1 2 3 4 5 6 
#
# 1 0.042379 -0.000313 0.009066 0.000000 0.000000 0.000000
# 2 -0.000313 0.006844 -0.002587 0.000000 0.000000 0.000000
# 3 0.009066 -0.002587 0.017217 0.000000 0.000000 0.000000
# 4 0.000000 0.000000 0.000000 0.028423 0.000000 0.000000
# 5 0.000000 0.000000 0.000000 0.000000 0.024410 0.000000
# 6 0.000000 0.000000 0.000000 0.000000 0.000000 0.079933
#
#
# Mechanical properties :
#
#
# Convention : Reuss Voigt Hill
#
# Bulk Modulus (GPa) = 12.69512 29.47223 21.08367
# Shear Modulus (GPa) = 23.45970 34.09324 28.77647
#
# Velocity S-wave (km/s) = 3.25406 3.92282 3.60398
# Velocity P-wave (km/s) = 4.45518 5.81556 5.18022
#
# Compressibility (1/GPa) = 0.07877045
#
# Stress axis : x y z
#
# Youngs Moduli (GPa) = 23.59648 146.11987 58.08359
#
# Poissons Ratio (x) = 0.04579 -0.52658
# Poissons Ratio (y) = 0.00739 0.15026
# Poissons Ratio (z) = -0.21392 0.37801
#
# Static dielectric constant tensor:
#      x y z
#    x 3.557590 0.000000 0.000000 
#    y 0.000000 3.909610 0.000000 
#    z 0.000000 0.000000 3.772050 
# 
# 
# High freq. dielectric constant tensor:
#      x y z
#    x 1.843840 0.000000 0.000000 
#    y 0.000000 1.874680 0.000000 
#    z 0.000000 0.000000 1.875480 
# 
# From -- ./inp_files/5089.got.cif
#   From: 2010.03.12/outbox.cif.g09.slc.cpg/sg33_3_cif.got.tgz:5089.got - 2010.04.14 01:49:19.
