data_PCOD8171086
_publ_section_title
;
Structure prediction by ZEFSAII (Michael W. Deem and Ramdas Pophale) SiO2 
 PCOD8171086
Probable space group: P N A 21
;
_chemical_formula_sum "Si O2"
_cell_formula_units_Z 24
_cell_length_a 14.517944
_cell_length_b 9.550250
_cell_length_c 9.327880
_cell_angle_alpha 90.000000
_cell_angle_beta 90.000000
_cell_angle_gamma 90.000000
_cell_volume 1293.310512
_symmetry_space_group_name_H-M "P N A 21"
_symmetry_group_IT_number 33
_symmetry_cell_setting 'orthorhombic'
loop_
_space_group_symop_operation_xyz
x,y,z
-x,-y,1/2+z
1/2-x,1/2+y,1/2+z
1/2+x,1/2-y,z
loop_
_atom_site_type_symbol
_atom_site_label
_atom_site_fract_x
_atom_site_fract_y
_atom_site_fract_z
Si Si1 0.416808 0.497218 0.252520
Si Si2 0.827816 0.661443 0.557534
Si Si3 0.315575 0.168313 0.890314
Si Si4 0.746933 0.868717 0.094164
Si Si5 0.005700 0.820172 0.499430
Si Si6 0.245813 0.363881 0.365641
O O1 0.344008 0.589248 0.164007
O O2 0.478566 0.589110 0.360044
O O3 0.355503 0.389308 0.346609
O O4 0.482680 0.418383 0.139250
O O5 0.777126 0.763994 0.449066
O O6 0.804260 0.500207 0.519090
O O7 0.797278 0.693328 0.719073
O O8 0.934784 0.696635 0.537291
O O9 0.319480 0.192673 0.718488
O O10 0.400690 0.238723 0.968062
O O11 0.308797 0.001828 0.918675
O O12 0.771064 0.753912 0.980139
#
# Coordination Sequence:
#
# PCOD8171086 Si02
#       6
#     4   4   4   4   4   4
#     4  10  24  40  64  94 124 164 212 258 314 388
#     4  10  21  42  61  89 127 161 205 262 303 378
#     4  10  21  42  61  89 127 161 205 262 303 378
#     4  10  22  44  62  89 122 166 216 254 321 368
#     4  12  22  42  64  94 130 164 212 260 324 368
#     4  10  22  44  62  89 122 166 216 254 321 368
#
# _framework density 18.557029
#
# number of rings (size 3 to 8) (size 9 to 14) (size 15 to 20)
#    0.000    2.000    6.667    0.000    4.667    1.333 
#   12.000    0.000    0.000    0.000    0.000    0.000 
#    0.000    0.000    0.000    0.000    0.000    0.000 
#
# Total GULP energy -297527.142040 kJ/mol
# GULP energy per Si atom -12396.964252 kJ/mol
# Density = 1.851479 g / cm^3
# Si number density = 18.557029 Si / 1000 Ang^3
#
#
#
# Elastic Constant Matrix: (Units=GPa)
#
#
# Indices 1 2 3 4 5 6 
#
# 1 74.1693 18.1639 9.9838 0.0000 0.0000 0.0000
# 2 18.1639 80.6723 54.1706 0.0000 0.0000 0.0000
# 3 9.9838 54.1706 63.8823 0.0000 0.0000 0.0000
# 4 0.0000 0.0000 0.0000 38.3512 0.0000 0.0000
# 5 0.0000 0.0000 0.0000 0.0000 66.4167 0.0000
# 6 0.0000 0.0000 0.0000 0.0000 0.0000 49.0584
#
#
#
# Elastic Compliance Matrix: (Units=1/GPa)
#
#
# Indices 1 2 3 4 5 6 
#
# 1 0.014306 -0.003994 0.001151 0.000000 0.000000 0.000000
# 2 -0.003994 0.029903 -0.024733 0.000000 0.000000 0.000000
# 3 0.001151 -0.024733 0.036447 0.000000 0.000000 0.000000
# 4 0.000000 0.000000 0.000000 0.026075 0.000000 0.000000
# 5 0.000000 0.000000 0.000000 0.000000 0.015056 0.000000
# 6 0.000000 0.000000 0.000000 0.000000 0.000000 0.020384
#
#
# Mechanical properties :
#
#
# Convention : Reuss Voigt Hill
#
# Bulk Modulus (GPa) = 39.20950 42.59560 40.90255
# Shear Modulus (GPa) = 24.29275 39.85897 32.07586
#
# Velocity S-wave (km/s) = 3.62205 4.63959 4.16204
# Velocity P-wave (km/s) = 6.21831 7.19060 6.72206
#
# Compressibility (1/GPa) = 0.02550402
#
# Stress axis : x y z
#
# Youngs Moduli (GPa) = 69.90151 33.44173 27.43745
#
# Poissons Ratio (x) = 0.13356 -0.03158
# Poissons Ratio (y) = 0.27918 0.67860
# Poissons Ratio (z) = -0.08045 0.82710
#
# Static dielectric constant tensor:
#      x y z
#    x 3.161110 0.000000 0.000000 
#    y 0.000000 3.377960 0.000000 
#    z 0.000000 0.000000 3.507680 
# 
# 
# High freq. dielectric constant tensor:
#      x y z
#    x 1.716400 0.000000 0.000000 
#    y 0.000000 1.719590 0.000000 
#    z 0.000000 0.000000 1.727240 
# 
# From -- ./inp_files/4258.got.cif
#   From: 2010.03.12/outbox.cif.g09.slc.cpg/sg33_3_cif.got.tgz:4258.got - 2010.04.14 01:49:19.
