data_PCOD8171193
_publ_section_title
;
Structure prediction by ZEFSAII (Michael W. Deem and Ramdas Pophale) SiO2 
 PCOD8171193
Probable space group: P N A 21
;
_chemical_formula_sum "Si O2"
_cell_formula_units_Z 32
_cell_length_a 19.871921
_cell_length_b 12.228186
_cell_length_c 5.863079
_cell_angle_alpha 90.000000
_cell_angle_beta 90.000000
_cell_angle_gamma 90.000000
_cell_volume 1424.713810
_symmetry_space_group_name_H-M "P N A 21"
_symmetry_group_IT_number 33
_symmetry_cell_setting 'orthorhombic'
loop_
_space_group_symop_operation_xyz
x,y,z
-x,-y,1/2+z
1/2-x,1/2+y,1/2+z
1/2+x,1/2-y,z
loop_
_atom_site_type_symbol
_atom_site_label
_atom_site_fract_x
_atom_site_fract_y
_atom_site_fract_z
Si Si1 0.226274 0.535917 0.371460
Si Si2 0.155506 0.156424 0.668903
Si Si3 0.661217 0.782849 0.635740
Si Si4 0.117918 0.578599 0.023578
Si Si5 0.456232 0.235817 0.823558
Si Si6 0.484904 0.556824 0.124307
Si Si7 0.594281 0.159695 0.958873
Si Si8 0.292253 0.802108 0.808138
O O1 0.300422 0.589748 0.353144
O O2 0.180197 0.596645 0.551220
O O3 0.189938 0.543784 0.126279
O O4 0.228692 0.409846 0.452321
O O5 0.094375 0.078977 0.595593
O O6 0.202425 0.191446 0.456205
O O7 0.130466 0.273752 0.758605
O O8 0.606595 0.722246 0.476680
O O9 0.728981 0.710885 0.636593
O O10 0.627879 0.811031 0.876665
O O11 0.063064 0.620737 0.206094
O O12 0.089284 0.469713 0.899375
O O13 0.473580 0.330411 0.641322
O O14 0.519613 0.209900 0.988320
O O15 0.494114 0.499758 0.381136
O O16 0.635652 0.179310 0.190236
#
# Coordination Sequence:
#
# PCOD8171193 Si02
#       8
#     4   4   4   4   4   4   4   4
#     4  10  22  41  61 104 128 181 235 290 369 429
#     4  11  23  44  70 100 142 187 240 305 363 445
#     4  11  22  41  68  96 141 174 236 304 356 437
#     4  10  22  41  65  98 135 176 236 293 369 427
#     4  10  26  42  67 101 142 186 240 299 361 440
#     4  11  29  50  74 108 146 198 255 302 373 446
#     4  10  23  43  65  99 136 186 231 296 364 437
#     4  11  23  40  70  96 140 182 233 299 361 431
#
# _framework density 22.460650999999999
#
# number of rings (size 3 to 8) (size 9 to 14) (size 15 to 20)
#    0.000    1.500    2.500    0.750    8.750    1.000 
#    2.250    0.000    0.000    0.000    0.000    0.000 
#    0.000    0.000    0.000    0.000    0.000    0.000 
#
# Total GULP energy -396490.667875 kJ/mol
# GULP energy per Si atom -12390.333371 kJ/mol
# Density = 2.240953 g / cm^3
# Si number density = 22.460651 Si / 1000 Ang^3
#
#
#
# Elastic Constant Matrix: (Units=GPa)
#
#
# Indices 1 2 3 4 5 6 
#
# 1 139.6976 42.0630 24.2979 0.0000 0.0000 0.0000
# 2 42.0630 93.5016 16.1220 0.0000 0.0000 0.0000
# 3 24.2979 16.1220 58.0868 0.0000 0.0000 0.0000
# 4 0.0000 0.0000 0.0000 36.2358 0.0000 0.0000
# 5 0.0000 0.0000 0.0000 0.0000 29.7823 0.0000
# 6 0.0000 0.0000 0.0000 0.0000 0.0000 33.3730
#
#
#
# Elastic Compliance Matrix: (Units=1/GPa)
#
#
# Indices 1 2 3 4 5 6 
#
# 1 0.008656 -0.003434 -0.002668 0.000000 0.000000 0.000000
# 2 -0.003434 0.012595 -0.002059 0.000000 0.000000 0.000000
# 3 -0.002668 -0.002059 0.018903 0.000000 0.000000 0.000000
# 4 0.000000 0.000000 0.000000 0.027597 0.000000 0.000000
# 5 0.000000 0.000000 0.000000 0.000000 0.033577 0.000000
# 6 0.000000 0.000000 0.000000 0.000000 0.000000 0.029964
#
#
# Mechanical properties :
#
#
# Convention : Reuss Voigt Hill
#
# Bulk Modulus (GPa) = 41.96037 50.69464 46.32750
# Shear Modulus (GPa) = 32.14210 33.79844 32.97027
#
# Velocity S-wave (km/s) = 3.78701 3.88336 3.83549
# Velocity P-wave (km/s) = 6.15177 6.53657 6.34709
#
# Compressibility (1/GPa) = 0.02383201
#
# Stress axis : x y z
#
# Youngs Moduli (GPa) = 115.52174 79.39672 52.90141
#
# Poissons Ratio (x) = 0.27266 0.14113
# Poissons Ratio (y) = 0.39672 0.10893
# Poissons Ratio (z) = 0.30819 0.16349
#
# Static dielectric constant tensor:
#      x y z
#    x 4.118190 0.000000 0.000000 
#    y 0.000000 4.084840 0.000000 
#    z 0.000000 0.000000 3.822260 
# 
# 
# High freq. dielectric constant tensor:
#      x y z
#    x 1.895810 0.000000 0.000000 
#    y 0.000000 1.886810 0.000000 
#    z 0.000000 0.000000 1.863710 
# 
# From -- ./inp_files/2033.got.cif
#   From: 2010.03.12/outbox.cif.g09.slc.cpg/sg33_2_cif.got.tgz:2033.got - 2010.04.14 01:49:19.
