data_PCOD8171683
_publ_section_title
;
Structure prediction by ZEFSAII (Michael W. Deem and Ramdas Pophale) SiO2 
 PCOD8171683
Probable space group: P N A 21
;
_chemical_formula_sum "Si O2"
_cell_formula_units_Z 28
_cell_length_a 29.388921
_cell_length_b 6.591870
_cell_length_c 6.785844
_cell_angle_alpha 90.000000
_cell_angle_beta 90.000000
_cell_angle_gamma 90.000000
_cell_volume 1314.607625
_symmetry_space_group_name_H-M "P N A 21"
_symmetry_group_IT_number 33
_symmetry_cell_setting 'orthorhombic'
loop_
_space_group_symop_operation_xyz
x,y,z
-x,-y,1/2+z
1/2-x,1/2+y,1/2+z
1/2+x,1/2-y,z
loop_
_atom_site_type_symbol
_atom_site_label
_atom_site_fract_x
_atom_site_fract_y
_atom_site_fract_z
Si Si1 0.506851 0.213623 0.679310
Si Si2 0.207090 0.145741 0.165390
Si Si3 0.701583 0.673640 0.495841
Si Si4 0.058517 0.383994 0.316095
Si Si5 0.848399 0.127628 0.388508
Si Si6 0.443080 0.541966 0.507836
Si Si7 0.348765 0.040793 0.701051
O O1 0.486918 0.996866 0.742493
O O2 0.467563 0.334595 0.565873
O O3 0.550819 0.175437 0.543025
O O4 0.523251 0.337121 0.866931
O O5 0.211984 0.034221 0.377353
O O6 0.168168 0.313329 0.176368
O O7 0.192580 0.989729 0.996245
O O8 0.254245 0.248913 0.109105
O O9 0.837558 0.139737 0.157406
O O10 0.685302 0.841910 0.343475
O O11 0.067418 0.177925 0.197527
O O12 0.101430 0.534173 0.299370
O O13 0.852291 0.349707 0.488558
O O14 0.895746 0.009168 0.403370
#
# Coordination Sequence:
#
# PCOD8171683 Si02
#       7
#     4   4   4   4   4   4   4
#     4  12  26  42  71  96 135 183 221 275 339 401
#     4  11  24  46  67  99 138 178 218 281 336 403
#     4  11  26  43  69 101 134 176 228 272 340 404
#     4  12  25  44  66 102 134 174 228 276 340 396
#     4  11  25  43  70  99 133 177 224 280 339 395
#     4  12  25  43  67  99 136 175 224 282 336 398
#     4  11  25  43  70  98 136 173 225 286 328 407
#
# _framework density 21.299128
#
# number of rings (size 3 to 8) (size 9 to 14) (size 15 to 20)
#    0.000    0.571    5.714    1.714    2.000    8.000 
#    0.000    0.000    0.000    0.000    0.000    0.000 
#    0.000    0.000    0.000    0.000    0.000    0.000 
#
# Total GULP energy -347386.252709 kJ/mol
# GULP energy per Si atom -12406.651882 kJ/mol
# Density = 2.125065 g / cm^3
# Si number density = 21.299128 Si / 1000 Ang^3
#
#
#
# Elastic Constant Matrix: (Units=GPa)
#
#
# Indices 1 2 3 4 5 6 
#
# 1 80.5436 13.7062 10.2654 0.0000 0.0000 0.0000
# 2 13.7062 93.9264 22.4561 0.0000 0.0000 0.0000
# 3 10.2654 22.4561 78.5615 0.0000 0.0000 0.0000
# 4 0.0000 0.0000 0.0000 30.6247 0.0000 0.0000
# 5 0.0000 0.0000 0.0000 0.0000 37.0799 0.0000
# 6 0.0000 0.0000 0.0000 0.0000 0.0000 45.1111
#
#
#
# Elastic Compliance Matrix: (Units=1/GPa)
#
#
# Indices 1 2 3 4 5 6 
#
# 1 0.012841 -0.001581 -0.001226 0.000000 0.000000 0.000000
# 2 -0.001581 0.011622 -0.003116 0.000000 0.000000 0.000000
# 3 -0.001226 -0.003116 0.013780 0.000000 0.000000 0.000000
# 4 0.000000 0.000000 0.000000 0.032653 0.000000 0.000000
# 5 0.000000 0.000000 0.000000 0.000000 0.026969 0.000000
# 6 0.000000 0.000000 0.000000 0.000000 0.000000 0.022168
#
#
# Mechanical properties :
#
#
# Convention : Reuss Voigt Hill
#
# Bulk Modulus (GPa) = 37.88150 38.43189 38.15670
# Shear Modulus (GPa) = 35.54258 36.33671 35.93965
#
# Velocity S-wave (km/s) = 4.08945 4.13488 4.11223
# Velocity P-wave (km/s) = 6.33421 6.39370 6.36402
#
# Compressibility (1/GPa) = 0.02639811
#
# Stress axis : x y z
#
# Youngs Moduli (GPa) = 77.87622 86.04246 72.57085
#
# Poissons Ratio (x) = 0.13600 0.08898
# Poissons Ratio (y) = 0.12310 0.22610
# Poissons Ratio (z) = 0.09548 0.26807
#
# Static dielectric constant tensor:
#      x y z
#    x 3.821190 0.000000 0.000000 
#    y 0.000000 3.953980 0.000000 
#    z 0.000000 0.000000 3.844490 
# 
# 
# High freq. dielectric constant tensor:
#      x y z
#    x 1.844830 0.000000 0.000000 
#    y 0.000000 1.846450 0.000000 
#    z 0.000000 0.000000 1.836180 
# 
# From -- ./inp_files/5238.got.cif
#   From: 2010.03.12/outbox.cif.g09.slc.cpg/sg33_3_cif.got.tgz:5238.got - 2010.04.14 01:49:19.
