data_PCOD8171598
_publ_section_title
;
Structure prediction by ZEFSAII (Michael W. Deem and Ramdas Pophale) SiO2 
 PCOD8171598
Probable space group: P N A 21
;
_chemical_formula_sum "Si O2"
_cell_formula_units_Z 32
_cell_length_a 8.972071
_cell_length_b 10.691867
_cell_length_c 15.125943
_cell_angle_alpha 90.000000
_cell_angle_beta 90.000000
_cell_angle_gamma 90.000000
_cell_volume 1451.004332
_symmetry_space_group_name_H-M "P N A 21"
_symmetry_group_IT_number 33
_symmetry_cell_setting 'orthorhombic'
loop_
_space_group_symop_operation_xyz
x,y,z
-x,-y,1/2+z
1/2-x,1/2+y,1/2+z
1/2+x,1/2-y,z
loop_
_atom_site_type_symbol
_atom_site_label
_atom_site_fract_x
_atom_site_fract_y
_atom_site_fract_z
Si Si1 0.742515 0.346491 0.530480
Si Si2 0.716677 0.334443 0.773740
Si Si3 0.860291 0.773149 0.674471
Si Si4 0.971326 0.518645 0.734120
Si Si5 0.537837 0.196476 0.623382
Si Si6 0.231142 0.583377 0.839446
Si Si7 0.928376 0.144959 0.869756
Si Si8 0.379129 0.375997 0.067143
O O1 0.617424 0.236942 0.532422
O O2 0.802973 0.343465 0.430648
O O3 0.681149 0.482277 0.560189
O O4 0.861060 0.296721 0.603967
O O5 0.807138 0.461428 0.751075
O O6 0.604481 0.294041 0.694990
O O7 0.843185 0.235382 0.801059
O O8 0.605923 0.357707 0.855087
O O9 0.964921 0.662799 0.709817
O O10 0.772011 0.829288 0.757315
O O11 0.744563 0.714870 0.606457
O O12 0.968727 0.873171 0.625610
O O13 0.061795 0.445607 0.656126
O O14 0.078802 0.506679 0.819777
O O15 0.370724 0.494606 0.855565
O O16 0.907786 0.184191 0.971141
#
# Coordination Sequence:
#
# PCOD8171598 Si02
#       8
#     4   4   4   4   4   4   4   4
#     4  11  27  45  69 106 143 177 241 298 347 412
#     4  12  22  42  72 104 133 183 233 287 355 409
#     4  12  25  45  71  96 143 188 235 279 356 427
#     4  12  25  44  71 102 136 188 228 285 345 423
#     4  12  22  44  72  99 138 181 232 290 341 413
#     4  11  27  46  68 102 143 191 229 288 356 419
#     4  11  23  42  70 101 141 175 234 294 342 416
#     4  11  25  46  67 102 139 183 234 291 348 419
#
# _framework density 22.053688999999999
#
# number of rings (size 3 to 8) (size 9 to 14) (size 15 to 20)
#    0.000    0.500    6.250    0.750    5.250    1.000 
#    2.250    0.000    0.000    0.000    0.000    0.000 
#    0.000    0.000    0.000    0.000    0.000    0.000 
#
# Total GULP energy -396586.347654 kJ/mol
# GULP energy per Si atom -12393.323364 kJ/mol
# Density = 2.200349 g / cm^3
# Si number density = 22.053689 Si / 1000 Ang^3
#
#
#
# Elastic Constant Matrix: (Units=GPa)
#
#
# Indices 1 2 3 4 5 6 
#
# 1 142.4442 47.3505 63.0799 0.0000 0.0000 0.0000
# 2 47.3505 69.4595 42.7207 0.0000 0.0000 0.0000
# 3 63.0799 42.7207 121.3134 0.0000 0.0000 0.0000
# 4 0.0000 0.0000 0.0000 36.4287 0.0000 0.0000
# 5 0.0000 0.0000 0.0000 0.0000 35.8485 0.0000
# 6 0.0000 0.0000 0.0000 0.0000 0.0000 39.9312
#
#
#
# Elastic Compliance Matrix: (Units=1/GPa)
#
#
# Indices 1 2 3 4 5 6 
#
# 1 0.010201 -0.004712 -0.003645 0.000000 0.000000 0.000000
# 2 -0.004712 0.020554 -0.004788 0.000000 0.000000 0.000000
# 3 -0.003645 -0.004788 0.011824 0.000000 0.000000 0.000000
# 4 0.000000 0.000000 0.000000 0.027451 0.000000 0.000000
# 5 0.000000 0.000000 0.000000 0.000000 0.027895 0.000000
# 6 0.000000 0.000000 0.000000 0.000000 0.000000 0.025043
#
#
# Mechanical properties :
#
#
# Convention : Reuss Voigt Hill
#
# Bulk Modulus (GPa) = 61.38945 71.05768 66.22357
# Shear Modulus (GPa) = 32.32324 34.44607 33.38466
#
# Velocity S-wave (km/s) = 3.83255 3.95640 3.89497
# Velocity P-wave (km/s) = 6.89067 7.29116 7.09374
#
# Compressibility (1/GPa) = 0.01628944
#
# Stress axis : x y z
#
# Youngs Moduli (GPa) = 98.03241 48.65252 84.57130
#
# Poissons Ratio (x) = 0.22926 0.30824
# Poissons Ratio (y) = 0.46194 0.40492
# Poissons Ratio (z) = 0.35730 0.23294
#
# Static dielectric constant tensor:
#      x y z
#    x 4.230980 0.000000 0.000000 
#    y 0.000000 3.853540 0.000000 
#    z 0.000000 0.000000 4.284750 
# 
# 
# High freq. dielectric constant tensor:
#      x y z
#    x 1.883730 0.000000 0.000000 
#    y 0.000000 1.853220 0.000000 
#    z 0.000000 0.000000 1.875990 
# 
# From -- ./inp_files/7708.got.cif
#   From: 2010.03.12/outbox.cif.g09.slc.cpg/sg33_4_cif.got.tgz:7708.got - 2010.04.14 01:49:19.
