data_PCOD8171417
_publ_section_title
;
Structure prediction by ZEFSAII (Michael W. Deem and Ramdas Pophale) SiO2 
 PCOD8171417
Probable space group: P N A 21
;
_chemical_formula_sum "Si O2"
_cell_formula_units_Z 28
_cell_length_a 16.923137
_cell_length_b 8.557362
_cell_length_c 6.402969
_cell_angle_alpha 90.000000
_cell_angle_beta 90.000000
_cell_angle_gamma 90.000000
_cell_volume 927.261384
_symmetry_space_group_name_H-M "P N A 21"
_symmetry_group_IT_number 33
_symmetry_cell_setting 'orthorhombic'
loop_
_space_group_symop_operation_xyz
x,y,z
-x,-y,1/2+z
1/2-x,1/2+y,1/2+z
1/2+x,1/2-y,z
loop_
_atom_site_type_symbol
_atom_site_label
_atom_site_fract_x
_atom_site_fract_y
_atom_site_fract_z
Si Si1 0.828305 0.455333 0.931800
Si Si2 0.174214 0.898901 0.887069
Si Si3 0.459455 0.866999 0.088273
Si Si4 0.282578 0.049865 0.413526
Si Si5 0.505438 0.615098 0.805519
Si Si6 0.125311 0.893620 0.339282
Si Si7 0.425001 0.861709 0.549617
O O1 0.743042 0.478286 0.816530
O O2 0.892872 0.597163 0.904452
O O3 0.869467 0.292292 0.872234
O O4 0.812204 0.474231 0.178530
O O5 0.217303 0.735757 0.940763
O O6 0.098097 0.898559 0.723463
O O7 0.135672 0.953100 0.102489
O O8 0.516726 0.729343 0.008608
O O9 0.502967 0.030469 0.123619
O O10 0.422278 0.816107 0.306045
O O11 0.197115 0.975294 0.466643
O O12 0.342487 0.962283 0.580874
O O13 0.463802 0.457591 0.898167
O O14 0.559629 0.305344 0.156747
#
# Coordination Sequence:
#
# PCOD8171417 Si02
#       7
#     4   4   4   4   4   4   4
#     4  10  25  47  73 108 155 207 264 335 403 485
#     4  11  25  50  73 114 155 207 272 330 415 495
#     4  11  22  45  81 115 156 210 264 327 413 490
#     4  10  23  47  74 113 147 202 266 330 410 484
#     4  12  26  48  77 120 160 209 266 337 412 490
#     4  11  28  48  76 112 159 213 272 345 407 492
#     4  11  23  43  82 118 158 202 266 330 402 488
#
# _framework density 30.196449000000001
#
# number of rings (size 3 to 8) (size 9 to 14) (size 15 to 20)
#    0.000    1.143    2.857    1.714    8.000    3.429 
#    2.571    0.000    0.000    0.000    0.000    0.000 
#    0.000    0.000    0.000    0.000    0.000    0.000 
#
# Total GULP energy -347175.012456 kJ/mol
# GULP energy per Si atom -12399.107588 kJ/mol
# Density = 3.012772 g / cm^3
# Si number density = 30.196449 Si / 1000 Ang^3
#
#
#
# Elastic Constant Matrix: (Units=GPa)
#
#
# Indices 1 2 3 4 5 6 
#
# 1 210.5855 101.3343 31.3162 0.0000 0.0000 0.0000
# 2 101.3343 152.5107 23.6476 0.0000 0.0000 0.0000
# 3 31.3162 23.6476 50.4902 0.0000 0.0000 0.0000
# 4 0.0000 0.0000 0.0000 42.8500 0.0000 0.0000
# 5 0.0000 0.0000 0.0000 0.0000 48.6278 0.0000
# 6 0.0000 0.0000 0.0000 0.0000 0.0000 71.1958
#
#
#
# Elastic Compliance Matrix: (Units=1/GPa)
#
#
# Indices 1 2 3 4 5 6 
#
# 1 0.007243 -0.004439 -0.002414 0.000000 0.000000 0.000000
# 2 -0.004439 0.009790 -0.001832 0.000000 0.000000 0.000000
# 3 -0.002414 -0.001832 0.022161 0.000000 0.000000 0.000000
# 4 0.000000 0.000000 0.000000 0.023337 0.000000 0.000000
# 5 0.000000 0.000000 0.000000 0.000000 0.020564 0.000000
# 6 0.000000 0.000000 0.000000 0.000000 0.000000 0.014046
#
#
# Mechanical properties :
#
#
# Convention : Reuss Voigt Hill
#
# Bulk Modulus (GPa) = 45.81833 80.68695 63.25264
# Shear Modulus (GPa) = 41.05530 49.68729 45.37129
#
# Velocity S-wave (km/s) = 3.69129 4.06084 3.88046
# Velocity P-wave (km/s) = 5.77701 6.98326 6.40858
#
# Compressibility (1/GPa) = 0.02182533
#
# Stress axis : x y z
#
# Youngs Moduli (GPa) = 138.05490 102.14289 45.12387
#
# Poissons Ratio (x) = 0.45337 0.10892
# Poissons Ratio (y) = 0.61277 0.08268
# Poissons Ratio (z) = 0.33325 0.18716
#
# Static dielectric constant tensor:
#      x y z
#    x 5.829950 0.000000 0.000000 
#    y 0.000000 5.129370 0.000000 
#    z 0.000000 0.000000 6.200660 
# 
# 
# High freq. dielectric constant tensor:
#      x y z
#    x 2.247850 0.000000 0.000000 
#    y 0.000000 2.217850 0.000000 
#    z 0.000000 0.000000 2.301610 
# 
# From -- ./inp_files/4764.got.cif
#   From: 2010.03.12/outbox.cif.g09.slc.cpg/sg33_3_cif.got.tgz:4764.got - 2010.04.14 01:49:19.
