data_PCOD8171558
_publ_section_title
;
Structure prediction by ZEFSAII (Michael W. Deem and Ramdas Pophale) SiO2 
 PCOD8171558
Probable space group: P N A 21
;
_chemical_formula_sum "Si O2"
_cell_formula_units_Z 32
_cell_length_a 9.570198
_cell_length_b 7.498805
_cell_length_c 20.989325
_cell_angle_alpha 90.000000
_cell_angle_beta 90.000000
_cell_angle_gamma 90.000000
_cell_volume 1506.299929
_symmetry_space_group_name_H-M "P N A 21"
_symmetry_group_IT_number 33
_symmetry_cell_setting 'orthorhombic'
loop_
_space_group_symop_operation_xyz
x,y,z
-x,-y,1/2+z
1/2-x,1/2+y,1/2+z
1/2+x,1/2-y,z
loop_
_atom_site_type_symbol
_atom_site_label
_atom_site_fract_x
_atom_site_fract_y
_atom_site_fract_z
Si Si1 0.243555 0.124004 0.936720
Si Si2 0.467524 0.581442 0.240303
Si Si3 0.847327 0.390105 0.544901
Si Si4 0.546041 0.415728 0.592733
Si Si5 0.505528 0.229325 0.016340
Si Si6 0.829497 0.373881 0.796265
Si Si7 0.033765 0.255271 0.323556
Si Si8 0.221654 0.715877 0.909823
O O1 0.290298 0.190294 0.867276
O O2 0.213419 0.915652 0.935194
O O3 0.358662 0.160885 0.990107
O O4 0.101328 0.222097 0.955891
O O5 0.497889 0.575462 0.165778
O O6 0.306772 0.627762 0.252401
O O7 0.558996 0.737605 0.269706
O O8 0.508302 0.390614 0.269422
O O9 0.709173 0.364523 0.587103
O O10 0.952726 0.228535 0.556309
O O11 0.925526 0.575258 0.560263
O O12 0.805458 0.409389 0.470239
O O13 0.517729 0.606268 0.562546
O O14 0.890227 0.573763 0.793782
O O15 0.126902 0.171022 0.380463
O O16 0.888970 0.319636 0.353931
#
# Coordination Sequence:
#
# PCOD8171558 Si02
#       8
#     4   4   4   4   4   4   4   4
#     4  11  22  43  70 105 142 167 237 288 359 407
#     4  12  27  47  70  98 143 190 239 278 342 427
#     4  12  25  45  73  99 141 181 231 292 350 408
#     4  12  28  47  67 102 141 191 238 280 341 424
#     4  12  25  44  69 107 136 187 225 295 349 414
#     4  11  26  45  71 107 134 181 236 290 351 412
#     4  11  24  46  68 105 141 182 222 294 353 413
#     4  11  23  43  70 105 142 171 230 293 359 407
#
# _framework density 21.244109000000002
#
# number of rings (size 3 to 8) (size 9 to 14) (size 15 to 20)
#    0.000    0.500    5.000    4.500    3.500    2.000 
#    0.000    0.000    0.000    0.000    0.000    0.000 
#    0.000    0.000    0.000    0.000    0.000    0.000 
#
# Total GULP energy -397007.067578 kJ/mol
# GULP energy per Si atom -12406.470862 kJ/mol
# Density = 2.119576 g / cm^3
# Si number density = 21.244109 Si / 1000 Ang^3
#
#
#
# Elastic Constant Matrix: (Units=GPa)
#
#
# Indices 1 2 3 4 5 6 
#
# 1 87.9850 30.4896 8.1743 0.0000 0.0000 0.0000
# 2 30.4896 73.1349 10.8558 0.0000 0.0000 0.0000
# 3 8.1743 10.8558 93.1496 0.0000 0.0000 0.0000
# 4 0.0000 0.0000 0.0000 21.9455 0.0000 0.0000
# 5 0.0000 0.0000 0.0000 0.0000 37.5374 0.0000
# 6 0.0000 0.0000 0.0000 0.0000 0.0000 34.4977
#
#
#
# Elastic Compliance Matrix: (Units=1/GPa)
#
#
# Indices 1 2 3 4 5 6 
#
# 1 0.013311 -0.005470 -0.000531 0.000000 0.000000 0.000000
# 2 -0.005470 0.016162 -0.001404 0.000000 0.000000 0.000000
# 3 -0.000531 -0.001404 0.010946 0.000000 0.000000 0.000000
# 4 0.000000 0.000000 0.000000 0.045567 0.000000 0.000000
# 5 0.000000 0.000000 0.000000 0.000000 0.026640 0.000000
# 6 0.000000 0.000000 0.000000 0.000000 0.000000 0.028987
#
#
# Mechanical properties :
#
#
# Convention : Reuss Voigt Hill
#
# Bulk Modulus (GPa) = 39.04799 39.25654 39.15227
# Shear Modulus (GPa) = 30.31064 32.44611 31.37837
#
# Velocity S-wave (km/s) = 3.78137 3.91231 3.84740
# Velocity P-wave (km/s) = 6.12254 6.23916 6.18113
#
# Compressibility (1/GPa) = 0.02560951
#
# Stress axis : x y z
#
# Youngs Moduli (GPa) = 75.12860 61.87257 91.36136
#
# Poissons Ratio (x) = 0.33846 0.04847
# Poissons Ratio (y) = 0.41098 0.12823
# Poissons Ratio (z) = 0.03986 0.08684
#
# Static dielectric constant tensor:
#      x y z
#    x 3.989560 0.000000 0.000000 
#    y 0.000000 3.905220 0.000000 
#    z 0.000000 0.000000 3.697640 
# 
# 
# High freq. dielectric constant tensor:
#      x y z
#    x 1.853630 0.000000 0.000000 
#    y 0.000000 1.845020 0.000000 
#    z 0.000000 0.000000 1.821000 
# 
# From -- ./inp_files/8980.got.cif
#   From: 2010.03.12/outbox.cif.g09.slc.cpg/sg33_5_cif.got.tgz:8980.got - 2010.04.14 01:49:19.
