data_PCOD8171361
_publ_section_title
;
Structure prediction by ZEFSAII (Michael W. Deem and Ramdas Pophale) SiO2 
 PCOD8171361
Probable space group: P N A 21
;
_chemical_formula_sum "Si O2"
_cell_formula_units_Z 32
_cell_length_a 14.753636
_cell_length_b 8.783997
_cell_length_c 11.514837
_cell_angle_alpha 90.000000
_cell_angle_beta 90.000000
_cell_angle_gamma 90.000000
_cell_volume 1492.275599
_symmetry_space_group_name_H-M "P N A 21"
_symmetry_group_IT_number 33
_symmetry_cell_setting 'orthorhombic'
loop_
_space_group_symop_operation_xyz
x,y,z
-x,-y,1/2+z
1/2-x,1/2+y,1/2+z
1/2+x,1/2-y,z
loop_
_atom_site_type_symbol
_atom_site_label
_atom_site_fract_x
_atom_site_fract_y
_atom_site_fract_z
Si Si1 0.327302 0.112901 0.293070
Si Si2 0.071201 0.669982 0.581694
Si Si3 0.862348 0.271301 0.845273
Si Si4 0.670325 0.160072 0.933757
Si Si5 0.877384 0.925018 0.807277
Si Si6 0.038590 0.785945 0.943077
Si Si7 0.409115 0.039006 0.617895
Si Si8 0.438980 0.598445 0.557499
O O1 0.337154 0.135582 0.154044
O O2 0.225248 0.115627 0.342829
O O3 0.385049 0.249541 0.348000
O O4 0.365433 0.945234 0.327248
O O5 0.086149 0.632149 0.445488
O O6 0.987183 0.584378 0.645903
O O7 0.042949 0.850170 0.585400
O O8 0.762735 0.242343 0.897519
O O9 0.866227 0.375811 0.729726
O O10 0.904677 0.103168 0.823479
O O11 0.596653 0.289466 0.956473
O O12 0.673059 0.045314 0.047441
O O13 0.879539 0.883947 0.672470
O O14 0.942047 0.816860 0.882885
O O15 0.033548 0.652488 0.036529
O O16 0.071231 0.930133 0.013831
#
# Coordination Sequence:
#
# PCOD8171361 Si02
#       8
#     4   4   4   4   4   4   4   4
#     4  10  23  43  64  97 135 175 228 276 334 406
#     4  11  23  39  67  94 131 177 223 275 339 401
#     4  11  22  43  67  96 136 178 219 284 341 400
#     4   9  23  43  65  96 135 171 223 280 332 403
#     4  11  22  41  69  96 137 177 222 281 339 401
#     4  11  22  43  66  98 132 175 222 283 332 401
#     4  10  24  41  69  96 130 176 229 271 338 406
#     4  11  21  41  65  95 134 171 224 280 335 402
#
# _framework density 21.443760000000001
#
# number of rings (size 3 to 8) (size 9 to 14) (size 15 to 20)
#    0.000    1.500    3.750    0.750    5.250    0.000 
#   11.250    1.250    0.000    0.000    0.000    0.000 
#    0.000    0.000    0.000    0.000    0.000    0.000 
#
# Total GULP energy -396460.153390 kJ/mol
# GULP energy per Si atom -12389.379793 kJ/mol
# Density = 2.139495 g / cm^3
# Si number density = 21.443760 Si / 1000 Ang^3
#
#
#
# Elastic Constant Matrix: (Units=GPa)
#
#
# Indices 1 2 3 4 5 6 
#
# 1 92.4003 31.2248 44.3323 0.0000 0.0000 0.0000
# 2 31.2248 77.1546 27.9972 0.0000 0.0000 0.0000
# 3 44.3323 27.9972 113.0902 0.0000 0.0000 0.0000
# 4 0.0000 0.0000 0.0000 33.6421 0.0000 0.0000
# 5 0.0000 0.0000 0.0000 0.0000 30.6424 0.0000
# 6 0.0000 0.0000 0.0000 0.0000 0.0000 31.9674
#
#
#
# Elastic Compliance Matrix: (Units=1/GPa)
#
#
# Indices 1 2 3 4 5 6 
#
# 1 0.014455 -0.004168 -0.004634 0.000000 0.000000 0.000000
# 2 -0.004168 0.015442 -0.002189 0.000000 0.000000 0.000000
# 3 -0.004634 -0.002189 0.011201 0.000000 0.000000 0.000000
# 4 0.000000 0.000000 0.000000 0.029725 0.000000 0.000000
# 5 0.000000 0.000000 0.000000 0.000000 0.032635 0.000000
# 6 0.000000 0.000000 0.000000 0.000000 0.000000 0.031282
#
#
# Mechanical properties :
#
#
# Convention : Reuss Voigt Hill
#
# Bulk Modulus (GPa) = 52.31556 54.41708 53.36632
# Shear Modulus (GPa) = 30.65724 31.18976 30.92350
#
# Velocity S-wave (km/s) = 3.78518 3.81792 3.80159
# Velocity P-wave (km/s) = 6.59948 6.69829 6.64907
#
# Compressibility (1/GPa) = 0.01911477
#
# Stress axis : x y z
#
# Youngs Moduli (GPa) = 69.18244 64.75773 89.27654
#
# Poissons Ratio (x) = 0.26992 0.41374
# Poissons Ratio (y) = 0.28836 0.19543
# Poissons Ratio (z) = 0.32062 0.14176
#
# Static dielectric constant tensor:
#      x y z
#    x 3.692320 0.000000 0.000000 
#    y 0.000000 4.029830 0.000000 
#    z 0.000000 0.000000 3.978300 
# 
# 
# High freq. dielectric constant tensor:
#      x y z
#    x 1.825050 0.000000 0.000000 
#    y 0.000000 1.845320 0.000000 
#    z 0.000000 0.000000 1.848000 
# 
# From -- ./inp_files/6800.got.cif
#   From: 2010.03.12/outbox.cif.g09.slc.cpg/sg33_4_cif.got.tgz:6800.got - 2010.04.14 01:49:19.
