data_PCOD8171940
_publ_section_title
;
Structure prediction by ZEFSAII (Michael W. Deem and Ramdas Pophale) SiO2 
 PCOD8171940
Probable space group: P N N 2
;
_chemical_formula_sum "Si O2"
_cell_formula_units_Z 20
_cell_length_a 8.145734
_cell_length_b 8.235456
_cell_length_c 12.229679
_cell_angle_alpha 90.000000
_cell_angle_beta 90.000000
_cell_angle_gamma 90.000000
_cell_volume 820.413755
_symmetry_space_group_name_H-M "P N N 2"
_symmetry_group_IT_number 34
_symmetry_cell_setting 'orthorhombic'
loop_
_space_group_symop_operation_xyz
x,y,z
-x,-y,z
1/2-x,1/2+y,1/2+z
1/2+x,1/2-y,1/2+z
loop_
_atom_site_type_symbol
_atom_site_label
_atom_site_fract_x
_atom_site_fract_y
_atom_site_fract_z
Si Si1 0.140190 0.239825 0.070940
Si Si2 0.308751 0.454256 0.252007
Si Si3 0.904773 0.668523 0.431416
Si Si4 0.782367 0.214405 0.346833
Si Si5 0.211256 0.883425 0.124007
O O1 0.244471 0.368267 0.141536
O O2 0.956149 0.220398 0.114101
O O3 0.215923 0.059895 0.068192
O O4 0.148444 0.296741 0.943596
O O5 0.500000 0.500000 0.249479
O O6 0.257160 0.336689 0.353477
O O7 0.217183 0.623393 0.271718
O O8 0.848316 0.714669 0.555003
O O9 0.000000 0.500000 0.429802
O O10 0.033276 0.807519 0.394624
O O11 0.746207 0.082271 0.251895
#
# Coordination Sequence:
#
# PCOD8171940 Si02
#       5
#     4   4   4   4   4
#     4  11  24  44  67 103 138 181 238 283 361 421
#     4  11  23  43  71  95 139 183 234 287 355 417
#     4  10  20  41  69  93 136 182 231 281 355 417
#     4  11  24  44  68  98 135 186 233 289 353 423
#     4  11  23  43  72  94 144 185 223 302 347 417
#
# _framework density 24.377942999999998
#
# number of rings (size 3 to 8) (size 9 to 14) (size 15 to 20)
#    0.000    1.200    6.000    1.200    2.800    0.000 
#    7.200    0.000    4.400    0.000    0.000    0.000 
#    0.000    0.000    0.000    0.000    0.000    0.000 
#
# Total GULP energy -247789.280705 kJ/mol
# GULP energy per Si atom -12389.464035 kJ/mol
# Density = 2.432246 g / cm^3
# Si number density = 24.377943 Si / 1000 Ang^3
#
#
#
# Elastic Constant Matrix: (Units=GPa)
#
#
# Indices 1 2 3 4 5 6 
#
# 1 89.6524 30.3668 52.1723 0.0000 0.0000 0.0000
# 2 30.3668 21.0195 17.8489 0.0000 0.0000 0.0000
# 3 52.1723 17.8489 210.0332 0.0000 0.0000 0.0000
# 4 0.0000 0.0000 0.0000 32.2413 0.0000 0.0000
# 5 0.0000 0.0000 0.0000 0.0000 47.9181 0.0000
# 6 0.0000 0.0000 0.0000 0.0000 0.0000 17.3207
#
#
#
# Elastic Compliance Matrix: (Units=1/GPa)
#
#
# Indices 1 2 3 4 5 6 
#
# 1 0.023692 -0.031503 -0.003208 0.000000 0.000000 0.000000
# 2 -0.031503 0.093165 -0.000092 0.000000 0.000000 0.000000
# 3 -0.003208 -0.000092 0.005566 0.000000 0.000000 0.000000
# 4 0.000000 0.000000 0.000000 0.031016 0.000000 0.000000
# 5 0.000000 0.000000 0.000000 0.000000 0.020869 0.000000
# 6 0.000000 0.000000 0.000000 0.000000 0.000000 0.057734
#
#
# Mechanical properties :
#
#
# Convention : Reuss Voigt Hill
#
# Bulk Modulus (GPa) = 18.93332 57.94234 38.43783
# Shear Modulus (GPa) = 15.66151 34.18384 24.92267
#
# Velocity S-wave (km/s) = 2.53740 3.74872 3.20088
# Velocity P-wave (km/s) = 4.04574 6.52358 5.42794
#
# Compressibility (1/GPa) = 0.05281694
#
# Stress axis : x y z
#
# Youngs Moduli (GPa) = 42.20894 10.73359 179.66908
#
# Poissons Ratio (x) = 0.33814 0.57635
# Poissons Ratio (y) = 1.32972 0.01651
# Poissons Ratio (z) = 0.13540 0.00099
#
# Static dielectric constant tensor:
#      x y z
#    x 4.573970 0.000000 0.000000 
#    y 0.000000 4.071940 0.000000 
#    z 0.000000 0.000000 4.740210 
# 
# 
# High freq. dielectric constant tensor:
#      x y z
#    x 1.964950 0.000000 0.000000 
#    y 0.000000 1.927930 0.000000 
#    z 0.000000 0.000000 1.992410 
# 
# From -- ./inp_files/4775.got.cif
#   From: 2010.03.12/outbox.cif.g09.slc.cpg/sg34_3_cif.got.tgz:4775.got - 2010.04.14 01:56:33.
