data_PCOD8171110
_publ_section_title
;
Structure prediction by ZEFSAII (Michael W. Deem and Ramdas Pophale) SiO2 
 PCOD8171110
Probable space group: P N A 21
;
_chemical_formula_sum "Si O2"
_cell_formula_units_Z 32
_cell_length_a 14.354219
_cell_length_b 8.611890
_cell_length_c 11.979524
_cell_angle_alpha 90.000000
_cell_angle_beta 90.000000
_cell_angle_gamma 90.000000
_cell_volume 1480.872280
_symmetry_space_group_name_H-M "P N A 21"
_symmetry_group_IT_number 33
_symmetry_cell_setting 'orthorhombic'
loop_
_space_group_symop_operation_xyz
x,y,z
-x,-y,1/2+z
1/2-x,1/2+y,1/2+z
1/2+x,1/2-y,z
loop_
_atom_site_type_symbol
_atom_site_label
_atom_site_fract_x
_atom_site_fract_y
_atom_site_fract_z
Si Si1 0.361648 0.969828 0.869950
Si Si2 0.644954 0.312617 0.013749
Si Si3 0.723688 0.828594 0.174609
Si Si4 0.296147 0.418125 0.031083
Si Si5 0.670053 0.653545 0.968038
Si Si6 0.317017 0.885960 0.328231
Si Si7 0.050063 0.656173 0.802226
Si Si8 0.553889 0.802483 0.549133
O O1 0.337568 0.096177 0.773651
O O2 0.271773 0.873101 0.911713
O O3 0.438418 0.848972 0.821942
O O4 0.408248 0.054966 0.975853
O O5 0.733429 0.230445 0.075139
O O6 0.556339 0.213975 0.050808
O O7 0.637042 0.495809 0.030004
O O8 0.658441 0.283308 0.880799
O O9 0.771812 0.664989 0.210811
O O10 0.798673 0.952504 0.127774
O O11 0.664269 0.783374 0.065103
O O12 0.400095 0.358363 0.006704
O O13 0.254438 0.477785 0.911800
O O14 0.595879 0.707454 0.875656
O O15 0.410423 0.984702 0.325493
O O16 0.082912 0.682170 0.676921
#
# Coordination Sequence:
#
# PCOD8171110 Si02
#       8
#     4   4   4   4   4   4   4   4
#     4  12  24  47  71 101 144 188 230 289 365 417
#     4  10  22  45  62  98 142 173 236 289 333 422
#     4  12  23  44  76  97 140 193 226 294 357 423
#     4  10  21  43  67  95 137 181 225 278 360 405
#     4  12  25  48  71 106 140 180 246 291 349 433
#     4  10  21  43  68  97 137 181 231 283 342 418
#     4  12  27  43  73 106 139 187 240 288 356 429
#     4  12  23  43  72  98 141 185 226 294 356 419
#
# _framework density 21.608884
#
# number of rings (size 3 to 8) (size 9 to 14) (size 15 to 20)
#    0.750    0.000    6.250    2.250    1.750    1.000 
#    4.500    0.000    0.000    0.000    0.000    0.000 
#    0.000    0.000    0.000    0.000    0.000    0.000 
#
# Total GULP energy -396462.732798 kJ/mol
# GULP energy per Si atom -12389.460400 kJ/mol
# Density = 2.155970 g / cm^3
# Si number density = 21.608884 Si / 1000 Ang^3
#
#
#
# Elastic Constant Matrix: (Units=GPa)
#
#
# Indices 1 2 3 4 5 6 
#
# 1 81.8223 15.1236 12.8241 0.0000 0.0000 0.0000
# 2 15.1236 66.7511 22.0860 0.0000 0.0000 0.0000
# 3 12.8241 22.0860 95.8365 0.0000 0.0000 0.0000
# 4 0.0000 0.0000 0.0000 41.6752 0.0000 0.0000
# 5 0.0000 0.0000 0.0000 0.0000 24.5529 0.0000
# 6 0.0000 0.0000 0.0000 0.0000 0.0000 40.0324
#
#
#
# Elastic Compliance Matrix: (Units=1/GPa)
#
#
# Indices 1 2 3 4 5 6 
#
# 1 0.012869 -0.002540 -0.001137 0.000000 0.000000 0.000000
# 2 -0.002540 0.016719 -0.003513 0.000000 0.000000 0.000000
# 3 -0.001137 -0.003513 0.011396 0.000000 0.000000 0.000000
# 4 0.000000 0.000000 0.000000 0.023995 0.000000 0.000000
# 5 0.000000 0.000000 0.000000 0.000000 0.040728 0.000000
# 6 0.000000 0.000000 0.000000 0.000000 0.000000 0.024980
#
#
# Mechanical properties :
#
#
# Convention : Reuss Voigt Hill
#
# Bulk Modulus (GPa) = 37.58670 38.27526 37.93098
# Shear Modulus (GPa) = 32.48131 34.21054 33.34593
#
# Velocity S-wave (km/s) = 3.88125 3.98322 3.93257
# Velocity P-wave (km/s) = 6.12514 6.23746 6.18156
#
# Compressibility (1/GPa) = 0.02660515
#
# Stress axis : x y z
#
# Youngs Moduli (GPa) = 77.70504 59.81295 87.74888
#
# Poissons Ratio (x) = 0.15190 0.09975
# Poissons Ratio (y) = 0.19734 0.30827
# Poissons Ratio (z) = 0.08833 0.21013
#
# Static dielectric constant tensor:
#      x y z
#    x 3.740440 0.000000 0.000000 
#    y 0.000000 3.672830 0.000000 
#    z 0.000000 0.000000 4.007040 
# 
# 
# High freq. dielectric constant tensor:
#      x y z
#    x 1.837610 0.000000 0.000000 
#    y 0.000000 1.838980 0.000000 
#    z 0.000000 0.000000 1.853720 
# 
# From -- ./inp_files/6853.got.cif
#   From: 2010.03.12/outbox.cif.g09.slc.cpg/sg33_4_cif.got.tgz:6853.got - 2010.04.14 01:49:19.
