data_PCOD8171516
_publ_section_title
;
Structure prediction by ZEFSAII (Michael W. Deem and Ramdas Pophale) SiO2 
 PCOD8171516
Probable space group: P N A 21
;
_chemical_formula_sum "Si O2"
_cell_formula_units_Z 32
_cell_length_a 9.052781
_cell_length_b 8.192655
_cell_length_c 19.338428
_cell_angle_alpha 90.000000
_cell_angle_beta 90.000000
_cell_angle_gamma 90.000000
_cell_volume 1434.259875
_symmetry_space_group_name_H-M "P N A 21"
_symmetry_group_IT_number 33
_symmetry_cell_setting 'orthorhombic'
loop_
_space_group_symop_operation_xyz
x,y,z
-x,-y,1/2+z
1/2-x,1/2+y,1/2+z
1/2+x,1/2-y,z
loop_
_atom_site_type_symbol
_atom_site_label
_atom_site_fract_x
_atom_site_fract_y
_atom_site_fract_z
Si Si1 0.076760 0.844845 0.456770
Si Si2 0.443623 0.898137 0.665137
Si Si3 0.980980 0.738514 0.112554
Si Si4 0.729602 0.723455 0.017001
Si Si5 0.232222 0.075951 0.926517
Si Si6 0.122005 0.914047 0.611656
Si Si7 0.731621 0.913044 0.887651
Si Si8 0.589910 0.119332 0.324774
O O1 0.141571 0.665623 0.470854
O O2 0.075509 0.934497 0.531166
O O3 0.917692 0.819965 0.420436
O O4 0.182515 0.915872 0.395184
O O5 0.298578 0.894018 0.617020
O O6 0.545967 0.743980 0.645730
O O7 0.391354 0.875912 0.743271
O O8 0.530034 0.073287 0.659172
O O9 0.925965 0.911059 0.147216
O O10 0.900191 0.707310 0.038945
O O11 0.151232 0.761474 0.091363
O O12 0.675212 0.573191 0.972011
O O13 0.698103 0.877012 0.968090
O O14 0.301307 0.021727 0.853244
O O15 0.581515 0.915313 0.843546
O O16 0.853407 0.789067 0.856533
#
# Coordination Sequence:
#
# PCOD8171516 Si02
#       8
#     4   4   4   4   4   4   4   4
#     4  12  22  41  67 108 133 171 228 305 364 413
#     4  12  28  48  69 102 149 193 245 280 351 438
#     4  12  23  44  68 103 140 181 227 293 360 415
#     4  11  20  41  67 100 132 172 225 293 362 411
#     4  11  23  39  67  97 139 173 234 293 357 423
#     4  12  26  44  73 106 138 186 233 298 362 419
#     4  11  21  41  71  94 136 177 233 290 357 415
#     4  11  25  46  64  98 135 197 231 282 345 434
#
# _framework density 22.311160000000001
#
# number of rings (size 3 to 8) (size 9 to 14) (size 15 to 20)
#    0.000    0.500    3.750    6.000    1.750    0.000 
#    6.750    0.000    0.000    0.000    0.000    0.000 
#    0.000    0.000    0.000    0.000    0.000    0.000 
#
# Total GULP energy -396529.214824 kJ/mol
# GULP energy per Si atom -12391.537963 kJ/mol
# Density = 2.226038 g / cm^3
# Si number density = 22.311160 Si / 1000 Ang^3
#
#
#
# Elastic Constant Matrix: (Units=GPa)
#
#
# Indices 1 2 3 4 5 6 
#
# 1 111.0425 33.3182 22.3890 0.0000 0.0000 0.0000
# 2 33.3182 98.6148 12.9177 0.0000 0.0000 0.0000
# 3 22.3890 12.9177 70.8554 0.0000 0.0000 0.0000
# 4 0.0000 0.0000 0.0000 19.7662 0.0000 0.0000
# 5 0.0000 0.0000 0.0000 0.0000 28.8605 0.0000
# 6 0.0000 0.0000 0.0000 0.0000 0.0000 36.9981
#
#
#
# Elastic Compliance Matrix: (Units=1/GPa)
#
#
# Indices 1 2 3 4 5 6 
#
# 1 0.010517 -0.003194 -0.002741 0.000000 0.000000 0.000000
# 2 -0.003194 0.011359 -0.001062 0.000000 0.000000 0.000000
# 3 -0.002741 -0.001062 0.015173 0.000000 0.000000 0.000000
# 4 0.000000 0.000000 0.000000 0.050591 0.000000 0.000000
# 5 0.000000 0.000000 0.000000 0.000000 0.034649 0.000000
# 6 0.000000 0.000000 0.000000 0.000000 0.000000 0.027028
#
#
# Mechanical properties :
#
#
# Convention : Reuss Voigt Hill
#
# Bulk Modulus (GPa) = 43.37398 46.41805 44.89601
# Shear Modulus (GPa) = 29.24059 31.25082 30.24570
#
# Velocity S-wave (km/s) = 3.62412 3.74663 3.68588
# Velocity P-wave (km/s) = 6.08236 6.29018 6.18714
#
# Compressibility (1/GPa) = 0.02305530
#
# Stress axis : x y z
#
# Youngs Moduli (GPa) = 95.08816 88.03830 65.90750
#
# Poissons Ratio (x) = 0.28121 0.18063
# Poissons Ratio (y) = 0.30372 0.06996
# Poissons Ratio (z) = 0.26061 0.09345
#
# Static dielectric constant tensor:
#      x y z
#    x 4.122800 0.000000 0.000000 
#    y 0.000000 4.284750 0.000000 
#    z 0.000000 0.000000 3.596990 
# 
# 
# High freq. dielectric constant tensor:
#      x y z
#    x 1.897620 0.000000 0.000000 
#    y 0.000000 1.893510 0.000000 
#    z 0.000000 0.000000 1.839420 
# 
# From -- ./inp_files/8943.got.cif
#   From: 2010.03.12/outbox.cif.g09.slc.cpg/sg33_5_cif.got.tgz:8943.got - 2010.04.14 01:49:19.
