data_PCOD8171846
_publ_section_title
;
Structure prediction by ZEFSAII (Michael W. Deem and Ramdas Pophale) SiO2 
 PCOD8171846
Probable space group: P N N 2
;
_chemical_formula_sum "Si O2"
_cell_formula_units_Z 28
_cell_length_a 9.088015
_cell_length_b 16.774781
_cell_length_c 9.236350
_cell_angle_alpha 90.000000
_cell_angle_beta 90.000000
_cell_angle_gamma 90.000000
_cell_volume 1408.076582
_symmetry_space_group_name_H-M "P N N 2"
_symmetry_group_IT_number 34
_symmetry_cell_setting 'orthorhombic'
loop_
_space_group_symop_operation_xyz
x,y,z
-x,-y,z
1/2-x,1/2+y,1/2+z
1/2+x,1/2-y,1/2+z
loop_
_atom_site_type_symbol
_atom_site_label
_atom_site_fract_x
_atom_site_fract_y
_atom_site_fract_z
Si Si1 0.915010 0.295053 0.122980
Si Si2 0.000000 0.500000 0.486516
Si Si3 0.089287 0.235595 0.689014
Si Si4 0.798706 0.482389 0.737199
Si Si5 0.403846 0.349187 0.414539
Si Si6 0.500000 0.500000 0.595957
Si Si7 0.035723 0.382892 0.870914
Si Si8 0.939007 0.668346 0.405658
O O1 0.741873 0.307935 0.151030
O O2 0.000443 0.281611 0.271751
O O3 0.946158 0.217442 0.029515
O O4 0.983191 0.370373 0.036032
O O5 0.857957 0.517878 0.585762
O O6 0.022698 0.582223 0.398831
O O7 0.022748 0.278030 0.545902
O O8 0.982839 0.168653 0.759772
O O9 0.114807 0.305135 0.806452
O O10 0.625811 0.471797 0.710246
O O11 0.885936 0.401180 0.777093
O O12 0.843947 0.545993 0.862772
O O13 0.454908 0.430985 0.486109
O O14 0.231864 0.348581 0.384385
#
# Coordination Sequence:
#
# PCOD8171846 Si02
#       8
#     4   2   4   4   4   2   4   4
#     4  10  23  37  62  88 121 157 207 248 303 371
#     4  10  18  36  64  86 110 168 200 236 300 370
#     4  10  20  37  59  85 121 153 198 250 301 357
#     4  10  19  36  66  84 121 163 197 251 301 370
#     4  10  24  39  57  91 124 155 201 264 297 367
#     4  12  22  38  62  98 118 160 218 256 310 368
#     4   9  19  40  58  88 118 159 202 245 303 369
#     4  11  21  40  60  91 121 161 203 243 312 367
#
# _framework density 19.885283000000001
#
# number of rings (size 3 to 8) (size 9 to 14) (size 15 to 20)
#    0.000    2.000    4.286    0.857    2.000    6.857 
#    0.000    1.429    0.000    0.857    0.000    0.000 
#    0.000    0.000    0.000    0.000    0.000    0.000 
#
# Total GULP energy -347014.962751 kJ/mol
# GULP energy per Si atom -12393.391527 kJ/mol
# Density = 1.984002 g / cm^3
# Si number density = 19.885283 Si / 1000 Ang^3
#
#
#
# Elastic Constant Matrix: (Units=GPa)
#
#
# Indices 1 2 3 4 5 6 
#
# 1 85.7618 27.8162 46.1504 0.0000 0.0000 0.0000
# 2 27.8162 69.3698 34.7869 0.0000 0.0000 0.0000
# 3 46.1504 34.7869 112.8684 0.0000 0.0000 0.0000
# 4 0.0000 0.0000 0.0000 21.9041 0.0000 0.0000
# 5 0.0000 0.0000 0.0000 0.0000 28.9350 0.0000
# 6 0.0000 0.0000 0.0000 0.0000 0.0000 26.4781
#
#
#
# Elastic Compliance Matrix: (Units=1/GPa)
#
#
# Indices 1 2 3 4 5 6 
#
# 1 0.015688 -0.003636 -0.005294 0.000000 0.000000 0.000000
# 2 -0.003636 0.017893 -0.004028 0.000000 0.000000 0.000000
# 3 -0.005294 -0.004028 0.012266 0.000000 0.000000 0.000000
# 4 0.000000 0.000000 0.000000 0.045654 0.000000 0.000000
# 5 0.000000 0.000000 0.000000 0.000000 0.034560 0.000000
# 6 0.000000 0.000000 0.000000 0.000000 0.000000 0.037767
#
#
# Mechanical properties :
#
#
# Convention : Reuss Voigt Hill
#
# Bulk Modulus (GPa) = 50.17220 53.94524 52.05872
# Shear Modulus (GPa) = 25.45963 26.07986 25.76974
#
# Velocity S-wave (km/s) = 3.58204 3.62541 3.60379
# Velocity P-wave (km/s) = 6.51104 6.68670 6.59945
#
# Compressibility (1/GPa) = 0.01993136
#
# Stress axis : x y z
#
# Youngs Moduli (GPa) = 63.74138 55.88630 81.52539
#
# Poissons Ratio (x) = 0.20320 0.43161
# Poissons Ratio (y) = 0.23176 0.32840
# Poissons Ratio (z) = 0.33746 0.22512
#
# Static dielectric constant tensor:
#      x y z
#    x 3.586460 0.000000 0.000000 
#    y 0.000000 3.601820 0.000000 
#    z 0.000000 0.000000 3.621380 
# 
# 
# High freq. dielectric constant tensor:
#      x y z
#    x 1.766730 0.000000 0.000000 
#    y 0.000000 1.769960 0.000000 
#    z 0.000000 0.000000 1.766170 
# 
# From -- ./inp_files/2805.got.cif
#   From: 2010.03.12/outbox.cif.g09.slc.cpg/sg34_2_cif.got.tgz:2805.got - 2010.04.14 01:56:33.
