data_PCOD8171604
_publ_section_title
;
Structure prediction by ZEFSAII (Michael W. Deem and Ramdas Pophale) SiO2 
 PCOD8171604
Probable space group: P N A 21
;
_chemical_formula_sum "Si O2"
_cell_formula_units_Z 24
_cell_length_a 13.997934
_cell_length_b 8.966412
_cell_length_c 8.775615
_cell_angle_alpha 90.000000
_cell_angle_beta 90.000000
_cell_angle_gamma 90.000000
_cell_volume 1101.438350
_symmetry_space_group_name_H-M "P N A 21"
_symmetry_group_IT_number 33
_symmetry_cell_setting 'orthorhombic'
loop_
_space_group_symop_operation_xyz
x,y,z
-x,-y,1/2+z
1/2-x,1/2+y,1/2+z
1/2+x,1/2-y,z
loop_
_atom_site_type_symbol
_atom_site_label
_atom_site_fract_x
_atom_site_fract_y
_atom_site_fract_z
Si Si1 0.379498 0.380994 0.239600
Si Si2 0.673334 0.044280 0.175308
Si Si3 0.632648 0.097267 0.524005
Si Si4 0.020052 0.178073 0.720377
Si Si5 0.005463 0.676698 0.532940
Si Si6 0.664156 0.705599 0.068090
O O1 0.279979 0.394066 0.147870
O O2 0.414853 0.546190 0.287265
O O3 0.461787 0.318950 0.129899
O O4 0.362874 0.281334 0.389493
O O5 0.636467 0.086314 0.342721
O O6 0.603261 0.129901 0.062185
O O7 0.673179 0.868994 0.140447
O O8 0.572658 0.239863 0.579676
O O9 0.739486 0.110056 0.591949
O O10 0.580492 0.949939 0.584623
O O11 0.919701 0.116559 0.654730
O O12 0.993418 0.292974 0.853636
#
# Coordination Sequence:
#
# PCOD8171604 Si02
#       6
#     4   4   4   4   4   4
#     4  11  27  44  67 107 138 185 237 293 354 422
#     4  11  24  45  69 102 137 188 234 287 359 416
#     4  11  23  43  72  99 138 183 237 289 349 424
#     4  12  24  45  71 102 144 181 235 298 353 420
#     4  12  25  43  72 105 138 184 241 286 367 416
#     4  11  23  44  71  95 147 183 232 293 350 422
#
# _framework density 21.789687000000001
#
# number of rings (size 3 to 8) (size 9 to 14) (size 15 to 20)
#    0.000    0.667    5.000    2.000    2.333    5.333 
#    0.000    0.000    0.000    0.000    0.000    0.000 
#    0.000    0.000    0.000    0.000    0.000    0.000 
#
# Total GULP energy -297642.713452 kJ/mol
# GULP energy per Si atom -12401.779727 kJ/mol
# Density = 2.174009 g / cm^3
# Si number density = 21.789687 Si / 1000 Ang^3
#
#
#
# Elastic Constant Matrix: (Units=GPa)
#
#
# Indices 1 2 3 4 5 6 
#
# 1 166.3608 39.7615 45.6614 0.0000 0.0000 0.0000
# 2 39.7615 81.7531 31.7901 0.0000 0.0000 0.0000
# 3 45.6614 31.7901 88.1995 0.0000 0.0000 0.0000
# 4 0.0000 0.0000 0.0000 33.2771 0.0000 0.0000
# 5 0.0000 0.0000 0.0000 0.0000 37.9271 0.0000
# 6 0.0000 0.0000 0.0000 0.0000 0.0000 29.7617
#
#
#
# Elastic Compliance Matrix: (Units=1/GPa)
#
#
# Indices 1 2 3 4 5 6 
#
# 1 0.007408 -0.002456 -0.002950 0.000000 0.000000 0.000000
# 2 -0.002456 0.015040 -0.004150 0.000000 0.000000 0.000000
# 3 -0.002950 -0.004150 0.014361 0.000000 0.000000 0.000000
# 4 0.000000 0.000000 0.000000 0.030051 0.000000 0.000000
# 5 0.000000 0.000000 0.000000 0.000000 0.026366 0.000000
# 6 0.000000 0.000000 0.000000 0.000000 0.000000 0.033600
#
#
# Mechanical properties :
#
#
# Convention : Reuss Voigt Hill
#
# Bulk Modulus (GPa) = 56.50350 63.41548 59.95949
# Shear Modulus (GPa) = 32.93045 34.79986 33.86516
#
# Velocity S-wave (km/s) = 3.89174 4.00068 3.94659
# Velocity P-wave (km/s) = 6.79572 7.10684 6.95302
#
# Compressibility (1/GPa) = 0.01769802
#
# Stress axis : x y z
#
# Youngs Moduli (GPa) = 134.99620 66.48985 69.63439
#
# Poissons Ratio (x) = 0.16328 0.20541
# Poissons Ratio (y) = 0.33151 0.28895
# Poissons Ratio (z) = 0.39822 0.27590
#
# Static dielectric constant tensor:
#      x y z
#    x 4.287220 0.000000 0.000000 
#    y 0.000000 3.740710 0.000000 
#    z 0.000000 0.000000 3.761390 
# 
# 
# High freq. dielectric constant tensor:
#      x y z
#    x 1.879890 0.000000 0.000000 
#    y 0.000000 1.847750 0.000000 
#    z 0.000000 0.000000 1.852990 
# 
# From -- ./inp_files/4263.got.cif
#   From: 2010.03.12/outbox.cif.g09.slc.cpg/sg33_3_cif.got.tgz:4263.got - 2010.04.14 01:49:19.
