data_PCOD8171457
_publ_section_title
;
Structure prediction by ZEFSAII (Michael W. Deem and Ramdas Pophale) SiO2 
 PCOD8171457
Probable space group: P N A 21
;
_chemical_formula_sum "Si O2"
_cell_formula_units_Z 32
_cell_length_a 16.355613
_cell_length_b 10.790575
_cell_length_c 8.156971
_cell_angle_alpha 90.000000
_cell_angle_beta 90.000000
_cell_angle_gamma 90.000000
_cell_volume 1439.595007
_symmetry_space_group_name_H-M "P N A 21"
_symmetry_group_IT_number 33
_symmetry_cell_setting 'orthorhombic'
loop_
_space_group_symop_operation_xyz
x,y,z
-x,-y,1/2+z
1/2-x,1/2+y,1/2+z
1/2+x,1/2-y,z
loop_
_atom_site_type_symbol
_atom_site_label
_atom_site_fract_x
_atom_site_fract_y
_atom_site_fract_z
Si Si1 0.986579 0.558492 0.394680
Si Si2 0.087444 0.363886 0.243552
Si Si3 0.940525 0.916127 0.769957
Si Si4 0.095650 0.720594 0.181894
Si Si5 0.678196 0.599758 0.422278
Si Si6 0.170565 0.568058 0.904129
Si Si7 0.091807 0.941146 0.959153
Si Si8 0.777129 0.174473 0.261544
O O1 0.060740 0.458079 0.388902
O O2 0.017974 0.675430 0.288785
O O3 0.959850 0.600893 0.575568
O O4 0.909472 0.486143 0.311148
O O5 0.061314 0.228788 0.300637
O O6 0.185069 0.365739 0.225502
O O7 0.883830 0.985958 0.901053
O O8 0.910898 0.943898 0.584467
O O9 0.032419 0.965038 0.804697
O O10 0.163008 0.791548 0.291222
O O11 0.059396 0.817413 0.050966
O O12 0.141397 0.607273 0.089081
O O13 0.769218 0.547704 0.407214
O O14 0.667411 0.659831 0.600306
O O15 0.213952 0.682487 0.813810
O O16 0.184700 0.917402 0.899049
#
# Coordination Sequence:
#
# PCOD8171457 Si02
#       8
#     4   4   4   4   4   4   4   4
#     4  12  25  46  72 100 147 189 245 290 360 429
#     4  12  26  46  68 104 141 188 241 292 359 425
#     4  11  24  45  70 103 138 183 238 288 362 425
#     4  10  24  44  68 105 140 189 243 292 356 429
#     4  11  23  45  71 105 142 185 238 300 356 428
#     4  11  23  49  66 105 147 186 241 295 361 430
#     4  10  24  44  71  99 141 181 233 299 354 426
#     4  11  23  47  70 101 148 183 239 300 358 424
#
# _framework density 22.228472
#
# number of rings (size 3 to 8) (size 9 to 14) (size 15 to 20)
#    0.000    1.000    3.750    2.250    7.000    0.000 
#   13.500    0.000    0.000    0.000    0.000    0.000 
#    0.000    0.000    0.000    0.000    0.000    0.000 
#
# Total GULP energy -396676.429180 kJ/mol
# GULP energy per Si atom -12396.138412 kJ/mol
# Density = 2.217788 g / cm^3
# Si number density = 22.228472 Si / 1000 Ang^3
#
#
#
# Elastic Constant Matrix: (Units=GPa)
#
#
# Indices 1 2 3 4 5 6 
#
# 1 122.3313 45.2827 55.2698 0.0000 0.0000 0.0000
# 2 45.2827 92.8608 43.4886 0.0000 0.0000 0.0000
# 3 55.2698 43.4886 113.5987 0.0000 0.0000 0.0000
# 4 0.0000 0.0000 0.0000 28.4731 0.0000 0.0000
# 5 0.0000 0.0000 0.0000 0.0000 39.3474 0.0000
# 6 0.0000 0.0000 0.0000 0.0000 0.0000 44.9085
#
#
#
# Elastic Compliance Matrix: (Units=1/GPa)
#
#
# Indices 1 2 3 4 5 6 
#
# 1 0.011389 -0.003605 -0.004161 0.000000 0.000000 0.000000
# 2 -0.003605 0.014262 -0.003706 0.000000 0.000000 0.000000
# 3 -0.004161 -0.003706 0.012246 0.000000 0.000000 0.000000
# 4 0.000000 0.000000 0.000000 0.035121 0.000000 0.000000
# 5 0.000000 0.000000 0.000000 0.000000 0.025415 0.000000
# 6 0.000000 0.000000 0.000000 0.000000 0.000000 0.022267
#
#
# Mechanical properties :
#
#
# Convention : Reuss Voigt Hill
#
# Bulk Modulus (GPa) = 66.87484 68.54147 67.70816
# Shear Modulus (GPa) = 33.64077 34.86245 34.25161
#
# Velocity S-wave (km/s) = 3.89448 3.96456 3.92967
# Velocity P-wave (km/s) = 7.09740 7.20131 7.14955
#
# Compressibility (1/GPa) = 0.01495331
#
# Stress axis : x y z
#
# Youngs Moduli (GPa) = 87.80451 70.11449 81.65816
#
# Poissons Ratio (x) = 0.25276 0.33978
# Poissons Ratio (y) = 0.31654 0.30263
# Poissons Ratio (z) = 0.36536 0.25985
#
# Static dielectric constant tensor:
#      x y z
#    x 3.981870 0.000000 0.000000 
#    y 0.000000 4.120700 0.000000 
#    z 0.000000 0.000000 4.048060 
# 
# 
# High freq. dielectric constant tensor:
#      x y z
#    x 1.875500 0.000000 0.000000 
#    y 0.000000 1.885340 0.000000 
#    z 0.000000 0.000000 1.868730 
# 
# From -- ./inp_files/4408.got.cif
#   From: 2010.03.12/outbox.cif.g09.slc.cpg/sg33_3_cif.got.tgz:4408.got - 2010.04.14 01:49:19.
