data_PCOD8171660
_publ_section_title
;
Structure prediction by ZEFSAII (Michael W. Deem and Ramdas Pophale) SiO2 
 PCOD8171660
Probable space group: P N A 21
;
_chemical_formula_sum "Si O2"
_cell_formula_units_Z 20
_cell_length_a 11.468148
_cell_length_b 11.645146
_cell_length_c 7.307304
_cell_angle_alpha 90.000000
_cell_angle_beta 90.000000
_cell_angle_gamma 90.000000
_cell_volume 975.877718
_symmetry_space_group_name_H-M "P N A 21"
_symmetry_group_IT_number 33
_symmetry_cell_setting 'orthorhombic'
loop_
_space_group_symop_operation_xyz
x,y,z
-x,-y,1/2+z
1/2-x,1/2+y,1/2+z
1/2+x,1/2-y,z
loop_
_atom_site_type_symbol
_atom_site_label
_atom_site_fract_x
_atom_site_fract_y
_atom_site_fract_z
Si Si1 0.842056 0.550336 0.493560
Si Si2 0.576998 0.887281 0.298928
Si Si3 0.473565 0.659428 0.174770
Si Si4 0.620835 0.448571 0.313663
Si Si5 0.294661 0.693751 0.483518
O O1 0.859575 0.484104 0.682110
O O2 0.750730 0.481776 0.370732
O O3 0.790226 0.674138 0.545485
O O4 0.961885 0.558454 0.384079
O O5 0.549137 0.776234 0.173603
O O6 0.662816 0.852184 0.465324
O O7 0.545867 0.560829 0.274796
O O8 0.354885 0.681515 0.285610
O O9 0.443450 0.626782 0.967549
O O10 0.629144 0.374046 0.130903
#
# Coordination Sequence:
#
# PCOD8171660 Si02
#       5
#     4   4   4   4   4
#     4  11  25  44  69 101 135 179 222 279 338 397
#     4  11  24  46  66 102 140 172 224 286 329 406
#     4  11  24  43  69  99 134 176 227 277 334 400
#     4  12  23  45  71  98 132 182 224 277 338 400
#     4  11  24  44  69  98 137 173 227 277 335 405
#
# _framework density 20.494368999999999
#
# number of rings (size 3 to 8) (size 9 to 14) (size 15 to 20)
#    0.000    0.800    6.000    1.200    2.800    0.000 
#    7.200    0.000    0.000    0.000    0.000    0.000 
#    0.000    0.000    0.000    0.000    0.000    0.000 
#
# Total GULP energy -248128.875620 kJ/mol
# GULP energy per Si atom -12406.443781 kJ/mol
# Density = 2.044772 g / cm^3
# Si number density = 20.494369 Si / 1000 Ang^3
#
#
#
# Elastic Constant Matrix: (Units=GPa)
#
#
# Indices 1 2 3 4 5 6 
#
# 1 93.0235 28.3037 36.1156 0.0000 0.0000 0.0000
# 2 28.3037 111.5601 48.7909 0.0000 0.0000 0.0000
# 3 36.1156 48.7909 84.4172 0.0000 0.0000 0.0000
# 4 0.0000 0.0000 0.0000 32.9383 0.0000 0.0000
# 5 0.0000 0.0000 0.0000 0.0000 36.8544 0.0000
# 6 0.0000 0.0000 0.0000 0.0000 0.0000 33.4939
#
#
#
# Elastic Compliance Matrix: (Units=1/GPa)
#
#
# Indices 1 2 3 4 5 6 
#
# 1 0.013002 -0.001159 -0.004893 0.000000 0.000000 0.000000
# 2 -0.001159 0.012099 -0.006497 0.000000 0.000000 0.000000
# 3 -0.004893 -0.006497 0.017695 0.000000 0.000000 0.000000
# 4 0.000000 0.000000 0.000000 0.030360 0.000000 0.000000
# 5 0.000000 0.000000 0.000000 0.000000 0.027134 0.000000
# 6 0.000000 0.000000 0.000000 0.000000 0.000000 0.029856
#
#
# Mechanical properties :
#
#
# Convention : Reuss Voigt Hill
#
# Bulk Modulus (GPa) = 56.50366 57.26904 56.88635
# Shear Modulus (GPa) = 31.02827 32.37668 31.70248
#
# Velocity S-wave (km/s) = 3.89522 3.97896 3.93732
# Velocity P-wave (km/s) = 6.91813 7.00814 6.96328
#
# Compressibility (1/GPa) = 0.01769797
#
# Stress axis : x y z
#
# Youngs Moduli (GPa) = 76.91022 82.64857 56.51472
#
# Poissons Ratio (x) = 0.09578 0.27652
# Poissons Ratio (y) = 0.08913 0.36720
# Poissons Ratio (z) = 0.37631 0.53700
#
# Static dielectric constant tensor:
#      x y z
#    x 3.778420 0.000000 0.000000 
#    y 0.000000 3.919200 0.000000 
#    z 0.000000 0.000000 3.523720 
# 
# 
# High freq. dielectric constant tensor:
#      x y z
#    x 1.816250 0.000000 0.000000 
#    y 0.000000 1.816070 0.000000 
#    z 0.000000 0.000000 1.791810 
# 
# From -- ./inp_files/676.got.cif
#   From: 2010.03.12/outbox.cif.g09.slc.cpg/sg33_1_cif.got.tgz:676.got - 2010.04.14 01:49:19.
