data_PCOD8171795
_publ_section_title
;
Structure prediction by ZEFSAII (Michael W. Deem and Ramdas Pophale) SiO2 
 PCOD8171795
Probable space group: P N A 21
;
_chemical_formula_sum "Si O2"
_cell_formula_units_Z 28
_cell_length_a 9.906199
_cell_length_b 18.680911
_cell_length_c 6.590528
_cell_angle_alpha 90.000000
_cell_angle_beta 90.000000
_cell_angle_gamma 90.000000
_cell_volume 1219.622166
_symmetry_space_group_name_H-M "P N A 21"
_symmetry_group_IT_number 33
_symmetry_cell_setting 'orthorhombic'
loop_
_space_group_symop_operation_xyz
x,y,z
-x,-y,1/2+z
1/2-x,1/2+y,1/2+z
1/2+x,1/2-y,z
loop_
_atom_site_type_symbol
_atom_site_label
_atom_site_fract_x
_atom_site_fract_y
_atom_site_fract_z
Si Si1 0.128496 0.549859 0.547210
Si Si2 0.466778 0.393697 0.542609
Si Si3 0.256741 0.300202 0.777695
Si Si4 0.666694 0.051437 0.904197
Si Si5 0.625969 0.787624 0.650929
Si Si6 0.877085 0.767790 0.906006
Si Si7 0.841330 0.995128 0.248894
O O1 0.187018 0.487110 0.689030
O O2 0.135080 0.627076 0.647821
O O3 0.221474 0.550892 0.348405
O O4 0.975886 0.528377 0.496110
O O5 0.374455 0.334391 0.645251
O O6 0.584927 0.351352 0.425076
O O7 0.529160 0.444951 0.714634
O O8 0.380608 0.437227 0.381921
O O9 0.173805 0.362524 0.892025
O O10 0.141549 0.264351 0.633876
O O11 0.334032 0.246151 0.931887
O O12 0.791440 0.024596 0.035454
O O13 0.731005 0.757925 0.811668
O O14 0.480376 0.768917 0.746627
#
# Coordination Sequence:
#
# PCOD8171795 Si02
#       7
#     4   4   4   4   4   4   4
#     4  12  27  45  76 110 150 198 252 308 378 452
#     4  12  27  48  77 107 150 193 254 307 378 451
#     4  12  28  50  75 112 149 201 252 319 376 462
#     4  12  26  48  77 109 153 192 251 312 381 446
#     4  12  29  46  79 109 152 205 250 314 388 449
#     4  12  28  50  75 111 152 197 256 313 378 464
#     4  12  27  49  73 112 148 196 247 321 371 452
#
# _framework density 22.957929
#
# number of rings (size 3 to 8) (size 9 to 14) (size 15 to 20)
#    0.000    0.000    4.286    4.286   12.000    1.143 
#    0.000    0.000    0.000    0.000    0.000    0.000 
#    0.000    0.000    0.000    0.000    0.000    0.000 
#
# Total GULP energy -347265.211410 kJ/mol
# GULP energy per Si atom -12402.328979 kJ/mol
# Density = 2.290568 g / cm^3
# Si number density = 22.957929 Si / 1000 Ang^3
#
#
#
# Elastic Constant Matrix: (Units=GPa)
#
#
# Indices 1 2 3 4 5 6 
#
# 1 95.4249 18.6246 36.0454 0.0000 0.0000 0.0000
# 2 18.6246 91.8291 30.3778 0.0000 0.0000 0.0000
# 3 36.0454 30.3778 100.2703 0.0000 0.0000 0.0000
# 4 0.0000 0.0000 0.0000 44.7617 0.0000 0.0000
# 5 0.0000 0.0000 0.0000 0.0000 55.6418 0.0000
# 6 0.0000 0.0000 0.0000 0.0000 0.0000 37.6977
#
#
#
# Elastic Compliance Matrix: (Units=1/GPa)
#
#
# Indices 1 2 3 4 5 6 
#
# 1 0.012233 -0.001141 -0.004052 0.000000 0.000000 0.000000
# 2 -0.001141 0.012209 -0.003289 0.000000 0.000000 0.000000
# 3 -0.004052 -0.003289 0.012426 0.000000 0.000000 0.000000
# 4 0.000000 0.000000 0.000000 0.022341 0.000000 0.000000
# 5 0.000000 0.000000 0.000000 0.000000 0.017972 0.000000
# 6 0.000000 0.000000 0.000000 0.000000 0.000000 0.026527
#
#
# Mechanical properties :
#
#
# Convention : Reuss Voigt Hill
#
# Bulk Modulus (GPa) = 50.23834 50.84666 50.54250
# Shear Modulus (GPa) = 39.27585 41.11868 40.19727
#
# Velocity S-wave (km/s) = 4.14064 4.23667 4.18893
# Velocity P-wave (km/s) = 6.69254 6.79178 6.74234
#
# Compressibility (1/GPa) = 0.01990512
#
# Stress axis : x y z
#
# Youngs Moduli (GPa) = 81.74881 81.90612 80.47655
#
# Poissons Ratio (x) = 0.09342 0.32608
# Poissons Ratio (y) = 0.09324 0.26467
# Poissons Ratio (z) = 0.33123 0.26937
#
# Static dielectric constant tensor:
#      x y z
#    x 4.210360 0.000000 0.000000 
#    y 0.000000 4.116490 0.000000 
#    z 0.000000 0.000000 4.252460 
# 
# 
# High freq. dielectric constant tensor:
#      x y z
#    x 1.924080 0.000000 0.000000 
#    y 0.000000 1.914080 0.000000 
#    z 0.000000 0.000000 1.915740 
# 
# From -- ./inp_files/941.got.cif
#   From: 2010.03.12/outbox.cif.g09.slc.cpg/sg33_1_cif.got.tgz:941.got - 2010.04.14 01:49:19.
