data_PCOD8171149
_publ_section_title
;
Structure prediction by ZEFSAII (Michael W. Deem and Ramdas Pophale) SiO2 
 PCOD8171149
Probable space group: P N A 21
;
_chemical_formula_sum "Si O2"
_cell_formula_units_Z 24
_cell_length_a 9.526361
_cell_length_b 8.388636
_cell_length_c 14.363302
_cell_angle_alpha 90.000000
_cell_angle_beta 90.000000
_cell_angle_gamma 90.000000
_cell_volume 1147.817064
_symmetry_space_group_name_H-M "P N A 21"
_symmetry_group_IT_number 33
_symmetry_cell_setting 'orthorhombic'
loop_
_space_group_symop_operation_xyz
x,y,z
-x,-y,1/2+z
1/2-x,1/2+y,1/2+z
1/2+x,1/2-y,z
loop_
_atom_site_type_symbol
_atom_site_label
_atom_site_fract_x
_atom_site_fract_y
_atom_site_fract_z
Si Si1 0.897404 0.433522 0.335400
Si Si2 0.144692 0.936835 0.439153
Si Si3 0.969202 0.403277 0.138756
Si Si4 0.803674 0.077849 0.142647
Si Si5 0.882257 0.062874 0.342812
Si Si6 0.635590 0.935481 0.446888
O O1 0.796682 0.549436 0.392418
O O2 0.910817 0.495021 0.229219
O O3 0.847937 0.250505 0.342581
O O4 0.052850 0.455236 0.374751
O O5 0.154019 0.009569 0.544961
O O6 0.101556 0.751792 0.439292
O O7 0.042847 0.036091 0.371713
O O8 0.900633 0.231336 0.142443
O O9 0.137820 0.384923 0.139170
O O10 0.910285 0.496512 0.049162
O O11 0.845108 0.988526 0.239787
O O12 0.797340 0.972072 0.424351
#
# Coordination Sequence:
#
# PCOD8171149 Si02
#       6
#     4   4   4   4   4   4
#     4  11  22  42  64  91 126 161 211 257 311 370
#     4  11  24  40  65  93 125 166 210 258 312 373
#     4  10  22  38  65  89 126 170 210 251 308 388
#     4  10  22  40  63  91 124 168 214 247 312 388
#     4  11  24  40  65  93 125 166 210 258 312 373
#     4  11  22  42  64  91 126 161 211 257 311 370
#
# _framework density 20.909254000000001
#
# number of rings (size 3 to 8) (size 9 to 14) (size 15 to 20)
#    0.000    1.333    3.333    2.000   14.000    0.000 
#    0.000   10.000    0.000    0.000    0.000    0.000 
#    0.000    0.000    0.000    0.000    0.000    0.000 
#
# Total GULP energy -297428.983744 kJ/mol
# GULP energy per Si atom -12392.874323 kJ/mol
# Density = 2.086166 g / cm^3
# Si number density = 20.909254 Si / 1000 Ang^3
#
#
#
# Elastic Constant Matrix: (Units=GPa)
#
#
# Indices 1 2 3 4 5 6 
#
# 1 86.0153 11.8470 42.2249 0.0000 0.0000 0.0000
# 2 11.8470 39.1315 36.5877 0.0000 0.0000 0.0000
# 3 42.2249 36.5877 180.4966 0.0000 0.0000 0.0000
# 4 0.0000 0.0000 0.0000 25.2533 0.0000 0.0000
# 5 0.0000 0.0000 0.0000 0.0000 43.9586 0.0000
# 6 0.0000 0.0000 0.0000 0.0000 0.0000 38.1177
#
#
#
# Elastic Compliance Matrix: (Units=1/GPa)
#
#
# Indices 1 2 3 4 5 6 
#
# 1 0.013193 -0.001368 -0.002809 0.000000 0.000000 0.000000
# 2 -0.001368 0.031673 -0.006100 0.000000 0.000000 0.000000
# 3 -0.002809 -0.006100 0.007434 0.000000 0.000000 0.000000
# 4 0.000000 0.000000 0.000000 0.039599 0.000000 0.000000
# 5 0.000000 0.000000 0.000000 0.000000 0.022749 0.000000
# 6 0.000000 0.000000 0.000000 0.000000 0.000000 0.026235
#
#
# Mechanical properties :
#
#
# Convention : Reuss Voigt Hill
#
# Bulk Modulus (GPa) = 31.50042 54.10697 42.80370
# Shear Modulus (GPa) = 29.06674 35.79818 32.43246
#
# Velocity S-wave (km/s) = 3.73250 4.14221 3.94268
# Velocity P-wave (km/s) = 5.80288 6.98645 6.42199
#
# Compressibility (1/GPa) = 0.03174561
#
# Stress axis : x y z
#
# Youngs Moduli (GPa) = 75.79649 31.57302 134.51717
#
# Poissons Ratio (x) = 0.04318 0.37788
# Poissons Ratio (y) = 0.10367 0.82059
# Poissons Ratio (z) = 0.21292 0.19260
#
# Static dielectric constant tensor:
#      x y z
#    x 3.710530 0.000000 0.000000 
#    y 0.000000 3.193990 0.000000 
#    z 0.000000 0.000000 4.900620 
# 
# 
# High freq. dielectric constant tensor:
#      x y z
#    x 1.833150 0.000000 0.000000 
#    y 0.000000 1.770570 0.000000 
#    z 0.000000 0.000000 1.847980 
# 
# From -- ./inp_files/7528.got.cif
#   From: 2010.03.12/outbox.cif.g09.slc.cpg/sg33_4_cif.got.tgz:7528.got - 2010.04.14 01:49:19.
