data_PCOD8171515
_publ_section_title
;
Structure prediction by ZEFSAII (Michael W. Deem and Ramdas Pophale) SiO2 
 PCOD8171515
Probable space group: P N A 21
;
_chemical_formula_sum "Si O2"
_cell_formula_units_Z 24
_cell_length_a 15.684518
_cell_length_b 11.212410
_cell_length_c 6.309893
_cell_angle_alpha 90.000000
_cell_angle_beta 90.000000
_cell_angle_gamma 90.000000
_cell_volume 1109.665648
_symmetry_space_group_name_H-M "P N A 21"
_symmetry_group_IT_number 33
_symmetry_cell_setting 'orthorhombic'
loop_
_space_group_symop_operation_xyz
x,y,z
-x,-y,1/2+z
1/2-x,1/2+y,1/2+z
1/2+x,1/2-y,z
loop_
_atom_site_type_symbol
_atom_site_label
_atom_site_fract_x
_atom_site_fract_y
_atom_site_fract_z
Si Si1 0.393902 0.265585 0.978000
Si Si2 0.096850 0.951803 0.836715
Si Si3 0.503455 0.842164 0.108880
Si Si4 0.299988 0.457956 0.735041
Si Si5 0.115841 0.549946 0.755728
Si Si6 0.078025 0.115080 0.482979
O O1 0.467724 0.240475 0.805705
O O2 0.318714 0.339145 0.868414
O O3 0.424259 0.341093 0.180525
O O4 0.362127 0.138420 0.062739
O O5 0.117285 0.072674 0.708061
O O6 0.178800 0.930477 0.988771
O O7 0.010510 0.960236 0.973616
O O8 0.437280 0.758039 0.976964
O O9 0.458919 0.961256 0.187801
O O10 0.584498 0.879355 0.964960
O O11 0.202160 0.478641 0.793576
O O12 0.356864 0.573583 0.799746
#
# Coordination Sequence:
#
# PCOD8171515 Si02
#       6
#     4   4   4   4   4   4
#     4  11  23  45  71  99 141 185 230 296 341 429
#     4  11  20  40  70 105 136 182 229 288 353 407
#     4  12  25  46  72  97 142 193 240 281 360 423
#     4  11  26  43  71 107 141 179 240 297 350 420
#     4  12  27  47  69 103 141 191 237 293 354 421
#     4  11  21  39  71 101 135 184 230 285 350 418
#
# _framework density 21.628139000000001
#
# number of rings (size 3 to 8) (size 9 to 14) (size 15 to 20)
#    0.000    0.667    6.667    1.000    0.000    6.667 
#    3.000    0.000    0.000    0.000    0.000    0.000 
#    0.000    0.000    0.000    0.000    0.000    0.000 
#
# Total GULP energy -297539.624101 kJ/mol
# GULP energy per Si atom -12397.484338 kJ/mol
# Density = 2.157891 g / cm^3
# Si number density = 21.628139 Si / 1000 Ang^3
#
#
#
# Elastic Constant Matrix: (Units=GPa)
#
#
# Indices 1 2 3 4 5 6 
#
# 1 101.7764 38.3769 45.3155 0.0000 0.0000 0.0000
# 2 38.3769 114.1314 49.8391 0.0000 0.0000 0.0000
# 3 45.3155 49.8391 117.4190 0.0000 0.0000 0.0000
# 4 0.0000 0.0000 0.0000 45.6430 0.0000 0.0000
# 5 0.0000 0.0000 0.0000 0.0000 24.3380 0.0000
# 6 0.0000 0.0000 0.0000 0.0000 0.0000 32.7725
#
#
#
# Elastic Compliance Matrix: (Units=1/GPa)
#
#
# Indices 1 2 3 4 5 6 
#
# 1 0.012446 -0.002562 -0.003716 0.000000 0.000000 0.000000
# 2 -0.002562 0.011283 -0.003800 0.000000 0.000000 0.000000
# 3 -0.003716 -0.003800 0.011563 0.000000 0.000000 0.000000
# 4 0.000000 0.000000 0.000000 0.021909 0.000000 0.000000
# 5 0.000000 0.000000 0.000000 0.000000 0.041088 0.000000
# 6 0.000000 0.000000 0.000000 0.000000 0.000000 0.030513
#
#
# Mechanical properties :
#
#
# Convention : Reuss Voigt Hill
#
# Bulk Modulus (GPa) = 66.06799 66.70997 66.38898
# Shear Modulus (GPa) = 32.46650 33.87039 33.16845
#
# Velocity S-wave (km/s) = 3.87864 3.96161 3.92034
# Velocity P-wave (km/s) = 7.11843 7.19978 7.15922
#
# Compressibility (1/GPa) = 0.01513592
#
# Stress axis : x y z
#
# Youngs Moduli (GPa) = 80.34669 88.62957 86.47907
#
# Poissons Ratio (x) = 0.22711 0.32133
# Poissons Ratio (y) = 0.20588 0.32863
# Poissons Ratio (z) = 0.29854 0.33681
#
# Static dielectric constant tensor:
#      x y z
#    x 3.456680 0.000000 0.000000 
#    y 0.000000 3.972550 0.000000 
#    z 0.000000 0.000000 4.154730 
# 
# 
# High freq. dielectric constant tensor:
#      x y z
#    x 1.815420 0.000000 0.000000 
#    y 0.000000 1.856860 0.000000 
#    z 0.000000 0.000000 1.862690 
# 
# From -- ./inp_files/1335.got.cif
#   From: 2010.03.12/outbox.cif.g09.slc.cpg/sg33_1_cif.got.tgz:1335.got - 2010.04.14 01:49:19.
