data_PCOD8171238
_publ_section_title
;
Structure prediction by ZEFSAII (Michael W. Deem and Ramdas Pophale) SiO2 
 PCOD8171238
Probable space group: P N A 21
;
_chemical_formula_sum "Si O2"
_cell_formula_units_Z 24
_cell_length_a 11.974251
_cell_length_b 4.887860
_cell_length_c 17.140384
_cell_angle_alpha 90.000000
_cell_angle_beta 90.000000
_cell_angle_gamma 90.000000
_cell_volume 1003.200322
_symmetry_space_group_name_H-M "P N A 21"
_symmetry_group_IT_number 33
_symmetry_cell_setting 'orthorhombic'
loop_
_space_group_symop_operation_xyz
x,y,z
-x,-y,1/2+z
1/2-x,1/2+y,1/2+z
1/2+x,1/2-y,z
loop_
_atom_site_type_symbol
_atom_site_label
_atom_site_fract_x
_atom_site_fract_y
_atom_site_fract_z
Si Si1 0.845520 0.777554 0.408990
Si Si2 0.458300 0.225991 0.483008
Si Si3 0.541702 0.725988 0.651704
Si Si4 0.655466 0.578036 0.506476
Si Si5 0.155465 0.578036 0.128236
Si Si6 0.345519 0.777557 0.225722
O O1 0.936437 0.578390 0.450326
O O2 0.716860 0.726674 0.434901
O O3 0.854163 0.749992 0.317357
O O4 0.876020 0.083910 0.432793
O O5 0.587458 0.316600 0.472532
O O6 0.429782 0.262829 0.576234
O O7 0.570216 0.762825 0.558477
O O8 0.563562 0.421605 0.684386
O O9 0.412543 0.816601 0.662180
O O10 0.623984 0.916086 0.701918
O O11 0.749999 0.499997 0.567357
O O12 0.216858 0.726670 0.199814
#
# Coordination Sequence:
#
# PCOD8171238 Si02
#       6
#     4   4   4   4   4   4
#     4  11  25  44  66  97 138 178 220 272 340 406
#     4  11  23  42  68 100 132 173 227 281 327 392
#     4  11  23  42  68 100 132 173 227 281 327 392
#     4  10  22  42  69  95 128 173 223 273 326 390
#     4  10  22  42  69  95 128 173 223 273 326 390
#     4  11  25  44  66  97 138 178 220 272 340 406
#
# _framework density 23.923435000000001
#
# number of rings (size 3 to 8) (size 9 to 14) (size 15 to 20)
#    0.000    1.333    0.000    6.000    0.000    9.333 
#    0.000   10.000    0.000    0.000    0.000    0.000 
#    0.000    0.000    0.000    0.000    0.000    0.000 
#
# Total GULP energy -297561.806161 kJ/mol
# GULP energy per Si atom -12398.408590 kJ/mol
# Density = 2.386898 g / cm^3
# Si number density = 23.923435 Si / 1000 Ang^3
#
#
#
# Elastic Constant Matrix: (Units=GPa)
#
#
# Indices 1 2 3 4 5 6 
#
# 1 112.0535 -5.2587 20.0979 0.0000 0.0000 0.0000
# 2 -5.2587 48.3772 11.0312 0.0000 0.0000 0.0000
# 3 20.0979 11.0312 142.2227 0.0000 0.0000 0.0000
# 4 0.0000 0.0000 0.0000 21.6103 0.0000 0.0000
# 5 0.0000 0.0000 0.0000 0.0000 29.4009 0.0000
# 6 0.0000 0.0000 0.0000 0.0000 0.0000 25.1616
#
#
#
# Elastic Compliance Matrix: (Units=1/GPa)
#
#
# Indices 1 2 3 4 5 6 
#
# 1 0.009239 0.001325 -0.001408 0.000000 0.000000 0.000000
# 2 0.001325 0.021233 -0.001834 0.000000 0.000000 0.000000
# 3 -0.001408 -0.001834 0.007373 0.000000 0.000000 0.000000
# 4 0.000000 0.000000 0.000000 0.046274 0.000000 0.000000
# 5 0.000000 0.000000 0.000000 0.000000 0.034013 0.000000
# 6 0.000000 0.000000 0.000000 0.000000 0.000000 0.039743
#
#
# Mechanical properties :
#
#
# Convention : Reuss Voigt Hill
#
# Bulk Modulus (GPa) = 29.40264 39.37712 34.38988
# Shear Modulus (GPa) = 28.89406 33.68676 31.29041
#
# Velocity S-wave (km/s) = 3.47907 3.75655 3.62047
# Velocity P-wave (km/s) = 5.33438 5.94230 5.64652
#
# Compressibility (1/GPa) = 0.03401055
#
# Stress axis : x y z
#
# Youngs Moduli (GPa) = 108.23535 47.09600 135.63879
#
# Poissons Ratio (x) = -0.06242 0.19104
# Poissons Ratio (y) = -0.14346 0.24879
# Poissons Ratio (z) = 0.15244 0.08638
#
# Static dielectric constant tensor:
#      x y z
#    x 5.072960 0.000000 0.000000 
#    y 0.000000 4.232130 0.000000 
#    z 0.000000 0.000000 4.373000 
# 
# 
# High freq. dielectric constant tensor:
#      x y z
#    x 1.966800 0.000000 0.000000 
#    y 0.000000 1.947320 0.000000 
#    z 0.000000 0.000000 1.934070 
# 
# From -- ./inp_files/8615.got.cif
#   From: 2010.03.12/outbox.cif.g09.slc.cpg/sg33_5_cif.got.tgz:8615.got - 2010.04.14 01:49:19.
