data_PCOD8171075
_publ_section_title
;
Structure prediction by ZEFSAII (Michael W. Deem and Ramdas Pophale) SiO2 
 PCOD8171075
Probable space group: P N A 21
;
_chemical_formula_sum "Si O2"
_cell_formula_units_Z 32
_cell_length_a 32.366785
_cell_length_b 5.309189
_cell_length_c 8.835970
_cell_angle_alpha 90.000000
_cell_angle_beta 90.000000
_cell_angle_gamma 90.000000
_cell_volume 1518.385269
_symmetry_space_group_name_H-M "P N A 21"
_symmetry_group_IT_number 33
_symmetry_cell_setting 'orthorhombic'
loop_
_space_group_symop_operation_xyz
x,y,z
-x,-y,1/2+z
1/2-x,1/2+y,1/2+z
1/2+x,1/2-y,z
loop_
_atom_site_type_symbol
_atom_site_label
_atom_site_fract_x
_atom_site_fract_y
_atom_site_fract_z
Si Si1 0.979697 0.463725 0.757040
Si Si2 0.079196 0.907528 0.148665
Si Si3 0.769258 0.129493 0.327587
Si Si4 0.502765 0.671521 0.527336
Si Si5 0.225134 0.375889 0.645185
Si Si6 0.134563 0.872733 0.866540
Si Si7 0.930379 0.822256 0.945497
Si Si8 0.871026 0.624597 0.186591
O O1 0.936098 0.374563 0.684921
O O2 0.009429 0.576981 0.628960
O O3 0.969071 0.668585 0.882403
O O4 0.001966 0.235810 0.847576
O O5 0.039522 0.041264 0.074513
O O6 0.093430 0.043842 0.304353
O O7 0.117590 0.886459 0.036730
O O8 0.757459 0.376580 0.230164
O O9 0.741147 0.126365 0.475014
O O10 0.816411 0.144542 0.380895
O O11 0.760448 0.877412 0.231013
O O12 0.545408 0.519549 0.553621
O O13 0.175983 0.390852 0.633809
O O14 0.116866 0.627436 0.779072
O O15 0.120605 0.126878 0.784389
O O16 0.898516 0.647545 0.035819
#
# Coordination Sequence:
#
# PCOD8171075 Si02
#       8
#     4   4   4   4   4   4   4   4
#     4  10  22  40  58  82 116 152 206 264 306 372
#     4  10  23  41  58  87 120 160 209 260 313 370
#     4  10  21  41  65  98 131 165 210 255 308 376
#     4  10  22  40  58  84 114 152 210 254 312 362
#     4  10  21  41  65  98 131 165 210 255 308 376
#     4  10  24  42  63  93 128 164 208 256 310 373
#     4  10  23  41  58  87 120 160 209 260 313 370
#     4  10  24  42  63  93 128 164 208 256 310 373
#
# _framework density 21.075018
#
# number of rings (size 3 to 8) (size 9 to 14) (size 15 to 20)
#    0.000    2.000    0.000    1.500    7.000    6.000 
#    4.500    0.000    0.000    0.000    0.000    0.000 
#    0.000    0.000    0.000    0.000    0.000    0.000 
#
# Total GULP energy -396708.380813 kJ/mol
# GULP energy per Si atom -12397.136900 kJ/mol
# Density = 2.102705 g / cm^3
# Si number density = 21.075018 Si / 1000 Ang^3
#
#
#
# Elastic Constant Matrix: (Units=GPa)
#
#
# Indices 1 2 3 4 5 6 
#
# 1 31.9756 10.5426 22.2997 0.0000 0.0000 0.0000
# 2 10.5426 118.4982 25.4248 0.0000 0.0000 0.0000
# 3 22.2997 25.4248 71.2245 0.0000 0.0000 0.0000
# 4 0.0000 0.0000 0.0000 39.3013 0.0000 0.0000
# 5 0.0000 0.0000 0.0000 0.0000 44.6861 0.0000
# 6 0.0000 0.0000 0.0000 0.0000 0.0000 17.6821
#
#
#
# Elastic Compliance Matrix: (Units=1/GPa)
#
#
# Indices 1 2 3 4 5 6 
#
# 1 0.040108 -0.000947 -0.012219 0.000000 0.000000 0.000000
# 2 -0.000947 0.009161 -0.002974 0.000000 0.000000 0.000000
# 3 -0.012219 -0.002974 0.018927 0.000000 0.000000 0.000000
# 4 0.000000 0.000000 0.000000 0.025444 0.000000 0.000000
# 5 0.000000 0.000000 0.000000 0.000000 0.022378 0.000000
# 6 0.000000 0.000000 0.000000 0.000000 0.000000 0.056554
#
#
# Mechanical properties :
#
#
# Convention : Reuss Voigt Hill
#
# Bulk Modulus (GPa) = 27.84220 37.58136 32.71178
# Shear Modulus (GPa) = 23.06000 31.22930 27.14465
#
# Velocity S-wave (km/s) = 3.31144 3.85361 3.59277
# Velocity P-wave (km/s) = 5.27830 6.13770 5.72415
#
# Compressibility (1/GPa) = 0.03591671
#
# Stress axis : x y z
#
# Youngs Moduli (GPa) = 24.93283 109.15554 52.83319
#
# Poissons Ratio (x) = 0.10332 0.64559
# Poissons Ratio (y) = 0.02360 0.15712
# Poissons Ratio (z) = 0.30467 0.32462
#
# Static dielectric constant tensor:
#      x y z
#    x 3.455720 0.000000 0.000000 
#    y 0.000000 4.269680 0.000000 
#    z 0.000000 0.000000 3.918670 
# 
# 
# High freq. dielectric constant tensor:
#      x y z
#    x 1.797720 0.000000 0.000000 
#    y 0.000000 1.848600 0.000000 
#    z 0.000000 0.000000 1.836340 
# 
# From -- ./inp_files/5354.got.cif
#   From: 2010.03.12/outbox.cif.g09.slc.cpg/sg33_3_cif.got.tgz:5354.got - 2010.04.14 01:49:19.
