data_PCOD8171728
_publ_section_title
;
Structure prediction by ZEFSAII (Michael W. Deem and Ramdas Pophale) SiO2 
 PCOD8171728
Probable space group: P N A 21
;
_chemical_formula_sum "Si O2"
_cell_formula_units_Z 28
_cell_length_a 12.570696
_cell_length_b 15.333595
_cell_length_c 6.266051
_cell_angle_alpha 90.000000
_cell_angle_beta 90.000000
_cell_angle_gamma 90.000000
_cell_volume 1207.806152
_symmetry_space_group_name_H-M "P N A 21"
_symmetry_group_IT_number 33
_symmetry_cell_setting 'orthorhombic'
loop_
_space_group_symop_operation_xyz
x,y,z
-x,-y,1/2+z
1/2-x,1/2+y,1/2+z
1/2+x,1/2-y,z
loop_
_atom_site_type_symbol
_atom_site_label
_atom_site_fract_x
_atom_site_fract_y
_atom_site_fract_z
Si Si1 0.234335 0.010275 0.088040
Si Si2 0.089820 0.592950 0.859776
Si Si3 0.638866 0.644506 0.347488
Si Si4 0.009144 0.241469 0.523180
Si Si5 0.372864 0.968128 0.703380
Si Si6 0.448467 0.642562 0.624433
Si Si7 0.357175 0.804726 0.391746
O O1 0.325847 0.076106 0.170923
O O2 0.126511 0.064002 0.050362
O O3 0.207458 0.937642 0.263799
O O4 0.274295 0.963752 0.870043
O O5 0.983617 0.536071 0.827947
O O6 0.063533 0.695767 0.875248
O O7 0.138245 0.561101 0.085278
O O8 0.562443 0.682908 0.172182
O O9 0.569995 0.617706 0.556490
O O10 0.730759 0.715686 0.396455
O O11 0.063956 0.167810 0.373389
O O12 0.094602 0.303395 0.648471
O O13 0.374613 0.893266 0.523065
O O14 0.420768 0.728992 0.500325
#
# Coordination Sequence:
#
# PCOD8171728 Si02
#       7
#     4   4   4   4   4   4   4
#     4  12  29  43  74 110 147 199 243 304 384 449
#     4  12  24  42  72 109 141 188 243 308 372 434
#     4  11  28  47  69 104 143 194 243 302 373 452
#     4  11  27  45  75 103 144 192 247 311 369 451
#     4  12  24  44  72 108 150 183 247 316 373 445
#     4  11  29  47  72 102 152 193 249 305 375 461
#     4  11  25  48  72 104 139 191 250 306 378 440
#
# _framework density 23.182528000000001
#
# number of rings (size 3 to 8) (size 9 to 14) (size 15 to 20)
#    0.000    0.571    4.286    1.714   10.000    1.143 
#    0.000    0.000    0.000    0.000    0.000    0.000 
#    0.000    0.000    0.000    0.000    0.000    0.000 
#
# Total GULP energy -347123.614430 kJ/mol
# GULP energy per Si atom -12397.271944 kJ/mol
# Density = 2.312976 g / cm^3
# Si number density = 23.182528 Si / 1000 Ang^3
#
#
#
# Elastic Constant Matrix: (Units=GPa)
#
#
# Indices 1 2 3 4 5 6 
#
# 1 127.9997 26.9757 46.9588 0.0000 0.0000 0.0000
# 2 26.9757 58.3945 26.1179 0.0000 0.0000 0.0000
# 3 46.9588 26.1179 107.9973 0.0000 0.0000 0.0000
# 4 0.0000 0.0000 0.0000 31.9463 0.0000 0.0000
# 5 0.0000 0.0000 0.0000 0.0000 42.4681 0.0000
# 6 0.0000 0.0000 0.0000 0.0000 0.0000 33.5066
#
#
#
# Elastic Compliance Matrix: (Units=1/GPa)
#
#
# Indices 1 2 3 4 5 6 
#
# 1 0.009718 -0.002915 -0.003521 0.000000 0.000000 0.000000
# 2 -0.002915 0.020076 -0.003588 0.000000 0.000000 0.000000
# 3 -0.003521 -0.003588 0.011658 0.000000 0.000000 0.000000
# 4 0.000000 0.000000 0.000000 0.031303 0.000000 0.000000
# 5 0.000000 0.000000 0.000000 0.000000 0.023547 0.000000
# 6 0.000000 0.000000 0.000000 0.000000 0.000000 0.029845
#
#
# Mechanical properties :
#
#
# Convention : Reuss Voigt Hill
#
# Bulk Modulus (GPa) = 46.71617 54.94404 50.83010
# Shear Modulus (GPa) = 32.60960 34.54016 33.57488
#
# Velocity S-wave (km/s) = 3.75460 3.86414 3.80976
# Velocity P-wave (km/s) = 6.24429 6.60763 6.42853
#
# Compressibility (1/GPa) = 0.02140587
#
# Stress axis : x y z
#
# Youngs Moduli (GPa) = 102.89682 49.81051 85.77756
#
# Poissons Ratio (x) = 0.14519 0.30201
# Poissons Ratio (y) = 0.29992 0.30775
# Poissons Ratio (z) = 0.36228 0.17871
#
# Static dielectric constant tensor:
#      x y z
#    x 4.655940 0.000000 0.000000 
#    y 0.000000 4.306530 0.000000 
#    z 0.000000 0.000000 4.845430 
# 
# 
# High freq. dielectric constant tensor:
#      x y z
#    x 1.923850 0.000000 0.000000 
#    y 0.000000 1.905980 0.000000 
#    z 0.000000 0.000000 1.924210 
# 
# From -- ./inp_files/924.got.cif
#   From: 2010.03.12/outbox.cif.g09.slc.cpg/sg33_1_cif.got.tgz:924.got - 2010.04.14 01:49:19.
