data_PCOD8171190
_publ_section_title
;
Structure prediction by ZEFSAII (Michael W. Deem and Ramdas Pophale) SiO2 
 PCOD8171190
Probable space group: P N A 21
;
_chemical_formula_sum "Si O2"
_cell_formula_units_Z 32
_cell_length_a 9.445798
_cell_length_b 11.041505
_cell_length_c 13.980323
_cell_angle_alpha 90.000000
_cell_angle_beta 90.000000
_cell_angle_gamma 90.000000
_cell_volume 1458.089333
_symmetry_space_group_name_H-M "P N A 21"
_symmetry_group_IT_number 33
_symmetry_cell_setting 'orthorhombic'
loop_
_space_group_symop_operation_xyz
x,y,z
-x,-y,1/2+z
1/2-x,1/2+y,1/2+z
1/2+x,1/2-y,z
loop_
_atom_site_type_symbol
_atom_site_label
_atom_site_fract_x
_atom_site_fract_y
_atom_site_fract_z
Si Si1 0.178628 0.279374 0.444560
Si Si2 0.840032 0.139773 0.754784
Si Si3 0.511048 0.007126 0.955176
Si Si4 0.788221 0.401707 0.313358
Si Si5 0.571082 0.850124 0.631476
Si Si6 0.419366 0.756100 0.362256
Si Si7 0.115056 0.141039 0.056200
Si Si8 0.054840 0.862225 0.048328
O O1 0.190601 0.213874 0.340538
O O2 0.339753 0.301659 0.473526
O O3 0.111437 0.411642 0.434425
O O4 0.097031 0.195625 0.522250
O O5 0.699299 0.213184 0.783748
O O6 0.890417 0.182106 0.651115
O O7 0.970236 0.158699 0.825154
O O8 0.810081 0.996858 0.757565
O O9 0.660502 0.953078 0.917658
O O10 0.486776 0.126886 0.891516
O O11 0.508635 0.045406 0.068365
O O12 0.927002 0.374545 0.246359
O O13 0.738461 0.853269 0.611734
O O14 0.503316 0.719722 0.611371
O O15 0.345182 0.698683 0.454334
O O16 0.050564 0.007434 0.043574
#
# Coordination Sequence:
#
# PCOD8171190 Si02
#       8
#     4   4   4   4   4   4   4   4
#     4  12  24  43  66  97 139 180 220 280 351 403
#     4  11  22  42  66  97 130 176 231 285 336 412
#     4  10  22  43  65  96 132 179 218 284 344 399
#     4  11  24  43  70 100 138 181 229 281 347 419
#     4  11  24  44  71  97 140 177 231 285 340 406
#     4  10  22  40  69  93 129 174 230 278 342 408
#     4  11  23  44  68 100 133 180 224 288 341 405
#     4  12  25  43  67  96 143 177 227 285 347 402
#
# _framework density 21.946528000000001
#
# number of rings (size 3 to 8) (size 9 to 14) (size 15 to 20)
#    0.000    1.000    3.750    3.000    1.750    3.000 
#    2.250    1.250    0.000    0.000    0.000    0.000 
#    0.000    0.000    0.000    0.000    0.000    0.000 
#
# Total GULP energy -396674.415180 kJ/mol
# GULP energy per Si atom -12396.075474 kJ/mol
# Density = 2.189658 g / cm^3
# Si number density = 21.946528 Si / 1000 Ang^3
#
#
#
# Elastic Constant Matrix: (Units=GPa)
#
#
# Indices 1 2 3 4 5 6 
#
# 1 68.5387 34.8406 30.3885 0.0000 0.0000 0.0000
# 2 34.8406 100.5005 35.8515 0.0000 0.0000 0.0000
# 3 30.3885 35.8515 107.4058 0.0000 0.0000 0.0000
# 4 0.0000 0.0000 0.0000 25.2646 0.0000 0.0000
# 5 0.0000 0.0000 0.0000 0.0000 42.8351 0.0000
# 6 0.0000 0.0000 0.0000 0.0000 0.0000 41.1411
#
#
#
# Elastic Compliance Matrix: (Units=1/GPa)
#
#
# Indices 1 2 3 4 5 6 
#
# 1 0.018850 -0.005258 -0.003578 0.000000 0.000000 0.000000
# 2 -0.005258 0.012762 -0.002772 0.000000 0.000000 0.000000
# 3 -0.003578 -0.002772 0.011248 0.000000 0.000000 0.000000
# 4 0.000000 0.000000 0.000000 0.039581 0.000000 0.000000
# 5 0.000000 0.000000 0.000000 0.000000 0.023345 0.000000
# 6 0.000000 0.000000 0.000000 0.000000 0.000000 0.024307
#
#
# Mechanical properties :
#
#
# Convention : Reuss Voigt Hill
#
# Bulk Modulus (GPa) = 50.90874 53.17846 52.04360
# Shear Modulus (GPa) = 31.27789 33.53911 32.40850
#
# Velocity S-wave (km/s) = 3.77926 3.91349 3.84696
# Velocity P-wave (km/s) = 6.50314 6.68611 6.59526
#
# Compressibility (1/GPa) = 0.01964299
#
# Stress axis : x y z
#
# Youngs Moduli (GPa) = 53.05136 78.35766 88.90355
#
# Poissons Ratio (x) = 0.41202 0.31810
# Poissons Ratio (y) = 0.27896 0.24646
# Poissons Ratio (z) = 0.18982 0.21722
#
# Static dielectric constant tensor:
#      x y z
#    x 3.755640 0.000000 0.000000 
#    y 0.000000 4.118200 0.000000 
#    z 0.000000 0.000000 4.136940 
# 
# 
# High freq. dielectric constant tensor:
#      x y z
#    x 1.852750 0.000000 0.000000 
#    y 0.000000 1.873580 0.000000 
#    z 0.000000 0.000000 1.865780 
# 
# From -- ./inp_files/7628.got.cif
#   From: 2010.03.12/outbox.cif.g09.slc.cpg/sg33_4_cif.got.tgz:7628.got - 2010.04.14 01:49:19.
