data_PCOD8171785
_publ_section_title
;
Structure prediction by ZEFSAII (Michael W. Deem and Ramdas Pophale) SiO2 
 PCOD8171785
Probable space group: P N A 21
;
_chemical_formula_sum "Si O2"
_cell_formula_units_Z 28
_cell_length_a 11.753822
_cell_length_b 6.759786
_cell_length_c 15.551399
_cell_angle_alpha 90.000000
_cell_angle_beta 90.000000
_cell_angle_gamma 90.000000
_cell_volume 1235.610303
_symmetry_space_group_name_H-M "P N A 21"
_symmetry_group_IT_number 33
_symmetry_cell_setting 'orthorhombic'
loop_
_space_group_symop_operation_xyz
x,y,z
-x,-y,1/2+z
1/2-x,1/2+y,1/2+z
1/2+x,1/2-y,z
loop_
_atom_site_type_symbol
_atom_site_label
_atom_site_fract_x
_atom_site_fract_y
_atom_site_fract_z
Si Si1 0.356544 0.642708 0.560070
Si Si2 0.267639 0.889181 0.715574
Si Si3 0.546496 0.062569 0.934857
Si Si4 0.232362 0.110819 0.377470
Si Si5 0.953503 0.937431 0.158187
Si Si6 0.643456 0.142708 0.532975
Si Si7 0.388648 0.250000 0.796522
O O1 0.335674 0.802782 0.634764
O O2 0.380322 0.752950 0.470393
O O3 0.469145 0.518626 0.581184
O O4 0.250000 0.500000 0.546522
O O5 0.286441 0.750001 0.796522
O O6 0.134563 0.897051 0.691248
O O7 0.311040 0.109251 0.737564
O O8 0.467519 0.116757 0.855651
O O9 0.634562 0.897051 0.901796
O O10 0.469145 0.981374 0.011861
O O11 0.164326 0.197218 0.458281
O O12 0.188960 0.890750 0.355480
O O13 0.880323 0.752949 0.122651
O O14 0.032481 0.883245 0.237394
#
# Coordination Sequence:
#
# PCOD8171785 Si02
#       7
#     4   4   4   4   4   4   4
#     4  12  26  49  74 111 150 195 252 309 374 457
#     4  12  27  47  73 110 149 191 249 309 370 447
#     4  12  26  44  78 103 150 194 247 298 382 433
#     4  12  27  47  73 110 149 191 249 309 370 447
#     4  12  26  44  78 103 150 194 247 298 382 433
#     4  12  26  49  74 111 150 195 252 309 374 457
#     4  12  26  48  72 112 146 198 246 310 362 452
#
# _framework density 22.660865000000001
#
# number of rings (size 3 to 8) (size 9 to 14) (size 15 to 20)
#    0.000    0.000    2.857    6.857    8.000    0.000 
#    0.000    0.000    0.000    0.000    0.000    0.000 
#    0.000    0.000    0.000    0.000    0.000    0.000 
#
# Total GULP energy -347456.561862 kJ/mol
# GULP energy per Si atom -12409.162924 kJ/mol
# Density = 2.260929 g / cm^3
# Si number density = 22.660865 Si / 1000 Ang^3
#
#
#
# Elastic Constant Matrix: (Units=GPa)
#
#
# Indices 1 2 3 4 5 6 
#
# 1 124.9449 35.3825 24.4997 0.0000 0.0000 0.0000
# 2 35.3825 85.6423 16.6109 0.0000 0.0000 0.0000
# 3 24.4997 16.6109 79.3440 0.0000 0.0000 0.0000
# 4 0.0000 0.0000 0.0000 50.2206 0.0000 0.0000
# 5 0.0000 0.0000 0.0000 0.0000 48.6830 0.0000
# 6 0.0000 0.0000 0.0000 0.0000 0.0000 54.6140
#
#
#
# Elastic Compliance Matrix: (Units=1/GPa)
#
#
# Indices 1 2 3 4 5 6 
#
# 1 0.009413 -0.003466 -0.002181 0.000000 0.000000 0.000000
# 2 -0.003466 0.013447 -0.001745 0.000000 0.000000 0.000000
# 3 -0.002181 -0.001745 0.013642 0.000000 0.000000 0.000000
# 4 0.000000 0.000000 0.000000 0.019912 0.000000 0.000000
# 5 0.000000 0.000000 0.000000 0.000000 0.020541 0.000000
# 6 0.000000 0.000000 0.000000 0.000000 0.000000 0.018310
#
#
# Mechanical properties :
#
#
# Convention : Reuss Voigt Hill
#
# Bulk Modulus (GPa) = 46.04415 49.21306 47.62861
# Shear Modulus (GPa) = 42.63029 44.93273 43.78151
#
# Velocity S-wave (km/s) = 4.34202 4.45773 4.40026
# Velocity P-wave (km/s) = 6.74540 6.94691 6.84690
#
# Compressibility (1/GPa) = 0.02171828
#
# Stress axis : x y z
#
# Youngs Moduli (GPa) = 106.24058 74.36732 73.30274
#
# Poissons Ratio (x) = 0.25774 0.15986
# Poissons Ratio (y) = 0.36820 0.12791
# Poissons Ratio (z) = 0.23169 0.12977
#
# Static dielectric constant tensor:
#      x y z
#    x 4.177680 0.000000 0.000000 
#    y 0.000000 4.646330 0.000000 
#    z 0.000000 0.000000 4.239680 
# 
# 
# High freq. dielectric constant tensor:
#      x y z
#    x 1.912980 0.000000 0.000000 
#    y 0.000000 1.897910 0.000000 
#    z 0.000000 0.000000 1.905110 
# 
# From -- ./inp_files/8628.got.cif
#   From: 2010.03.12/outbox.cif.g09.slc.cpg/sg33_5_cif.got.tgz:8628.got - 2010.04.14 01:49:19.
