data_PCOD8171503
_publ_section_title
;
Structure prediction by ZEFSAII (Michael W. Deem and Ramdas Pophale) SiO2 
 PCOD8171503
Probable space group: P N A 21
;
_chemical_formula_sum "Si O2"
_cell_formula_units_Z 32
_cell_length_a 15.790132
_cell_length_b 18.222946
_cell_length_c 5.302805
_cell_angle_alpha 90.000000
_cell_angle_beta 90.000000
_cell_angle_gamma 90.000000
_cell_volume 1525.843549
_symmetry_space_group_name_H-M "P N A 21"
_symmetry_group_IT_number 33
_symmetry_cell_setting 'orthorhombic'
loop_
_space_group_symop_operation_xyz
x,y,z
-x,-y,1/2+z
1/2-x,1/2+y,1/2+z
1/2+x,1/2-y,z
loop_
_atom_site_type_symbol
_atom_site_label
_atom_site_fract_x
_atom_site_fract_y
_atom_site_fract_z
Si Si1 0.287433 0.023236 0.909460
Si Si2 0.602730 0.052159 0.807261
Si Si3 0.865279 0.218205 0.957121
Si Si4 0.772875 0.619830 0.664264
Si Si5 0.280491 0.675838 0.428359
Si Si6 0.937274 0.413396 0.578129
Si Si7 0.849102 0.753056 0.919273
Si Si8 0.547144 0.754887 0.956456
O O1 0.220054 0.087525 0.960699
O O2 0.368070 0.060365 0.777910
O O3 0.239898 0.960462 0.747568
O O4 0.317515 0.977226 0.150181
O O5 0.531551 0.102602 0.681285
O O6 0.637907 0.105279 0.024154
O O7 0.552107 0.978407 0.879509
O O8 0.796864 0.152742 0.975459
O O9 0.925587 0.213776 0.201511
O O10 0.815332 0.295225 0.960358
O O11 0.919206 0.209946 0.700724
O O12 0.796445 0.676172 0.893472
O O13 0.339496 0.705006 0.653133
O O14 0.312956 0.700422 0.153051
O O15 0.910216 0.336099 0.454516
O O16 0.946826 0.739405 0.969446
#
# Coordination Sequence:
#
# PCOD8171503 Si02
#       8
#     4   4   4   4   4   4   4   4
#     4  11  23  40  65  92 132 177 214 267 329 393
#     4  11  23  38  59  97 139 172 211 253 338 404
#     4  11  24  42  66  97 128 173 221 273 316 396
#     4  10  26  39  66  95 133 172 221 273 330 395
#     4  11  24  44  66  97 135 169 229 265 330 392
#     4  11  23  35  58  97 134 174 203 254 319 414
#     4  11  26  43  67  99 134 175 217 280 327 394
#     4  12  25  41  69  92 135 170 222 265 333 380
#
# _framework density 20.972003000000001
#
# number of rings (size 3 to 8) (size 9 to 14) (size 15 to 20)
#    0.000    1.000    2.500    3.750   15.750    0.000 
#    0.000    0.000    0.000    3.000    0.000    0.000 
#    0.000    0.000    0.000    0.000    0.000    0.000 
#
# Total GULP energy -396652.621517 kJ/mol
# GULP energy per Si atom -12395.394422 kJ/mol
# Density = 2.092427 g / cm^3
# Si number density = 20.972003 Si / 1000 Ang^3
#
#
#
# Elastic Constant Matrix: (Units=GPa)
#
#
# Indices 1 2 3 4 5 6 
#
# 1 63.7656 32.3051 23.2258 0.0000 0.0000 0.0000
# 2 32.3051 125.2949 29.1889 0.0000 0.0000 0.0000
# 3 23.2258 29.1889 105.9162 0.0000 0.0000 0.0000
# 4 0.0000 0.0000 0.0000 15.7858 0.0000 0.0000
# 5 0.0000 0.0000 0.0000 0.0000 33.6246 0.0000
# 6 0.0000 0.0000 0.0000 0.0000 0.0000 25.7627
#
#
#
# Elastic Compliance Matrix: (Units=1/GPa)
#
#
# Indices 1 2 3 4 5 6 
#
# 1 0.018886 -0.004172 -0.002992 0.000000 0.000000 0.000000
# 2 -0.004172 0.009451 -0.001689 0.000000 0.000000 0.000000
# 3 -0.002992 -0.001689 0.010563 0.000000 0.000000 0.000000
# 4 0.000000 0.000000 0.000000 0.063348 0.000000 0.000000
# 5 0.000000 0.000000 0.000000 0.000000 0.029740 0.000000
# 6 0.000000 0.000000 0.000000 0.000000 0.000000 0.038816
#
#
# Mechanical properties :
#
#
# Convention : Reuss Voigt Hill
#
# Bulk Modulus (GPa) = 47.18641 51.60180 49.39411
# Shear Modulus (GPa) = 25.56569 29.05175 27.30872
#
# Velocity S-wave (km/s) = 3.49526 3.72595 3.61245
# Velocity P-wave (km/s) = 6.23199 6.57030 6.40338
#
# Compressibility (1/GPa) = 0.02119254
#
# Stress axis : x y z
#
# Youngs Moduli (GPa) = 52.94948 105.81394 94.66998
#
# Poissons Ratio (x) = 0.44151 0.28321
# Poissons Ratio (y) = 0.22093 0.15994
# Poissons Ratio (z) = 0.15840 0.17877
#
# Static dielectric constant tensor:
#      x y z
#    x 3.555420 0.000000 0.000000 
#    y 0.000000 3.913730 0.000000 
#    z 0.000000 0.000000 3.975430 
# 
# 
# High freq. dielectric constant tensor:
#      x y z
#    x 1.797520 0.000000 0.000000 
#    y 0.000000 1.817070 0.000000 
#    z 0.000000 0.000000 1.832170 
# 
# From -- ./inp_files/1477.got.cif
#   From: 2010.03.12/outbox.cif.g09.slc.cpg/sg33_1_cif.got.tgz:1477.got - 2010.04.14 01:49:19.
