data_PCOD8171630
_publ_section_title
;
Structure prediction by ZEFSAII (Michael W. Deem and Ramdas Pophale) SiO2 
 PCOD8171630
Probable space group: P N A 21
;
_chemical_formula_sum "Si O2"
_cell_formula_units_Z 20
_cell_length_a 13.246587
_cell_length_b 6.125604
_cell_length_c 9.023585
_cell_angle_alpha 90.000000
_cell_angle_beta 90.000000
_cell_angle_gamma 90.000000
_cell_volume 732.203883
_symmetry_space_group_name_H-M "P N A 21"
_symmetry_group_IT_number 33
_symmetry_cell_setting 'orthorhombic'
loop_
_space_group_symop_operation_xyz
x,y,z
-x,-y,1/2+z
1/2-x,1/2+y,1/2+z
1/2+x,1/2-y,z
loop_
_atom_site_type_symbol
_atom_site_label
_atom_site_fract_x
_atom_site_fract_y
_atom_site_fract_z
Si Si1 0.523965 0.611654 0.252920
Si Si2 0.830759 0.845529 0.946350
Si Si3 0.108661 0.142364 0.996726
Si Si4 0.209035 0.793214 0.666906
Si Si5 0.528326 0.996632 0.592128
O O1 0.615633 0.545143 0.359068
O O2 0.412133 0.555106 0.328244
O O3 0.531241 0.495649 0.096582
O O4 0.526548 0.871945 0.225599
O O5 0.750258 0.726368 0.836453
O O6 0.784088 0.961534 0.094047
O O7 0.910092 0.662021 0.989566
O O8 0.221830 0.138154 0.057248
O O9 0.062178 0.386912 0.999632
O O10 0.098655 0.689224 0.663992
#
# Coordination Sequence:
#
# PCOD8171630 Si02
#       5
#     4   4   4   4   4
#     4  11  23  46  72 109 146 196 252 310 376 472
#     4  11  26  49  73 113 159 199 263 320 396 478
#     4  11  26  44  77 104 149 200 248 311 382 454
#     4  11  26  47  74 115 150 202 263 324 388 467
#     4  12  25  46  78 105 154 201 254 317 390 461
#
# _framework density 27.314793999999999
#
# number of rings (size 3 to 8) (size 9 to 14) (size 15 to 20)
#    0.000    0.800    4.000    1.200    5.600    8.000 
#    3.600    0.000    0.000    0.000    0.000    0.000 
#    0.000    0.000    0.000    0.000    0.000    0.000 
#
# Total GULP energy -247811.510165 kJ/mol
# GULP energy per Si atom -12390.575508 kJ/mol
# Density = 2.725262 g / cm^3
# Si number density = 27.314794 Si / 1000 Ang^3
#
#
#
# Elastic Constant Matrix: (Units=GPa)
#
#
# Indices 1 2 3 4 5 6 
#
# 1 46.5775 1.0375 -19.7307 0.0000 0.0000 0.0000
# 2 1.0375 82.4988 21.7153 0.0000 0.0000 0.0000
# 3 -19.7307 21.7153 99.5459 0.0000 0.0000 0.0000
# 4 0.0000 0.0000 0.0000 30.9671 0.0000 0.0000
# 5 0.0000 0.0000 0.0000 0.0000 24.9279 0.0000
# 6 0.0000 0.0000 0.0000 0.0000 0.0000 29.3216
#
#
#
# Elastic Compliance Matrix: (Units=1/GPa)
#
#
# Indices 1 2 3 4 5 6 
#
# 1 0.023641 -0.001624 0.005040 0.000000 0.000000 0.000000
# 2 -0.001624 0.012971 -0.003151 0.000000 0.000000 0.000000
# 3 0.005040 -0.003151 0.011732 0.000000 0.000000 0.000000
# 4 0.000000 0.000000 0.000000 0.032292 0.000000 0.000000
# 5 0.000000 0.000000 0.000000 0.000000 0.040116 0.000000
# 6 0.000000 0.000000 0.000000 0.000000 0.000000 0.034105
#
#
# Mechanical properties :
#
#
# Convention : Reuss Voigt Hill
#
# Bulk Modulus (GPa) = 20.46104 26.07405 23.26754
# Shear Modulus (GPa) = 29.30511 32.08332 30.69422
#
# Velocity S-wave (km/s) = 3.27902 3.43093 3.35583
# Velocity P-wave (km/s) = 4.67365 5.02608 4.85307
#
# Compressibility (1/GPa) = 0.04887337
#
# Stress axis : x y z
#
# Youngs Moduli (GPa) = 42.29983 77.09304 85.23650
#
# Poissons Ratio (x) = 0.12519 -0.42959
# Poissons Ratio (y) = 0.06869 0.26862
# Poissons Ratio (z) = -0.21319 0.24296
#
# Static dielectric constant tensor:
#      x y z
#    x 4.809600 0.000000 0.000000 
#    y 0.000000 5.094600 0.000000 
#    z 0.000000 0.000000 5.172650 
# 
# 
# High freq. dielectric constant tensor:
#      x y z
#    x 2.091400 0.000000 0.000000 
#    y 0.000000 2.105130 0.000000 
#    z 0.000000 0.000000 2.115300 
# 
# From -- ./inp_files/6610.got.cif
#   From: 2010.03.12/outbox.cif.g09.slc.cpg/sg33_4_cif.got.tgz:6610.got - 2010.04.14 01:49:19.
