data_PCOD8171976
_publ_section_title
;
Structure prediction by ZEFSAII (Michael W. Deem and Ramdas Pophale) SiO2 
 PCOD8171976
Probable space group: P N N 2
;
_chemical_formula_sum "Si O2"
_cell_formula_units_Z 30
_cell_length_a 8.325716
_cell_length_b 13.398244
_cell_length_c 12.337831
_cell_angle_alpha 90.000000
_cell_angle_beta 90.000000
_cell_angle_gamma 90.000000
_cell_volume 1376.284733
_symmetry_space_group_name_H-M "P N N 2"
_symmetry_group_IT_number 34
_symmetry_cell_setting 'orthorhombic'
loop_
_space_group_symop_operation_xyz
x,y,z
-x,-y,z
1/2-x,1/2+y,1/2+z
1/2+x,1/2-y,1/2+z
loop_
_atom_site_type_symbol
_atom_site_label
_atom_site_fract_x
_atom_site_fract_y
_atom_site_fract_z
Si Si1 0.320828 0.459380 0.210850
Si Si2 0.000000 0.500000 0.777808
Si Si3 0.174622 0.950885 0.947085
Si Si4 0.803040 0.394023 0.599863
Si Si5 0.500633 0.288328 0.548814
Si Si6 0.247708 0.669114 0.155684
Si Si7 0.690191 0.187606 0.359653
Si Si8 0.570139 0.689134 0.039639
O O1 0.500000 0.500000 0.213686
O O2 0.268415 0.416086 0.327854
O O3 0.211651 0.557051 0.194245
O O4 0.309440 0.372765 0.120081
O O5 0.135861 0.554353 0.708107
O O6 0.095488 0.416921 0.847240
O O7 0.157740 0.853533 0.021927
O O8 0.000000 0.000000 0.938450
O O9 0.301024 0.025801 0.002033
O O10 0.624364 0.350875 0.623414
O O11 0.921712 0.306230 0.565103
O O12 0.428342 0.194657 0.611158
O O13 0.591456 0.258539 0.439591
O O14 0.296200 0.749128 0.248768
O O15 0.384550 0.661284 0.061041
O O16 0.865215 0.167653 0.416877
#
# Coordination Sequence:
#
# PCOD8171976 Si02
#       8
#     4   2   4   4   4   4   4   4
#     4   9  18  34  62  90 123 171 214 265 330 402
#     4  12  24  40  72  90 138 178 230 282 368 408
#     4   9  17  34  63  89 119 162 216 268 329 392
#     4  10  21  40  64  95 127 174 221 282 334 416
#     4  10  22  40  67  94 130 169 225 277 338 412
#     4  11  21  42  65  93 128 177 222 278 341 411
#     4  11  24  42  65  95 133 178 219 287 351 411
#     4  10  21  40  63  91 134 169 224 281 342 412
#
# _framework density 21.797813999999999
#
# number of rings (size 3 to 8) (size 9 to 14) (size 15 to 20)
#    0.000    1.867    1.333    4.800    1.867    0.000 
#    2.400    0.000    5.867    0.000    0.000    0.000 
#    0.000    0.000    0.000    0.000    0.000    0.000 
#
# Total GULP energy -371788.219769 kJ/mol
# GULP energy per Si atom -12392.940659 kJ/mol
# Density = 2.174820 g / cm^3
# Si number density = 21.797814 Si / 1000 Ang^3
#
#
#
# Elastic Constant Matrix: (Units=GPa)
#
#
# Indices 1 2 3 4 5 6 
#
# 1 69.8347 12.6994 36.2008 0.0000 0.0000 0.0000
# 2 12.6994 67.6539 13.4424 0.0000 0.0000 0.0000
# 3 36.2008 13.4424 78.6328 0.0000 0.0000 0.0000
# 4 0.0000 0.0000 0.0000 30.9815 0.0000 0.0000
# 5 0.0000 0.0000 0.0000 0.0000 29.3543 0.0000
# 6 0.0000 0.0000 0.0000 0.0000 0.0000 35.3006
#
#
#
# Elastic Compliance Matrix: (Units=1/GPa)
#
#
# Indices 1 2 3 4 5 6 
#
# 1 0.019040 -0.001897 -0.008442 0.000000 0.000000 0.000000
# 2 -0.001897 0.015490 -0.001775 0.000000 0.000000 0.000000
# 3 -0.008442 -0.001775 0.016907 0.000000 0.000000 0.000000
# 4 0.000000 0.000000 0.000000 0.032277 0.000000 0.000000
# 5 0.000000 0.000000 0.000000 0.000000 0.034067 0.000000
# 6 0.000000 0.000000 0.000000 0.000000 0.000000 0.028328
#
#
# Mechanical properties :
#
#
# Convention : Reuss Voigt Hill
#
# Bulk Modulus (GPa) = 36.74980 37.86741 37.30860
# Shear Modulus (GPa) = 27.86979 29.37919 28.62449
#
# Velocity S-wave (km/s) = 3.57957 3.67523 3.62772
# Velocity P-wave (km/s) = 5.82928 5.95143 5.89067
#
# Compressibility (1/GPa) = 0.02721103
#
# Stress axis : x y z
#
# Youngs Moduli (GPa) = 52.51996 64.55860 59.14702
#
# Poissons Ratio (x) = 0.12246 0.49929
# Poissons Ratio (y) = 0.09962 0.10497
# Poissons Ratio (z) = 0.44335 0.11458
#
# Static dielectric constant tensor:
#      x y z
#    x 3.705950 0.000000 0.000000 
#    y 0.000000 4.327350 0.000000 
#    z 0.000000 0.000000 3.970830 
# 
# 
# High freq. dielectric constant tensor:
#      x y z
#    x 1.836020 0.000000 0.000000 
#    y 0.000000 1.872060 0.000000 
#    z 0.000000 0.000000 1.842380 
# 
# From -- ./inp_files/5074.got.cif
#   From: 2010.03.12/outbox.cif.g09.slc.cpg/sg34_3_cif.got.tgz:5074.got - 2010.04.14 01:56:33.
