data_PCOD8171293
_publ_section_title
;
Structure prediction by ZEFSAII (Michael W. Deem and Ramdas Pophale) SiO2 
 PCOD8171293
Probable space group: P N A 21
;
_chemical_formula_sum "Si O2"
_cell_formula_units_Z 20
_cell_length_a 11.405535
_cell_length_b 12.239757
_cell_length_c 5.718311
_cell_angle_alpha 90.000000
_cell_angle_beta 90.000000
_cell_angle_gamma 90.000000
_cell_volume 798.281802
_symmetry_space_group_name_H-M "P N A 21"
_symmetry_group_IT_number 33
_symmetry_cell_setting 'orthorhombic'
loop_
_space_group_symop_operation_xyz
x,y,z
-x,-y,1/2+z
1/2-x,1/2+y,1/2+z
1/2+x,1/2-y,z
loop_
_atom_site_type_symbol
_atom_site_label
_atom_site_fract_x
_atom_site_fract_y
_atom_site_fract_z
Si Si1 0.758557 0.878523 0.630320
Si Si2 0.636965 0.016655 0.261294
Si Si3 0.360923 0.469603 0.001767
Si Si4 0.452081 0.656203 0.286173
Si Si5 0.949508 0.330074 0.440998
O O1 0.837765 0.807512 0.443260
O O2 0.685122 0.976730 0.510455
O O3 0.849359 0.941822 0.794866
O O4 0.667896 0.803305 0.785701
O O5 0.542228 0.112134 0.272472
O O6 0.582435 0.908143 0.152870
O O7 0.734208 0.068249 0.091672
O O8 0.429678 0.357580 0.939570
O O9 0.426156 0.531935 0.211190
O O10 0.482608 0.728892 0.060190
#
# Coordination Sequence:
#
# PCOD8171293 Si02
#       5
#     4   4   4   4   4
#     4  10  22  46  68 102 144 186 244 298 366 438
#     4  10  22  45  70 103 142 182 237 305 365 428
#     4  10  22  45  70 103 142 182 237 305 365 428
#     4  11  23  45  73 106 142 190 244 300 370 437
#     4  11  23  45  73 106 142 190 244 300 370 437
#
# _framework density 25.053808
#
# number of rings (size 3 to 8) (size 9 to 14) (size 15 to 20)
#    0.000    1.600    4.000    0.000    0.000    1.600 
#   14.400    0.000    0.000    0.000    0.000    0.000 
#    0.000    0.000    0.000    0.000    0.000    0.000 
#
# Total GULP energy -247859.430036 kJ/mol
# GULP energy per Si atom -12392.971502 kJ/mol
# Density = 2.499678 g / cm^3
# Si number density = 25.053808 Si / 1000 Ang^3
#
#
#
# Elastic Constant Matrix: (Units=GPa)
#
#
# Indices 1 2 3 4 5 6 
#
# 1 144.2835 35.8240 49.8745 0.0000 0.0000 0.0000
# 2 35.8240 41.0094 18.7968 0.0000 0.0000 0.0000
# 3 49.8745 18.7968 99.3717 0.0000 0.0000 0.0000
# 4 0.0000 0.0000 0.0000 39.4250 0.0000 0.0000
# 5 0.0000 0.0000 0.0000 0.0000 55.6063 0.0000
# 6 0.0000 0.0000 0.0000 0.0000 0.0000 -18.8200
#
#
#
# Elastic Compliance Matrix: (Units=1/GPa)
#
#
# Indices 1 2 3 4 5 6 
#
# 1 0.009935 -0.007000 -0.003662 0.000000 0.000000 0.000000
# 2 -0.007000 0.031632 -0.002470 0.000000 0.000000 0.000000
# 3 -0.003662 -0.002470 0.012368 0.000000 0.000000 0.000000
# 4 0.000000 0.000000 0.000000 0.025365 0.000000 0.000000
# 5 0.000000 0.000000 0.000000 0.000000 0.017984 0.000000
# 6 0.000000 0.000000 0.000000 0.000000 0.000000 -0.053135
#
#
# Mechanical properties :
#
#
# Convention : Reuss Voigt Hill
#
# Bulk Modulus (GPa) = 36.13948 54.85056 45.49502
# Shear Modulus (GPa) = 62.78575 27.25355 45.01965
#
# Velocity S-wave (km/s) = 5.01146 3.30176 4.24361
# Velocity P-wave (km/s) = 6.92405 6.03955 6.49687
#
# Compressibility (1/GPa) = 0.02767057
#
# Stress axis : x y z
#
# Youngs Moduli (GPa) = 100.65721 31.61384 80.85072
#
# Poissons Ratio (x) = 0.22130 0.29609
# Poissons Ratio (y) = 0.70460 0.19971
# Poissons Ratio (z) = 0.36862 0.07809
#
# Static dielectric constant tensor:
#      x y z
#    x 4.910860 0.000000 0.000000 
#    y 0.000000 3.788600 0.000000 
#    z 0.000000 0.000000 4.634070 
# 
# 
# High freq. dielectric constant tensor:
#      x y z
#    x 2.022820 0.000000 0.000000 
#    y 0.000000 1.950760 0.000000 
#    z 0.000000 0.000000 2.011540 
# 
# From -- ./inp_files/718.got.cif
#   From: 2010.03.12/outbox.cif.g09.slc.cpg/sg33_1_cif.got.tgz:718.got - 2010.04.14 01:49:19.
