data_PCOD8171996
_publ_section_title
;
Structure prediction by ZEFSAII (Michael W. Deem and Ramdas Pophale) SiO2 
 PCOD8171996
Probable space group: P N N 2
;
_chemical_formula_sum "Si O2"
_cell_formula_units_Z 24
_cell_length_a 11.098350
_cell_length_b 8.954050
_cell_length_c 10.861019
_cell_angle_alpha 90.000000
_cell_angle_beta 90.000000
_cell_angle_gamma 90.000000
_cell_volume 1079.315727
_symmetry_space_group_name_H-M "P N N 2"
_symmetry_group_IT_number 34
_symmetry_cell_setting 'orthorhombic'
loop_
_space_group_symop_operation_xyz
x,y,z
-x,-y,z
1/2-x,1/2+y,1/2+z
1/2+x,1/2-y,1/2+z
loop_
_atom_site_type_symbol
_atom_site_label
_atom_site_fract_x
_atom_site_fract_y
_atom_site_fract_z
Si Si1 0.239933 0.944852 0.553000
Si Si2 0.909841 0.815041 0.028253
Si Si3 0.148767 0.893751 0.146228
Si Si4 0.080050 0.750870 0.397694
Si Si5 0.303184 0.753590 0.965397
Si Si6 0.728167 0.474960 0.327532
O O1 0.366204 0.854999 0.551896
O O2 0.136697 0.826211 0.518903
O O3 0.240364 0.081681 0.455632
O O4 0.209677 0.022884 0.682129
O O5 0.875764 0.872854 0.890694
O O6 0.052174 0.820359 0.050347
O O7 0.847025 0.927230 0.127749
O O8 0.109406 0.861325 0.284506
O O9 0.275923 0.819624 0.104099
O O10 0.141574 0.592688 0.366566
O O11 0.941088 0.729703 0.425884
O O12 0.224402 0.854010 0.872475
#
# Coordination Sequence:
#
# PCOD8171996 Si02
#       6
#     4   4   4   4   4   4
#     4  11  23  40  65 103 131 172 229 282 338 407
#     4   9  22  39  64  92 129 178 224 271 349 399
#     4  10  21  43  67  93 134 181 225 282 339 419
#     4  11  23  41  66  99 133 172 227 286 341 412
#     4  11  23  40  66 100 127 179 226 275 345 403
#     4  10  22  44  64  93 135 174 222 282 342 414
#
# _framework density 22.236311000000001
#
# number of rings (size 3 to 8) (size 9 to 14) (size 15 to 20)
#    0.000    1.667    1.667    2.000    7.000    0.667 
#   12.000    0.000    0.000    0.000    0.000    0.000 
#    0.000    0.000    0.000    0.000    0.000    0.000 
#
# Total GULP energy -297451.860782 kJ/mol
# GULP energy per Si atom -12393.827533 kJ/mol
# Density = 2.218570 g / cm^3
# Si number density = 22.236311 Si / 1000 Ang^3
#
#
#
# Elastic Constant Matrix: (Units=GPa)
#
#
# Indices 1 2 3 4 5 6 
#
# 1 63.0878 14.8510 43.1999 0.0000 0.0000 0.0000
# 2 14.8510 114.9476 35.9566 0.0000 0.0000 0.0000
# 3 43.1999 35.9566 112.2080 0.0000 0.0000 0.0000
# 4 0.0000 0.0000 0.0000 27.4824 0.0000 0.0000
# 5 0.0000 0.0000 0.0000 0.0000 23.7202 0.0000
# 6 0.0000 0.0000 0.0000 0.0000 0.0000 30.2273
#
#
#
# Elastic Compliance Matrix: (Units=1/GPa)
#
#
# Indices 1 2 3 4 5 6 
#
# 1 0.021530 -0.000210 -0.008222 0.000000 0.000000 0.000000
# 2 -0.000210 0.009671 -0.003018 0.000000 0.000000 0.000000
# 3 -0.008222 -0.003018 0.013045 0.000000 0.000000 0.000000
# 4 0.000000 0.000000 0.000000 0.036387 0.000000 0.000000
# 5 0.000000 0.000000 0.000000 0.000000 0.042158 0.000000
# 6 0.000000 0.000000 0.000000 0.000000 0.000000 0.033083
#
#
# Mechanical properties :
#
#
# Convention : Reuss Voigt Hill
#
# Bulk Modulus (GPa) = 46.84729 53.13981 49.99355
# Shear Modulus (GPa) = 26.89782 29.36837 28.13309
#
# Velocity S-wave (km/s) = 3.48175 3.63814 3.56081
# Velocity P-wave (km/s) = 6.10550 6.44963 6.27992
#
# Compressibility (1/GPa) = 0.02134595
#
# Stress axis : x y z
#
# Youngs Moduli (GPa) = 46.44615 103.40356 76.65996
#
# Poissons Ratio (x) = 0.02169 0.63029
# Poissons Ratio (y) = 0.00974 0.23138
# Poissons Ratio (z) = 0.38188 0.31209
#
# Static dielectric constant tensor:
#      x y z
#    x 3.885130 0.000000 0.000000 
#    y 0.000000 4.182960 0.000000 
#    z 0.000000 0.000000 3.966010 
# 
# 
# High freq. dielectric constant tensor:
#      x y z
#    x 1.854220 0.000000 0.000000 
#    y 0.000000 1.891590 0.000000 
#    z 0.000000 0.000000 1.863890 
# 
# From -- ./inp_files/5323.got.cif
#   From: 2010.03.12/outbox.cif.g09.slc.cpg/sg34_3_cif.got.tgz:5323.got - 2010.04.14 01:56:33.
