data_PCOD8171891
_publ_section_title
;
Structure prediction by ZEFSAII (Michael W. Deem and Ramdas Pophale) SiO2 
 PCOD8171891
Probable space group: P N N 2
;
_chemical_formula_sum "Si O2"
_cell_formula_units_Z 32
_cell_length_a 13.859676
_cell_length_b 10.413367
_cell_length_c 9.415948
_cell_angle_alpha 90.000000
_cell_angle_beta 90.000000
_cell_angle_gamma 90.000000
_cell_volume 1358.965101
_symmetry_space_group_name_H-M "P N N 2"
_symmetry_group_IT_number 34
_symmetry_cell_setting 'orthorhombic'
loop_
_space_group_symop_operation_xyz
x,y,z
-x,-y,z
1/2-x,1/2+y,1/2+z
1/2+x,1/2-y,1/2+z
loop_
_atom_site_type_symbol
_atom_site_label
_atom_site_fract_x
_atom_site_fract_y
_atom_site_fract_z
Si Si1 0.782549 0.375079 0.739240
Si Si2 0.544501 0.139056 0.581213
Si Si3 0.261301 0.171769 0.729372
Si Si4 0.102366 0.255758 0.356253
Si Si5 0.275346 0.977660 0.959573
Si Si6 0.742619 0.101256 0.437962
Si Si7 0.594099 0.437511 0.083578
Si Si8 0.374570 0.275494 0.467199
O O1 0.675233 0.322182 0.755043
O O2 0.802018 0.413951 0.576148
O O3 0.803079 0.499565 0.832239
O O4 0.854352 0.267096 0.803646
O O5 0.530402 0.169967 0.749866
O O6 0.657039 0.149718 0.540400
O O7 0.487545 0.253262 0.497499
O O8 0.500000 0.000000 0.546071
O O9 0.282368 0.285905 0.837831
O O10 0.147276 0.156382 0.694733
O O11 0.318795 0.183113 0.581273
O O12 0.292022 0.039090 0.805235
O O13 0.155295 0.353907 0.464828
O O14 0.051457 0.148422 0.453510
O O15 0.165626 0.921854 0.984897
O O16 0.830099 0.045933 0.531518
O O17 0.500000 0.500000 0.156865
#
# Coordination Sequence:
#
# PCOD8171891 Si02
#       8
#     4   4   4   4   4   4   4   4
#     4  10  19  42  66  92 129 176 218 278 342 393
#     4  12  23  40  69 100 136 179 226 284 349 406
#     4  12  23  44  70  99 140 180 221 285 341 405
#     4  10  22  39  63 101 133 168 234 278 325 412
#     4  11  22  40  70  95 136 180 222 276 338 402
#     4  11  22  42  68  96 135 178 220 285 348 397
#     4  11  24  44  69  97 138 183 227 286 341 403
#     4  11  23  42  69  99 135 173 230 280 333 411
#
# _framework density 23.547329999999999
#
# number of rings (size 3 to 8) (size 9 to 14) (size 15 to 20)
#    0.000    1.000    6.250    2.250    1.750    2.000 
#    0.000    1.250    8.250    0.000    0.000    0.000 
#    0.000    0.000    0.000    0.000    0.000    0.000 
#
# Total GULP energy -396619.182286 kJ/mol
# GULP energy per Si atom -12394.349446 kJ/mol
# Density = 2.349374 g / cm^3
# Si number density = 23.547330 Si / 1000 Ang^3
#
#
#
# Elastic Constant Matrix: (Units=GPa)
#
#
# Indices 1 2 3 4 5 6 
#
# 1 56.8103 9.7182 4.9845 0.0000 0.0000 0.0000
# 2 9.7182 68.1182 36.3815 0.0000 0.0000 0.0000
# 3 4.9845 36.3815 91.5742 0.0000 0.0000 0.0000
# 4 0.0000 0.0000 0.0000 36.0240 0.0000 0.0000
# 5 0.0000 0.0000 0.0000 0.0000 23.5738 0.0000
# 6 0.0000 0.0000 0.0000 0.0000 0.0000 14.1997
#
#
#
# Elastic Compliance Matrix: (Units=1/GPa)
#
#
# Indices 1 2 3 4 5 6 
#
# 1 0.018043 -0.002602 0.000052 0.000000 0.000000 0.000000
# 2 -0.002602 0.019010 -0.007411 0.000000 0.000000 0.000000
# 3 0.000052 -0.007411 0.013861 0.000000 0.000000 0.000000
# 4 0.000000 0.000000 0.000000 0.027759 0.000000 0.000000
# 5 0.000000 0.000000 0.000000 0.000000 0.042420 0.000000
# 6 0.000000 0.000000 0.000000 0.000000 0.000000 0.070424
#
#
# Mechanical properties :
#
#
# Convention : Reuss Voigt Hill
#
# Bulk Modulus (GPa) = 32.26601 35.40790 33.83695
# Shear Modulus (GPa) = 22.54592 25.78740 24.16666
#
# Velocity S-wave (km/s) = 3.09766 3.31287 3.20707
# Velocity P-wave (km/s) = 5.15038 5.45004 5.30233
#
# Compressibility (1/GPa) = 0.03099236
#
# Stress axis : x y z
#
# Youngs Moduli (GPa) = 55.42324 52.60519 72.14230
#
# Poissons Ratio (x) = 0.13686 -0.00372
# Poissons Ratio (y) = 0.14419 0.53462
# Poissons Ratio (z) = -0.00285 0.38984
#
# Static dielectric constant tensor:
#      x y z
#    x 3.871380 0.000000 0.000000 
#    y 0.000000 4.417900 0.000000 
#    z 0.000000 0.000000 4.323040 
# 
# 
# High freq. dielectric constant tensor:
#      x y z
#    x 1.894230 0.000000 0.000000 
#    y 0.000000 1.941930 0.000000 
#    z 0.000000 0.000000 1.934250 
# 
# From -- ./inp_files/3687.got.cif
#   From: 2010.03.12/outbox.cif.g09.slc.cpg/sg34_2_cif.got.tgz:3687.got - 2010.04.14 01:56:33.
