data_PCOD8171169
_publ_section_title
;
Structure prediction by ZEFSAII (Michael W. Deem and Ramdas Pophale) SiO2 
 PCOD8171169
Probable space group: P N A 21
;
_chemical_formula_sum "Si O2"
_cell_formula_units_Z 32
_cell_length_a 9.934997
_cell_length_b 9.097037
_cell_length_c 17.475214
_cell_angle_alpha 90.000000
_cell_angle_beta 90.000000
_cell_angle_gamma 90.000000
_cell_volume 1579.392983
_symmetry_space_group_name_H-M "P N A 21"
_symmetry_group_IT_number 33
_symmetry_cell_setting 'orthorhombic'
loop_
_space_group_symop_operation_xyz
x,y,z
-x,-y,1/2+z
1/2-x,1/2+y,1/2+z
1/2+x,1/2-y,z
loop_
_atom_site_type_symbol
_atom_site_label
_atom_site_fract_x
_atom_site_fract_y
_atom_site_fract_z
Si Si1 0.498491 0.674358 0.889100
Si Si2 0.747420 0.320564 0.130325
Si Si3 0.247420 0.320564 0.803666
Si Si4 0.772290 0.341644 0.303166
Si Si5 0.980045 0.665119 0.544607
Si Si6 0.019954 0.165120 0.889385
Si Si7 0.227710 0.841644 0.130826
Si Si8 0.998490 0.674358 0.044892
O O1 0.381558 0.687616 0.826540
O O2 0.631046 0.753446 0.858845
O O3 0.534921 0.506494 0.906182
O O4 0.449129 0.750000 0.966996
O O5 0.792381 0.285293 0.216827
O O6 0.872580 0.293159 0.074495
O O7 0.629396 0.209529 0.107854
O O8 0.692219 0.486450 0.124108
O O9 0.192218 0.486451 0.809884
O O10 0.129395 0.209529 0.826137
O O11 0.372579 0.293160 0.859497
O O12 0.292381 0.285294 0.717165
O O13 0.965079 0.493505 0.527811
O O14 0.948764 0.749999 0.466996
O O15 0.381558 0.812383 0.107451
O O16 0.131045 0.753448 0.075147
#
# Coordination Sequence:
#
# PCOD8171169 Si02
#       8
#     4   4   4   4   4   4   4   4
#     4  11  23  38  59  86 116 153 194 237 287 342
#     4  10  22  40  61  87 118 151 191 239 289 343
#     4  10  22  40  61  87 118 151 191 239 289 343
#     4  10  22  40  61  87 118 151 191 239 289 343
#     4  11  23  38  59  86 116 153 194 237 287 342
#     4  11  23  38  59  86 116 153 194 237 287 342
#     4  10  22  40  61  87 118 151 191 239 289 343
#     4  11  23  38  59  86 116 153 194 237 287 342
#
# _framework density 20.260949
#
# number of rings (size 3 to 8) (size 9 to 14) (size 15 to 20)
#    0.000    1.500    0.000    4.500    0.000    9.000 
#    0.000    0.000    0.000    0.000    0.000    0.000 
#    0.000    0.000    0.000    0.000    0.000    0.000 
#
# Total GULP energy -397070.880282 kJ/mol
# GULP energy per Si atom -12408.465009 kJ/mol
# Density = 2.021483 g / cm^3
# Si number density = 20.260949 Si / 1000 Ang^3
#
#
#
# Elastic Constant Matrix: (Units=GPa)
#
#
# Indices 1 2 3 4 5 6 
#
# 1 61.7441 36.9348 8.6699 0.0000 0.0000 0.0000
# 2 36.9348 92.8104 33.2940 0.0000 0.0000 0.0000
# 3 8.6699 33.2940 94.4907 0.0000 0.0000 0.0000
# 4 0.0000 0.0000 0.0000 30.2586 0.0000 0.0000
# 5 0.0000 0.0000 0.0000 0.0000 33.1360 0.0000
# 6 0.0000 0.0000 0.0000 0.0000 0.0000 27.7826
#
#
#
# Elastic Compliance Matrix: (Units=1/GPa)
#
#
# Indices 1 2 3 4 5 6 
#
# 1 0.021371 -0.008930 0.001186 0.000000 0.000000 0.000000
# 2 -0.008930 0.016065 -0.004841 0.000000 0.000000 0.000000
# 3 0.001186 -0.004841 0.012180 0.000000 0.000000 0.000000
# 4 0.000000 0.000000 0.000000 0.033048 0.000000 0.000000
# 5 0.000000 0.000000 0.000000 0.000000 0.030179 0.000000
# 6 0.000000 0.000000 0.000000 0.000000 0.000000 0.035994
#
#
# Mechanical properties :
#
#
# Convention : Reuss Voigt Hill
#
# Bulk Modulus (GPa) = 40.90806 45.20473 43.05640
# Shear Modulus (GPa) = 27.44873 29.57852 28.51362
#
# Velocity S-wave (km/s) = 3.68470 3.82498 3.75550
# Velocity P-wave (km/s) = 6.19170 6.47047 6.33262
#
# Compressibility (1/GPa) = 0.02444506
#
# Stress axis : x y z
#
# Youngs Moduli (GPa) = 46.79144 62.24604 82.10126
#
# Poissons Ratio (x) = 0.55588 -0.09735
# Poissons Ratio (y) = 0.41786 0.39747
# Poissons Ratio (z) = -0.05548 0.30135
#
# Static dielectric constant tensor:
#      x y z
#    x 3.528550 0.000000 0.000000 
#    y 0.000000 3.734780 0.000000 
#    z 0.000000 0.000000 3.713090 
# 
# 
# High freq. dielectric constant tensor:
#      x y z
#    x 1.796250 0.000000 0.000000 
#    y 0.000000 1.793640 0.000000 
#    z 0.000000 0.000000 1.806070 
# 
# From -- ./inp_files/8496.got.cif
#   From: 2010.03.12/outbox.cif.g09.slc.cpg/sg33_5_cif.got.tgz:8496.got - 2010.04.14 01:49:19.
