data_PCOD8171395
_publ_section_title
;
Structure prediction by ZEFSAII (Michael W. Deem and Ramdas Pophale) SiO2 
 PCOD8171395
Probable space group: P N A 21
;
_chemical_formula_sum "Si O2"
_cell_formula_units_Z 28
_cell_length_a 13.651161
_cell_length_b 10.697753
_cell_length_c 8.539753
_cell_angle_alpha 90.000000
_cell_angle_beta 90.000000
_cell_angle_gamma 90.000000
_cell_volume 1247.117761
_symmetry_space_group_name_H-M "P N A 21"
_symmetry_group_IT_number 33
_symmetry_cell_setting 'orthorhombic'
loop_
_space_group_symop_operation_xyz
x,y,z
-x,-y,1/2+z
1/2-x,1/2+y,1/2+z
1/2+x,1/2-y,z
loop_
_atom_site_type_symbol
_atom_site_label
_atom_site_fract_x
_atom_site_fract_y
_atom_site_fract_z
Si Si1 0.584880 0.518226 0.478110
Si Si2 0.302584 0.983169 0.442875
Si Si3 0.133999 0.366665 0.638012
Si Si4 0.497364 0.105030 0.064816
Si Si5 0.478327 0.347011 0.271065
Si Si6 0.456135 0.257720 0.763211
Si Si7 0.814615 0.238103 0.479681
O O1 0.697916 0.537345 0.526139
O O2 0.560938 0.382506 0.401184
O O3 0.522808 0.549783 0.633077
O O4 0.549563 0.608048 0.339823
O O5 0.307549 0.128254 0.394338
O O6 0.301382 0.895985 0.290507
O O7 0.390946 0.942927 0.556262
O O8 0.072066 0.490075 0.602973
O O9 0.058897 0.252397 0.668576
O O10 0.208440 0.325835 0.501703
O O11 0.497061 0.209018 0.201524
O O12 0.456727 0.153273 0.899275
O O13 0.376070 0.351005 0.365399
O O14 0.365208 0.236923 0.647612
#
# Coordination Sequence:
#
# PCOD8171395 Si02
#       7
#     4   4   4   4   4   4   4
#     4  11  25  46  66 101 141 178 236 286 357 410
#     4  11  24  42  71 102 138 181 231 286 346 427
#     4  11  23  45  71 103 138 179 234 290 341 427
#     4  10  23  47  70  99 141 186 236 288 345 419
#     4  11  26  46  70 101 142 188 227 298 350 418
#     4  10  23  45  68  97 139 181 228 290 347 411
#     4  12  24  41  72 103 135 185 228 284 362 412
#
# _framework density 22.451768000000001
#
# number of rings (size 3 to 8) (size 9 to 14) (size 15 to 20)
#    0.000    1.143    4.286    0.857    4.000    2.286 
#    0.000    0.000    0.000    0.000    0.000    0.000 
#    0.000    0.000    0.000    0.000    0.000    0.000 
#
# Total GULP energy -347140.524367 kJ/mol
# GULP energy per Si atom -12397.875870 kJ/mol
# Density = 2.240067 g / cm^3
# Si number density = 22.451768 Si / 1000 Ang^3
#
#
#
# Elastic Constant Matrix: (Units=GPa)
#
#
# Indices 1 2 3 4 5 6 
#
# 1 139.2283 53.9767 35.9651 0.0000 0.0000 0.0000
# 2 53.9767 79.2457 43.0826 0.0000 0.0000 0.0000
# 3 35.9651 43.0826 61.5315 0.0000 0.0000 0.0000
# 4 0.0000 0.0000 0.0000 32.8522 0.0000 0.0000
# 5 0.0000 0.0000 0.0000 0.0000 37.3322 0.0000
# 6 0.0000 0.0000 0.0000 0.0000 0.0000 34.0545
#
#
#
# Elastic Compliance Matrix: (Units=1/GPa)
#
#
# Indices 1 2 3 4 5 6 
#
# 1 0.009870 -0.005791 -0.001715 0.000000 0.000000 0.000000
# 2 -0.005791 0.023772 -0.013260 0.000000 0.000000 0.000000
# 3 -0.001715 -0.013260 0.026538 0.000000 0.000000 0.000000
# 4 0.000000 0.000000 0.000000 0.030439 0.000000 0.000000
# 5 0.000000 0.000000 0.000000 0.000000 0.026787 0.000000
# 6 0.000000 0.000000 0.000000 0.000000 0.000000 0.029365
#
#
# Mechanical properties :
#
#
# Convention : Reuss Voigt Hill
#
# Bulk Modulus (GPa) = 53.61906 60.67270 57.14588
# Shear Modulus (GPa) = 25.70448 30.64652 28.17550
#
# Velocity S-wave (km/s) = 3.38727 3.69859 3.54635
# Velocity P-wave (km/s) = 6.26354 6.73214 6.50206
#
# Compressibility (1/GPa) = 0.01865008
#
# Stress axis : x y z
#
# Youngs Moduli (GPa) = 101.31303 42.06607 37.68156
#
# Poissons Ratio (x) = 0.24360 0.06461
# Poissons Ratio (y) = 0.58669 0.49965
# Poissons Ratio (z) = 0.17372 0.55779
#
# Static dielectric constant tensor:
#      x y z
#    x 4.017770 0.000000 0.000000 
#    y 0.000000 4.032730 0.000000 
#    z 0.000000 0.000000 4.032880 
# 
# 
# High freq. dielectric constant tensor:
#      x y z
#    x 1.883310 0.000000 0.000000 
#    y 0.000000 1.890820 0.000000 
#    z 0.000000 0.000000 1.887930 
# 
# From -- ./inp_files/3862.got.cif
#   From: 2010.03.12/outbox.cif.g09.slc.cpg/sg33_2_cif.got.tgz:3862.got - 2010.04.14 01:49:19.
