data_PCOD8171072
_publ_section_title
;
Structure prediction by ZEFSAII (Michael W. Deem and Ramdas Pophale) SiO2 
 PCOD8171072
Probable space group: P N A 21
;
_chemical_formula_sum "Si O2"
_cell_formula_units_Z 24
_cell_length_a 9.319563
_cell_length_b 13.693336
_cell_length_c 9.170746
_cell_angle_alpha 90.000000
_cell_angle_beta 90.000000
_cell_angle_gamma 90.000000
_cell_volume 1170.333074
_symmetry_space_group_name_H-M "P N A 21"
_symmetry_group_IT_number 33
_symmetry_cell_setting 'orthorhombic'
loop_
_space_group_symop_operation_xyz
x,y,z
-x,-y,1/2+z
1/2-x,1/2+y,1/2+z
1/2+x,1/2-y,z
loop_
_atom_site_type_symbol
_atom_site_label
_atom_site_fract_x
_atom_site_fract_y
_atom_site_fract_z
Si Si1 0.091003 0.624038 0.742470
Si Si2 0.049032 0.839324 0.789927
Si Si3 0.201206 0.652424 0.430591
Si Si4 0.815728 0.967166 0.931429
Si Si5 0.475085 0.339668 0.944815
Si Si6 0.299071 0.976165 0.737672
O O1 0.077249 0.726323 0.829984
O O2 0.192437 0.637474 0.603275
O O3 0.165491 0.544900 0.847029
O O4 0.935371 0.587797 0.687742
O O5 0.013659 0.844761 0.618897
O O6 0.189308 0.904713 0.822239
O O7 0.918857 0.876301 0.891545
O O8 0.365415 0.666893 0.381482
O O9 0.110146 0.746492 0.384815
O O10 0.141753 0.557745 0.347670
O O11 0.894660 0.065939 0.880130
O O12 0.780092 0.972306 0.102255
#
# Coordination Sequence:
#
# PCOD8171072 Si02
#       6
#     4   4   4   4   4   4
#     4  11  23  40  69  91 122 168 213 253 309 386
#     4  10  21  41  65  89 123 168 212 251 308 380
#     4  11  23  42  64  90 124 167 213 253 309 382
#     4  11  22  42  63  93 127 161 204 268 318 359
#     4  10  23  39  66  89 122 167 211 252 309 380
#     4  11  24  40  61  98 128 157 211 265 313 365
#
# _framework density 20.506983999999999
#
# number of rings (size 3 to 8) (size 9 to 14) (size 15 to 20)
#    0.000    1.333    3.333    2.000   14.000    0.000 
#    3.000    1.667    0.000    0.000    0.000    0.000 
#    0.000    0.000    0.000    0.000    0.000    0.000 
#
# Total GULP energy -297673.957209 kJ/mol
# GULP energy per Si atom -12403.081550 kJ/mol
# Density = 2.046031 g / cm^3
# Si number density = 20.506984 Si / 1000 Ang^3
#
#
#
# Elastic Constant Matrix: (Units=GPa)
#
#
# Indices 1 2 3 4 5 6 
#
# 1 124.4877 56.7777 27.6655 0.0000 0.0000 0.0000
# 2 56.7777 141.6991 43.5305 0.0000 0.0000 0.0000
# 3 27.6655 43.5305 42.6712 0.0000 0.0000 0.0000
# 4 0.0000 0.0000 0.0000 31.4209 0.0000 0.0000
# 5 0.0000 0.0000 0.0000 0.0000 31.1967 0.0000
# 6 0.0000 0.0000 0.0000 0.0000 0.0000 41.1179
#
#
#
# Elastic Compliance Matrix: (Units=1/GPa)
#
#
# Indices 1 2 3 4 5 6 
#
# 1 0.010186 -0.002990 -0.003554 0.000000 0.000000 0.000000
# 2 -0.002990 0.011156 -0.009442 0.000000 0.000000 0.000000
# 3 -0.003554 -0.009442 0.035372 0.000000 0.000000 0.000000
# 4 0.000000 0.000000 0.000000 0.031826 0.000000 0.000000
# 5 0.000000 0.000000 0.000000 0.000000 0.032055 0.000000
# 6 0.000000 0.000000 0.000000 0.000000 0.000000 0.024320
#
#
# Mechanical properties :
#
#
# Convention : Reuss Voigt Hill
#
# Bulk Modulus (GPa) = 40.41780 62.75615 51.58698
# Shear Modulus (GPa) = 27.00741 32.80605 29.90673
#
# Velocity S-wave (km/s) = 3.63297 4.00403 3.82300
# Velocity P-wave (km/s) = 6.11146 7.21423 6.68562
#
# Compressibility (1/GPa) = 0.02474158
#
# Stress axis : x y z
#
# Youngs Moduli (GPa) = 98.17012 89.63944 28.27118
#
# Poissons Ratio (x) = 0.26799 0.10049
# Poissons Ratio (y) = 0.29350 0.26694
# Poissons Ratio (z) = 0.34893 0.84639
#
# Static dielectric constant tensor:
#      x y z
#    x 3.767820 0.000000 0.000000 
#    y 0.000000 3.866070 0.000000 
#    z 0.000000 0.000000 3.278920 
# 
# 
# High freq. dielectric constant tensor:
#      x y z
#    x 1.819490 0.000000 0.000000 
#    y 0.000000 1.811360 0.000000 
#    z 0.000000 0.000000 1.765140 
# 
# From -- ./inp_files/3108.got.cif
#   From: 2010.03.12/outbox.cif.g09.slc.cpg/sg33_2_cif.got.tgz:3108.got - 2010.04.14 01:49:19.
