data_PCOD8171357
_publ_section_title
;
Structure prediction by ZEFSAII (Michael W. Deem and Ramdas Pophale) SiO2 
 PCOD8171357
Probable space group: P N A 21
;
_chemical_formula_sum "Si O2"
_cell_formula_units_Z 28
_cell_length_a 9.183021
_cell_length_b 15.560149
_cell_length_c 8.317136
_cell_angle_alpha 90.000000
_cell_angle_beta 90.000000
_cell_angle_gamma 90.000000
_cell_volume 1188.428702
_symmetry_space_group_name_H-M "P N A 21"
_symmetry_group_IT_number 33
_symmetry_cell_setting 'orthorhombic'
loop_
_space_group_symop_operation_xyz
x,y,z
-x,-y,1/2+z
1/2-x,1/2+y,1/2+z
1/2+x,1/2-y,z
loop_
_atom_site_type_symbol
_atom_site_label
_atom_site_fract_x
_atom_site_fract_y
_atom_site_fract_z
Si Si1 0.630564 0.419391 0.459970
Si Si2 0.926713 0.637145 0.238278
Si Si3 0.355132 0.658160 0.508989
Si Si4 0.240026 0.713135 0.173200
Si Si5 0.591687 0.571388 0.674817
Si Si6 0.616319 0.155556 0.112339
Si Si7 0.641063 0.948656 0.707817
O O1 0.683741 0.325347 0.514603
O O2 0.591160 0.472151 0.620575
O O3 0.492854 0.413921 0.341614
O O4 0.769431 0.462369 0.372128
O O5 0.779469 0.685224 0.175245
O O6 0.924684 0.629420 0.430624
O O7 0.930063 0.541213 0.162976
O O8 0.068328 0.692273 0.182344
O O9 0.323006 0.673763 0.325473
O O10 0.520791 0.625991 0.528558
O O11 0.343102 0.743799 0.619442
O O12 0.252854 0.581470 0.570651
O O13 0.754463 0.603316 0.694206
O O14 0.479394 0.126820 0.222026
#
# Coordination Sequence:
#
# PCOD8171357 Si02
#       7
#     4   4   4   4   4   4   4
#     4  11  25  46  70 103 146 190 243 309 357 449
#     4  11  25  43  78 102 148 189 248 307 366 454
#     4  10  23  42  77  98 139 185 244 296 367 445
#     4  11  25  47  69 105 139 194 244 301 374 433
#     4  11  23  43  71 103 142 183 245 294 369 428
#     4  11  22  44  72 104 138 193 236 303 365 442
#     4  11  23  45  71 109 142 190 244 300 372 431
#
# _framework density 23.560521000000001
#
# number of rings (size 3 to 8) (size 9 to 14) (size 15 to 20)
#    0.000    1.143    2.857    2.571    6.000    2.286 
#   10.286    0.000    0.000    0.000    0.000    0.000 
#    0.000    0.000    0.000    0.000    0.000    0.000 
#
# Total GULP energy -347124.363753 kJ/mol
# GULP energy per Si atom -12397.298705 kJ/mol
# Density = 2.350690 g / cm^3
# Si number density = 23.560521 Si / 1000 Ang^3
#
#
#
# Elastic Constant Matrix: (Units=GPa)
#
#
# Indices 1 2 3 4 5 6 
#
# 1 120.4602 31.6980 41.3729 0.0000 0.0000 0.0000
# 2 31.6980 112.4421 22.1008 0.0000 0.0000 0.0000
# 3 41.3729 22.1008 45.8602 0.0000 0.0000 0.0000
# 4 0.0000 0.0000 0.0000 33.8783 0.0000 0.0000
# 5 0.0000 0.0000 0.0000 0.0000 21.6674 0.0000
# 6 0.0000 0.0000 0.0000 0.0000 0.0000 41.5823
#
#
#
# Elastic Compliance Matrix: (Units=1/GPa)
#
#
# Indices 1 2 3 4 5 6 
#
# 1 0.012228 -0.001413 -0.010351 0.000000 0.000000 0.000000
# 2 -0.001413 0.009987 -0.003539 0.000000 0.000000 0.000000
# 3 -0.010351 -0.003539 0.032849 0.000000 0.000000 0.000000
# 4 0.000000 0.000000 0.000000 0.029517 0.000000 0.000000
# 5 0.000000 0.000000 0.000000 0.000000 0.046152 0.000000
# 6 0.000000 0.000000 0.000000 0.000000 0.000000 0.024049
#
#
# Mechanical properties :
#
#
# Convention : Reuss Voigt Hill
#
# Bulk Modulus (GPa) = 40.88318 52.12288 46.50303
# Shear Modulus (GPa) = 25.83433 31.66499 28.74966
#
# Velocity S-wave (km/s) = 3.31495 3.67002 3.49699
# Velocity P-wave (km/s) = 5.66056 6.33480 6.00715
#
# Compressibility (1/GPa) = 0.02445994
#
# Stress axis : x y z
#
# Youngs Moduli (GPa) = 81.77692 100.12787 30.44236
#
# Poissons Ratio (x) = 0.14145 0.31511
# Poissons Ratio (y) = 0.11553 0.10772
# Poissons Ratio (z) = 0.84648 0.35431
#
# Static dielectric constant tensor:
#      x y z
#    x 4.379080 0.000000 0.000000 
#    y 0.000000 4.335130 0.000000 
#    z 0.000000 0.000000 3.959850 
# 
# 
# High freq. dielectric constant tensor:
#      x y z
#    x 1.943070 0.000000 0.000000 
#    y 0.000000 1.936620 0.000000 
#    z 0.000000 0.000000 1.913270 
# 
# From -- ./inp_files/3306.got.cif
#   From: 2010.03.12/outbox.cif.g09.slc.cpg/sg33_2_cif.got.tgz:3306.got - 2010.04.14 01:49:19.
