data_PCOD8171787
_publ_section_title
;
Structure prediction by ZEFSAII (Michael W. Deem and Ramdas Pophale) SiO2 
 PCOD8171787
Probable space group: P N A 21
;
_chemical_formula_sum "Si O2"
_cell_formula_units_Z 24
_cell_length_a 8.555462
_cell_length_b 19.970216
_cell_length_c 5.123016
_cell_angle_alpha 90.000000
_cell_angle_beta 90.000000
_cell_angle_gamma 90.000000
_cell_volume 875.289948
_symmetry_space_group_name_H-M "P N A 21"
_symmetry_group_IT_number 33
_symmetry_cell_setting 'orthorhombic'
loop_
_space_group_symop_operation_xyz
x,y,z
-x,-y,1/2+z
1/2-x,1/2+y,1/2+z
1/2+x,1/2-y,z
loop_
_atom_site_type_symbol
_atom_site_label
_atom_site_fract_x
_atom_site_fract_y
_atom_site_fract_z
Si Si1 0.962766 0.771860 0.759520
Si Si2 0.910593 0.601659 0.278775
Si Si3 0.095052 0.830975 0.276952
Si Si4 0.440640 0.535807 0.360886
Si Si5 0.146248 0.656484 0.670563
Si Si6 0.161906 0.535221 0.006624
O O1 0.076009 0.775517 0.501566
O O2 0.003566 0.693456 0.836231
O O3 0.787699 0.788919 0.667774
O O4 0.010725 0.816808 0.004401
O O5 0.777556 0.655856 0.212705
O O6 0.828890 0.543738 0.451905
O O7 0.063689 0.638174 0.397232
O O8 0.981048 0.559142 0.036908
O O9 0.007097 0.891498 0.421766
O O10 0.451708 0.493083 0.625251
O O11 0.262063 0.542315 0.271030
O O12 0.221740 0.587829 0.787292
#
# Coordination Sequence:
#
# PCOD8171787 Si02
#       6
#     4   4   4   4   4   4
#     4  12  30  53  81 111 157 211 266 318 390 468
#     4  12  28  46  79 114 162 199 264 324 405 461
#     4  12  28  50  80 115 153 206 259 322 388 471
#     4  12  26  46  78 112 157 203 256 321 398 467
#     4  12  29  52  77 112 154 210 263 326 388 477
#     4  12  27  45  77 112 157 203 254 329 395 466
#
# _framework density 27.419484000000001
#
# number of rings (size 3 to 8) (size 9 to 14) (size 15 to 20)
#    0.000    0.000    5.000    3.000   11.667    0.000 
#    0.000    0.000    0.000    0.000    0.000    0.000 
#    0.000    0.000    0.000    0.000    0.000    0.000 
#
# Total GULP energy -297369.932235 kJ/mol
# GULP energy per Si atom -12390.413843 kJ/mol
# Density = 2.735708 g / cm^3
# Si number density = 27.419484 Si / 1000 Ang^3
#
#
#
# Elastic Constant Matrix: (Units=GPa)
#
#
# Indices 1 2 3 4 5 6 
#
# 1 100.3279 20.8402 0.7898 0.0000 0.0000 0.0000
# 2 20.8402 77.4147 2.5691 0.0000 0.0000 0.0000
# 3 0.7898 2.5691 57.9850 0.0000 0.0000 0.0000
# 4 0.0000 0.0000 0.0000 24.4921 0.0000 0.0000
# 5 0.0000 0.0000 0.0000 0.0000 48.6848 0.0000
# 6 0.0000 0.0000 0.0000 0.0000 0.0000 61.1272
#
#
#
# Elastic Compliance Matrix: (Units=1/GPa)
#
#
# Indices 1 2 3 4 5 6 
#
# 1 0.010558 -0.002842 -0.000018 0.000000 0.000000 0.000000
# 2 -0.002842 0.013701 -0.000568 0.000000 0.000000 0.000000
# 3 -0.000018 -0.000568 0.017271 0.000000 0.000000 0.000000
# 4 0.000000 0.000000 0.000000 0.040830 0.000000 0.000000
# 5 0.000000 0.000000 0.000000 0.000000 0.020540 0.000000
# 6 0.000000 0.000000 0.000000 0.000000 0.000000 0.016359
#
#
# Mechanical properties :
#
#
# Convention : Reuss Voigt Hill
#
# Bulk Modulus (GPa) = 28.83957 31.56954 30.20455
# Shear Modulus (GPa) = 36.31788 40.96270 38.64029
#
# Velocity S-wave (km/s) = 3.64336 3.86933 3.75804
# Velocity P-wave (km/s) = 5.31408 5.61256 5.46536
#
# Compressibility (1/GPa) = 0.03467459
#
# Stress axis : x y z
#
# Youngs Moduli (GPa) = 94.71752 72.98601 57.89964
#
# Poissons Ratio (x) = 0.20739 0.00104
# Poissons Ratio (y) = 0.26915 0.03291
# Poissons Ratio (z) = 0.00170 0.04148
#
# Static dielectric constant tensor:
#      x y z
#    x 4.987550 0.000000 0.000000 
#    y 0.000000 5.395740 0.000000 
#    z 0.000000 0.000000 4.555960 
# 
# 
# High freq. dielectric constant tensor:
#      x y z
#    x 2.120760 0.000000 0.000000 
#    y 0.000000 2.127500 0.000000 
#    z 0.000000 0.000000 2.091300 
# 
# From -- ./inp_files/395.got.cif
#   From: 2010.03.12/outbox.cif.g09.slc.cpg/sg33_1_cif.got.tgz:395.got - 2010.04.14 01:49:19.
