data_PCOD8171745
_publ_section_title
;
Structure prediction by ZEFSAII (Michael W. Deem and Ramdas Pophale) SiO2 
 PCOD8171745
Probable space group: P N A 21
;
_chemical_formula_sum "Si O2"
_cell_formula_units_Z 24
_cell_length_a 9.384964
_cell_length_b 22.618989
_cell_length_c 4.976715
_cell_angle_alpha 90.000000
_cell_angle_beta 90.000000
_cell_angle_gamma 90.000000
_cell_volume 1056.449085
_symmetry_space_group_name_H-M "P N A 21"
_symmetry_group_IT_number 33
_symmetry_cell_setting 'orthorhombic'
loop_
_space_group_symop_operation_xyz
x,y,z
-x,-y,1/2+z
1/2-x,1/2+y,1/2+z
1/2+x,1/2-y,z
loop_
_atom_site_type_symbol
_atom_site_label
_atom_site_fract_x
_atom_site_fract_y
_atom_site_fract_z
Si Si1 0.174441 0.687896 0.180690
Si Si2 0.208795 0.378873 0.150891
Si Si3 0.237968 0.115835 0.182119
Si Si4 0.969818 0.464022 0.019204
Si Si5 0.161336 0.304928 0.667219
Si Si6 0.024801 0.959603 0.640653
O O1 0.233316 0.667911 0.469821
O O2 0.265928 0.743780 0.082164
O O3 0.007993 0.704455 0.195530
O O4 0.202408 0.635358 0.970672
O O5 0.057007 0.403815 0.054708
O O6 0.198664 0.354734 0.450306
O O7 0.316497 0.433590 0.139236
O O8 0.238064 0.325563 0.943388
O O9 0.309402 0.053718 0.093293
O O10 0.072415 0.098047 0.201250
O O11 0.024331 0.516419 0.210154
O O12 0.990910 0.987931 0.353501
#
# Coordination Sequence:
#
# PCOD8171745 Si02
#       6
#     4   4   4   4   4   4
#     4  12  26  46  71 101 133 177 228 281 343 401
#     4  12  25  45  69 101 138 173 227 280 333 405
#     4  12  25  45  69 101 138 173 227 280 333 405
#     4  12  22  40  67  96 129 172 216 270 332 390
#     4  12  26  46  71 101 133 177 228 281 343 401
#     4  12  26  46  69 102 141 182 226 270 336 404
#
# _framework density 22.717611999999999
#
# number of rings (size 3 to 8) (size 9 to 14) (size 15 to 20)
#    0.000    0.000    3.333    7.000    4.667    0.000 
#    0.000    0.000    0.000    0.000    0.000    0.000 
#    0.000    0.000    0.000    0.000    0.000    0.000 
#
# Total GULP energy -297790.824752 kJ/mol
# GULP energy per Si atom -12407.951031 kJ/mol
# Density = 2.266591 g / cm^3
# Si number density = 22.717612 Si / 1000 Ang^3
#
#
#
# Elastic Constant Matrix: (Units=GPa)
#
#
# Indices 1 2 3 4 5 6 
#
# 1 88.5293 31.2443 18.9983 0.0000 0.0000 0.0000
# 2 31.2443 85.4748 10.6911 0.0000 0.0000 0.0000
# 3 18.9983 10.6911 82.2527 0.0000 0.0000 0.0000
# 4 0.0000 0.0000 0.0000 48.5190 0.0000 0.0000
# 5 0.0000 0.0000 0.0000 0.0000 28.7570 0.0000
# 6 0.0000 0.0000 0.0000 0.0000 0.0000 59.2700
#
#
#
# Elastic Compliance Matrix: (Units=1/GPa)
#
#
# Indices 1 2 3 4 5 6 
#
# 1 0.013460 -0.004606 -0.002510 0.000000 0.000000 0.000000
# 2 -0.004606 0.013469 -0.000687 0.000000 0.000000 0.000000
# 3 -0.002510 -0.000687 0.012827 0.000000 0.000000 0.000000
# 4 0.000000 0.000000 0.000000 0.020610 0.000000 0.000000
# 5 0.000000 0.000000 0.000000 0.000000 0.034774 0.000000
# 6 0.000000 0.000000 0.000000 0.000000 0.000000 0.016872
#
#
# Mechanical properties :
#
#
# Convention : Reuss Voigt Hill
#
# Bulk Modulus (GPa) = 41.40891 42.01380 41.71136
# Shear Modulus (GPa) = 36.85457 40.33076 38.59266
#
# Velocity S-wave (km/s) = 4.03214 4.21801 4.12612
# Velocity P-wave (km/s) = 6.32019 6.50048 6.41097
#
# Compressibility (1/GPa) = 0.02414939
#
# Stress axis : x y z
#
# Youngs Moduli (GPa) = 74.29407 74.24465 77.96232
#
# Poissons Ratio (x) = 0.34198 0.19570
# Poissons Ratio (y) = 0.34221 0.05354
# Poissons Ratio (z) = 0.18649 0.05099
#
# Static dielectric constant tensor:
#      x y z
#    x 4.083950 0.000000 0.000000 
#    y 0.000000 3.888250 0.000000 
#    z 0.000000 0.000000 4.097390 
# 
# 
# High freq. dielectric constant tensor:
#      x y z
#    x 1.902430 0.000000 0.000000 
#    y 0.000000 1.900220 0.000000 
#    z 0.000000 0.000000 1.909410 
# 
# From -- ./inp_files/403.got.cif
#   From: 2010.03.12/outbox.cif.g09.slc.cpg/sg33_1_cif.got.tgz:403.got - 2010.04.14 01:49:19.
