data_PCOD8171156
_publ_section_title
;
Structure prediction by ZEFSAII (Michael W. Deem and Ramdas Pophale) SiO2 
 PCOD8171156
Probable space group: P N A 21
;
_chemical_formula_sum "Si O2"
_cell_formula_units_Z 24
_cell_length_a 9.528771
_cell_length_b 13.767715
_cell_length_c 8.080221
_cell_angle_alpha 90.000000
_cell_angle_beta 90.000000
_cell_angle_gamma 90.000000
_cell_volume 1060.039373
_symmetry_space_group_name_H-M "P N A 21"
_symmetry_group_IT_number 33
_symmetry_cell_setting 'orthorhombic'
loop_
_space_group_symop_operation_xyz
x,y,z
-x,-y,1/2+z
1/2-x,1/2+y,1/2+z
1/2+x,1/2-y,z
loop_
_atom_site_type_symbol
_atom_site_label
_atom_site_fract_x
_atom_site_fract_y
_atom_site_fract_z
Si Si1 0.552660 0.543974 0.826130
Si Si2 0.318195 0.442587 0.980198
Si Si3 0.778202 0.750443 0.602989
Si Si4 0.471230 0.245591 0.335761
Si Si5 0.440320 0.066257 0.571576
Si Si6 0.323795 0.058870 0.932432
O O1 0.575512 0.554401 0.632814
O O2 0.498905 0.646106 0.907187
O O3 0.702338 0.518771 0.904054
O O4 0.425660 0.465989 0.832216
O O5 0.254465 0.334822 0.970870
O O6 0.196718 0.523048 0.983240
O O7 0.687100 0.752279 0.769573
O O8 0.933424 0.727860 0.672296
O O9 0.757599 0.849199 0.504464
O O10 0.488530 0.164783 0.478297
O O11 0.407376 0.086178 0.764013
O O12 0.566831 0.987967 0.562367
#
# Coordination Sequence:
#
# PCOD8171156 Si02
#       6
#     4   4   4   4   4   4
#     4  10  22  39  60  87 122 160 204 256 312 372
#     4  10  22  39  60  88 121 159 205 256 312 373
#     4  11  22  41  64  88 124 168 208 260 321 378
#     4  11  22  41  64  89 123 167 209 256 319 384
#     4  11  23  40  63  93 126 164 213 264 318 386
#     4  11  23  40  63  93 128 166 211 264 320 381
#
# _framework density 22.640668999999999
#
# number of rings (size 3 to 8) (size 9 to 14) (size 15 to 20)
#    0.000    1.333    0.000    8.000    0.000    2.667 
#    0.000    8.333    0.000    0.000    0.000    0.000 
#    0.000    0.000    0.000    0.000    0.000    0.000 
#
# Total GULP energy -297531.697641 kJ/mol
# GULP energy per Si atom -12397.154068 kJ/mol
# Density = 2.258914 g / cm^3
# Si number density = 22.640669 Si / 1000 Ang^3
#
#
#
# Elastic Constant Matrix: (Units=GPa)
#
#
# Indices 1 2 3 4 5 6 
#
# 1 69.9810 24.6740 16.8970 0.0000 0.0000 0.0000
# 2 24.6740 146.4951 40.6885 0.0000 0.0000 0.0000
# 3 16.8970 40.6885 50.0501 0.0000 0.0000 0.0000
# 4 0.0000 0.0000 0.0000 35.3115 0.0000 0.0000
# 5 0.0000 0.0000 0.0000 0.0000 33.3659 0.0000
# 6 0.0000 0.0000 0.0000 0.0000 0.0000 31.1127
#
#
#
# Elastic Compliance Matrix: (Units=1/GPa)
#
#
# Indices 1 2 3 4 5 6 
#
# 1 0.015817 -0.001525 -0.004100 0.000000 0.000000 0.000000
# 2 -0.001525 0.008964 -0.006772 0.000000 0.000000 0.000000
# 3 -0.004100 -0.006772 0.026870 0.000000 0.000000 0.000000
# 4 0.000000 0.000000 0.000000 0.028319 0.000000 0.000000
# 5 0.000000 0.000000 0.000000 0.000000 0.029971 0.000000
# 6 0.000000 0.000000 0.000000 0.000000 0.000000 0.032141
#
#
# Mechanical properties :
#
#
# Convention : Reuss Voigt Hill
#
# Bulk Modulus (GPa) = 37.23591 47.89391 42.56491
# Shear Modulus (GPa) = 28.43657 32.24248 30.33953
#
# Velocity S-wave (km/s) = 3.54785 3.77781 3.66463
# Velocity P-wave (km/s) = 5.76759 6.34263 6.06194
#
# Compressibility (1/GPa) = 0.02685579
#
# Stress axis : x y z
#
# Youngs Moduli (GPa) = 63.22177 111.55601 37.21650
#
# Poissons Ratio (x) = 0.17016 0.15258
# Poissons Ratio (y) = 0.09644 0.25205
# Poissons Ratio (z) = 0.25920 0.75551
#
# Static dielectric constant tensor:
#      x y z
#    x 4.183380 0.000000 0.000000 
#    y 0.000000 4.412260 0.000000 
#    z 0.000000 0.000000 3.842320 
# 
# 
# High freq. dielectric constant tensor:
#      x y z
#    x 1.913810 0.000000 0.000000 
#    y 0.000000 1.902310 0.000000 
#    z 0.000000 0.000000 1.863780 
# 
# From -- ./inp_files/3152.got.cif
#   From: 2010.03.12/outbox.cif.g09.slc.cpg/sg33_2_cif.got.tgz:3152.got - 2010.04.14 01:49:19.
