data_PCOD8171448
_publ_section_title
;
Structure prediction by ZEFSAII (Michael W. Deem and Ramdas Pophale) SiO2 
 PCOD8171448
Probable space group: P N A 21
;
_chemical_formula_sum "Si O2"
_cell_formula_units_Z 24
_cell_length_a 9.659419
_cell_length_b 13.884011
_cell_length_c 7.267817
_cell_angle_alpha 90.000000
_cell_angle_beta 90.000000
_cell_angle_gamma 90.000000
_cell_volume 974.697692
_symmetry_space_group_name_H-M "P N A 21"
_symmetry_group_IT_number 33
_symmetry_cell_setting 'orthorhombic'
loop_
_space_group_symop_operation_xyz
x,y,z
-x,-y,1/2+z
1/2-x,1/2+y,1/2+z
1/2+x,1/2-y,z
loop_
_atom_site_type_symbol
_atom_site_label
_atom_site_fract_x
_atom_site_fract_y
_atom_site_fract_z
Si Si1 0.458429 0.740390 0.148600
Si Si2 0.383909 0.411857 0.149843
Si Si3 0.566323 0.911126 0.348078
Si Si4 0.320084 0.039861 0.459839
Si Si5 0.641506 0.419377 0.911731
Si Si6 0.714507 0.747258 0.897372
O O1 0.482102 0.812303 0.321843
O O2 0.389157 0.646382 0.233244
O O3 0.601071 0.716909 0.048331
O O4 0.359375 0.785065 0.990164
O O5 0.384865 0.472466 0.339026
O O6 0.312009 0.310117 0.206130
O O7 0.302279 0.460033 0.975311
O O8 0.540919 0.394487 0.081886
O O9 0.698757 0.906444 0.488444
O O10 0.461689 0.997643 0.380354
O O11 0.652233 0.932223 0.166997
O O12 0.282307 0.137889 0.351205
#
# Coordination Sequence:
#
# PCOD8171448 Si02
#       6
#     4   4   4   4   4   4
#     4  11  22  48  69  98 143 185 240 303 359 435
#     4  11  25  44  76 102 147 191 243 307 368 443
#     4  10  24  43  71  95 145 186 234 303 360 433
#     4  10  24  46  67 108 135 190 244 291 372 434
#     4  11  24  47  65 113 138 192 248 293 375 442
#     4  11  25  46  72 100 142 190 239 303 372 435
#
# _framework density 24.623018999999999
#
# number of rings (size 3 to 8) (size 9 to 14) (size 15 to 20)
#    0.000    1.333    5.000    1.000   11.667    2.667 
#    3.000    0.000    0.000    0.000    0.000    0.000 
#    0.000    0.000    0.000    0.000    0.000    0.000 
#
# Total GULP energy -297490.223015 kJ/mol
# GULP energy per Si atom -12395.425959 kJ/mol
# Density = 2.456698 g / cm^3
# Si number density = 24.623019 Si / 1000 Ang^3
#
#
#
# Elastic Constant Matrix: (Units=GPa)
#
#
# Indices 1 2 3 4 5 6 
#
# 1 134.4464 57.9404 27.3660 0.0000 0.0000 0.0000
# 2 57.9404 138.9446 37.6649 0.0000 0.0000 0.0000
# 3 27.3660 37.6649 44.0976 0.0000 0.0000 0.0000
# 4 0.0000 0.0000 0.0000 29.2483 0.0000 0.0000
# 5 0.0000 0.0000 0.0000 0.0000 38.7635 0.0000
# 6 0.0000 0.0000 0.0000 0.0000 0.0000 38.1534
#
#
#
# Elastic Compliance Matrix: (Units=1/GPa)
#
#
# Indices 1 2 3 4 5 6 
#
# 1 0.009410 -0.003046 -0.003238 0.000000 0.000000 0.000000
# 2 -0.003046 0.010352 -0.006951 0.000000 0.000000 0.000000
# 3 -0.003238 -0.006951 0.030623 0.000000 0.000000 0.000000
# 4 0.000000 0.000000 0.000000 0.034190 0.000000 0.000000
# 5 0.000000 0.000000 0.000000 0.000000 0.025797 0.000000
# 6 0.000000 0.000000 0.000000 0.000000 0.000000 0.026210
#
#
# Mechanical properties :
#
#
# Convention : Reuss Voigt Hill
#
# Bulk Modulus (GPa) = 41.81536 62.60348 52.20942
# Shear Modulus (GPa) = 29.23566 34.20087 31.71827
#
# Velocity S-wave (km/s) = 3.44950 3.73095 3.59298
# Velocity P-wave (km/s) = 5.73450 6.63626 6.20179
#
# Compressibility (1/GPa) = 0.02391466
#
# Stress axis : x y z
#
# Youngs Moduli (GPa) = 106.27337 96.60203 32.65476
#
# Poissons Ratio (x) = 0.29427 0.10572
# Poissons Ratio (y) = 0.32373 0.22699
# Poissons Ratio (z) = 0.34407 0.67151
#
# Static dielectric constant tensor:
#      x y z
#    x 4.907720 0.000000 0.000000 
#    y 0.000000 4.948210 0.000000 
#    z 0.000000 0.000000 4.123410 
# 
# 
# High freq. dielectric constant tensor:
#      x y z
#    x 2.001310 0.000000 0.000000 
#    y 0.000000 1.977620 0.000000 
#    z 0.000000 0.000000 1.951250 
# 
# From -- ./inp_files/3066.got.cif
#   From: 2010.03.12/outbox.cif.g09.slc.cpg/sg33_2_cif.got.tgz:3066.got - 2010.04.14 01:49:19.
