data_PCOD8171955
_publ_section_title
;
Structure prediction by ZEFSAII (Michael W. Deem and Ramdas Pophale) SiO2 
 PCOD8171955
Probable space group: P N N 2
;
_chemical_formula_sum "Si O2"
_cell_formula_units_Z 32
_cell_length_a 20.528848
_cell_length_b 9.016335
_cell_length_c 9.080475
_cell_angle_alpha 90.000000
_cell_angle_beta 90.000000
_cell_angle_gamma 90.000000
_cell_volume 1680.750254
_symmetry_space_group_name_H-M "P N N 2"
_symmetry_group_IT_number 34
_symmetry_cell_setting 'orthorhombic'
loop_
_space_group_symop_operation_xyz
x,y,z
-x,-y,z
1/2-x,1/2+y,1/2+z
1/2+x,1/2-y,1/2+z
loop_
_atom_site_type_symbol
_atom_site_label
_atom_site_fract_x
_atom_site_fract_y
_atom_site_fract_z
Si Si1 0.558349 0.892335 0.236540
Si Si2 0.697525 0.923009 0.927628
Si Si3 0.310664 0.423351 0.923392
Si Si4 0.434340 0.417784 0.392734
Si Si5 0.181042 0.083496 0.728614
Si Si6 0.443216 0.107894 0.896066
Si Si7 0.436325 0.409137 0.738933
Si Si8 0.688736 0.070268 0.224960
O O1 0.559574 0.749572 0.338724
O O2 0.625480 0.976846 0.264653
O O3 0.500000 0.000000 0.285739
O O4 0.549775 0.842478 0.066737
O O5 0.689803 0.749241 0.969067
O O6 0.749126 0.951261 0.800118
O O7 0.626098 0.975266 0.872499
O O8 0.718303 0.019344 0.068477
O O9 0.371549 0.466660 0.820266
O O10 0.243417 0.464713 0.844981
O O11 0.317577 0.523435 0.065262
O O12 0.500000 0.500000 0.346180
O O13 0.374606 0.503468 0.320374
O O14 0.423096 0.420047 0.566414
O O15 0.168234 0.258342 0.723114
O O16 0.450197 0.242115 0.784623
O O17 0.500000 0.000000 0.847609
O O18 0.500000 0.500000 0.787558
#
# Coordination Sequence:
#
# PCOD8171955 Si02
#       8
#     4   4   4   4   4   4   4   4
#     4  10  21  38  61  87 117 150 189 236 284 339
#     4   9  20  38  55  81 118 148 185 234 282 337
#     4  10  22  38  58  82 112 152 191 231 286 343
#     4  11  23  39  58  83 116 150 189 236 286 340
#     4  11  22  37  60  85 111 150 193 235 284 338
#     4   9  19  37  58  83 112 145 185 231 280 337
#     4  10  22  38  56  81 112 147 186 233 283 336
#     4  10  21  37  58  86 116 148 190 236 285 338
#
# _framework density 19.039117999999998
#
# number of rings (size 3 to 8) (size 9 to 14) (size 15 to 20)
#    0.000    2.000    0.000    3.750    0.000   10.500 
#    0.000    5.000    0.000    0.000    0.000    0.000 
#    0.000    0.000    0.000    0.000    0.000    0.000 
#
# Total GULP energy -396866.259983 kJ/mol
# GULP energy per Si atom -12402.070624 kJ/mol
# Density = 1.899578 g / cm^3
# Si number density = 19.039118 Si / 1000 Ang^3
#
#
#
# Elastic Constant Matrix: (Units=GPa)
#
#
# Indices 1 2 3 4 5 6 
#
# 1 143.0937 66.4939 64.3952 0.0000 0.0000 0.0000
# 2 66.4939 94.6294 58.4137 0.0000 0.0000 0.0000
# 3 64.3952 58.4137 97.1114 0.0000 0.0000 0.0000
# 4 0.0000 0.0000 0.0000 13.7960 0.0000 0.0000
# 5 0.0000 0.0000 0.0000 0.0000 -39.7272 0.0000
# 6 0.0000 0.0000 0.0000 0.0000 0.0000 33.8397
#
#
#
# Elastic Compliance Matrix: (Units=1/GPa)
#
#
# Indices 1 2 3 4 5 6 
#
# 1 0.011436 -0.005336 -0.004374 0.000000 0.000000 0.000000
# 2 -0.005336 0.019299 -0.008070 0.000000 0.000000 0.000000
# 3 -0.004374 -0.008070 0.018052 0.000000 0.000000 0.000000
# 4 0.000000 0.000000 0.000000 0.072485 0.000000 0.000000
# 5 0.000000 0.000000 0.000000 0.000000 -0.025172 0.000000
# 6 0.000000 0.000000 0.000000 0.000000 0.000000 0.029551
#
#
# Mechanical properties :
#
#
# Convention : Reuss Voigt Hill
#
# Bulk Modulus (GPa) = 75.60196 79.27114 77.43655
# Shear Modulus (GPa) = 30.18964 11.28381 20.73673
#
# Velocity S-wave (km/s) = 3.98636 2.43711 3.30383
# Velocity P-wave (km/s) = 7.80916 7.04597 7.43736
#
# Compressibility (1/GPa) = 0.01322717
#
# Stress axis : x y z
#
# Youngs Moduli (GPa) = 87.44029 51.81716 55.39594
#
# Poissons Ratio (x) = 0.27651 0.24229
# Poissons Ratio (y) = 0.46660 0.44704
# Poissons Ratio (z) = 0.38244 0.41816
#
# Static dielectric constant tensor:
#      x y z
#    x 3.945910 0.000000 0.000000 
#    y 0.000000 3.467740 0.000000 
#    z 0.000000 0.000000 3.445060 
# 
# 
# High freq. dielectric constant tensor:
#      x y z
#    x 1.762710 0.000000 0.000000 
#    y 0.000000 1.739450 0.000000 
#    z 0.000000 0.000000 1.739090 
# 
# From -- ./inp_files/4005.got.cif
#   From: 2010.03.12/outbox.cif.g09.slc.cpg/sg34_3_cif.got.tgz:4005.got - 2010.04.14 01:56:33.
