data_PCOD8171844
_publ_section_title
;
Structure prediction by ZEFSAII (Michael W. Deem and Ramdas Pophale) SiO2 
 PCOD8171844
Probable space group: P N N 2
;
_chemical_formula_sum "Si O2"
_cell_formula_units_Z 28
_cell_length_a 17.253512
_cell_length_b 9.105191
_cell_length_c 9.129556
_cell_angle_alpha 90.000000
_cell_angle_beta 90.000000
_cell_angle_gamma 90.000000
_cell_volume 1434.221497
_symmetry_space_group_name_H-M "P N N 2"
_symmetry_group_IT_number 34
_symmetry_cell_setting 'orthorhombic'
loop_
_space_group_symop_operation_xyz
x,y,z
-x,-y,z
1/2-x,1/2+y,1/2+z
1/2+x,1/2-y,1/2+z
loop_
_atom_site_type_symbol
_atom_site_label
_atom_site_fract_x
_atom_site_fract_y
_atom_site_fract_z
Si Si1 0.847272 0.456166 0.507860
Si Si2 0.382625 0.520972 0.436931
Si Si3 0.336470 0.388762 0.997868
Si Si4 0.254917 0.066849 0.736784
Si Si5 0.500000 0.500000 0.062334
Si Si6 0.500000 0.000000 0.169621
Si Si7 0.213454 0.889767 0.177861
Si Si8 0.992538 0.200215 0.813422
O O1 0.847859 0.281803 0.531824
O O2 0.827548 0.493853 0.336101
O O3 0.788844 0.531419 0.619062
O O4 0.929423 0.521926 0.557330
O O5 0.309628 0.599825 0.360957
O O6 0.361689 0.457628 0.596481
O O7 0.449816 0.646536 0.445017
O O8 0.409570 0.378613 0.340602
O O9 0.279881 0.451564 0.122947
O O10 0.422014 0.459711 0.974176
O O11 0.291657 0.420959 0.848967
O O12 0.279963 0.214219 0.651418
O O13 0.472732 0.636878 0.162097
O O14 0.485868 0.127704 0.289443
#
# Coordination Sequence:
#
# PCOD8171844 Si02
#       8
#     4   4   4   4   2   2   4   4
#     4  10  23  37  56  89 116 149 196 252 286 353
#     4   9  18  38  55  84 114 153 191 238 286 353
#     4  11  21  39  59  87 118 154 199 238 298 350
#     4  10  19  37  59  79 117 153 189 240 292 348
#     4  10  18  36  58  84 110 160 188 236 276 354
#     4  12  20  36  62  94 110 158 202 246 292 362
#     4  10  23  36  60  87 118 150 199 243 294 348
#     4  10  19  33  64  82 117 154 194 233 292 348
#
# _framework density 19.522786
#
# number of rings (size 3 to 8) (size 9 to 14) (size 15 to 20)
#    0.000    2.000    4.286    0.857    0.000    4.571 
#    0.000    0.000    0.000    7.714    0.000    0.000 
#    0.000    0.000    0.000    0.000    0.000    0.000 
#
# Total GULP energy -346909.734547 kJ/mol
# GULP energy per Si atom -12389.633377 kJ/mol
# Density = 1.947835 g / cm^3
# Si number density = 19.522786 Si / 1000 Ang^3
#
#
#
# Elastic Constant Matrix: (Units=GPa)
#
#
# Indices 1 2 3 4 5 6 
#
# 1 99.0780 27.7463 36.6058 0.0000 0.0000 0.0000
# 2 27.7463 71.4431 31.6087 0.0000 0.0000 0.0000
# 3 36.6058 31.6087 80.0283 0.0000 0.0000 0.0000
# 4 0.0000 0.0000 0.0000 25.4476 0.0000 0.0000
# 5 0.0000 0.0000 0.0000 0.0000 33.0768 0.0000
# 6 0.0000 0.0000 0.0000 0.0000 0.0000 27.8284
#
#
#
# Elastic Compliance Matrix: (Units=1/GPa)
#
#
# Indices 1 2 3 4 5 6 
#
# 1 0.012604 -0.002841 -0.004643 0.000000 0.000000 0.000000
# 2 -0.002841 0.017601 -0.005653 0.000000 0.000000 0.000000
# 3 -0.004643 -0.005653 0.016852 0.000000 0.000000 0.000000
# 4 0.000000 0.000000 0.000000 0.039296 0.000000 0.000000
# 5 0.000000 0.000000 0.000000 0.000000 0.030233 0.000000
# 6 0.000000 0.000000 0.000000 0.000000 0.000000 0.035934
#
#
# Mechanical properties :
#
#
# Convention : Reuss Voigt Hill
#
# Bulk Modulus (GPa) = 48.11319 49.16342 48.63831
# Shear Modulus (GPa) = 26.92192 27.57647 27.24920
#
# Velocity S-wave (km/s) = 3.71752 3.76244 3.74005
# Velocity P-wave (km/s) = 6.56694 6.64167 6.60441
#
# Compressibility (1/GPa) = 0.02078432
#
# Stress axis : x y z
#
# Youngs Moduli (GPa) = 79.33925 56.81408 59.34000
#
# Poissons Ratio (x) = 0.16139 0.27553
# Poissons Ratio (y) = 0.22538 0.33542
# Poissons Ratio (z) = 0.36839 0.32115
#
# Static dielectric constant tensor:
#      x y z
#    x 3.730260 0.000000 0.000000 
#    y 0.000000 3.626670 0.000000 
#    z 0.000000 0.000000 3.482680 
# 
# 
# High freq. dielectric constant tensor:
#      x y z
#    x 1.765390 0.000000 0.000000 
#    y 0.000000 1.754150 0.000000 
#    z 0.000000 0.000000 1.742450 
# 
# From -- ./inp_files/3895.got.cif
#   From: 2010.03.12/outbox.cif.g09.slc.cpg/sg34_2_cif.got.tgz:3895.got - 2010.04.14 01:56:33.
