data_PCOD8171360
_publ_section_title
;
Structure prediction by ZEFSAII (Michael W. Deem and Ramdas Pophale) SiO2 
 PCOD8171360
Probable space group: P N A 21
;
_chemical_formula_sum "Si O2"
_cell_formula_units_Z 20
_cell_length_a 12.937963
_cell_length_b 5.098048
_cell_length_c 12.818112
_cell_angle_alpha 90.000000
_cell_angle_beta 90.000000
_cell_angle_gamma 90.000000
_cell_volume 845.461600
_symmetry_space_group_name_H-M "P N A 21"
_symmetry_group_IT_number 33
_symmetry_cell_setting 'orthorhombic'
loop_
_space_group_symop_operation_xyz
x,y,z
-x,-y,1/2+z
1/2-x,1/2+y,1/2+z
1/2+x,1/2-y,z
loop_
_atom_site_type_symbol
_atom_site_label
_atom_site_fract_x
_atom_site_fract_y
_atom_site_fract_z
Si Si1 0.071335 0.725849 0.506330
Si Si2 0.702421 0.276846 0.492294
Si Si3 0.029669 0.284647 0.220323
Si Si4 0.581720 0.858431 0.927289
Si Si5 0.871338 0.213949 0.644836
O O1 0.153853 0.505702 0.468776
O O2 0.057183 0.715363 0.631035
O O3 0.962486 0.655855 0.447531
O O4 0.113805 0.008972 0.475263
O O5 0.752720 0.271394 0.609452
O O6 0.794213 0.352891 0.410329
O O7 0.973927 0.226338 0.329444
O O8 0.089671 0.560633 0.222850
O O9 0.116185 0.061797 0.202555
O O10 0.558409 0.704025 0.037510
#
# Coordination Sequence:
#
# PCOD8171360 Si02
#       5
#     4   4   4   4   4
#     4  11  22  42  68  92 132 179 214 271 338 387
#     4  10  23  43  63  94 133 171 218 277 324 385
#     4  11  21  42  68  93 130 183 208 273 341 386
#     4   9  24  43  66  97 137 171 223 278 324 402
#     4   9  22  40  63  90 132 168 211 281 315 384
#
# _framework density 23.655716000000002
#
# number of rings (size 3 to 8) (size 9 to 14) (size 15 to 20)
#    1.200    0.800    0.000    3.600    0.000    6.400 
#   10.800    0.000    0.000    0.000    0.000    0.000 
#    0.000    0.000    0.000    0.000    0.000    0.000 
#
# Total GULP energy -247809.067476 kJ/mol
# GULP energy per Si atom -12390.453374 kJ/mol
# Density = 2.360187 g / cm^3
# Si number density = 23.655716 Si / 1000 Ang^3
#
#
#
# Elastic Constant Matrix: (Units=GPa)
#
#
# Indices 1 2 3 4 5 6 
#
# 1 81.3777 25.0076 3.8903 0.0000 0.0000 0.0000
# 2 25.0076 112.5167 13.6044 0.0000 0.0000 0.0000
# 3 3.8903 13.6044 66.3131 0.0000 0.0000 0.0000
# 4 0.0000 0.0000 0.0000 18.1742 0.0000 0.0000
# 5 0.0000 0.0000 0.0000 0.0000 31.5539 0.0000
# 6 0.0000 0.0000 0.0000 0.0000 0.0000 33.0205
#
#
#
# Elastic Compliance Matrix: (Units=1/GPa)
#
#
# Indices 1 2 3 4 5 6 
#
# 1 0.013191 -0.002910 -0.000177 0.000000 0.000000 0.000000
# 2 -0.002910 0.009756 -0.001831 0.000000 0.000000 0.000000
# 3 -0.000177 -0.001831 0.015466 0.000000 0.000000 0.000000
# 4 0.000000 0.000000 0.000000 0.055023 0.000000 0.000000
# 5 0.000000 0.000000 0.000000 0.000000 0.031692 0.000000
# 6 0.000000 0.000000 0.000000 0.000000 0.000000 0.030284
#
#
# Mechanical properties :
#
#
# Convention : Reuss Voigt Hill
#
# Bulk Modulus (GPa) = 34.99312 38.35691 36.67502
# Shear Modulus (GPa) = 28.60846 31.06342 29.83594
#
# Velocity S-wave (km/s) = 3.48137 3.62767 3.55527
# Velocity P-wave (km/s) = 5.56639 5.81347 5.69127
#
# Compressibility (1/GPa) = 0.02857704
#
# Stress axis : x y z
#
# Youngs Moduli (GPa) = 75.80803 102.50330 64.65830
#
# Poissons Ratio (x) = 0.29833 0.01143
# Poissons Ratio (y) = 0.22064 0.11837
# Poissons Ratio (z) = 0.01340 0.18765
#
# Static dielectric constant tensor:
#      x y z
#    x 4.255320 0.000000 0.000000 
#    y 0.000000 4.032680 0.000000 
#    z 0.000000 0.000000 3.994410 
# 
# 
# High freq. dielectric constant tensor:
#      x y z
#    x 1.931230 0.000000 0.000000 
#    y 0.000000 1.934800 0.000000 
#    z 0.000000 0.000000 1.915010 
# 
# From -- ./inp_files/6644.got.cif
#   From: 2010.03.12/outbox.cif.g09.slc.cpg/sg33_4_cif.got.tgz:6644.got - 2010.04.14 01:49:19.
