data_PCOD8171438
_publ_section_title
;
Structure prediction by ZEFSAII (Michael W. Deem and Ramdas Pophale) SiO2 
 PCOD8171438
Probable space group: P N A 21
;
_chemical_formula_sum "Si O2"
_cell_formula_units_Z 32
_cell_length_a 8.882999
_cell_length_b 5.412228
_cell_length_c 28.787262
_cell_angle_alpha 90.000000
_cell_angle_beta 90.000000
_cell_angle_gamma 90.000000
_cell_volume 1383.999896
_symmetry_space_group_name_H-M "P N A 21"
_symmetry_group_IT_number 33
_symmetry_cell_setting 'orthorhombic'
loop_
_space_group_symop_operation_xyz
x,y,z
-x,-y,1/2+z
1/2-x,1/2+y,1/2+z
1/2+x,1/2-y,z
loop_
_atom_site_type_symbol
_atom_site_label
_atom_site_fract_x
_atom_site_fract_y
_atom_site_fract_z
Si Si1 0.664493 0.569788 0.085270
Si Si2 0.132708 0.555022 0.269481
Si Si3 0.835526 0.449124 0.663876
Si Si4 0.941151 0.258199 0.949293
Si Si5 0.206964 0.553488 0.800399
Si Si6 0.318240 0.430175 0.484542
Si Si7 0.818630 0.449177 0.406105
Si Si8 0.594999 0.740684 0.620524
O O1 0.711859 0.731518 0.129208
O O2 0.496854 0.468289 0.093216
O O3 0.789589 0.353721 0.082923
O O4 0.673443 0.706202 0.034911
O O5 0.138390 0.641612 0.215971
O O6 0.224442 0.296486 0.275116
O O7 0.961061 0.502674 0.283258
O O8 0.197703 0.796908 0.296248
O O9 0.694355 0.634743 0.663123
O O10 0.988001 0.561478 0.644135
O O11 0.849257 0.468428 0.976253
O O12 0.040874 0.363423 0.906635
O O13 0.834282 0.058759 0.926110
O O14 0.056861 0.146667 0.986984
O O15 0.206051 0.640268 0.853907
O O16 0.366772 0.268264 0.440716
#
# Coordination Sequence:
#
# PCOD8171438 Si02
#       8
#     4   4   4   4   4   4   4   4
#     4  11  24  42  68 101 140 185 235 290 359 433
#     4  12  29  49  79 111 152 198 255 314 385 448
#     4  11  25  43  71  97 140 181 239 295 359 434
#     4  10  24  42  67  97 142 180 234 289 362 421
#     4  12  29  49  79 111 152 198 255 314 385 448
#     4  11  24  42  68 101 140 185 235 290 359 433
#     4  11  25  43  71  97 140 181 239 295 359 434
#     4  10  24  42  67  97 142 180 234 289 362 421
#
# _framework density 23.121386999999999
#
# number of rings (size 3 to 8) (size 9 to 14) (size 15 to 20)
#    0.000    1.000    0.000    4.500   14.000    8.000 
#    0.000    0.000    0.000    0.000    0.000    0.000 
#    0.000    0.000    0.000    0.000    0.000    0.000 
#
# Total GULP energy -396688.998447 kJ/mol
# GULP energy per Si atom -12396.531201 kJ/mol
# Density = 2.306876 g / cm^3
# Si number density = 23.121387 Si / 1000 Ang^3
#
#
#
# Elastic Constant Matrix: (Units=GPa)
#
#
# Indices 1 2 3 4 5 6 
#
# 1 143.0228 32.0847 18.8435 0.0000 0.0000 0.0000
# 2 32.0847 94.1068 25.3314 0.0000 0.0000 0.0000
# 3 18.8435 25.3314 153.5183 0.0000 0.0000 0.0000
# 4 0.0000 0.0000 0.0000 35.1557 0.0000 0.0000
# 5 0.0000 0.0000 0.0000 0.0000 14.9786 0.0000
# 6 0.0000 0.0000 0.0000 0.0000 0.0000 15.8828
#
#
#
# Elastic Compliance Matrix: (Units=1/GPa)
#
#
# Indices 1 2 3 4 5 6 
#
# 1 0.007612 -0.002453 -0.000530 0.000000 0.000000 0.000000
# 2 -0.002453 0.011910 -0.001664 0.000000 0.000000 0.000000
# 3 -0.000530 -0.001664 0.006853 0.000000 0.000000 0.000000
# 4 0.000000 0.000000 0.000000 0.028445 0.000000 0.000000
# 5 0.000000 0.000000 0.000000 0.000000 0.066762 0.000000
# 6 0.000000 0.000000 0.000000 0.000000 0.000000 0.062961
#
#
# Mechanical properties :
#
#
# Convention : Reuss Voigt Hill
#
# Bulk Modulus (GPa) = 58.53840 60.35191 59.44516
# Shear Modulus (GPa) = 25.05874 34.16264 29.61069
#
# Velocity S-wave (km/s) = 3.29567 3.84804 3.58252
# Velocity P-wave (km/s) = 6.31306 6.77511 6.54816
#
# Compressibility (1/GPa) = 0.01708280
#
# Stress axis : x y z
#
# Youngs Moduli (GPa) = 131.37373 83.96030 145.91091
#
# Poissons Ratio (x) = 0.20592 0.07728
# Poissons Ratio (y) = 0.32221 0.24283
# Poissons Ratio (z) = 0.06958 0.13973
#
# Static dielectric constant tensor:
#      x y z
#    x 4.374490 0.000000 0.000000 
#    y 0.000000 4.298800 0.000000 
#    z 0.000000 0.000000 4.055820 
# 
# 
# High freq. dielectric constant tensor:
#      x y z
#    x 1.942200 0.000000 0.000000 
#    y 0.000000 1.908620 0.000000 
#    z 0.000000 0.000000 1.909820 
# 
# From -- ./inp_files/9385.got.cif
#   From: 2010.03.12/outbox.cif.g09.slc.cpg/sg33_5_cif.got.tgz:9385.got - 2010.04.14 01:49:19.
