data_PCOD8171567
_publ_section_title
;
Structure prediction by ZEFSAII (Michael W. Deem and Ramdas Pophale) SiO2 
 PCOD8171567
Probable space group: P N A 21
;
_chemical_formula_sum "Si O2"
_cell_formula_units_Z 28
_cell_length_a 13.677817
_cell_length_b 12.293654
_cell_length_c 8.286900
_cell_angle_alpha 90.000000
_cell_angle_beta 90.000000
_cell_angle_gamma 90.000000
_cell_volume 1393.445133
_symmetry_space_group_name_H-M "P N A 21"
_symmetry_group_IT_number 33
_symmetry_cell_setting 'orthorhombic'
loop_
_space_group_symop_operation_xyz
x,y,z
-x,-y,1/2+z
1/2-x,1/2+y,1/2+z
1/2+x,1/2-y,z
loop_
_atom_site_type_symbol
_atom_site_label
_atom_site_fract_x
_atom_site_fract_y
_atom_site_fract_z
Si Si1 0.650767 0.841191 0.587940
Si Si2 0.564013 0.232722 0.114941
Si Si3 0.294544 0.734302 0.327093
Si Si4 0.749171 0.653431 0.768350
Si Si5 0.747307 0.563032 0.122008
Si Si6 0.370669 0.540063 0.138268
Si Si7 0.561462 0.459850 0.272504
O O1 0.534337 0.833164 0.579709
O O2 0.696035 0.802222 0.418187
O O3 0.697854 0.769693 0.732503
O O4 0.673215 0.967616 0.616256
O O5 0.636526 0.158999 0.222154
O O6 0.535271 0.339608 0.213845
O O7 0.614002 0.265656 0.947292
O O8 0.279906 0.854709 0.260229
O O9 0.314506 0.650741 0.181912
O O10 0.701367 0.561687 0.656388
O O11 0.737459 0.626502 0.954776
O O12 0.642436 0.511838 0.157580
O O13 0.463041 0.530162 0.258054
O O14 0.404202 0.543795 0.955153
#
# Coordination Sequence:
#
# PCOD8171567 Si02
#       7
#     4   4   4   4   4   4   4
#     4  11  24  45  69  98 139 177 226 287 337 407
#     4  11  23  43  67  99 137 181 223 281 342 412
#     4  11  25  44  67 100 139 175 234 278 346 405
#     4  11  22  45  67  96 140 174 226 284 343 399
#     4  12  25  45  68 102 138 181 224 283 342 410
#     4  12  24  42  70 103 135 182 229 295 336 412
#     4  12  23  40  72 102 132 180 242 278 344 397
#
# _framework density 20.094080000000002
#
# number of rings (size 3 to 8) (size 9 to 14) (size 15 to 20)
#    0.000    0.571    5.714    4.286    2.000    1.143 
#    0.000    0.000    0.000    0.000    0.000    0.000 
#    0.000    0.000    0.000    0.000    0.000    0.000 
#
# Total GULP energy -347377.366310 kJ/mol
# GULP energy per Si atom -12406.334511 kJ/mol
# Density = 2.004835 g / cm^3
# Si number density = 20.094080 Si / 1000 Ang^3
#
#
#
# Elastic Constant Matrix: (Units=GPa)
#
#
# Indices 1 2 3 4 5 6 
#
# 1 117.0767 13.6202 35.3889 0.0000 0.0000 0.0000
# 2 13.6202 82.9534 38.4327 0.0000 0.0000 0.0000
# 3 35.3889 38.4327 112.0529 0.0000 0.0000 0.0000
# 4 0.0000 0.0000 0.0000 38.6064 0.0000 0.0000
# 5 0.0000 0.0000 0.0000 0.0000 23.9853 0.0000
# 6 0.0000 0.0000 0.0000 0.0000 0.0000 23.6284
#
#
#
# Elastic Compliance Matrix: (Units=1/GPa)
#
#
# Indices 1 2 3 4 5 6 
#
# 1 0.009446 -0.000201 -0.002914 0.000000 0.000000 0.000000
# 2 -0.000201 0.014337 -0.004854 0.000000 0.000000 0.000000
# 3 -0.002914 -0.004854 0.011510 0.000000 0.000000 0.000000
# 4 0.000000 0.000000 0.000000 0.025902 0.000000 0.000000
# 5 0.000000 0.000000 0.000000 0.000000 0.041692 0.000000
# 6 0.000000 0.000000 0.000000 0.000000 0.000000 0.042322
#
#
# Mechanical properties :
#
#
# Convention : Reuss Voigt Hill
#
# Bulk Modulus (GPa) = 51.66850 54.10739 52.88794
# Shear Modulus (GPa) = 29.83327 32.22008 31.02668
#
# Velocity S-wave (km/s) = 3.85733 4.00867 3.93373
# Velocity P-wave (km/s) = 6.75336 6.95783 6.85635
#
# Compressibility (1/GPa) = 0.01935415
#
# Stress axis : x y z
#
# Youngs Moduli (GPa) = 105.86858 69.75067 86.88390
#
# Poissons Ratio (x) = 0.01400 0.25321
# Poissons Ratio (y) = 0.02124 0.42173
# Poissons Ratio (z) = 0.30854 0.33857
#
# Static dielectric constant tensor:
#      x y z
#    x 3.760910 0.000000 0.000000 
#    y 0.000000 3.828850 0.000000 
#    z 0.000000 0.000000 3.646930 
# 
# 
# High freq. dielectric constant tensor:
#      x y z
#    x 1.788390 0.000000 0.000000 
#    y 0.000000 1.791960 0.000000 
#    z 0.000000 0.000000 1.790670 
# 
# From -- ./inp_files/4364.got.cif
#   From: 2010.03.12/outbox.cif.g09.slc.cpg/sg33_3_cif.got.tgz:4364.got - 2010.04.14 01:49:19.
