data_PCOD8171889
_publ_section_title
;
Structure prediction by ZEFSAII (Michael W. Deem and Ramdas Pophale) SiO2 
 PCOD8171889
Probable space group: P N N 2
;
_chemical_formula_sum "Si O2"
_cell_formula_units_Z 24
_cell_length_a 8.969932
_cell_length_b 10.991772
_cell_length_c 10.945107
_cell_angle_alpha 90.000000
_cell_angle_beta 90.000000
_cell_angle_gamma 90.000000
_cell_volume 1079.137722
_symmetry_space_group_name_H-M "P N N 2"
_symmetry_group_IT_number 34
_symmetry_cell_setting 'orthorhombic'
loop_
_space_group_symop_operation_xyz
x,y,z
-x,-y,z
1/2-x,1/2+y,1/2+z
1/2+x,1/2-y,1/2+z
loop_
_atom_site_type_symbol
_atom_site_label
_atom_site_fract_x
_atom_site_fract_y
_atom_site_fract_z
Si Si1 0.005879 0.858190 0.700820
Si Si2 0.123611 0.853859 0.365904
Si Si3 0.445562 0.262647 0.454495
Si Si4 0.747860 0.282655 0.566332
Si Si5 0.171577 0.107275 0.466958
Si Si6 0.835578 0.043130 0.117928
O O1 0.969356 0.791435 0.828232
O O2 0.167478 0.804121 0.662071
O O3 0.883047 0.833483 0.595500
O O4 0.000000 0.000000 0.730027
O O5 0.183574 0.731790 0.429514
O O6 0.208491 0.878121 0.238223
O O7 0.941590 0.847840 0.358199
O O8 0.163523 0.960532 0.466102
O O9 0.572362 0.244885 0.558582
O O10 0.341419 0.144608 0.440207
O O11 0.335644 0.373247 0.496484
O O12 0.769747 0.425384 0.600717
O O13 0.000000 0.000000 0.147921
#
# Coordination Sequence:
#
# PCOD8171889 Si02
#       6
#     4   4   4   4   4   4
#     4  11  21  43  64  89 131 175 212 267 332 395
#     4  10  19  40  67  87 129 178 216 264 336 404
#     4  11  25  37  66 100 131 164 224 277 330 393
#     4  10  22  40  65  98 123 176 220 268 326 407
#     4  10  20  40  63  93 124 174 217 260 330 397
#     4  10  20  39  64  93 130 169 215 267 338 392
#
# _framework density 22.239979999999999
#
# number of rings (size 3 to 8) (size 9 to 14) (size 15 to 20)
#    0.000    1.667    5.000    2.500    4.667    0.667 
#    0.000    3.333    0.000    4.000    0.000    0.000 
#    0.000    0.000    0.000    0.000    0.000    0.000 
#
# Total GULP energy -297365.774744 kJ/mol
# GULP energy per Si atom -12390.240614 kJ/mol
# Density = 2.218936 g / cm^3
# Si number density = 22.239980 Si / 1000 Ang^3
#
#
#
# Elastic Constant Matrix: (Units=GPa)
#
#
# Indices 1 2 3 4 5 6 
#
# 1 51.0374 8.1353 2.7202 0.0000 0.0000 0.0000
# 2 8.1353 33.8993 19.3166 0.0000 0.0000 0.0000
# 3 2.7202 19.3166 111.9827 0.0000 0.0000 0.0000
# 4 0.0000 0.0000 0.0000 38.9187 0.0000 0.0000
# 5 0.0000 0.0000 0.0000 0.0000 21.7507 0.0000
# 6 0.0000 0.0000 0.0000 0.0000 0.0000 35.6063
#
#
#
# Elastic Compliance Matrix: (Units=1/GPa)
#
#
# Indices 1 2 3 4 5 6 
#
# 1 0.020388 -0.005113 0.000387 0.000000 0.000000 0.000000
# 2 -0.005113 0.033997 -0.005740 0.000000 0.000000 0.000000
# 3 0.000387 -0.005740 0.009911 0.000000 0.000000 0.000000
# 4 0.000000 0.000000 0.000000 0.025695 0.000000 0.000000
# 5 0.000000 0.000000 0.000000 0.000000 0.045975 0.000000
# 6 0.000000 0.000000 0.000000 0.000000 0.000000 0.028085
#
#
# Mechanical properties :
#
#
# Convention : Reuss Voigt Hill
#
# Bulk Modulus (GPa) = 23.06137 28.58485 25.82311
# Shear Modulus (GPa) = 25.07045 30.37163 27.72104
#
# Velocity S-wave (km/s) = 3.36113 3.69946 3.53434
# Velocity P-wave (km/s) = 5.04527 5.57932 5.31900
#
# Compressibility (1/GPa) = 0.04336255
#
# Stress axis : x y z
#
# Youngs Moduli (GPa) = 49.04870 29.41431 100.90084
#
# Poissons Ratio (x) = 0.15040 -0.03902
# Poissons Ratio (y) = 0.25079 0.57919
# Poissons Ratio (z) = -0.01897 0.16884
#
# Static dielectric constant tensor:
#      x y z
#    x 3.752250 0.000000 0.000000 
#    y 0.000000 3.995820 0.000000 
#    z 0.000000 0.000000 4.027850 
# 
# 
# High freq. dielectric constant tensor:
#      x y z
#    x 1.849540 0.000000 0.000000 
#    y 0.000000 1.857780 0.000000 
#    z 0.000000 0.000000 1.880860 
# 
# From -- ./inp_files/4922.got.cif
#   From: 2010.03.12/outbox.cif.g09.slc.cpg/sg34_3_cif.got.tgz:4922.got - 2010.04.14 01:56:33.
