data_PCOD8171994
_publ_section_title
;
Structure prediction by ZEFSAII (Michael W. Deem and Ramdas Pophale) SiO2 
 PCOD8171994
Probable space group: P N N 2
;
_chemical_formula_sum "Si O2"
_cell_formula_units_Z 32
_cell_length_a 12.105658
_cell_length_b 8.573642
_cell_length_c 14.672557
_cell_angle_alpha 90.000000
_cell_angle_beta 90.000000
_cell_angle_gamma 90.000000
_cell_volume 1522.858497
_symmetry_space_group_name_H-M "P N N 2"
_symmetry_group_IT_number 34
_symmetry_cell_setting 'orthorhombic'
loop_
_space_group_symop_operation_xyz
x,y,z
-x,-y,z
1/2-x,1/2+y,1/2+z
1/2+x,1/2-y,1/2+z
loop_
_atom_site_type_symbol
_atom_site_label
_atom_site_fract_x
_atom_site_fract_y
_atom_site_fract_z
Si Si1 0.111301 0.309135 0.955600
Si Si2 0.994677 0.820177 0.316352
Si Si3 0.228011 0.578661 0.042032
Si Si4 0.299202 0.820014 0.911451
Si Si5 0.908445 0.128655 0.617743
Si Si6 0.475357 0.179372 0.630226
Si Si7 0.557096 0.665023 0.326700
Si Si8 0.846594 0.338094 0.455352
O O1 0.218684 0.203768 0.942948
O O2 0.026763 0.292633 0.870218
O O3 0.149913 0.489015 0.967708
O O4 0.051265 0.257980 0.048570
O O5 0.875179 0.742476 0.330417
O O6 0.013278 0.803723 0.209577
O O7 0.090000 0.728739 0.368711
O O8 0.000000 0.000000 0.345817
O O9 0.290419 0.457365 0.108009
O O10 0.152646 0.689983 0.102835
O O11 0.312604 0.689253 0.989427
O O12 0.174079 0.836696 0.877543
O O13 0.352006 0.975507 0.954087
O O14 0.925834 0.197243 0.719044
O O15 0.905864 0.272309 0.546586
O O16 0.000000 0.000000 0.592130
O O17 0.500000 0.000000 0.658849
O O18 0.500000 0.500000 0.342797
#
# Coordination Sequence:
#
# PCOD8171994 Si02
#       8
#     4   4   4   4   4   4   4   4
#     4  10  21  42  69  96 132 173 219 275 345 399
#     4  12  27  43  64  97 136 175 226 279 338 400
#     4  10  22  40  68  95 134 178 221 276 339 409
#     4  12  24  41  70  97 133 175 228 275 347 401
#     4  10  23  42  69  93 140 183 226 273 349 408
#     4  10  22  40  66  98 130 171 220 276 333 398
#     4  11  23  41  68 105 135 177 226 288 339 412
#     4  11  23  42  71  94 133 176 226 283 335 401
#
# _framework density 21.013114999999999
#
# number of rings (size 3 to 8) (size 9 to 14) (size 15 to 20)
#    0.000    1.250    2.500    3.750    7.000    1.500 
#    0.000    0.000   11.000    0.000    0.000    0.000 
#    0.000    0.000    0.000    0.000    0.000    0.000 
#
# Total GULP energy -396780.533308 kJ/mol
# GULP energy per Si atom -12399.391666 kJ/mol
# Density = 2.096529 g / cm^3
# Si number density = 21.013115 Si / 1000 Ang^3
#
#
#
# Elastic Constant Matrix: (Units=GPa)
#
#
# Indices 1 2 3 4 5 6 
#
# 1 112.3803 41.7285 55.0360 0.0000 0.0000 0.0000
# 2 41.7285 98.1826 53.7133 0.0000 0.0000 0.0000
# 3 55.0360 53.7133 134.8418 0.0000 0.0000 0.0000
# 4 0.0000 0.0000 0.0000 23.2650 0.0000 0.0000
# 5 0.0000 0.0000 0.0000 0.0000 22.2455 0.0000
# 6 0.0000 0.0000 0.0000 0.0000 0.0000 33.8872
#
#
#
# Elastic Compliance Matrix: (Units=1/GPa)
#
#
# Indices 1 2 3 4 5 6 
#
# 1 0.011791 -0.003041 -0.003601 0.000000 0.000000 0.000000
# 2 -0.003041 0.013808 -0.004259 0.000000 0.000000 0.000000
# 3 -0.003601 -0.004259 0.010582 0.000000 0.000000 0.000000
# 4 0.000000 0.000000 0.000000 0.042983 0.000000 0.000000
# 5 0.000000 0.000000 0.000000 0.000000 0.044953 0.000000
# 6 0.000000 0.000000 0.000000 0.000000 0.000000 0.029510
#
#
# Mechanical properties :
#
#
# Convention : Reuss Voigt Hill
#
# Bulk Modulus (GPa) = 69.54751 71.81781 70.68266
# Shear Modulus (GPa) = 27.74352 28.87466 28.30909
#
# Velocity S-wave (km/s) = 3.63753 3.71094 3.67442
# Velocity P-wave (km/s) = 7.12820 7.25350 7.19112
#
# Compressibility (1/GPa) = 0.01437866
#
# Stress axis : x y z
#
# Youngs Moduli (GPa) = 84.80894 72.42392 94.49661
#
# Poissons Ratio (x) = 0.22026 0.34029
# Poissons Ratio (y) = 0.25793 0.40245
# Poissons Ratio (z) = 0.30541 0.30844
#
# Static dielectric constant tensor:
#      x y z
#    x 4.054760 0.000000 0.000000 
#    y 0.000000 3.707410 0.000000 
#    z 0.000000 0.000000 3.688840 
# 
# 
# High freq. dielectric constant tensor:
#      x y z
#    x 1.844940 0.000000 0.000000 
#    y 0.000000 1.815100 0.000000 
#    z 0.000000 0.000000 1.814090 
# 
# From -- ./inp_files/6831.got.cif
#   From: 2010.03.12/outbox.cif.g09.slc.cpg/sg34_4_cif.got.tgz:6831.got - 2010.04.14 01:56:33.
