data_PCOD8171129
_publ_section_title
;
Structure prediction by ZEFSAII (Michael W. Deem and Ramdas Pophale) SiO2 
 PCOD8171129
Probable space group: P N A 21
;
_chemical_formula_sum "Si O2"
_cell_formula_units_Z 28
_cell_length_a 12.393574
_cell_length_b 5.074043
_cell_length_c 18.407032
_cell_angle_alpha 90.000000
_cell_angle_beta 90.000000
_cell_angle_gamma 90.000000
_cell_volume 1157.535915
_symmetry_space_group_name_H-M "P N A 21"
_symmetry_group_IT_number 33
_symmetry_cell_setting 'orthorhombic'
loop_
_space_group_symop_operation_xyz
x,y,z
-x,-y,1/2+z
1/2-x,1/2+y,1/2+z
1/2+x,1/2-y,z
loop_
_atom_site_type_symbol
_atom_site_label
_atom_site_fract_x
_atom_site_fract_y
_atom_site_fract_z
Si Si1 0.127459 0.507070 0.733710
Si Si2 0.308734 0.258699 0.642906
Si Si3 0.556206 0.230114 0.142850
Si Si4 0.194064 0.238718 0.499097
Si Si5 0.553607 0.757517 0.498382
Si Si6 0.950565 0.322001 0.835551
Si Si7 0.804817 0.827896 0.836261
O O1 0.195494 0.313707 0.681907
O O2 0.202260 0.694758 0.783532
O O3 0.057864 0.703774 0.683693
O O4 0.054087 0.317158 0.783541
O O5 0.394135 0.487423 0.659830
O O6 0.290539 0.220878 0.556749
O O7 0.361029 0.990082 0.673226
O O8 0.539928 0.186197 0.056584
O O9 0.150093 0.534363 0.504610
O O10 0.239692 0.175135 0.418803
O O11 0.099333 0.031852 0.516894
O O12 0.505146 0.773406 0.417256
O O13 0.892053 0.600844 0.825467
O O14 0.864225 0.099445 0.815018
#
# Coordination Sequence:
#
# PCOD8171129 Si02
#       7
#     4   4   4   4   4   4   4
#     4  12  26  46  70 102 143 191 221 298 356 410
#     4  12  27  43  71 104 141 181 237 284 348 422
#     4  12  27  43  70 105 139 181 238 282 347 423
#     4  10  21  45  71  99 134 181 228 289 342 415
#     4  10  21  45  71  99 136 179 229 288 341 414
#     4  10  24  45  69 101 136 177 235 285 344 421
#     4  10  24  45  70 100 139 176 236 284 346 421
#
# _framework density 24.189314
#
# number of rings (size 3 to 8) (size 9 to 14) (size 15 to 20)
#    0.000    1.143    1.429    3.429    2.000    3.429 
#    0.000    0.000    0.000    0.000    0.000    0.000 
#    0.000    0.000    0.000    0.000    0.000    0.000 
#
# Total GULP energy -347385.222530 kJ/mol
# GULP energy per Si atom -12406.615090 kJ/mol
# Density = 2.413426 g / cm^3
# Si number density = 24.189314 Si / 1000 Ang^3
#
#
#
# Elastic Constant Matrix: (Units=GPa)
#
#
# Indices 1 2 3 4 5 6 
#
# 1 102.0245 16.3697 72.7217 0.0000 0.0000 0.0000
# 2 16.3697 88.6357 30.6959 0.0000 0.0000 0.0000
# 3 72.7217 30.6959 138.1360 0.0000 0.0000 0.0000
# 4 0.0000 0.0000 0.0000 21.7710 0.0000 0.0000
# 5 0.0000 0.0000 0.0000 0.0000 52.4417 0.0000
# 6 0.0000 0.0000 0.0000 0.0000 0.0000 25.1796
#
#
#
# Elastic Compliance Matrix: (Units=1/GPa)
#
#
# Indices 1 2 3 4 5 6 
#
# 1 0.015689 -0.000040 -0.008250 0.000000 0.000000 0.000000
# 2 -0.000040 0.012223 -0.002695 0.000000 0.000000 0.000000
# 3 -0.008250 -0.002695 0.012182 0.000000 0.000000 0.000000
# 4 0.000000 0.000000 0.000000 0.045933 0.000000 0.000000
# 5 0.000000 0.000000 0.000000 0.000000 0.019069 0.000000
# 6 0.000000 0.000000 0.000000 0.000000 0.000000 0.039715
#
#
# Mechanical properties :
#
#
# Convention : Reuss Voigt Hill
#
# Bulk Modulus (GPa) = 55.18148 63.15231 59.16689
# Shear Modulus (GPa) = 28.93164 33.81240 31.37202
#
# Velocity S-wave (km/s) = 3.46215 3.74280 3.60521
# Velocity P-wave (km/s) = 6.23248 6.69644 6.46862
#
# Compressibility (1/GPa) = 0.01812202
#
# Stress axis : x y z
#
# Youngs Moduli (GPa) = 63.73959 81.81397 82.09142
#
# Poissons Ratio (x) = 0.00329 0.67729
# Poissons Ratio (y) = 0.00257 0.22123
# Poissons Ratio (z) = 0.52588 0.22048
#
# Static dielectric constant tensor:
#      x y z
#    x 4.046060 0.000000 0.000000 
#    y 0.000000 4.242120 0.000000 
#    z 0.000000 0.000000 4.916140 
# 
# 
# High freq. dielectric constant tensor:
#      x y z
#    x 1.941480 0.000000 0.000000 
#    y 0.000000 1.963060 0.000000 
#    z 0.000000 0.000000 1.990850 
# 
# From -- ./inp_files/9074.got.cif
#   From: 2010.03.12/outbox.cif.g09.slc.cpg/sg33_5_cif.got.tgz:9074.got - 2010.04.14 01:49:19.
