data_PCOD8171649
_publ_section_title
;
Structure prediction by ZEFSAII (Michael W. Deem and Ramdas Pophale) SiO2 
 PCOD8171649
Probable space group: P N A 21
;
_chemical_formula_sum "Si O2"
_cell_formula_units_Z 20
_cell_length_a 13.718001
_cell_length_b 8.943781
_cell_length_c 8.084197
_cell_angle_alpha 90.000000
_cell_angle_beta 90.000000
_cell_angle_gamma 90.000000
_cell_volume 991.856571
_symmetry_space_group_name_H-M "P N A 21"
_symmetry_group_IT_number 33
_symmetry_cell_setting 'orthorhombic'
loop_
_space_group_symop_operation_xyz
x,y,z
-x,-y,1/2+z
1/2-x,1/2+y,1/2+z
1/2+x,1/2-y,z
loop_
_atom_site_type_symbol
_atom_site_label
_atom_site_fract_x
_atom_site_fract_y
_atom_site_fract_z
Si Si1 0.953875 0.928688 0.686590
Si Si2 0.294529 0.437051 0.507895
Si Si3 0.943526 0.303342 0.398405
Si Si4 0.411797 0.940753 0.146479
Si Si5 0.916973 0.846439 0.338766
O O1 0.977413 0.846326 0.512117
O O2 0.976833 0.821474 0.841479
O O3 0.842025 0.990930 0.676821
O O4 0.019336 0.078303 0.694284
O O5 0.345415 0.277120 0.465321
O O6 0.179036 0.427691 0.521339
O O7 0.318490 0.554011 0.359239
O O8 0.917831 0.399887 0.235828
O O9 0.990806 0.406444 0.541189
O O10 0.392665 0.821629 0.291138
#
# Coordination Sequence:
#
# PCOD8171649 Si02
#       5
#     4   4   4   4   4
#     4   9  18  42  62  86 124 166 210 242 331 374
#     4   9  23  39  62  91 125 171 208 244 330 380
#     4  11  24  41  65  96 127 165 212 269 316 367
#     4  12  23  41  65  96 132 157 222 268 310 371
#     4   9  18  39  62  89 120 173 198 265 309 374
#
# _framework density 20.164204000000002
#
# number of rings (size 3 to 8) (size 9 to 14) (size 15 to 20)
#    1.200    0.800    2.000    1.200    2.800    1.600 
#    3.600    2.000    0.000    0.000    0.000    0.000 
#    0.000    0.000    0.000    0.000    0.000    0.000 
#
# Total GULP energy -247762.377019 kJ/mol
# GULP energy per Si atom -12388.118851 kJ/mol
# Density = 2.011831 g / cm^3
# Si number density = 20.164204 Si / 1000 Ang^3
#
#
#
# Elastic Constant Matrix: (Units=GPa)
#
#
# Indices 1 2 3 4 5 6 
#
# 1 67.7383 21.0998 14.3463 0.0000 0.0000 0.0000
# 2 21.0998 81.6489 13.8572 0.0000 0.0000 0.0000
# 3 14.3463 13.8572 59.8038 0.0000 0.0000 0.0000
# 4 0.0000 0.0000 0.0000 40.7655 0.0000 0.0000
# 5 0.0000 0.0000 0.0000 0.0000 26.1738 0.0000
# 6 0.0000 0.0000 0.0000 0.0000 0.0000 22.1154
#
#
#
# Elastic Compliance Matrix: (Units=1/GPa)
#
#
# Indices 1 2 3 4 5 6 
#
# 1 0.016592 -0.003760 -0.003109 0.000000 0.000000 0.000000
# 2 -0.003760 0.013601 -0.002249 0.000000 0.000000 0.000000
# 3 -0.003109 -0.002249 0.017988 0.000000 0.000000 0.000000
# 4 0.000000 0.000000 0.000000 0.024531 0.000000 0.000000
# 5 0.000000 0.000000 0.000000 0.000000 0.038206 0.000000
# 6 0.000000 0.000000 0.000000 0.000000 0.000000 0.045217
#
#
# Mechanical properties :
#
#
# Convention : Reuss Voigt Hill
#
# Bulk Modulus (GPa) = 33.39521 34.19974 33.79747
# Shear Modulus (GPa) = 27.12159 28.47011 27.79585
#
# Velocity S-wave (km/s) = 3.67145 3.76162 3.71681
# Velocity P-wave (km/s) = 5.87965 5.98864 5.93440
#
# Compressibility (1/GPa) = 0.02994442
#
# Stress axis : x y z
#
# Youngs Moduli (GPa) = 60.26846 73.52372 55.59134
#
# Poissons Ratio (x) = 0.27646 0.17284
# Poissons Ratio (y) = 0.22662 0.12505
# Poissons Ratio (z) = 0.18738 0.16539
#
# Static dielectric constant tensor:
#      x y z
#    x 3.244350 0.000000 0.000000 
#    y 0.000000 3.704910 0.000000 
#    z 0.000000 0.000000 3.424320 
# 
# 
# High freq. dielectric constant tensor:
#      x y z
#    x 1.753330 0.000000 0.000000 
#    y 0.000000 1.797190 0.000000 
#    z 0.000000 0.000000 1.779520 
# 
# From -- ./inp_files/3663.got.cif
#   From: 2010.03.12/outbox.cif.g09.slc.cpg/sg33_2_cif.got.tgz:3663.got - 2010.04.14 01:49:19.
