data_PCOD8171161
_publ_section_title
;
Structure prediction by ZEFSAII (Michael W. Deem and Ramdas Pophale) SiO2 
 PCOD8171161
Probable space group: P N A 21
;
_chemical_formula_sum "Si O2"
_cell_formula_units_Z 28
_cell_length_a 9.166722
_cell_length_b 7.535068
_cell_length_c 16.563655
_cell_angle_alpha 90.000000
_cell_angle_beta 90.000000
_cell_angle_gamma 90.000000
_cell_volume 1144.082685
_symmetry_space_group_name_H-M "P N A 21"
_symmetry_group_IT_number 33
_symmetry_cell_setting 'orthorhombic'
loop_
_space_group_symop_operation_xyz
x,y,z
-x,-y,1/2+z
1/2-x,1/2+y,1/2+z
1/2+x,1/2-y,z
loop_
_atom_site_type_symbol
_atom_site_label
_atom_site_fract_x
_atom_site_fract_y
_atom_site_fract_z
Si Si1 0.890310 0.318148 0.130440
Si Si2 0.393929 0.482841 0.425982
Si Si3 0.878932 0.709112 0.899038
Si Si4 0.418549 0.528169 0.234328
Si Si5 0.652584 0.976740 0.862850
Si Si6 0.241076 0.850483 0.215373
Si Si7 0.851195 0.678142 0.521349
O O1 0.812237 0.492953 0.163416
O O2 0.913176 0.170117 0.199193
O O3 0.803326 0.234271 0.056030
O O4 0.045767 0.379569 0.095134
O O5 0.230702 0.414439 0.451555
O O6 0.515623 0.336657 0.452459
O O7 0.403065 0.510937 0.330149
O O8 0.428513 0.660744 0.473345
O O9 0.771662 0.823779 0.841303
O O10 0.986690 0.586816 0.844697
O O11 0.291845 0.650391 0.192389
O O12 0.568326 0.628913 0.211598
O O13 0.693638 0.140706 0.806724
O O14 0.669572 0.018951 0.957888
#
# Coordination Sequence:
#
# PCOD8171161 Si02
#       7
#     4   4   4   4   4   4   4
#     4  12  28  52  72 108 162 196 242 308 399 435
#     4  11  23  45  74 110 145 191 259 302 371 438
#     4  10  22  39  68 111 140 184 236 322 351 432
#     4  12  28  49  77 110 150 203 254 305 370 465
#     4  11  23  45  74 108 143 189 255 303 369 435
#     4  12  28  49  77 110 148 205 251 308 373 459
#     4  12  26  49  72 107 152 196 237 318 375 442
#
# _framework density 24.473755000000001
#
# number of rings (size 3 to 8) (size 9 to 14) (size 15 to 20)
#    0.000    0.571    4.286    3.429    4.000    0.000 
#   15.429    0.000    0.000    0.000    0.000    0.000 
#    0.000    0.000    0.000    0.000    0.000    0.000 
#
# Total GULP energy -347112.489594 kJ/mol
# GULP energy per Si atom -12396.874628 kJ/mol
# Density = 2.441805 g / cm^3
# Si number density = 24.473755 Si / 1000 Ang^3
#
#
#
# Elastic Constant Matrix: (Units=GPa)
#
#
# Indices 1 2 3 4 5 6 
#
# 1 130.9482 16.1882 9.9106 0.0000 0.0000 0.0000
# 2 16.1882 65.8974 14.9850 0.0000 0.0000 0.0000
# 3 9.9106 14.9850 81.7258 0.0000 0.0000 0.0000
# 4 0.0000 0.0000 0.0000 31.5034 0.0000 0.0000
# 5 0.0000 0.0000 0.0000 0.0000 27.5964 0.0000
# 6 0.0000 0.0000 0.0000 0.0000 0.0000 40.1437
#
#
#
# Elastic Compliance Matrix: (Units=1/GPa)
#
#
# Indices 1 2 3 4 5 6 
#
# 1 0.007907 -0.001799 -0.000629 0.000000 0.000000 0.000000
# 2 -0.001799 0.016245 -0.002760 0.000000 0.000000 0.000000
# 3 -0.000629 -0.002760 0.012818 0.000000 0.000000 0.000000
# 4 0.000000 0.000000 0.000000 0.031743 0.000000 0.000000
# 5 0.000000 0.000000 0.000000 0.000000 0.036237 0.000000
# 6 0.000000 0.000000 0.000000 0.000000 0.000000 0.024911
#
#
# Mechanical properties :
#
#
# Convention : Reuss Voigt Hill
#
# Bulk Modulus (GPa) = 37.60430 40.08209 38.84319
# Shear Modulus (GPa) = 33.53429 35.68120 34.60775
#
# Velocity S-wave (km/s) = 3.70566 3.82244 3.76450
# Velocity P-wave (km/s) = 5.80583 5.99120 5.89925
#
# Compressibility (1/GPa) = 0.02659270
#
# Stress axis : x y z
#
# Youngs Moduli (GPa) = 126.47594 61.55800 78.01261
#
# Poissons Ratio (x) = 0.11076 0.04906
# Poissons Ratio (y) = 0.22757 0.21535
# Poissons Ratio (z) = 0.07954 0.16992
#
# Static dielectric constant tensor:
#      x y z
#    x 4.683080 0.000000 0.000000 
#    y 0.000000 4.577230 0.000000 
#    z 0.000000 0.000000 4.071460 
# 
# 
# High freq. dielectric constant tensor:
#      x y z
#    x 1.992050 0.000000 0.000000 
#    y 0.000000 1.984630 0.000000 
#    z 0.000000 0.000000 1.939440 
# 
# From -- ./inp_files/8464.got.cif
#   From: 2010.03.12/outbox.cif.g09.slc.cpg/sg33_5_cif.got.tgz:8464.got - 2010.04.14 01:49:19.
