data_PCOD8171428
_publ_section_title
;
Structure prediction by ZEFSAII (Michael W. Deem and Ramdas Pophale) SiO2 
 PCOD8171428
Probable space group: P N A 21
;
_chemical_formula_sum "Si O2"
_cell_formula_units_Z 28
_cell_length_a 10.188611
_cell_length_b 16.418611
_cell_length_c 7.832965
_cell_angle_alpha 90.000000
_cell_angle_beta 90.000000
_cell_angle_gamma 90.000000
_cell_volume 1310.320636
_symmetry_space_group_name_H-M "P N A 21"
_symmetry_group_IT_number 33
_symmetry_cell_setting 'orthorhombic'
loop_
_space_group_symop_operation_xyz
x,y,z
-x,-y,1/2+z
1/2-x,1/2+y,1/2+z
1/2+x,1/2-y,z
loop_
_atom_site_type_symbol
_atom_site_label
_atom_site_fract_x
_atom_site_fract_y
_atom_site_fract_z
Si Si1 0.152305 0.508451 0.683550
Si Si2 0.772990 0.820374 0.748042
Si Si3 0.606782 0.537249 0.972211
Si Si4 0.049790 0.147038 0.944904
Si Si5 0.141401 0.486649 0.071707
Si Si6 0.858984 0.883481 0.106377
Si Si7 0.820676 0.147770 0.174838
O O1 0.181850 0.604925 0.688787
O O2 0.254823 0.455700 0.572188
O O3 0.008778 0.492840 0.608743
O O4 0.162781 0.474210 0.872387
O O5 0.883270 0.807821 0.603941
O O6 0.692789 0.737047 0.753947
O O7 0.835615 0.832691 0.934160
O O8 0.594542 0.445098 0.915387
O O9 0.593995 0.596578 0.810181
O O10 0.484558 0.557308 0.093021
O O11 0.101651 0.180884 0.760258
O O12 0.895020 0.152094 0.990175
O O13 0.230980 0.560432 0.145276
O O14 0.182938 0.400305 0.154957
#
# Coordination Sequence:
#
# PCOD8171428 Si02
#       7
#     4   4   4   4   4   4   4
#     4  10  24  41  63  96 134 176 223 278 342 402
#     4  10  26  43  61  97 141 174 214 286 343 405
#     4  11  20  41  71 100 126 174 234 280 320 406
#     4  11  21  42  69  96 128 177 231 273 324 409
#     4  11  22  39  67  96 128 174 227 278 331 405
#     4  11  22  43  70  98 130 173 232 274 330 403
#     4  12  23  41  71  97 135 176 221 283 350 390
#
# _framework density 21.368815000000001
#
# number of rings (size 3 to 8) (size 9 to 14) (size 15 to 20)
#    0.000    1.143    4.286    1.714    6.000    0.000 
#    5.143    0.000    0.000    0.000    0.000    0.000 
#    0.000    0.000    0.000    0.000    0.000    0.000 
#
# Total GULP energy -347070.983850 kJ/mol
# GULP energy per Si atom -12395.392280 kJ/mol
# Density = 2.132018 g / cm^3
# Si number density = 21.368815 Si / 1000 Ang^3
#
#
#
# Elastic Constant Matrix: (Units=GPa)
#
#
# Indices 1 2 3 4 5 6 
#
# 1 127.9696 9.5055 33.8044 0.0000 0.0000 0.0000
# 2 9.5055 65.1062 28.9741 0.0000 0.0000 0.0000
# 3 33.8044 28.9741 123.2642 0.0000 0.0000 0.0000
# 4 0.0000 0.0000 0.0000 19.5166 0.0000 0.0000
# 5 0.0000 0.0000 0.0000 0.0000 43.0297 0.0000
# 6 0.0000 0.0000 0.0000 0.0000 0.0000 17.1389
#
#
#
# Elastic Compliance Matrix: (Units=1/GPa)
#
#
# Indices 1 2 3 4 5 6 
#
# 1 0.008428 -0.000225 -0.002258 0.000000 0.000000 0.000000
# 2 -0.000225 0.017160 -0.003972 0.000000 0.000000 0.000000
# 3 -0.002258 -0.003972 0.009666 0.000000 0.000000 0.000000
# 4 0.000000 0.000000 0.000000 0.051239 0.000000 0.000000
# 5 0.000000 0.000000 0.000000 0.000000 0.023240 0.000000
# 6 0.000000 0.000000 0.000000 0.000000 0.000000 0.058347
#
#
# Mechanical properties :
#
#
# Convention : Reuss Voigt Hill
#
# Bulk Modulus (GPa) = 44.75813 51.21200 47.98507
# Shear Modulus (GPa) = 26.53415 32.20744 29.37080
#
# Velocity S-wave (km/s) = 3.52763 3.88650 3.71141
# Velocity P-wave (km/s) = 6.13052 6.64512 6.39300
#
# Compressibility (1/GPa) = 0.02234231
#
# Stress axis : x y z
#
# Youngs Moduli (GPa) = 118.65719 58.27514 103.46028
#
# Poissons Ratio (x) = 0.01314 0.23364
# Poissons Ratio (y) = 0.02675 0.41092
# Poissons Ratio (z) = 0.26796 0.23145
#
# Static dielectric constant tensor:
#      x y z
#    x 4.346020 0.000000 0.000000 
#    y 0.000000 3.484900 0.000000 
#    z 0.000000 0.000000 4.166870 
# 
# 
# High freq. dielectric constant tensor:
#      x y z
#    x 1.841700 0.000000 0.000000 
#    y 0.000000 1.800790 0.000000 
#    z 0.000000 0.000000 1.857320 
# 
# From -- ./inp_files/3336.got.cif
#   From: 2010.03.12/outbox.cif.g09.slc.cpg/sg33_2_cif.got.tgz:3336.got - 2010.04.14 01:49:19.
