data_PCOD8171482
_publ_section_title
;
Structure prediction by ZEFSAII (Michael W. Deem and Ramdas Pophale) SiO2 
 PCOD8171482
Probable space group: P N A 21
;
_chemical_formula_sum "Si O2"
_cell_formula_units_Z 20
_cell_length_a 17.431865
_cell_length_b 5.483117
_cell_length_c 7.395271
_cell_angle_alpha 90.000000
_cell_angle_beta 90.000000
_cell_angle_gamma 90.000000
_cell_volume 706.847067
_symmetry_space_group_name_H-M "P N A 21"
_symmetry_group_IT_number 33
_symmetry_cell_setting 'orthorhombic'
loop_
_space_group_symop_operation_xyz
x,y,z
-x,-y,1/2+z
1/2-x,1/2+y,1/2+z
1/2+x,1/2-y,z
loop_
_atom_site_type_symbol
_atom_site_label
_atom_site_fract_x
_atom_site_fract_y
_atom_site_fract_z
Si Si1 0.648907 0.850869 0.854230
Si Si2 0.500000 0.861211 0.322418
Si Si3 0.148906 0.350868 0.290606
Si Si4 0.083659 0.999998 0.572419
Si Si5 0.738555 0.500000 0.072418
O O1 0.637403 0.615329 0.725271
O O2 0.707155 0.033720 0.749410
O O3 0.568623 0.973887 0.898707
O O4 0.685476 0.742831 0.041033
O O5 0.471998 0.705389 0.152747
O O6 0.528002 0.705395 0.492095
O O7 0.568624 0.026108 0.246126
O O8 0.137399 0.115327 0.419561
O O9 0.207154 0.533718 0.395429
O O10 0.185477 0.242832 0.103804
#
# Coordination Sequence:
#
# PCOD8171482 Si02
#       5
#     4   4   4   4   4
#     4  11  25  50  82 120 162 213 265 337 400 493
#     4  12  26  50  76 114 160 210 276 330 396 484
#     4  11  25  50  82 120 162 213 265 337 400 493
#     4  12  26  45  80 113 156 210 274 324 401 480
#     4  10  24  53  82 121 164 208 264 334 419 482
#
# _framework density 28.294665999999999
#
# number of rings (size 3 to 8) (size 9 to 14) (size 15 to 20)
#    0.000    0.800    4.000    1.200    0.000   11.200 
#    0.000    0.000    0.000    2.400    0.000    0.000 
#    0.000    0.000    0.000    0.000    0.000    0.000 
#
# Total GULP energy -248122.466815 kJ/mol
# GULP energy per Si atom -12406.123341 kJ/mol
# Density = 2.823027 g / cm^3
# Si number density = 28.294666 Si / 1000 Ang^3
#
#
#
# Elastic Constant Matrix: (Units=GPa)
#
#
# Indices 1 2 3 4 5 6 
#
# 1 222.8523 88.4710 64.3224 0.0000 0.0000 0.0000
# 2 88.4710 129.7428 62.3372 0.0000 0.0000 0.0000
# 3 64.3224 62.3372 148.3858 0.0000 0.0000 0.0000
# 4 0.0000 0.0000 0.0000 56.5822 0.0000 0.0000
# 5 0.0000 0.0000 0.0000 0.0000 37.4076 0.0000
# 6 0.0000 0.0000 0.0000 0.0000 0.0000 14.9102
#
#
#
# Elastic Compliance Matrix: (Units=1/GPa)
#
#
# Indices 1 2 3 4 5 6 
#
# 1 0.006309 -0.003744 -0.001162 0.000000 0.000000 0.000000
# 2 -0.003744 0.011878 -0.003367 0.000000 0.000000 0.000000
# 3 -0.001162 -0.003367 0.008658 0.000000 0.000000 0.000000
# 4 0.000000 0.000000 0.000000 0.017673 0.000000 0.000000
# 5 0.000000 0.000000 0.000000 0.000000 0.026733 0.000000
# 6 0.000000 0.000000 0.000000 0.000000 0.000000 0.067068
#
#
# Mechanical properties :
#
#
# Convention : Reuss Voigt Hill
#
# Bulk Modulus (GPa) = 97.10014 103.47134 100.28574
# Shear Modulus (GPa) = 31.58608 40.83668 36.21138
#
# Velocity S-wave (km/s) = 3.34477 3.80315 3.58130
# Velocity P-wave (km/s) = 7.02201 7.47890 7.25405
#
# Compressibility (1/GPa) = 0.01029865
#
# Stress axis : x y z
#
# Youngs Moduli (GPa) = 158.50616 84.18773 115.50664
#
# Poissons Ratio (x) = 0.31517 0.13423
# Poissons Ratio (y) = 0.59340 0.38894
# Poissons Ratio (z) = 0.18419 0.28348
#
# Static dielectric constant tensor:
#      x y z
#    x 5.398460 0.000000 0.000000 
#    y 0.000000 5.211080 0.000000 
#    z 0.000000 0.000000 5.217910 
# 
# 
# High freq. dielectric constant tensor:
#      x y z
#    x 2.166940 0.000000 0.000000 
#    y 0.000000 2.141710 0.000000 
#    z 0.000000 0.000000 2.152370 
# 
# From -- ./inp_files/4555.got.cif
#   From: 2010.03.12/outbox.cif.g09.slc.cpg/sg33_3_cif.got.tgz:4555.got - 2010.04.14 01:49:19.
