data_PCOD8171046
_publ_section_title
;
Structure prediction by ZEFSAII (Michael W. Deem and Ramdas Pophale) SiO2 
 PCOD8171046
Probable space group: P N A 21
;
_chemical_formula_sum "Si O2"
_cell_formula_units_Z 20
_cell_length_a 5.147046
_cell_length_b 18.876441
_cell_length_c 9.709405
_cell_angle_alpha 90.000000
_cell_angle_beta 90.000000
_cell_angle_gamma 90.000000
_cell_volume 943.345499
_symmetry_space_group_name_H-M "P N A 21"
_symmetry_group_IT_number 33
_symmetry_cell_setting 'orthorhombic'
loop_
_space_group_symop_operation_xyz
x,y,z
-x,-y,1/2+z
1/2-x,1/2+y,1/2+z
1/2+x,1/2-y,z
loop_
_atom_site_type_symbol
_atom_site_label
_atom_site_fract_x
_atom_site_fract_y
_atom_site_fract_z
Si Si1 0.285131 0.446662 0.553980
Si Si2 0.879222 0.707208 0.993823
Si Si3 0.521631 0.459025 0.837564
Si Si4 0.613052 0.208050 0.169857
Si Si5 0.507844 0.076016 0.985829
O O1 0.178330 0.367470 0.566159
O O2 0.494958 0.464545 0.673394
O O3 0.433555 0.462935 0.408188
O O4 0.042798 0.501540 0.566349
O O5 0.657038 0.762519 0.041378
O O6 0.886905 0.694747 0.831850
O O7 0.762964 0.408871 0.883466
O O8 0.259639 0.424079 0.892131
O O9 0.397360 0.265678 0.124614
O O10 0.537948 0.134681 0.101416
#
# Coordination Sequence:
#
# PCOD8171046 Si02
#       5
#     4   4   4   4   4
#     4  10  26  41  69  93 135 165 224 267 322 392
#     4  10  24  40  64  95 129 176 212 263 323 388
#     4  10  25  38  66  97 125 167 217 263 334 366
#     4  10  21  40  66  94 130 167 217 265 321 384
#     4  10  24  39  65  95 127 165 218 264 326 374
#
# _framework density 21.201142000000001
#
# number of rings (size 3 to 8) (size 9 to 14) (size 15 to 20)
#    1.200    0.800    0.000    1.200   11.200    1.600 
#    0.000    6.000    0.000    0.000    0.000    0.000 
#    0.000    0.000    0.000    0.000    0.000    0.000 
#
# Total GULP energy -247884.206432 kJ/mol
# GULP energy per Si atom -12394.210322 kJ/mol
# Density = 2.115289 g / cm^3
# Si number density = 21.201142 Si / 1000 Ang^3
#
#
#
# Elastic Constant Matrix: (Units=GPa)
#
#
# Indices 1 2 3 4 5 6 
#
# 1 128.2028 21.1180 17.5228 0.0000 0.0000 0.0000
# 2 21.1180 112.6555 42.6941 0.0000 0.0000 0.0000
# 3 17.5228 42.6941 53.9351 0.0000 0.0000 0.0000
# 4 0.0000 0.0000 0.0000 28.8468 0.0000 0.0000
# 5 0.0000 0.0000 0.0000 0.0000 19.7694 0.0000
# 6 0.0000 0.0000 0.0000 0.0000 0.0000 13.0280
#
#
#
# Elastic Compliance Matrix: (Units=1/GPa)
#
#
# Indices 1 2 3 4 5 6 
#
# 1 0.008207 -0.000754 -0.002069 0.000000 0.000000 0.000000
# 2 -0.000754 0.012750 -0.009848 0.000000 0.000000 0.000000
# 3 -0.002069 -0.009848 0.027008 0.000000 0.000000 0.000000
# 4 0.000000 0.000000 0.000000 0.034666 0.000000 0.000000
# 5 0.000000 0.000000 0.000000 0.000000 0.050583 0.000000
# 6 0.000000 0.000000 0.000000 0.000000 0.000000 0.076758
#
#
# Mechanical properties :
#
#
# Convention : Reuss Voigt Hill
#
# Bulk Modulus (GPa) = 44.20273 50.82927 47.51600
# Shear Modulus (GPa) = 20.58830 26.55940 23.57385
#
# Velocity S-wave (km/s) = 3.11962 3.54324 3.33816
# Velocity P-wave (km/s) = 5.81984 6.38484 6.10888
#
# Compressibility (1/GPa) = 0.02262304
#
# Stress axis : x y z
#
# Youngs Moduli (GPa) = 121.84384 78.43082 37.02555
#
# Poissons Ratio (x) = 0.05916 0.07662
# Poissons Ratio (y) = 0.09190 0.36462
# Poissons Ratio (z) = 0.25214 0.77236
#
# Static dielectric constant tensor:
#      x y z
#    x 4.041200 0.000000 0.000000 
#    y 0.000000 3.542950 0.000000 
#    z 0.000000 0.000000 3.715800 
# 
# 
# High freq. dielectric constant tensor:
#      x y z
#    x 1.848080 0.000000 0.000000 
#    y 0.000000 1.812390 0.000000 
#    z 0.000000 0.000000 1.813840 
# 
# From -- ./inp_files/2651.got.cif
#   From: 2010.03.12/outbox.cif.g09.slc.cpg/sg33_2_cif.got.tgz:2651.got - 2010.04.14 01:49:19.
