data_PCOD8171098
_publ_section_title
;
Structure prediction by ZEFSAII (Michael W. Deem and Ramdas Pophale) SiO2 
 PCOD8171098
Probable space group: P N A 21
;
_chemical_formula_sum "Si O2"
_cell_formula_units_Z 20
_cell_length_a 8.297748
_cell_length_b 9.188190
_cell_length_c 11.153267
_cell_angle_alpha 90.000000
_cell_angle_beta 90.000000
_cell_angle_gamma 90.000000
_cell_volume 850.339410
_symmetry_space_group_name_H-M "P N A 21"
_symmetry_group_IT_number 33
_symmetry_cell_setting 'orthorhombic'
loop_
_space_group_symop_operation_xyz
x,y,z
-x,-y,1/2+z
1/2-x,1/2+y,1/2+z
1/2+x,1/2-y,z
loop_
_atom_site_type_symbol
_atom_site_label
_atom_site_fract_x
_atom_site_fract_y
_atom_site_fract_z
Si Si1 0.489932 0.944248 0.318140
Si Si2 0.722804 0.060678 0.134569
Si Si3 0.569955 0.578724 0.866719
Si Si4 0.202686 0.213307 0.921668
Si Si5 0.236002 0.656759 0.941073
O O1 0.628441 0.863141 0.394899
O O2 0.344309 0.825575 0.313310
O O3 0.552480 0.006325 0.191743
O O4 0.425649 0.081642 0.391318
O O5 0.853559 0.094971 0.235097
O O6 0.699066 0.200523 0.048338
O O7 0.788692 0.918749 0.064856
O O8 0.568578 0.415611 0.921126
O O9 0.388619 0.638299 0.852659
O O10 0.683639 0.675480 0.955077
#
# Coordination Sequence:
#
# PCOD8171098 Si02
#       5
#     4   4   4   4   4
#     4  10  22  42  69 101 134 173 228 273 332 409
#     4  10  24  46  70  97 138 182 216 285 350 388
#     4  11  24  44  69 102 138 179 233 281 337 415
#     4  10  21  42  69  99 132 176 226 272 331 410
#     4  11  25  44  67 103 138 176 233 285 336 414
#
# _framework density 23.520018
#
# number of rings (size 3 to 8) (size 9 to 14) (size 15 to 20)
#    0.000    1.600    0.000    4.800    0.000   12.800 
#    0.000   14.000    0.000    0.000    0.000    0.000 
#    0.000    0.000    0.000    0.000    0.000    0.000 
#
# Total GULP energy -247845.442474 kJ/mol
# GULP energy per Si atom -12392.272124 kJ/mol
# Density = 2.346649 g / cm^3
# Si number density = 23.520018 Si / 1000 Ang^3
#
#
#
# Elastic Constant Matrix: (Units=GPa)
#
#
# Indices 1 2 3 4 5 6 
#
# 1 104.3481 23.4520 43.8425 0.0000 0.0000 0.0000
# 2 23.4520 134.3472 56.4164 0.0000 0.0000 0.0000
# 3 43.8425 56.4164 89.7806 0.0000 0.0000 0.0000
# 4 0.0000 0.0000 0.0000 42.0986 0.0000 0.0000
# 5 0.0000 0.0000 0.0000 0.0000 33.6850 0.0000
# 6 0.0000 0.0000 0.0000 0.0000 0.0000 48.4901
#
#
#
# Elastic Compliance Matrix: (Units=1/GPa)
#
#
# Indices 1 2 3 4 5 6 
#
# 1 0.012082 0.000501 -0.006214 0.000000 0.000000 0.000000
# 2 0.000501 0.010132 -0.006611 0.000000 0.000000 0.000000
# 3 -0.006214 -0.006611 0.018327 0.000000 0.000000 0.000000
# 4 0.000000 0.000000 0.000000 0.023754 0.000000 0.000000
# 5 0.000000 0.000000 0.000000 0.000000 0.029687 0.000000
# 6 0.000000 0.000000 0.000000 0.000000 0.000000 0.020623
#
#
# Mechanical properties :
#
#
# Convention : Reuss Voigt Hill
#
# Bulk Modulus (GPa) = 62.92853 63.98864 63.45859
# Shear Modulus (GPa) = 34.58949 38.50576 36.54762
#
# Velocity S-wave (km/s) = 3.83905 4.05056 3.94622
# Velocity P-wave (km/s) = 6.81649 7.01007 6.91396
#
# Compressibility (1/GPa) = 0.01589104
#
# Stress axis : x y z
#
# Youngs Moduli (GPa) = 82.76878 98.69382 54.56292
#
# Poissons Ratio (x) = -0.04941 0.33908
# Poissons Ratio (y) = -0.04143 0.36074
# Poissons Ratio (z) = 0.51437 0.65251
#
# Static dielectric constant tensor:
#      x y z
#    x 4.295590 0.000000 0.000000 
#    y 0.000000 4.790080 0.000000 
#    z 0.000000 0.000000 3.961440 
# 
# 
# High freq. dielectric constant tensor:
#      x y z
#    x 1.941280 0.000000 0.000000 
#    y 0.000000 1.958970 0.000000 
#    z 0.000000 0.000000 1.895610 
# 
# From -- ./inp_files/5692.got.cif
#   From: 2010.03.12/outbox.cif.g09.slc.cpg/sg33_3_cif.got.tgz:5692.got - 2010.04.14 01:49:19.
