data_PCOD8171913
_publ_section_title
;
Structure prediction by ZEFSAII (Michael W. Deem and Ramdas Pophale) SiO2 
 PCOD8171913
Probable space group: P N N 2
;
_chemical_formula_sum "Si O2"
_cell_formula_units_Z 32
_cell_length_a 11.775020
_cell_length_b 8.507348
_cell_length_c 16.132995
_cell_angle_alpha 90.000000
_cell_angle_beta 90.000000
_cell_angle_gamma 90.000000
_cell_volume 1616.109752
_symmetry_space_group_name_H-M "P N N 2"
_symmetry_group_IT_number 34
_symmetry_cell_setting 'orthorhombic'
loop_
_space_group_symop_operation_xyz
x,y,z
-x,-y,z
1/2-x,1/2+y,1/2+z
1/2+x,1/2-y,1/2+z
loop_
_atom_site_type_symbol
_atom_site_label
_atom_site_fract_x
_atom_site_fract_y
_atom_site_fract_z
Si Si1 0.695744 0.107288 0.099580
Si Si2 0.628430 0.821159 0.508843
Si Si3 0.729319 0.208550 0.871166
Si Si4 0.695074 0.894627 0.942975
Si Si5 0.242445 0.687268 0.688961
Si Si6 0.365551 0.817895 0.534662
Si Si7 0.514197 0.674736 0.127070
Si Si8 0.497972 0.326246 0.936711
O O1 0.596791 0.217051 0.135451
O O2 0.741124 0.000546 0.175465
O O3 0.800818 0.211160 0.070021
O O4 0.653851 0.987745 0.026433
O O5 0.658561 0.781758 0.413247
O O6 0.497675 0.783997 0.523217
O O7 0.662837 0.999715 0.525174
O O8 0.711596 0.274254 0.779981
O O9 0.623183 0.255385 0.930163
O O10 0.736740 0.018789 0.873438
O O11 0.593864 0.795089 0.898784
O O12 0.798945 0.780029 0.965030
O O13 0.329840 0.769183 0.626627
O O14 0.114936 0.748944 0.678914
O O15 0.500000 0.500000 0.164551
O O16 0.546706 0.658370 0.030810
O O17 0.500000 0.500000 0.895132
#
# Coordination Sequence:
#
# PCOD8171913 Si02
#       8
#     4   4   4   4   4   4   4   4
#     4  10  20  36  65  89 118 165 208 247 304 378
#     4  10  21  41  65  86 121 171 214 245 304 387
#     4  11  24  40  60  95 129 152 207 268 314 356
#     4  10  20  36  65  89 118 165 208 247 304 378
#     4  11  24  40  60  95 129 152 207 268 314 356
#     4  10  21  41  65  86 121 171 214 245 304 387
#     4  11  20  37  66  91 118 161 211 253 303 379
#     4  11  20  37  66  91 118 161 211 253 303 379
#
# _framework density 19.800635
#
# number of rings (size 3 to 8) (size 9 to 14) (size 15 to 20)
#    0.000    1.500    5.000    2.250    0.000    4.500 
#   13.500    2.500    0.000    0.000    0.000    0.000 
#    0.000    0.000    0.000    0.000    0.000    0.000 
#
# Total GULP energy -396797.465239 kJ/mol
# GULP energy per Si atom -12399.920789 kJ/mol
# Density = 1.975557 g / cm^3
# Si number density = 19.800635 Si / 1000 Ang^3
#
#
#
# Elastic Constant Matrix: (Units=GPa)
#
#
# Indices 1 2 3 4 5 6 
#
# 1 106.5984 72.9973 31.4433 0.0000 0.0000 0.0000
# 2 72.9973 165.1908 34.9122 0.0000 0.0000 0.0000
# 3 31.4433 34.9122 67.8341 0.0000 0.0000 0.0000
# 4 0.0000 0.0000 0.0000 24.6449 0.0000 0.0000
# 5 0.0000 0.0000 0.0000 0.0000 15.5128 0.0000
# 6 0.0000 0.0000 0.0000 0.0000 0.0000 31.9436
#
#
#
# Elastic Compliance Matrix: (Units=1/GPa)
#
#
# Indices 1 2 3 4 5 6 
#
# 1 0.014266 -0.005505 -0.003779 0.000000 0.000000 0.000000
# 2 -0.005505 0.008917 -0.002037 0.000000 0.000000 0.000000
# 3 -0.003779 -0.002037 0.017542 0.000000 0.000000 0.000000
# 4 0.000000 0.000000 0.000000 0.040576 0.000000 0.000000
# 5 0.000000 0.000000 0.000000 0.000000 0.064463 0.000000
# 6 0.000000 0.000000 0.000000 0.000000 0.000000 0.031305
#
#
# Mechanical properties :
#
#
# Convention : Reuss Voigt Hill
#
# Bulk Modulus (GPa) = 55.30642 68.70321 62.00481
# Shear Modulus (GPa) = 24.30251 27.77163 26.03707
#
# Velocity S-wave (km/s) = 3.50717 3.74914 3.63017
# Velocity P-wave (km/s) = 6.66278 7.31534 6.99667
#
# Compressibility (1/GPa) = 0.01808108
#
# Stress axis : x y z
#
# Youngs Moduli (GPa) = 70.09827 112.14596 57.00528
#
# Poissons Ratio (x) = 0.61739 0.21544
# Poissons Ratio (y) = 0.38591 0.11614
# Poissons Ratio (z) = 0.26492 0.22849
#
# Static dielectric constant tensor:
#      x y z
#    x 3.503710 0.000000 0.000000 
#    y 0.000000 4.179520 0.000000 
#    z 0.000000 0.000000 3.169850 
# 
# 
# High freq. dielectric constant tensor:
#      x y z
#    x 1.774900 0.000000 0.000000 
#    y 0.000000 1.801020 0.000000 
#    z 0.000000 0.000000 1.722870 
# 
# From -- ./inp_files/7740.got.cif
#   From: 2010.03.12/outbox.cif.g09.slc.cpg/sg34_4_cif.got.tgz:7740.got - 2010.04.14 01:56:33.
