data_PCOD8171636
_publ_section_title
;
Structure prediction by ZEFSAII (Michael W. Deem and Ramdas Pophale) SiO2 
 PCOD8171636
Probable space group: P N A 21
;
_chemical_formula_sum "Si O2"
_cell_formula_units_Z 32
_cell_length_a 12.732437
_cell_length_b 8.689283
_cell_length_c 13.459767
_cell_angle_alpha 90.000000
_cell_angle_beta 90.000000
_cell_angle_gamma 90.000000
_cell_volume 1489.131395
_symmetry_space_group_name_H-M "P N A 21"
_symmetry_group_IT_number 33
_symmetry_cell_setting 'orthorhombic'
loop_
_space_group_symop_operation_xyz
x,y,z
-x,-y,1/2+z
1/2-x,1/2+y,1/2+z
1/2+x,1/2-y,z
loop_
_atom_site_type_symbol
_atom_site_label
_atom_site_fract_x
_atom_site_fract_y
_atom_site_fract_z
Si Si1 0.910256 0.912850 0.433880
Si Si2 0.065958 0.899309 0.602973
Si Si3 0.196902 0.628412 0.533895
Si Si4 0.526387 0.351323 0.310330
Si Si5 0.489129 0.271949 0.616683
Si Si6 0.019601 0.425472 0.433112
Si Si7 0.097149 0.353054 0.795739
Si Si8 0.302493 0.450949 0.710121
O O1 0.786754 0.891990 0.451785
O O2 0.941693 0.805789 0.342710
O O3 0.964043 0.861905 0.536538
O O4 0.952188 0.078696 0.398083
O O5 0.165633 0.808173 0.555557
O O6 0.044271 0.829621 0.711867
O O7 0.075532 0.087119 0.606595
O O8 0.099671 0.541284 0.484392
O O9 0.232415 0.556775 0.638230
O O10 0.570962 0.189115 0.351148
O O11 0.628195 0.452853 0.287351
O O12 0.467165 0.180581 0.516495
O O13 0.531101 0.143562 0.693686
O O14 0.376120 0.340380 0.645508
O O15 0.928453 0.512242 0.373069
O O16 0.221671 0.352232 0.775573
#
# Coordination Sequence:
#
# PCOD8171636 Si02
#       8
#     4   4   4   4   4   4   4   4
#     4  12  24  45  68 102 141 185 229 289 354 416
#     4  11  23  47  71  96 140 183 227 288 347 411
#     4  12  25  43  71 105 138 180 236 291 345 417
#     4  11  24  46  71  99 140 188 225 287 355 410
#     4  11  24  50  70 101 146 184 227 299 352 414
#     4  12  26  43  73 104 143 175 239 291 345 416
#     4  12  26  44  70 104 139 185 235 292 346 425
#     4  11  24  46  72  97 145 182 236 287 352 415
#
# _framework density 21.489037
#
# number of rings (size 3 to 8) (size 9 to 14) (size 15 to 20)
#    0.000    0.500    8.750    0.750    3.500    3.000 
#    2.250    0.000    0.000    0.000    0.000    0.000 
#    0.000    0.000    0.000    0.000    0.000    0.000 
#
# Total GULP energy -396638.714874 kJ/mol
# GULP energy per Si atom -12394.959840 kJ/mol
# Density = 2.144013 g / cm^3
# Si number density = 21.489037 Si / 1000 Ang^3
#
#
#
# Elastic Constant Matrix: (Units=GPa)
#
#
# Indices 1 2 3 4 5 6 
#
# 1 102.2197 39.7071 36.7360 0.0000 0.0000 0.0000
# 2 39.7071 91.6581 48.0716 0.0000 0.0000 0.0000
# 3 36.7360 48.0716 101.0666 0.0000 0.0000 0.0000
# 4 0.0000 0.0000 0.0000 45.4219 0.0000 0.0000
# 5 0.0000 0.0000 0.0000 0.0000 37.7855 0.0000
# 6 0.0000 0.0000 0.0000 0.0000 0.0000 24.0839
#
#
#
# Elastic Compliance Matrix: (Units=1/GPa)
#
#
# Indices 1 2 3 4 5 6 
#
# 1 0.012243 -0.003957 -0.002568 0.000000 0.000000 0.000000
# 2 -0.003957 0.015815 -0.006084 0.000000 0.000000 0.000000
# 3 -0.002568 -0.006084 0.013722 0.000000 0.000000 0.000000
# 4 0.000000 0.000000 0.000000 0.022016 0.000000 0.000000
# 5 0.000000 0.000000 0.000000 0.000000 0.026465 0.000000
# 6 0.000000 0.000000 0.000000 0.000000 0.000000 0.041521
#
#
# Mechanical properties :
#
#
# Convention : Reuss Voigt Hill
#
# Bulk Modulus (GPa) = 60.38004 60.44154 60.41079
# Shear Modulus (GPa) = 30.76533 32.82026 31.79280
#
# Velocity S-wave (km/s) = 3.78785 3.91231 3.85059
# Velocity P-wave (km/s) = 6.87674 6.97108 6.92407
#
# Compressibility (1/GPa) = 0.01656176
#
# Stress axis : x y z
#
# Youngs Moduli (GPa) = 81.68079 63.23050 72.87704
#
# Poissons Ratio (x) = 0.25019 0.18715
# Poissons Ratio (y) = 0.32320 0.44339
# Poissons Ratio (z) = 0.20976 0.38470
#
# Static dielectric constant tensor:
#      x y z
#    x 3.646500 0.000000 0.000000 
#    y 0.000000 4.006740 0.000000 
#    z 0.000000 0.000000 4.130260 
# 
# 
# High freq. dielectric constant tensor:
#      x y z
#    x 1.819540 0.000000 0.000000 
#    y 0.000000 1.841970 0.000000 
#    z 0.000000 0.000000 1.870600 
# 
# From -- ./inp_files/7985.got.cif
#   From: 2010.03.12/outbox.cif.g09.slc.cpg/sg33_4_cif.got.tgz:7985.got - 2010.04.14 01:49:19.
