data_PCOD8171181
_publ_section_title
;
Structure prediction by ZEFSAII (Michael W. Deem and Ramdas Pophale) SiO2 
 PCOD8171181
Probable space group: P N A 21
;
_chemical_formula_sum "Si O2"
_cell_formula_units_Z 24
_cell_length_a 23.697414
_cell_length_b 5.446366
_cell_length_c 8.187233
_cell_angle_alpha 90.000000
_cell_angle_beta 90.000000
_cell_angle_gamma 90.000000
_cell_volume 1056.683507
_symmetry_space_group_name_H-M "P N A 21"
_symmetry_group_IT_number 33
_symmetry_cell_setting 'orthorhombic'
loop_
_space_group_symop_operation_xyz
x,y,z
-x,-y,1/2+z
1/2-x,1/2+y,1/2+z
1/2+x,1/2-y,z
loop_
_atom_site_type_symbol
_atom_site_label
_atom_site_fract_x
_atom_site_fract_y
_atom_site_fract_z
Si Si1 0.615989 0.915102 0.056670
Si Si2 0.949276 0.024082 0.407463
Si Si3 0.489461 0.839047 0.661601
Si Si4 0.289164 0.967424 0.072593
Si Si5 0.594903 0.129950 0.702736
Si Si6 0.762401 0.520222 0.702016
O O1 0.678038 0.965170 0.118659
O O2 0.572890 0.047208 0.180538
O O3 0.595818 0.630862 0.040699
O O4 0.610804 0.997892 0.870730
O O5 0.988459 0.830819 0.500967
O O6 0.913452 0.914991 0.253534
O O7 0.993914 0.214955 0.332717
O O8 0.535989 0.045584 0.623570
O O9 0.268229 0.238307 0.128427
O O10 0.356819 0.941284 0.073599
O O11 0.270117 0.737979 0.184915
O O12 0.267619 0.919434 0.891513
#
# Coordination Sequence:
#
# PCOD8171181 Si02
#       6
#     4   4   4   4   4   4
#     4  10  23  42  67  99 139 185 238 294 353 427
#     4  10  22  40  68  96 142 184 228 296 356 430
#     4  10  22  40  66 100 140 178 232 282 360 426
#     4  12  28  49  75 107 144 191 245 300 363 432
#     4  10  23  42  67  99 139 185 238 294 353 427
#     4  12  28  49  75 107 144 191 245 300 363 432
#
# _framework density 22.712569999999999
#
# number of rings (size 3 to 8) (size 9 to 14) (size 15 to 20)
#    0.000    1.333    0.000    4.000   11.667    6.667 
#    0.000    0.000    0.000    0.000    0.000    0.000 
#    0.000    0.000    0.000    0.000    0.000    0.000 
#
# Total GULP energy -297370.375803 kJ/mol
# GULP energy per Si atom -12390.432325 kJ/mol
# Density = 2.266088 g / cm^3
# Si number density = 22.712570 Si / 1000 Ang^3
#
#
#
# Elastic Constant Matrix: (Units=GPa)
#
#
# Indices 1 2 3 4 5 6 
#
# 1 88.9714 27.1153 -5.4820 0.0000 0.0000 0.0000
# 2 27.1153 124.5681 7.5886 0.0000 0.0000 0.0000
# 3 -5.4820 7.5886 56.7017 0.0000 0.0000 0.0000
# 4 0.0000 0.0000 0.0000 31.8777 0.0000 0.0000
# 5 0.0000 0.0000 0.0000 0.0000 40.2110 0.0000
# 6 0.0000 0.0000 0.0000 0.0000 0.0000 22.7426
#
#
#
# Elastic Compliance Matrix: (Units=1/GPa)
#
#
# Indices 1 2 3 4 5 6 
#
# 1 0.012171 -0.002743 0.001544 0.000000 0.000000 0.000000
# 2 -0.002743 0.008712 -0.001431 0.000000 0.000000 0.000000
# 3 0.001544 -0.001431 0.017977 0.000000 0.000000 0.000000
# 4 0.000000 0.000000 0.000000 0.031370 0.000000 0.000000
# 5 0.000000 0.000000 0.000000 0.000000 0.024869 0.000000
# 6 0.000000 0.000000 0.000000 0.000000 0.000000 0.043970
#
#
# Mechanical properties :
#
#
# Convention : Reuss Voigt Hill
#
# Bulk Modulus (GPa) = 29.76327 36.52054 33.14190
# Shear Modulus (GPa) = 32.14822 35.03423 33.59123
#
# Velocity S-wave (km/s) = 3.76631 3.93173 3.84991
# Velocity P-wave (km/s) = 5.66094 6.06017 5.86396
#
# Compressibility (1/GPa) = 0.03359846
#
# Stress axis : x y z
#
# Youngs Moduli (GPa) = 82.16411 114.78321 55.62675
#
# Poissons Ratio (x) = 0.31489 -0.08588
# Poissons Ratio (y) = 0.22540 0.07961
# Poissons Ratio (z) = -0.12685 0.16428
#
# Static dielectric constant tensor:
#      x y z
#    x 4.344380 0.000000 0.000000 
#    y 0.000000 4.714410 0.000000 
#    z 0.000000 0.000000 3.973740 
# 
# 
# High freq. dielectric constant tensor:
#      x y z
#    x 1.899800 0.000000 0.000000 
#    y 0.000000 1.910360 0.000000 
#    z 0.000000 0.000000 1.888640 
# 
# From -- ./inp_files/5110.got.cif
#   From: 2010.03.12/outbox.cif.g09.slc.cpg/sg33_3_cif.got.tgz:5110.got - 2010.04.14 01:49:19.
