data_PCOD8171563
_publ_section_title
;
Structure prediction by ZEFSAII (Michael W. Deem and Ramdas Pophale) SiO2 
 PCOD8171563
Probable space group: P N A 21
;
_chemical_formula_sum "Si O2"
_cell_formula_units_Z 24
_cell_length_a 13.787551
_cell_length_b 11.321868
_cell_length_c 6.796896
_cell_angle_alpha 90.000000
_cell_angle_beta 90.000000
_cell_angle_gamma 90.000000
_cell_volume 1061.001124
_symmetry_space_group_name_H-M "P N A 21"
_symmetry_group_IT_number 33
_symmetry_cell_setting 'orthorhombic'
loop_
_space_group_symop_operation_xyz
x,y,z
-x,-y,1/2+z
1/2-x,1/2+y,1/2+z
1/2+x,1/2-y,z
loop_
_atom_site_type_symbol
_atom_site_label
_atom_site_fract_x
_atom_site_fract_y
_atom_site_fract_z
Si Si1 0.778023 0.004245 0.423470
Si Si2 0.602311 0.517198 0.527424
Si Si3 0.786178 0.184637 0.743354
Si Si4 0.393850 0.078427 0.733751
Si Si5 0.914265 0.631932 0.450894
Si Si6 0.588021 0.363013 0.173045
O O1 0.660957 0.998792 0.400286
O O2 0.812947 0.894982 0.558300
O O3 0.829067 0.000351 0.212704
O O4 0.799719 0.126488 0.530373
O O5 0.641069 0.624640 0.396801
O O6 0.600013 0.393073 0.404913
O O7 0.494130 0.549383 0.590678
O O8 0.815586 0.318132 0.698687
O O9 0.677323 0.171575 0.823575
O O10 0.495219 0.131096 0.803347
O O11 0.404326 0.999790 0.537429
O O12 0.933725 0.725078 0.629989
#
# Coordination Sequence:
#
# PCOD8171563 Si02
#       6
#     4   4   4   4   4   4
#     4  11  24  45  73 106 141 190 248 301 362 439
#     4  11  22  44  72 110 139 190 242 299 367 431
#     4  11  25  47  72  99 145 192 245 299 362 452
#     4  12  26  47  73 107 151 195 242 308 386 442
#     4  12  26  48  70 110 151 193 248 310 377 453
#     4  11  23  41  76 106 147 184 247 307 358 441
#
# _framework density 22.620145999999998
#
# number of rings (size 3 to 8) (size 9 to 14) (size 15 to 20)
#    0.000    0.667    6.667    1.000    0.000    2.667 
#    6.000    0.000    0.000    0.000    0.000    0.000 
#    0.000    0.000    0.000    0.000    0.000    0.000 
#
# Total GULP energy -297595.461004 kJ/mol
# GULP energy per Si atom -12399.810875 kJ/mol
# Density = 2.256866 g / cm^3
# Si number density = 22.620146 Si / 1000 Ang^3
#
#
#
# Elastic Constant Matrix: (Units=GPa)
#
#
# Indices 1 2 3 4 5 6 
#
# 1 128.8978 33.7053 42.0147 0.0000 0.0000 0.0000
# 2 33.7053 125.5283 59.0345 0.0000 0.0000 0.0000
# 3 42.0147 59.0345 132.4534 0.0000 0.0000 0.0000
# 4 0.0000 0.0000 0.0000 22.8776 0.0000 0.0000
# 5 0.0000 0.0000 0.0000 0.0000 27.9869 0.0000
# 6 0.0000 0.0000 0.0000 0.0000 0.0000 31.0034
#
#
#
# Elastic Compliance Matrix: (Units=1/GPa)
#
#
# Indices 1 2 3 4 5 6 
#
# 1 0.008825 -0.001332 -0.002206 0.000000 0.000000 0.000000
# 2 -0.001332 0.010280 -0.004159 0.000000 0.000000 0.000000
# 3 -0.002206 -0.004159 0.010103 0.000000 0.000000 0.000000
# 4 0.000000 0.000000 0.000000 0.043711 0.000000 0.000000
# 5 0.000000 0.000000 0.000000 0.000000 0.035731 0.000000
# 6 0.000000 0.000000 0.000000 0.000000 0.000000 0.032255
#
#
# Mechanical properties :
#
#
# Convention : Reuss Voigt Hill
#
# Bulk Modulus (GPa) = 72.38873 72.93204 72.66039
# Shear Modulus (GPa) = 31.07437 33.18192 32.12815
#
# Velocity S-wave (km/s) = 3.71043 3.83419 3.77282
# Velocity P-wave (km/s) = 7.10125 7.20510 7.15336
#
# Compressibility (1/GPa) = 0.01381431
#
# Stress axis : x y z
#
# Youngs Moduli (GPa) = 113.30906 97.27513 98.97853
#
# Poissons Ratio (x) = 0.12961 0.21831
# Poissons Ratio (y) = 0.15098 0.41167
# Poissons Ratio (z) = 0.24991 0.40459
#
# Static dielectric constant tensor:
#      x y z
#    x 4.326180 0.000000 0.000000 
#    y 0.000000 4.129710 0.000000 
#    z 0.000000 0.000000 3.984880 
# 
# 
# High freq. dielectric constant tensor:
#      x y z
#    x 1.907640 0.000000 0.000000 
#    y 0.000000 1.891270 0.000000 
#    z 0.000000 0.000000 1.886710 
# 
# From -- ./inp_files/1273.got.cif
#   From: 2010.03.12/outbox.cif.g09.slc.cpg/sg33_1_cif.got.tgz:1273.got - 2010.04.14 01:49:19.
