data_PCOD8171543
_publ_section_title
;
Structure prediction by ZEFSAII (Michael W. Deem and Ramdas Pophale) SiO2 
 PCOD8171543
Probable space group: P N A 21
;
_chemical_formula_sum "Si O2"
_cell_formula_units_Z 32
_cell_length_a 8.597189
_cell_length_b 9.819876
_cell_length_c 18.602475
_cell_angle_alpha 90.000000
_cell_angle_beta 90.000000
_cell_angle_gamma 90.000000
_cell_volume 1570.482884
_symmetry_space_group_name_H-M "P N A 21"
_symmetry_group_IT_number 33
_symmetry_cell_setting 'orthorhombic'
loop_
_space_group_symop_operation_xyz
x,y,z
-x,-y,1/2+z
1/2-x,1/2+y,1/2+z
1/2+x,1/2-y,z
loop_
_atom_site_type_symbol
_atom_site_label
_atom_site_fract_x
_atom_site_fract_y
_atom_site_fract_z
Si Si1 0.372727 0.652470 0.799320
Si Si2 0.627273 0.347530 0.924804
Si Si3 0.946532 0.894669 0.962843
Si Si4 0.946532 0.894669 0.261281
Si Si5 0.375433 0.157233 0.528819
Si Si6 0.025094 0.568459 0.438901
Si Si7 0.875433 0.342767 0.695305
Si Si8 0.474906 0.068459 0.285223
O O1 0.384821 0.645679 0.884848
O O2 0.491684 0.548771 0.761345
O O3 0.409503 0.804931 0.774605
O O4 0.199797 0.618290 0.774985
O O5 0.508316 0.451229 0.962779
O O6 0.615179 0.354321 0.839276
O O7 0.800203 0.381710 0.949139
O O8 0.590497 0.195069 0.949519
O O9 0.804167 0.881879 0.017870
O O10 0.086876 0.795847 0.985916
O O11 0.804168 0.881879 0.206254
O O12 0.086876 0.795847 0.238208
O O13 0.409373 0.180412 0.612062
O O14 0.488427 0.038506 0.501241
O O15 0.000000 0.500000 0.362062
O O16 0.988426 0.461494 0.722883
#
# Coordination Sequence:
#
# PCOD8171543 Si02
#       8
#     4   4   4   4   4   4   4   4
#     4  11  23  39  68  99 124 163 224 275 321 368
#     4  11  23  39  68  99 124 163 224 275 321 368
#     4  11  22  40  66  96 130 167 216 273 320 385
#     4  11  22  40  66  96 130 167 216 273 320 385
#     4  12  25  42  64  97 136 177 214 263 336 400
#     4  12  23  41  67  97 131 170 219 275 320 387
#     4  12  25  42  64  97 136 177 214 263 336 400
#     4  12  23  41  67  97 131 170 219 275 320 387
#
# _framework density 20.375899
#
# number of rings (size 3 to 8) (size 9 to 14) (size 15 to 20)
#    0.000    0.500    5.000    3.750    3.500    0.000 
#    0.000    7.500    0.000    0.000    0.000    0.000 
#    0.000    0.000    0.000    0.000    0.000    0.000 
#
# Total GULP energy -397043.110338 kJ/mol
# GULP energy per Si atom -12407.597198 kJ/mol
# Density = 2.032952 g / cm^3
# Si number density = 20.375899 Si / 1000 Ang^3
#
#
#
# Elastic Constant Matrix: (Units=GPa)
#
#
# Indices 1 2 3 4 5 6 
#
# 1 109.6446 20.2509 25.5282 0.0000 0.0000 0.0000
# 2 20.2509 119.8097 38.9154 0.0000 0.0000 0.0000
# 3 25.5282 38.9154 44.5725 0.0000 0.0000 0.0000
# 4 0.0000 0.0000 0.0000 16.4672 0.0000 0.0000
# 5 0.0000 0.0000 0.0000 0.0000 29.3194 0.0000
# 6 0.0000 0.0000 0.0000 0.0000 0.0000 41.0082
#
#
#
# Elastic Compliance Matrix: (Units=1/GPa)
#
#
# Indices 1 2 3 4 5 6 
#
# 1 0.010529 0.000250 -0.006249 0.000000 0.000000 0.000000
# 2 0.000250 0.011656 -0.010320 0.000000 0.000000 0.000000
# 3 -0.006249 -0.010320 0.035024 0.000000 0.000000 0.000000
# 4 0.000000 0.000000 0.000000 0.060727 0.000000 0.000000
# 5 0.000000 0.000000 0.000000 0.000000 0.034107 0.000000
# 6 0.000000 0.000000 0.000000 0.000000 0.000000 0.024385
#
#
# Mechanical properties :
#
#
# Convention : Reuss Voigt Hill
#
# Bulk Modulus (GPa) = 40.69611 49.26842 44.98226
# Shear Modulus (GPa) = 23.01415 29.98111 26.49763
#
# Velocity S-wave (km/s) = 3.36442 3.84005 3.61007
# Velocity P-wave (km/s) = 5.92524 6.62522 6.28498
#
# Compressibility (1/GPa) = 0.02457237
#
# Stress axis : x y z
#
# Youngs Moduli (GPa) = 94.97541 85.78964 28.55149
#
# Poissons Ratio (x) = -0.02144 0.17841
# Poissons Ratio (y) = -0.02374 0.29466
# Poissons Ratio (z) = 0.59346 0.88536
#
# Static dielectric constant tensor:
#      x y z
#    x 3.958200 0.000000 0.000000 
#    y 0.000000 4.105890 0.000000 
#    z 0.000000 0.000000 3.438470 
# 
# 
# High freq. dielectric constant tensor:
#      x y z
#    x 1.813300 0.000000 0.000000 
#    y 0.000000 1.813700 0.000000 
#    z 0.000000 0.000000 1.768280 
# 
# From -- ./inp_files/8930.got.cif
#   From: 2010.03.12/outbox.cif.g09.slc.cpg/sg33_5_cif.got.tgz:8930.got - 2010.04.14 01:49:19.
