data_PCOD8171856
_publ_section_title
;
Structure prediction by ZEFSAII (Michael W. Deem and Ramdas Pophale) SiO2 
 PCOD8171856
Probable space group: P N N 2
;
_chemical_formula_sum "Si O2"
_cell_formula_units_Z 26
_cell_length_a 14.568274
_cell_length_b 7.745823
_cell_length_c 13.199411
_cell_angle_alpha 90.000000
_cell_angle_beta 90.000000
_cell_angle_gamma 90.000000
_cell_volume 1489.464723
_symmetry_space_group_name_H-M "P N N 2"
_symmetry_group_IT_number 34
_symmetry_cell_setting 'orthorhombic'
loop_
_space_group_symop_operation_xyz
x,y,z
-x,-y,z
1/2-x,1/2+y,1/2+z
1/2+x,1/2-y,1/2+z
loop_
_atom_site_type_symbol
_atom_site_label
_atom_site_fract_x
_atom_site_fract_y
_atom_site_fract_z
Si Si1 0.225472 0.816195 0.903850
Si Si2 0.709661 0.654446 0.634815
Si Si3 0.500000 0.500000 0.252735
Si Si4 0.302787 0.522599 0.221246
Si Si5 0.822800 0.781706 0.218962
Si Si6 0.528355 0.817315 0.390835
Si Si7 0.504732 0.698341 0.604466
O O1 0.200244 0.994520 0.844112
O O2 0.310044 0.725122 0.842094
O O3 0.138240 0.690143 0.897874
O O4 0.248299 0.854797 0.020014
O O5 0.716280 0.462713 0.678969
O O6 0.607062 0.731975 0.645951
O O7 0.773914 0.783240 0.696897
O O8 0.407910 0.490212 0.184086
O O9 0.487035 0.669230 0.321021
O O10 0.237324 0.375601 0.169938
O O11 0.929678 0.755552 0.190299
O O12 0.484479 0.806488 0.503517
O O13 0.500000 0.000000 0.342869
O O14 0.500000 0.500000 0.571072
#
# Coordination Sequence:
#
# PCOD8171856 Si02
#       7
#     4   4   2   4   4   4   4
#     4   8  20  37  47  88 113 131 187 228 267 340
#     4  10  19  37  57  77 114 148 176 229 283 322
#     4  10  20  36  50  76 112 134 192 236 270 316
#     4   9  21  35  55  77 106 148 181 228 271 336
#     4   9  20  35  52  84 113 137 183 225 274 337
#     4  10  19  29  54  82 105 139 175 229 286 324
#     4   9  18  32  54  82 111 134 177 230 276 326
#
# _framework density 17.455933999999999
#
# number of rings (size 3 to 8) (size 9 to 14) (size 15 to 20)
#    0.923    1.846    0.769    0.000    8.615    0.000 
#    2.769    0.000    5.077    1.846    0.000    0.000 
#    0.000    0.000    0.000    0.000    0.000    0.000 
#
# Total GULP energy -322111.757477 kJ/mol
# GULP energy per Si atom -12388.913749 kJ/mol
# Density = 1.741620 g / cm^3
# Si number density = 17.455934 Si / 1000 Ang^3
#
#
#
# Elastic Constant Matrix: (Units=GPa)
#
#
# Indices 1 2 3 4 5 6 
#
# 1 96.9769 24.0320 40.0538 0.0000 0.0000 0.0000
# 2 24.0320 85.2435 24.8321 0.0000 0.0000 0.0000
# 3 40.0538 24.8321 79.8618 0.0000 0.0000 0.0000
# 4 0.0000 0.0000 0.0000 9.4266 0.0000 0.0000
# 5 0.0000 0.0000 0.0000 0.0000 26.3582 0.0000
# 6 0.0000 0.0000 0.0000 0.0000 0.0000 25.9568
#
#
#
# Elastic Compliance Matrix: (Units=1/GPa)
#
#
# Indices 1 2 3 4 5 6 
#
# 1 0.013305 -0.001987 -0.006055 0.000000 0.000000 0.000000
# 2 -0.001987 0.013196 -0.003107 0.000000 0.000000 0.000000
# 3 -0.006055 -0.003107 0.016525 0.000000 0.000000 0.000000
# 4 0.000000 0.000000 0.000000 0.106083 0.000000 0.000000
# 5 0.000000 0.000000 0.000000 0.000000 0.037939 0.000000
# 6 0.000000 0.000000 0.000000 0.000000 0.000000 0.038526
#
#
# Mechanical properties :
#
#
# Convention : Reuss Voigt Hill
#
# Bulk Modulus (GPa) = 48.24362 48.87979 48.56170
# Shear Modulus (GPa) = 19.62476 23.89259 21.75867
#
# Velocity S-wave (km/s) = 3.35661 3.70366 3.53440
# Velocity P-wave (km/s) = 6.53604 6.80823 6.67353
#
# Compressibility (1/GPa) = 0.02072813
#
# Stress axis : x y z
#
# Youngs Moduli (GPa) = 75.15922 75.77887 60.51615
#
# Poissons Ratio (x) = 0.15058 0.36644
# Poissons Ratio (y) = 0.14935 0.18800
# Poissons Ratio (z) = 0.45510 0.23542
#
# Static dielectric constant tensor:
#      x y z
#    x 3.302800 0.000000 0.000000 
#    y 0.000000 3.131660 0.000000 
#    z 0.000000 0.000000 2.986950 
# 
# 
# High freq. dielectric constant tensor:
#      x y z
#    x 1.670140 0.000000 0.000000 
#    y 0.000000 1.675730 0.000000 
#    z 0.000000 0.000000 1.640040 
# 
# From -- ./inp_files/5632.got.cif
#   From: 2010.03.12/outbox.cif.g09.slc.cpg/sg34_3_cif.got.tgz:5632.got - 2010.04.14 01:56:33.
