data_PCOD8171227
_publ_section_title
;
Structure prediction by ZEFSAII (Michael W. Deem and Ramdas Pophale) SiO2 
 PCOD8171227
Probable space group: P N A 21
;
_chemical_formula_sum "Si O2"
_cell_formula_units_Z 32
_cell_length_a 22.831977
_cell_length_b 5.913149
_cell_length_c 11.412973
_cell_angle_alpha 90.000000
_cell_angle_beta 90.000000
_cell_angle_gamma 90.000000
_cell_volume 1540.852725
_symmetry_space_group_name_H-M "P N A 21"
_symmetry_group_IT_number 33
_symmetry_cell_setting 'orthorhombic'
loop_
_space_group_symop_operation_xyz
x,y,z
-x,-y,1/2+z
1/2-x,1/2+y,1/2+z
1/2+x,1/2-y,z
loop_
_atom_site_type_symbol
_atom_site_label
_atom_site_fract_x
_atom_site_fract_y
_atom_site_fract_z
Si Si1 0.401464 0.345203 0.534640
Si Si2 0.815984 0.228823 0.927197
Si Si3 0.591747 0.031704 0.853127
Si Si4 0.500000 0.669775 0.467584
Si Si5 0.901461 0.845208 0.900532
Si Si6 0.636721 0.000001 0.217586
Si Si7 0.591747 0.968299 0.582041
Si Si8 0.684015 0.271181 0.007972
O O1 0.411732 0.212489 0.413920
O O2 0.453967 0.525685 0.544477
O O3 0.404095 0.176901 0.646236
O O4 0.338311 0.472302 0.531508
O O5 0.821956 0.370500 0.808154
O O6 0.750000 0.250011 0.967589
O O7 0.838307 0.972303 0.903656
O O8 0.853889 0.330710 0.031625
O O9 0.602706 0.999990 0.717585
O O10 0.532359 0.171252 0.873897
O O11 0.646115 0.169275 0.903540
O O12 0.546038 0.525693 0.390697
O O13 0.532354 0.828780 0.561264
O O14 0.904095 0.676899 0.788939
O O15 0.911725 0.712501 0.021256
O O16 0.678041 0.129507 0.127015
#
# Coordination Sequence:
#
# PCOD8171227 Si02
#       8
#     4   4   4   4   4   4   4   4
#     4  10  22  44  61  94 131 167 219 268 328 392
#     4  10  23  41  67  97 129 172 215 267 331 387
#     4  10  23  43  61  95 129 167 218 268 329 391
#     4  10  22  44  60  94 124 176 218 268 332 388
#     4  10  22  44  61  94 131 167 219 268 328 392
#     4  10  22  42  66  96 128 170 218 270 326 394
#     4  10  23  43  61  95 129 167 218 268 329 391
#     4  10  23  41  67  97 129 172 215 267 331 387
#
# _framework density 20.767721999999999
#
# number of rings (size 3 to 8) (size 9 to 14) (size 15 to 20)
#    0.000    2.000    0.000    1.500    0.000   12.000 
#   54.000    0.000    0.000    0.000    0.000    0.000 
#    0.000    0.000    0.000    0.000    0.000    0.000 
#
# Total GULP energy -396868.298658 kJ/mol
# GULP energy per Si atom -12402.134333 kJ/mol
# Density = 2.072045 g / cm^3
# Si number density = 20.767722 Si / 1000 Ang^3
#
#
#
# Elastic Constant Matrix: (Units=GPa)
#
#
# Indices 1 2 3 4 5 6 
#
# 1 132.5506 59.3640 52.8959 0.0000 0.0000 0.0000
# 2 59.3640 139.8309 67.5191 0.0000 0.0000 0.0000
# 3 52.8959 67.5191 183.2996 0.0000 0.0000 0.0000
# 4 0.0000 0.0000 0.0000 26.9258 0.0000 0.0000
# 5 0.0000 0.0000 0.0000 0.0000 17.9282 0.0000
# 6 0.0000 0.0000 0.0000 0.0000 0.0000 18.7144
#
#
#
# Elastic Compliance Matrix: (Units=1/GPa)
#
#
# Indices 1 2 3 4 5 6 
#
# 1 0.009666 -0.003353 -0.001554 0.000000 0.000000 0.000000
# 2 -0.003353 0.009862 -0.002665 0.000000 0.000000 0.000000
# 3 -0.001554 -0.002665 0.006886 0.000000 0.000000 0.000000
# 4 0.000000 0.000000 0.000000 0.037139 0.000000 0.000000
# 5 0.000000 0.000000 0.000000 0.000000 0.055778 0.000000
# 6 0.000000 0.000000 0.000000 0.000000 0.000000 0.053435
#
#
# Mechanical properties :
#
#
# Convention : Reuss Voigt Hill
#
# Bulk Modulus (GPa) = 88.73978 90.58212 89.66095
# Shear Modulus (GPa) = 26.08687 31.10715 28.59701
#
# Velocity S-wave (km/s) = 3.54803 3.87442 3.71481
# Velocity P-wave (km/s) = 7.72057 7.98288 7.85282
#
# Compressibility (1/GPa) = 0.01126890
#
# Stress axis : x y z
#
# Youngs Moduli (GPa) = 103.45185 101.40014 145.22762
#
# Poissons Ratio (x) = 0.34002 0.22573
# Poissons Ratio (y) = 0.34690 0.38703
# Poissons Ratio (z) = 0.16079 0.27023
#
# Static dielectric constant tensor:
#      x y z
#    x 3.794160 0.000000 0.000000 
#    y 0.000000 4.215680 0.000000 
#    z 0.000000 0.000000 3.675960 
# 
# 
# High freq. dielectric constant tensor:
#      x y z
#    x 1.802260 0.000000 0.000000 
#    y 0.000000 1.833650 0.000000 
#    z 0.000000 0.000000 1.812520 
# 
# From -- ./inp_files/7224.got.cif
#   From: 2010.03.12/outbox.cif.g09.slc.cpg/sg33_4_cif.got.tgz:7224.got - 2010.04.14 01:49:19.
