data_PCOD8171375
_publ_section_title
;
Structure prediction by ZEFSAII (Michael W. Deem and Ramdas Pophale) SiO2 
 PCOD8171375
Probable space group: P N A 21
;
_chemical_formula_sum "Si O2"
_cell_formula_units_Z 20
_cell_length_a 14.208405
_cell_length_b 7.602974
_cell_length_c 8.196065
_cell_angle_alpha 90.000000
_cell_angle_beta 90.000000
_cell_angle_gamma 90.000000
_cell_volume 885.389214
_symmetry_space_group_name_H-M "P N A 21"
_symmetry_group_IT_number 33
_symmetry_cell_setting 'orthorhombic'
loop_
_space_group_symop_operation_xyz
x,y,z
-x,-y,1/2+z
1/2-x,1/2+y,1/2+z
1/2+x,1/2-y,z
loop_
_atom_site_type_symbol
_atom_site_label
_atom_site_fract_x
_atom_site_fract_y
_atom_site_fract_z
Si Si1 0.896662 0.491614 0.019550
Si Si2 0.091927 0.154169 0.657167
Si Si3 0.062947 0.016494 0.328461
Si Si4 0.791101 0.137008 0.035668
Si Si5 0.910909 0.637627 0.657855
O O1 0.863846 0.651619 0.139227
O O2 0.828954 0.332438 0.071195
O O3 0.005137 0.452408 0.060590
O O4 0.887228 0.541377 0.828804
O O5 0.032386 0.122649 0.490155
O O6 0.171477 0.001395 0.674486
O O7 0.014972 0.136172 0.800618
O O8 0.066183 0.155772 0.181441
O O9 0.165334 0.925550 0.360803
O O10 0.678810 0.130631 0.036734
#
# Coordination Sequence:
#
# PCOD8171375 Si02
#       5
#     4   4   4   4   4
#     4  11  23  45  72  95 135 182 223 279 343 396
#     4   9  20  42  68  97 131 178 222 275 340 389
#     4   9  19  42  65  94 136 174 217 288 325 387
#     4  10  23  44  64 102 137 173 229 278 334 408
#     4  11  23  45  69 102 135 181 231 272 346 406
#
# _framework density 22.588933999999998
#
# number of rings (size 3 to 8) (size 9 to 14) (size 15 to 20)
#    1.200    0.800    2.000    1.200    0.000    1.600 
#   18.000    0.000    0.000    0.000    0.000    0.000 
#    0.000    0.000    0.000    0.000    0.000    0.000 
#
# Total GULP energy -247782.247039 kJ/mol
# GULP energy per Si atom -12389.112352 kJ/mol
# Density = 2.253752 g / cm^3
# Si number density = 22.588934 Si / 1000 Ang^3
#
#
#
# Elastic Constant Matrix: (Units=GPa)
#
#
# Indices 1 2 3 4 5 6 
#
# 1 86.0464 28.7671 -4.1073 0.0000 0.0000 0.0000
# 2 28.7671 159.0173 6.3845 0.0000 0.0000 0.0000
# 3 -4.1073 6.3845 17.3104 0.0000 0.0000 0.0000
# 4 0.0000 0.0000 0.0000 23.9440 0.0000 0.0000
# 5 0.0000 0.0000 0.0000 0.0000 35.0083 0.0000
# 6 0.0000 0.0000 0.0000 0.0000 0.0000 11.4974
#
#
#
# Elastic Compliance Matrix: (Units=1/GPa)
#
#
# Indices 1 2 3 4 5 6 
#
# 1 0.012623 -0.002440 0.003895 0.000000 0.000000 0.000000
# 2 -0.002440 0.006855 -0.003107 0.000000 0.000000 0.000000
# 3 0.003895 -0.003107 0.059839 0.000000 0.000000 0.000000
# 4 0.000000 0.000000 0.000000 0.041764 0.000000 0.000000
# 5 0.000000 0.000000 0.000000 0.000000 0.028565 0.000000
# 6 0.000000 0.000000 0.000000 0.000000 0.000000 0.086976
#
#
# Mechanical properties :
#
#
# Convention : Reuss Voigt Hill
#
# Bulk Modulus (GPa) = 13.15568 36.05143 24.60355
# Shear Modulus (GPa) = 18.84918 29.51193 24.18056
#
# Velocity S-wave (km/s) = 2.89181 3.61844 3.27534
# Velocity P-wave (km/s) = 4.12149 5.78376 5.02188
#
# Compressibility (1/GPa) = 0.07601278
#
# Stress axis : x y z
#
# Youngs Moduli (GPa) = 79.21853 145.88339 16.71155
#
# Poissons Ratio (x) = 0.35596 -0.06509
# Poissons Ratio (y) = 0.19329 0.05193
# Poissons Ratio (z) = -0.30856 0.45328
#
# Static dielectric constant tensor:
#      x y z
#    x 3.621830 0.000000 0.000000 
#    y 0.000000 4.388850 0.000000 
#    z 0.000000 0.000000 3.717990 
# 
# 
# High freq. dielectric constant tensor:
#      x y z
#    x 1.865160 0.000000 0.000000 
#    y 0.000000 1.910330 0.000000 
#    z 0.000000 0.000000 1.867640 
# 
# From -- ./inp_files/4171.got.cif
#   From: 2010.03.12/outbox.cif.g09.slc.cpg/sg33_3_cif.got.tgz:4171.got - 2010.04.14 01:49:19.
