data_PCOD8171410
_publ_section_title
;
Structure prediction by ZEFSAII (Michael W. Deem and Ramdas Pophale) SiO2 
 PCOD8171410
Probable space group: P N A 21
;
_chemical_formula_sum "Si O2"
_cell_formula_units_Z 32
_cell_length_a 12.064581
_cell_length_b 8.579388
_cell_length_c 13.115973
_cell_angle_alpha 90.000000
_cell_angle_beta 90.000000
_cell_angle_gamma 90.000000
_cell_volume 1357.591364
_symmetry_space_group_name_H-M "P N A 21"
_symmetry_group_IT_number 33
_symmetry_cell_setting 'orthorhombic'
loop_
_space_group_symop_operation_xyz
x,y,z
-x,-y,1/2+z
1/2-x,1/2+y,1/2+z
1/2+x,1/2-y,z
loop_
_atom_site_type_symbol
_atom_site_label
_atom_site_fract_x
_atom_site_fract_y
_atom_site_fract_z
Si Si1 0.342812 0.219454 0.253720
Si Si2 0.521032 0.944031 0.582947
Si Si3 0.324659 0.448184 0.771507
Si Si4 0.004390 0.111359 0.393082
Si Si5 0.835858 0.006394 0.534583
Si Si6 0.339837 0.769727 0.038240
Si Si7 0.256856 0.963540 0.605170
Si Si8 0.822521 0.259414 0.952755
O O1 0.437239 0.165339 0.174292
O O2 0.405507 0.284142 0.351219
O O3 0.267269 0.356387 0.203863
O O4 0.270157 0.075176 0.294842
O O5 0.388815 0.961880 0.582569
O O6 0.566650 0.861234 0.477483
O O7 0.577756 0.113634 0.599763
O O8 0.446841 0.500971 0.806288
O O9 0.334400 0.435252 0.650968
O O10 0.305002 0.281682 0.831931
O O11 0.100661 0.215903 0.436622
O O12 0.957570 0.006946 0.486769
O O13 0.758463 0.135776 0.482749
O O14 0.782667 0.838908 0.510994
O O15 0.290464 0.639964 0.116762
O O16 0.182554 0.908415 0.508025
#
# Coordination Sequence:
#
# PCOD8171410 Si02
#       8
#     4   4   4   4   4   4   4   4
#     4  11  25  47  73 107 146 196 251 303 382 462
#     4  10  23  46  73 106 148 197 243 312 375 452
#     4  12  24  47  73 106 147 197 253 305 379 465
#     4  12  27  41  76 104 143 196 237 310 382 441
#     4  11  26  50  68 108 154 185 255 319 358 466
#     4  11  23  46  70 104 148 190 241 312 372 443
#     4  11  22  43  78 104 148 194 249 311 379 450
#     4  10  24  44  73 105 150 193 243 308 379 447
#
# _framework density 23.571155999999998
#
# number of rings (size 3 to 8) (size 9 to 14) (size 15 to 20)
#    0.000    1.000    5.000    2.250    5.250    1.000 
#    0.000    3.750    0.000    0.000    0.000    0.000 
#    0.000    0.000    0.000    0.000    0.000    0.000 
#
# Total GULP energy -396486.531834 kJ/mol
# GULP energy per Si atom -12390.204120 kJ/mol
# Density = 2.351751 g / cm^3
# Si number density = 23.571156 Si / 1000 Ang^3
#
#
#
# Elastic Constant Matrix: (Units=GPa)
#
#
# Indices 1 2 3 4 5 6 
#
# 1 138.9032 49.2292 46.6914 0.0000 0.0000 0.0000
# 2 49.2292 115.1421 39.9378 0.0000 0.0000 0.0000
# 3 46.6914 39.9378 113.6432 0.0000 0.0000 0.0000
# 4 0.0000 0.0000 0.0000 32.5230 0.0000 0.0000
# 5 0.0000 0.0000 0.0000 0.0000 39.5614 0.0000
# 6 0.0000 0.0000 0.0000 0.0000 0.0000 18.1672
#
#
#
# Elastic Compliance Matrix: (Units=1/GPa)
#
#
# Indices 1 2 3 4 5 6 
#
# 1 0.009169 -0.002976 -0.002721 0.000000 0.000000 0.000000
# 2 -0.002976 0.010857 -0.002593 0.000000 0.000000 0.000000
# 3 -0.002721 -0.002593 0.010829 0.000000 0.000000 0.000000
# 4 0.000000 0.000000 0.000000 0.030747 0.000000 0.000000
# 5 0.000000 0.000000 0.000000 0.000000 0.025277 0.000000
# 6 0.000000 0.000000 0.000000 0.000000 0.000000 0.055044
#
#
# Mechanical properties :
#
#
# Convention : Reuss Voigt Hill
#
# Bulk Modulus (GPa) = 70.05681 71.04501 70.55091
# Shear Modulus (GPa) = 30.62584 33.50567 32.06576
#
# Velocity S-wave (km/s) = 3.60848 3.77433 3.69234
# Velocity P-wave (km/s) = 6.86640 7.01428 6.94074
#
# Compressibility (1/GPa) = 0.01427413
#
# Stress axis : x y z
#
# Youngs Moduli (GPa) = 109.06573 92.10926 92.34833
#
# Poissons Ratio (x) = 0.27414 0.25129
# Poissons Ratio (y) = 0.32461 0.23942
# Poissons Ratio (z) = 0.29678 0.23880
#
# Static dielectric constant tensor:
#      x y z
#    x 4.322770 0.000000 0.000000 
#    y 0.000000 4.411550 0.000000 
#    z 0.000000 0.000000 4.022760 
# 
# 
# High freq. dielectric constant tensor:
#      x y z
#    x 1.943020 0.000000 0.000000 
#    y 0.000000 1.941560 0.000000 
#    z 0.000000 0.000000 1.918460 
# 
# From -- ./inp_files/7942.got.cif
#   From: 2010.03.12/outbox.cif.g09.slc.cpg/sg33_4_cif.got.tgz:7942.got - 2010.04.14 01:49:19.
