data_PCOD8171993
_publ_section_title
;
Structure prediction by ZEFSAII (Michael W. Deem and Ramdas Pophale) SiO2 
 PCOD8171993
Probable space group: P N N 2
;
_chemical_formula_sum "Si O2"
_cell_formula_units_Z 32
_cell_length_a 10.789381
_cell_length_b 16.247768
_cell_length_c 8.699471
_cell_angle_alpha 90.000000
_cell_angle_beta 90.000000
_cell_angle_gamma 90.000000
_cell_volume 1525.046491
_symmetry_space_group_name_H-M "P N N 2"
_symmetry_group_IT_number 34
_symmetry_cell_setting 'orthorhombic'
loop_
_space_group_symop_operation_xyz
x,y,z
-x,-y,z
1/2-x,1/2+y,1/2+z
1/2+x,1/2-y,1/2+z
loop_
_atom_site_type_symbol
_atom_site_label
_atom_site_fract_x
_atom_site_fract_y
_atom_site_fract_z
Si Si1 0.858014 0.581135 0.500000
Si Si2 0.806141 0.226039 0.021832
Si Si3 0.380053 0.943789 0.638388
Si Si4 0.928474 0.740117 0.024805
Si Si5 0.366499 0.542504 0.055630
Si Si6 0.180233 0.164273 0.291798
Si Si7 0.373710 0.099724 0.063413
Si Si8 0.231582 0.169095 0.789131
O O1 0.735796 0.632014 0.548332
O O2 0.862877 0.564487 0.319311
O O3 0.853633 0.496693 0.594436
O O4 0.982755 0.627276 0.557703
O O5 0.817922 0.278241 0.177292
O O6 0.940285 0.237622 0.947737
O O7 0.702486 0.261587 0.908809
O O8 0.405334 0.854727 0.564886
O O9 0.500000 0.000000 0.599236
O O10 0.252605 0.981582 0.567664
O O11 0.919978 0.802168 0.170890
O O12 0.834817 0.763267 0.891803
O O13 0.500000 0.500000 0.076102
O O14 0.359171 0.610205 0.191259
O O15 0.365395 0.584598 0.886374
O O16 0.307612 0.147735 0.200314
O O17 0.318814 0.113793 0.893933
#
# Coordination Sequence:
#
# PCOD8171993 Si02
#       8
#     4   4   4   4   4   4   4   4
#     4  11  21  38  69  94 126 173 219 274 335 396
#     4  11  24  41  63  98 131 168 222 272 336 396
#     4  12  22  45  70  97 134 184 230 273 342 405
#     4  11  25  41  69  96 132 176 220 280 334 410
#     4  11  25  44  69  98 137 182 223 280 340 410
#     4  10  24  44  62  95 136 167 217 281 330 389
#     4  10  21  42  68  93 129 172 223 273 331 402
#     4  10  23  42  63  95 130 172 216 271 334 402
#
# _framework density 20.982966000000001
#
# number of rings (size 3 to 8) (size 9 to 14) (size 15 to 20)
#    0.000    1.250    3.750    2.250    3.500    3.000 
#    9.000    2.500    0.000    0.000    0.000    0.000 
#    0.000    0.000    0.000    0.000    0.000    0.000 
#
# Total GULP energy -396689.218607 kJ/mol
# GULP energy per Si atom -12396.538081 kJ/mol
# Density = 2.093521 g / cm^3
# Si number density = 20.982966 Si / 1000 Ang^3
#
#
#
# Elastic Constant Matrix: (Units=GPa)
#
#
# Indices 1 2 3 4 5 6 
#
# 1 104.8111 49.0170 5.5266 0.0000 0.0000 0.0000
# 2 49.0170 113.4039 23.1450 0.0000 0.0000 0.0000
# 3 5.5266 23.1450 64.7792 0.0000 0.0000 0.0000
# 4 0.0000 0.0000 0.0000 23.0460 0.0000 0.0000
# 5 0.0000 0.0000 0.0000 0.0000 18.3273 0.0000
# 6 0.0000 0.0000 0.0000 0.0000 0.0000 37.3643
#
#
#
# Elastic Compliance Matrix: (Units=1/GPa)
#
#
# Indices 1 2 3 4 5 6 
#
# 1 0.012006 -0.005372 0.000895 0.000000 0.000000 0.000000
# 2 -0.005372 0.011915 -0.003799 0.000000 0.000000 0.000000
# 3 0.000895 -0.003799 0.016718 0.000000 0.000000 0.000000
# 4 0.000000 0.000000 0.000000 0.043391 0.000000 0.000000
# 5 0.000000 0.000000 0.000000 0.000000 0.054563 0.000000
# 6 0.000000 0.000000 0.000000 0.000000 0.000000 0.026764
#
#
# Mechanical properties :
#
#
# Convention : Reuss Voigt Hill
#
# Bulk Modulus (GPa) = 41.51509 48.70794 45.11151
# Shear Modulus (GPa) = 26.32424 29.43457 27.87941
#
# Velocity S-wave (km/s) = 3.54581 3.74944 3.64905
# Velocity P-wave (km/s) = 6.04911 6.48135 6.26896
#
# Compressibility (1/GPa) = 0.02408763
#
# Stress axis : x y z
#
# Youngs Moduli (GPa) = 83.29047 83.92497 59.81575
#
# Poissons Ratio (x) = 0.45086 -0.05354
# Poissons Ratio (y) = 0.44745 0.22724
# Poissons Ratio (z) = -0.07456 0.31883
#
# Static dielectric constant tensor:
#      x y z
#    x 3.714580 0.000000 0.000000 
#    y 0.000000 3.892950 0.000000 
#    z 0.000000 0.000000 3.810980 
# 
# 
# High freq. dielectric constant tensor:
#      x y z
#    x 1.819430 0.000000 0.000000 
#    y 0.000000 1.829390 0.000000 
#    z 0.000000 0.000000 1.824550 
# 
# From -- ./inp_files/3341.got.cif
#   From: 2010.03.12/outbox.cif.g09.slc.cpg/sg34_2_cif.got.tgz:3341.got - 2010.04.14 01:56:33.
