data_PCOD8171886
_publ_section_title
;
Structure prediction by ZEFSAII (Michael W. Deem and Ramdas Pophale) SiO2 
 PCOD8171886
Probable space group: P N N 2
;
_chemical_formula_sum "Si O2"
_cell_formula_units_Z 28
_cell_length_a 17.180465
_cell_length_b 13.058336
_cell_length_c 6.526184
_cell_angle_alpha 90.000000
_cell_angle_beta 90.000000
_cell_angle_gamma 90.000000
_cell_volume 1464.138185
_symmetry_space_group_name_H-M "P N N 2"
_symmetry_group_IT_number 34
_symmetry_cell_setting 'orthorhombic'
loop_
_space_group_symop_operation_xyz
x,y,z
-x,-y,z
1/2-x,1/2+y,1/2+z
1/2+x,1/2-y,1/2+z
loop_
_atom_site_type_symbol
_atom_site_label
_atom_site_fract_x
_atom_site_fract_y
_atom_site_fract_z
Si Si1 0.775499 0.142174 0.822150
Si Si2 0.399611 0.160115 0.711223
Si Si3 0.000000 0.000000 0.824555
Si Si4 0.000000 0.500000 0.389786
Si Si5 0.275538 0.128303 0.377569
Si Si6 0.138552 0.000724 0.531242
Si Si7 0.336356 0.014229 0.005304
Si Si8 0.905482 0.115641 0.141240
O O1 0.752960 0.260791 0.783312
O O2 0.821997 0.101344 0.624324
O O3 0.823117 0.128719 0.031355
O O4 0.700046 0.072835 0.860505
O O5 0.357398 0.142303 0.494069
O O6 0.426035 0.276710 0.747237
O O7 0.337927 0.122886 0.883823
O O8 0.478440 0.093449 0.735819
O O9 0.070737 0.041170 0.683274
O O10 0.028620 0.908884 0.972512
O O11 0.074034 0.476217 0.537835
O O12 0.289379 0.038122 0.211720
O O13 0.202520 0.090747 0.513597
O O14 0.100552 0.973048 0.312218
#
# Coordination Sequence:
#
# PCOD8171886 Si02
#       8
#     4   4   2   2   4   4   4   4
#     4  10  21  37  59  92 116 153 212 242 281 373
#     4   9  20  39  59  85 117 158 198 241 301 363
#     4  10  24  38  54  90 118 148 200 256 284 374
#     4   8  20  38  58  84 122 150 188 256 286 354
#     4  11  21  36  67  85 115 166 197 244 305 349
#     4  11  20  40  60  84 120 159 194 246 305 348
#     4  10  19  40  56  90 123 147 203 250 289 363
#     4  10  20  39  63  80 119 161 197 242 310 351
#
# _framework density 19.123877
#
# number of rings (size 3 to 8) (size 9 to 14) (size 15 to 20)
#    0.857    1.143    2.857    1.286    0.000    0.571 
#    5.143    1.429    0.000    0.000    0.000    0.000 
#    0.000    0.000    0.000    0.000    0.000    0.000 
#
# Total GULP energy -346958.077294 kJ/mol
# GULP energy per Si atom -12391.359903 kJ/mol
# Density = 1.908035 g / cm^3
# Si number density = 19.123877 Si / 1000 Ang^3
#
#
#
# Elastic Constant Matrix: (Units=GPa)
#
#
# Indices 1 2 3 4 5 6 
#
# 1 107.1462 48.4473 33.6939 0.0000 0.0000 0.0000
# 2 48.4473 96.5651 23.9007 0.0000 0.0000 0.0000
# 3 33.6939 23.9007 71.1308 0.0000 0.0000 0.0000
# 4 0.0000 0.0000 0.0000 29.5671 0.0000 0.0000
# 5 0.0000 0.0000 0.0000 0.0000 31.6766 0.0000
# 6 0.0000 0.0000 0.0000 0.0000 0.0000 29.4445
#
#
#
# Elastic Compliance Matrix: (Units=1/GPa)
#
#
# Indices 1 2 3 4 5 6 
#
# 1 0.013224 -0.005546 -0.004401 0.000000 0.000000 0.000000
# 2 -0.005546 0.013621 -0.001950 0.000000 0.000000 0.000000
# 3 -0.004401 -0.001950 0.016798 0.000000 0.000000 0.000000
# 4 0.000000 0.000000 0.000000 0.033821 0.000000 0.000000
# 5 0.000000 0.000000 0.000000 0.000000 0.031569 0.000000
# 6 0.000000 0.000000 0.000000 0.000000 0.000000 0.033962
#
#
# Mechanical properties :
#
#
# Convention : Reuss Voigt Hill
#
# Bulk Modulus (GPa) = 50.37548 54.10290 52.23919
# Shear Modulus (GPa) = 28.83413 29.39096 29.11254
#
# Velocity S-wave (km/s) = 3.88719 3.92455 3.90592
# Velocity P-wave (km/s) = 6.82246 6.99202 6.90776
#
# Compressibility (1/GPa) = 0.01985093
#
# Stress axis : x y z
#
# Youngs Moduli (GPa) = 75.61742 73.41858 59.52935
#
# Poissons Ratio (x) = 0.40715 0.26198
# Poissons Ratio (y) = 0.41934 0.11607
# Poissons Ratio (z) = 0.33279 0.14315
#
# Static dielectric constant tensor:
#      x y z
#    x 3.399950 0.000000 0.000000 
#    y 0.000000 3.411590 0.000000 
#    z 0.000000 0.000000 3.348970 
# 
# 
# High freq. dielectric constant tensor:
#      x y z
#    x 1.737430 0.000000 0.000000 
#    y 0.000000 1.731880 0.000000 
#    z 0.000000 0.000000 1.736760 
# 
# From -- ./inp_files/1477.got.cif
#   From: 2010.03.12/outbox.cif.g09.slc.cpg/sg34_1_cif.got.tgz:1477.got - 2010.04.14 01:56:33.
