data_PCOD8171629
_publ_section_title
;
Structure prediction by ZEFSAII (Michael W. Deem and Ramdas Pophale) SiO2 
 PCOD8171629
Probable space group: P N A 21
;
_chemical_formula_sum "Si O2"
_cell_formula_units_Z 24
_cell_length_a 10.329680
_cell_length_b 15.985513
_cell_length_c 6.702347
_cell_angle_alpha 90.000000
_cell_angle_beta 90.000000
_cell_angle_gamma 90.000000
_cell_volume 1106.726616
_symmetry_space_group_name_H-M "P N A 21"
_symmetry_group_IT_number 33
_symmetry_cell_setting 'orthorhombic'
loop_
_space_group_symop_operation_xyz
x,y,z
-x,-y,1/2+z
1/2-x,1/2+y,1/2+z
1/2+x,1/2-y,z
loop_
_atom_site_type_symbol
_atom_site_label
_atom_site_fract_x
_atom_site_fract_y
_atom_site_fract_z
Si Si1 0.807534 0.987979 0.303520
Si Si2 0.675307 0.271282 0.198968
Si Si3 0.832382 0.356064 0.529794
Si Si4 0.017375 0.893501 0.543882
Si Si5 0.377258 0.882251 0.980157
Si Si6 0.209171 0.797048 0.296513
O O1 0.760924 0.917768 0.150300
O O2 0.897461 0.949039 0.473647
O O3 0.687156 0.030347 0.416617
O O4 0.887188 0.057518 0.187121
O O5 0.767595 0.335314 0.317701
O O6 0.536051 0.314749 0.169031
O O7 0.651629 0.185392 0.311323
O O8 0.738020 0.252271 0.986485
O O9 0.853400 0.269675 0.647119
O O10 0.970343 0.399896 0.497514
O O11 0.095631 0.861413 0.351571
O O12 0.323404 0.849606 0.191871
#
# Coordination Sequence:
#
# PCOD8171629 Si02
#       6
#     4   4   4   4   4   4
#     4  12  26  44  66 108 136 182 222 292 350 398
#     4  11  23  46  72 100 131 185 229 281 338 411
#     4  11  26  44  69 102 140 177 232 279 346 417
#     4  12  24  44  72  98 138 174 236 278 340 410
#     4  11  26  44  69 102 140 177 232 279 346 417
#     4  11  23  46  72 100 131 185 229 281 338 411
#
# _framework density 21.685572000000001
#
# number of rings (size 3 to 8) (size 9 to 14) (size 15 to 20)
#    0.000    0.667    3.333    4.000    4.667    2.667 
#    3.000    0.000    0.000    0.000    0.000    0.000 
#    0.000    0.000    0.000    0.000    0.000    0.000 
#
# Total GULP energy -297796.202603 kJ/mol
# GULP energy per Si atom -12408.175108 kJ/mol
# Density = 2.163621 g / cm^3
# Si number density = 21.685572 Si / 1000 Ang^3
#
#
#
# Elastic Constant Matrix: (Units=GPa)
#
#
# Indices 1 2 3 4 5 6 
#
# 1 86.1240 1.1657 12.9003 0.0000 0.0000 0.0000
# 2 1.1657 57.3744 9.4581 0.0000 0.0000 0.0000
# 3 12.9003 9.4581 94.1486 0.0000 0.0000 0.0000
# 4 0.0000 0.0000 0.0000 26.7169 0.0000 0.0000
# 5 0.0000 0.0000 0.0000 0.0000 36.6576 0.0000
# 6 0.0000 0.0000 0.0000 0.0000 0.0000 -24.8794
#
#
#
# Elastic Compliance Matrix: (Units=1/GPa)
#
#
# Indices 1 2 3 4 5 6 
#
# 1 0.011855 0.000027 -0.001627 0.000000 0.000000 0.000000
# 2 0.000027 0.017723 -0.001784 0.000000 0.000000 0.000000
# 3 -0.001627 -0.001784 0.011024 0.000000 0.000000 0.000000
# 4 0.000000 0.000000 0.000000 0.037429 0.000000 0.000000
# 5 0.000000 0.000000 0.000000 0.000000 0.027279 0.000000
# 6 0.000000 0.000000 0.000000 0.000000 0.000000 -0.040194
#
#
# Mechanical properties :
#
#
# Convention : Reuss Voigt Hill
#
# Bulk Modulus (GPa) = 29.55662 31.63280 30.59471
# Shear Modulus (GPa) = 60.12378 21.97388 41.04883
#
# Velocity S-wave (km/s) = 5.27119 3.18668 4.35548
# Velocity P-wave (km/s) = 7.12085 5.30647 6.27953
#
# Compressibility (1/GPa) = 0.03383337
#
# Stress axis : x y z
#
# Youngs Moduli (GPa) = 84.35607 56.42405 90.71380
#
# Poissons Ratio (x) = -0.00154 0.14760
# Poissons Ratio (y) = -0.00231 0.16185
# Poissons Ratio (z) = 0.13725 0.10067
#
# Static dielectric constant tensor:
#      x y z
#    x 4.018100 0.000000 0.000000 
#    y 0.000000 4.013150 0.000000 
#    z 0.000000 0.000000 4.003070 
# 
# 
# High freq. dielectric constant tensor:
#      x y z
#    x 1.860940 0.000000 0.000000 
#    y 0.000000 1.858330 0.000000 
#    z 0.000000 0.000000 1.862220 
# 
# From -- ./inp_files/851.got.cif
#   From: 2010.03.12/outbox.cif.g09.slc.cpg/sg33_1_cif.got.tgz:851.got - 2010.04.14 01:49:19.
