data_PCOD8171882
_publ_section_title
;
Structure prediction by ZEFSAII (Michael W. Deem and Ramdas Pophale) SiO2 
 PCOD8171882
Probable space group: P N N 2
;
_chemical_formula_sum "Si O2"
_cell_formula_units_Z 32
_cell_length_a 8.122576
_cell_length_b 11.862234
_cell_length_c 15.224928
_cell_angle_alpha 90.000000
_cell_angle_beta 90.000000
_cell_angle_gamma 90.000000
_cell_volume 1466.950697
_symmetry_space_group_name_H-M "P N N 2"
_symmetry_group_IT_number 34
_symmetry_cell_setting 'orthorhombic'
loop_
_space_group_symop_operation_xyz
x,y,z
-x,-y,z
1/2-x,1/2+y,1/2+z
1/2+x,1/2-y,1/2+z
loop_
_atom_site_type_symbol
_atom_site_label
_atom_site_fract_x
_atom_site_fract_y
_atom_site_fract_z
Si Si1 0.370285 0.244211 0.586570
Si Si2 0.196946 0.352721 0.441274
Si Si3 0.380568 0.227576 0.284176
Si Si4 0.444100 0.621807 0.730224
Si Si5 0.434386 0.876841 0.437658
Si Si6 0.169339 0.546815 0.320757
Si Si7 0.904148 0.898733 0.677060
Si Si8 0.601120 0.718415 0.892446
O O1 0.287024 0.348920 0.534807
O O2 0.471468 0.283540 0.670220
O O3 0.492292 0.197867 0.514014
O O4 0.235177 0.152051 0.614046
O O5 0.285661 0.304081 0.354508
O O6 0.178440 0.483765 0.415550
O O7 0.029700 0.280149 0.456558
O O8 0.252530 0.144693 0.232887
O O9 0.511005 0.153684 0.338635
O O10 0.476201 0.300207 0.211439
O O11 0.500000 0.500000 0.693574
O O12 0.511136 0.630730 0.828837
O O13 0.237764 0.855290 0.443824
O O14 0.500000 0.000000 0.458584
O O15 0.321264 0.527483 0.255858
O O16 0.178960 0.680743 0.335220
O O17 0.000000 0.500000 0.275816
O O18 0.000000 0.000000 0.625686
#
# Coordination Sequence:
#
# PCOD8171882 Si02
#       8
#     4   4   4   4   4   4   4   4
#     4  11  26  41  56  95 142 159 219 280 336 381
#     4   9  21  39  61  92 125 169 210 275 324 392
#     4  10  21  39  64  91 119 166 234 257 316 407
#     4  11  23  42  65  93 127 177 212 281 332 395
#     4  11  23  40  62  91 127 177 211 279 333 398
#     4  10  19  37  68  97 122 166 223 269 319 397
#     4  12  23  39  68  99 129 175 218 276 327 398
#     4  10  20  40  67  91 122 166 233 261 321 401
#
# _framework density 21.813958
#
# number of rings (size 3 to 8) (size 9 to 14) (size 15 to 20)
#    0.000    1.500    3.750    0.750    0.000    4.500 
#    0.000    3.750    0.000    0.000    0.000    0.000 
#    0.000    0.000    0.000    0.000    0.000    0.000 
#
# Total GULP energy -396540.230528 kJ/mol
# GULP energy per Si atom -12391.882204 kJ/mol
# Density = 2.176431 g / cm^3
# Si number density = 21.813958 Si / 1000 Ang^3
#
#
#
# Elastic Constant Matrix: (Units=GPa)
#
#
# Indices 1 2 3 4 5 6 
#
# 1 110.4380 20.5331 30.4697 0.0000 0.0000 0.0000
# 2 20.5331 73.8452 8.9346 0.0000 0.0000 0.0000
# 3 30.4697 8.9346 63.3516 0.0000 0.0000 0.0000
# 4 0.0000 0.0000 0.0000 20.1501 0.0000 0.0000
# 5 0.0000 0.0000 0.0000 0.0000 10.3098 0.0000
# 6 0.0000 0.0000 0.0000 0.0000 0.0000 40.9637
#
#
#
# Elastic Compliance Matrix: (Units=1/GPa)
#
#
# Indices 1 2 3 4 5 6 
#
# 1 0.010852 -0.002427 -0.004877 0.000000 0.000000 0.000000
# 2 -0.002427 0.014320 -0.000852 0.000000 0.000000 0.000000
# 3 -0.004877 -0.000852 0.018251 0.000000 0.000000 0.000000
# 4 0.000000 0.000000 0.000000 0.049628 0.000000 0.000000
# 5 0.000000 0.000000 0.000000 0.000000 0.096995 0.000000
# 6 0.000000 0.000000 0.000000 0.000000 0.000000 0.024412
#
#
# Mechanical properties :
#
#
# Convention : Reuss Voigt Hill
#
# Bulk Modulus (GPa) = 36.88734 40.83440 38.86087
# Shear Modulus (GPa) = 20.85021 26.79789 23.82405
#
# Velocity S-wave (km/s) = 3.09499 3.50876 3.30835
# Velocity P-wave (km/s) = 5.45148 5.93087 5.69622
#
# Compressibility (1/GPa) = 0.02710958
#
# Stress axis : x y z
#
# Youngs Moduli (GPa) = 92.15162 69.83306 54.79243
#
# Poissons Ratio (x) = 0.16951 0.26722
# Poissons Ratio (y) = 0.22368 0.04669
# Poissons Ratio (z) = 0.44942 0.05951
#
# Static dielectric constant tensor:
#      x y z
#    x 4.197470 0.000000 0.000000 
#    y 0.000000 3.855880 0.000000 
#    z 0.000000 0.000000 3.629510 
# 
# 
# High freq. dielectric constant tensor:
#      x y z
#    x 1.871860 0.000000 0.000000 
#    y 0.000000 1.854520 0.000000 
#    z 0.000000 0.000000 1.828480 
# 
# From -- ./inp_files/6566.got.cif
#   From: 2010.03.12/outbox.cif.g09.slc.cpg/sg34_4_cif.got.tgz:6566.got - 2010.04.14 01:56:33.
