data_PCOD8171804
_publ_section_title
;
Structure prediction by ZEFSAII (Michael W. Deem and Ramdas Pophale) SiO2 
 PCOD8171804
Probable space group: P N A 21
;
_chemical_formula_sum "Si O2"
_cell_formula_units_Z 24
_cell_length_a 19.392633
_cell_length_b 6.449039
_cell_length_c 8.143277
_cell_angle_alpha 90.000000
_cell_angle_beta 90.000000
_cell_angle_gamma 90.000000
_cell_volume 1018.429545
_symmetry_space_group_name_H-M "P N A 21"
_symmetry_group_IT_number 33
_symmetry_cell_setting 'orthorhombic'
loop_
_space_group_symop_operation_xyz
x,y,z
-x,-y,1/2+z
1/2-x,1/2+y,1/2+z
1/2+x,1/2-y,z
loop_
_atom_site_type_symbol
_atom_site_label
_atom_site_fract_x
_atom_site_fract_y
_atom_site_fract_z
Si Si1 0.243902 0.865514 0.758990
Si Si2 0.617070 0.455201 0.615173
Si Si3 0.498795 0.754562 0.611351
Si Si4 0.679755 0.802337 0.063269
Si Si5 0.137776 0.082799 0.242077
Si Si6 0.582026 0.070117 0.827339
O O1 0.291455 0.687770 0.676187
O O2 0.165762 0.865099 0.691064
O O3 0.279781 0.083791 0.711388
O O4 0.235931 0.822554 0.953883
O O5 0.538646 0.535815 0.603484
O O6 0.646716 0.420464 0.435817
O O7 0.621569 0.250574 0.728147
O O8 0.427589 0.726590 0.707254
O O9 0.481209 0.830535 0.428755
O O10 0.547950 0.917926 0.697981
O O11 0.628932 0.638612 0.152942
O O12 0.635501 0.957669 0.949743
#
# Coordination Sequence:
#
# PCOD8171804 Si02
#       6
#     4   4   4   4   4   4
#     4  12  27  49  76 113 154 201 254 321 384 460
#     4  12  28  47  78 110 156 204 258 319 391 461
#     4  12  27  47  79 110 159 199 261 319 389 464
#     4  12  29  49  78 111 157 198 263 316 390 465
#     4  12  29  48  80 113 152 206 259 317 391 461
#     4  12  28  50  75 117 154 204 257 322 389 465
#
# _framework density 23.565695000000002
#
# number of rings (size 3 to 8) (size 9 to 14) (size 15 to 20)
#    0.000    0.000    5.000    3.000   11.667    1.333 
#    0.000    0.000    0.000    0.000    0.000    0.000 
#    0.000    0.000    0.000    0.000    0.000    0.000 
#
# Total GULP energy -297585.782670 kJ/mol
# GULP energy per Si atom -12399.407611 kJ/mol
# Density = 2.351206 g / cm^3
# Si number density = 23.565695 Si / 1000 Ang^3
#
#
#
# Elastic Constant Matrix: (Units=GPa)
#
#
# Indices 1 2 3 4 5 6 
#
# 1 125.8638 57.6405 42.7729 0.0000 0.0000 0.0000
# 2 57.6405 118.4141 72.8930 0.0000 0.0000 0.0000
# 3 42.7729 72.8930 115.5826 0.0000 0.0000 0.0000
# 4 0.0000 0.0000 0.0000 47.8473 0.0000 0.0000
# 5 0.0000 0.0000 0.0000 0.0000 41.5719 0.0000
# 6 0.0000 0.0000 0.0000 0.0000 0.0000 44.8781
#
#
#
# Elastic Compliance Matrix: (Units=1/GPa)
#
#
# Indices 1 2 3 4 5 6 
#
# 1 0.010304 -0.004361 -0.001062 0.000000 0.000000 0.000000
# 2 -0.004361 0.015650 -0.008256 0.000000 0.000000 0.000000
# 3 -0.001062 -0.008256 0.014252 0.000000 0.000000 0.000000
# 4 0.000000 0.000000 0.000000 0.020900 0.000000 0.000000
# 5 0.000000 0.000000 0.000000 0.000000 0.024055 0.000000
# 6 0.000000 0.000000 0.000000 0.000000 0.000000 0.022283
#
#
# Mechanical properties :
#
#
# Convention : Reuss Voigt Hill
#
# Bulk Modulus (GPa) = 77.84623 78.49704 78.17163
# Shear Modulus (GPa) = 35.94963 39.29640 37.62302
#
# Velocity S-wave (km/s) = 3.91001 4.08796 3.99998
# Velocity P-wave (km/s) = 7.31366 7.46084 7.38762
#
# Compressibility (1/GPa) = 0.01284584
#
# Stress axis : x y z
#
# Youngs Moduli (GPa) = 97.05438 63.89740 70.16784
#
# Poissons Ratio (x) = 0.27869 0.07454
# Poissons Ratio (y) = 0.42330 0.57929
# Poissons Ratio (z) = 0.10310 0.52753
#
# Static dielectric constant tensor:
#      x y z
#    x 4.356590 0.000000 0.000000 
#    y 0.000000 4.380000 0.000000 
#    z 0.000000 0.000000 4.299670 
# 
# 
# High freq. dielectric constant tensor:
#      x y z
#    x 1.946430 0.000000 0.000000 
#    y 0.000000 1.934780 0.000000 
#    z 0.000000 0.000000 1.937200 
# 
# From -- ./inp_files/4625.got.cif
#   From: 2010.03.12/outbox.cif.g09.slc.cpg/sg33_3_cif.got.tgz:4625.got - 2010.04.14 01:49:19.
