data_PCOD8171033
_publ_section_title
;
Structure prediction by ZEFSAII (Michael W. Deem and Ramdas Pophale) SiO2 
 PCOD8171033
Probable space group: P N A 21
;
_chemical_formula_sum "Si O2"
_cell_formula_units_Z 32
_cell_length_a 13.808200
_cell_length_b 6.127111
_cell_length_c 18.017333
_cell_angle_alpha 90.000000
_cell_angle_beta 90.000000
_cell_angle_gamma 90.000000
_cell_volume 1524.345182
_symmetry_space_group_name_H-M "P N A 21"
_symmetry_group_IT_number 33
_symmetry_cell_setting 'orthorhombic'
loop_
_space_group_symop_operation_xyz
x,y,z
-x,-y,1/2+z
1/2-x,1/2+y,1/2+z
1/2+x,1/2-y,z
loop_
_atom_site_type_symbol
_atom_site_label
_atom_site_fract_x
_atom_site_fract_y
_atom_site_fract_z
Si Si1 0.219068 0.811040 0.607210
Si Si2 0.890563 0.019202 0.858845
Si Si3 0.740290 0.892465 0.975528
Si Si4 0.394354 0.923949 0.037258
Si Si5 0.985028 0.403438 0.781784
Si Si6 0.533636 0.820978 0.915035
Si Si7 0.106927 0.210786 0.206559
Si Si8 0.061113 0.104601 0.664311
O O1 0.137285 0.647473 0.576195
O O2 0.298153 0.689223 0.656309
O O3 0.275194 0.933950 0.541263
O O4 0.163513 0.981866 0.660181
O O5 0.796405 0.020542 0.910510
O O6 0.865874 0.874758 0.787539
O O7 0.982079 0.914579 0.903618
O O8 0.911584 0.265465 0.833131
O O9 0.639872 0.792079 0.947801
O O10 0.798650 0.684672 0.004057
O O11 0.449741 0.763134 0.093859
O O12 0.469569 0.970658 0.970657
O O13 0.927915 0.538917 0.717949
O O14 0.044406 0.564439 0.834931
O O15 0.059984 0.242414 0.740643
O O16 0.026434 0.067305 0.165045
#
# Coordination Sequence:
#
# PCOD8171033 Si02
#       8
#     4   4   4   4   4   4   4   4
#     4  11  24  39  61  96 124 165 215 263 318 379
#     4   9  21  41  58  90 126 163 211 261 307 384
#     4  10  23  38  61  94 124 166 214 256 321 373
#     4  10  23  41  61  90 131 159 210 266 313 382
#     4  10  21  40  63  88 127 166 207 262 314 371
#     4  10  22  39  64  88 124 167 209 257 319 373
#     4  10  23  39  64  91 123 167 212 258 322 378
#     4  10  23  39  62  91 125 163 208 263 320 376
#
# _framework density 20.992621
#
# number of rings (size 3 to 8) (size 9 to 14) (size 15 to 20)
#    0.000    2.000    0.000    1.500    5.250    9.000 
#    0.000    0.000    0.000    0.000    0.000    0.000 
#    0.000    0.000    0.000    0.000    0.000    0.000 
#
# Total GULP energy -396871.551649 kJ/mol
# GULP energy per Si atom -12402.235989 kJ/mol
# Density = 2.094484 g / cm^3
# Si number density = 20.992621 Si / 1000 Ang^3
#
#
#
# Elastic Constant Matrix: (Units=GPa)
#
#
# Indices 1 2 3 4 5 6 
#
# 1 98.0707 21.4221 50.5394 0.0000 0.0000 0.0000
# 2 21.4221 75.0945 18.6687 0.0000 0.0000 0.0000
# 3 50.5394 18.6687 93.1642 0.0000 0.0000 0.0000
# 4 0.0000 0.0000 0.0000 33.4732 0.0000 0.0000
# 5 0.0000 0.0000 0.0000 0.0000 38.0006 0.0000
# 6 0.0000 0.0000 0.0000 0.0000 0.0000 16.7662
#
#
#
# Elastic Compliance Matrix: (Units=1/GPa)
#
#
# Indices 1 2 3 4 5 6 
#
# 1 0.014521 -0.002299 -0.007417 0.000000 0.000000 0.000000
# 2 -0.002299 0.014379 -0.001634 0.000000 0.000000 0.000000
# 3 -0.007417 -0.001634 0.015085 0.000000 0.000000 0.000000
# 4 0.000000 0.000000 0.000000 0.029875 0.000000 0.000000
# 5 0.000000 0.000000 0.000000 0.000000 0.026315 0.000000
# 6 0.000000 0.000000 0.000000 0.000000 0.000000 0.059644
#
#
# Mechanical properties :
#
#
# Convention : Reuss Voigt Hill
#
# Bulk Modulus (GPa) = 46.98154 49.73222 48.35688
# Shear Modulus (GPa) = 26.36966 29.36128 27.86547
#
# Velocity S-wave (km/s) = 3.54805 3.74391 3.64729
# Velocity P-wave (km/s) = 6.26207 6.51390 6.38922
#
# Compressibility (1/GPa) = 0.02128495
#
# Stress axis : x y z
#
# Youngs Moduli (GPa) = 68.86636 69.54803 66.29275
#
# Poissons Ratio (x) = 0.15986 0.49167
# Poissons Ratio (y) = 0.15829 0.10835
# Poissons Ratio (z) = 0.51076 0.11367
#
# Static dielectric constant tensor:
#      x y z
#    x 3.493570 0.000000 0.000000 
#    y 0.000000 3.816790 0.000000 
#    z 0.000000 0.000000 3.994380 
# 
# 
# High freq. dielectric constant tensor:
#      x y z
#    x 1.803930 0.000000 0.000000 
#    y 0.000000 1.821990 0.000000 
#    z 0.000000 0.000000 1.838740 
# 
# From -- ./inp_files/8773.got.cif
#   From: 2010.03.12/outbox.cif.g09.slc.cpg/sg33_5_cif.got.tgz:8773.got - 2010.04.14 01:49:19.
