data_PCOD8171043
_publ_section_title
;
Structure prediction by ZEFSAII (Michael W. Deem and Ramdas Pophale) SiO2 
 PCOD8171043
Probable space group: P N A 21
;
_chemical_formula_sum "Si O2"
_cell_formula_units_Z 32
_cell_length_a 12.535367
_cell_length_b 8.348306
_cell_length_c 14.762897
_cell_angle_alpha 90.000000
_cell_angle_beta 90.000000
_cell_angle_gamma 90.000000
_cell_volume 1544.923582
_symmetry_space_group_name_H-M "P N A 21"
_symmetry_group_IT_number 33
_symmetry_cell_setting 'orthorhombic'
loop_
_space_group_symop_operation_xyz
x,y,z
-x,-y,1/2+z
1/2-x,1/2+y,1/2+z
1/2+x,1/2-y,z
loop_
_atom_site_type_symbol
_atom_site_label
_atom_site_fract_x
_atom_site_fract_y
_atom_site_fract_z
Si Si1 0.194941 0.944648 0.270160
Si Si2 0.861222 0.215082 0.945533
Si Si3 0.208389 0.408228 0.085325
Si Si4 0.297562 0.727856 0.119032
Si Si5 0.277019 0.949784 0.955769
Si Si6 0.970192 0.013889 0.194925
Si Si7 0.927200 0.854848 0.515395
Si Si8 0.721962 0.706737 0.768550
O O1 0.211617 0.867115 0.368985
O O2 0.237347 0.823279 0.196068
O O3 0.067629 0.966264 0.260105
O O4 0.268494 0.101729 0.263808
O O5 0.858286 0.406630 0.934925
O O6 0.818819 0.164096 0.044938
O O7 0.983218 0.155259 0.937863
O O8 0.212465 0.600220 0.077610
O O9 0.113559 0.327809 0.028949
O O10 0.200291 0.363173 0.191276
O O11 0.400128 0.639643 0.162878
O O12 0.328962 0.843131 0.035709
O O13 0.263738 0.845536 0.866261
O O14 0.163553 0.022223 0.985727
O O15 0.897678 0.142730 0.249325
O O16 0.025049 0.091204 0.109256
#
# Coordination Sequence:
#
# PCOD8171043 Si02
#       8
#     4   4   4   4   4   4   4   4
#     4  12  24  44  67  97 133 176 213 274 324 384
#     4  11  22  40  67  92 130 169 215 266 327 379
#     4  10  21  40  65  93 125 171 208 267 321 384
#     4  11  23  42  68  94 135 169 219 264 329 390
#     4  11  24  43  64  98 130 173 213 273 321 390
#     4  11  23  43  68  95 127 175 215 269 325 385
#     4  11  21  42  68  92 129 169 215 264 328 385
#     4  11  22  42  65  93 131 168 220 265 325 385
#
# _framework density 20.712997999999999
#
# number of rings (size 3 to 8) (size 9 to 14) (size 15 to 20)
#    0.000    1.000    5.000    3.750    0.000    2.000 
#    0.000    2.500    0.000    0.000    0.000    0.000 
#    0.000    0.000    0.000    0.000    0.000    0.000 
#
# Total GULP energy -396704.633387 kJ/mol
# GULP energy per Si atom -12397.019793 kJ/mol
# Density = 2.066585 g / cm^3
# Si number density = 20.712998 Si / 1000 Ang^3
#
#
#
# Elastic Constant Matrix: (Units=GPa)
#
#
# Indices 1 2 3 4 5 6 
#
# 1 80.4438 37.5458 26.5328 0.0000 0.0000 0.0000
# 2 37.5458 136.3952 30.9321 0.0000 0.0000 0.0000
# 3 26.5328 30.9321 90.3067 0.0000 0.0000 0.0000
# 4 0.0000 0.0000 0.0000 40.4651 0.0000 0.0000
# 5 0.0000 0.0000 0.0000 0.0000 23.1068 0.0000
# 6 0.0000 0.0000 0.0000 0.0000 0.0000 28.8042
#
#
#
# Elastic Compliance Matrix: (Units=1/GPa)
#
#
# Indices 1 2 3 4 5 6 
#
# 1 0.015103 -0.003417 -0.003267 0.000000 0.000000 0.000000
# 2 -0.003417 0.008722 -0.001984 0.000000 0.000000 0.000000
# 3 -0.003267 -0.001984 0.012713 0.000000 0.000000 0.000000
# 4 0.000000 0.000000 0.000000 0.024713 0.000000 0.000000
# 5 0.000000 0.000000 0.000000 0.000000 0.043277 0.000000
# 6 0.000000 0.000000 0.000000 0.000000 0.000000 0.034717
#
#
# Mechanical properties :
#
#
# Convention : Reuss Voigt Hill
#
# Bulk Modulus (GPa) = 52.07478 55.24077 53.65777
# Shear Modulus (GPa) = 30.67844 32.61758 31.64801
#
# Velocity S-wave (km/s) = 3.85271 3.97260 3.91311
# Velocity P-wave (km/s) = 6.70722 6.91156 6.81016
#
# Compressibility (1/GPa) = 0.01920316
#
# Stress axis : x y z
#
# Youngs Moduli (GPa) = 66.21075 114.65287 78.66120
#
# Poissons Ratio (x) = 0.39172 0.25700
# Poissons Ratio (y) = 0.22621 0.15604
# Poissons Ratio (z) = 0.21632 0.22743
#
# Static dielectric constant tensor:
#      x y z
#    x 4.014730 0.000000 0.000000 
#    y 0.000000 3.907150 0.000000 
#    z 0.000000 0.000000 3.965460 
# 
# 
# High freq. dielectric constant tensor:
#      x y z
#    x 1.795730 0.000000 0.000000 
#    y 0.000000 1.817050 0.000000 
#    z 0.000000 0.000000 1.825430 
# 
# From -- ./inp_files/7924.got.cif
#   From: 2010.03.12/outbox.cif.g09.slc.cpg/sg33_4_cif.got.tgz:7924.got - 2010.04.14 01:49:19.
