data_PCOD8171247
_publ_section_title
;
Structure prediction by ZEFSAII (Michael W. Deem and Ramdas Pophale) SiO2 
 PCOD8171247
Probable space group: P N A 21
;
_chemical_formula_sum "Si O2"
_cell_formula_units_Z 32
_cell_length_a 15.475465
_cell_length_b 7.755249
_cell_length_c 12.378320
_cell_angle_alpha 90.000000
_cell_angle_beta 90.000000
_cell_angle_gamma 90.000000
_cell_volume 1485.597499
_symmetry_space_group_name_H-M "P N A 21"
_symmetry_group_IT_number 33
_symmetry_cell_setting 'orthorhombic'
loop_
_space_group_symop_operation_xyz
x,y,z
-x,-y,1/2+z
1/2-x,1/2+y,1/2+z
1/2+x,1/2-y,z
loop_
_atom_site_type_symbol
_atom_site_label
_atom_site_fract_x
_atom_site_fract_y
_atom_site_fract_z
Si Si1 0.129076 0.737908 0.384550
Si Si2 0.587644 0.281762 0.687933
Si Si3 0.141211 0.967459 0.082415
Si Si4 0.217084 0.295769 0.032100
Si Si5 0.444872 0.898355 0.399698
Si Si6 0.038650 0.041647 0.271653
Si Si7 0.284433 0.125877 0.681301
Si Si8 0.984071 0.237078 0.465987
O O1 0.191572 0.821565 0.474150
O O2 0.181155 0.606097 0.304887
O O3 0.042567 0.654319 0.436531
O O4 0.103607 0.898741 0.314040
O O5 0.564350 0.124192 0.769761
O O6 0.554249 0.458392 0.743404
O O7 0.688707 0.300530 0.674444
O O8 0.544075 0.242564 0.571973
O O9 0.159723 0.772741 0.122027
O O10 0.223462 0.091636 0.065386
O O11 0.083591 0.093069 0.159674
O O12 0.081286 0.925408 0.978411
O O13 0.208053 0.438013 0.126009
O O14 0.132461 0.293203 0.955682
O O15 0.430285 0.092400 0.439028
O O16 0.037416 0.197406 0.356668
#
# Coordination Sequence:
#
# PCOD8171247 Si02
#       8
#     4   4   4   4   4   4   4   4
#     4  10  23  43  64  96 136 178 228 281 343 406
#     4  10  22  43  65  95 143 178 225 292 338 406
#     4  10  23  40  64  97 135 172 228 278 336 415
#     4  12  24  44  69 100 134 183 225 284 346 416
#     4  11  24  42  69  97 136 184 225 287 345 408
#     4   9  21  42  63  92 131 178 222 278 338 399
#     4  11  23  43  64  98 139 177 223 289 341 405
#     4  11  22  41  70  99 134 188 232 281 351 413
#
# _framework density 21.540154999999999
#
# number of rings (size 3 to 8) (size 9 to 14) (size 15 to 20)
#    0.000    1.500    2.500    3.000    3.500    1.000 
#    2.250    0.000    0.000    0.000    0.000    0.000 
#    0.000    0.000    0.000    0.000    0.000    0.000 
#
# Total GULP energy -396427.756512 kJ/mol
# GULP energy per Si atom -12388.367391 kJ/mol
# Density = 2.149113 g / cm^3
# Si number density = 21.540155 Si / 1000 Ang^3
#
#
#
# Elastic Constant Matrix: (Units=GPa)
#
#
# Indices 1 2 3 4 5 6 
#
# 1 93.6197 12.1497 9.2811 0.0000 0.0000 0.0000
# 2 12.1497 81.7388 19.9504 0.0000 0.0000 0.0000
# 3 9.2811 19.9504 63.8742 0.0000 0.0000 0.0000
# 4 0.0000 0.0000 0.0000 38.3795 0.0000 0.0000
# 5 0.0000 0.0000 0.0000 0.0000 18.6433 0.0000
# 6 0.0000 0.0000 0.0000 0.0000 0.0000 11.4657
#
#
#
# Elastic Compliance Matrix: (Units=1/GPa)
#
#
# Indices 1 2 3 4 5 6 
#
# 1 0.010972 -0.001344 -0.001174 0.000000 0.000000 0.000000
# 2 -0.001344 0.013408 -0.003993 0.000000 0.000000 0.000000
# 3 -0.001174 -0.003993 0.017073 0.000000 0.000000 0.000000
# 4 0.000000 0.000000 0.000000 0.026056 0.000000 0.000000
# 5 0.000000 0.000000 0.000000 0.000000 0.053639 0.000000
# 6 0.000000 0.000000 0.000000 0.000000 0.000000 0.087217
#
#
# Mechanical properties :
#
#
# Convention : Reuss Voigt Hill
#
# Bulk Modulus (GPa) = 35.17222 35.77725 35.47473
# Shear Modulus (GPa) = 21.65766 26.88779 24.27272
#
# Velocity S-wave (km/s) = 3.17433 3.53691 3.36051
# Velocity P-wave (km/s) = 5.45887 5.77280 5.61803
#
# Compressibility (1/GPa) = 0.02843153
#
# Stress axis : x y z
#
# Youngs Moduli (GPa) = 91.13778 74.58003 58.57041
#
# Poissons Ratio (x) = 0.10026 0.06879
# Poissons Ratio (y) = 0.12252 0.23385
# Poissons Ratio (z) = 0.10704 0.29777
#
# Static dielectric constant tensor:
#      x y z
#    x 3.875840 0.000000 0.000000 
#    y 0.000000 3.728100 0.000000 
#    z 0.000000 0.000000 4.238990 
# 
# 
# High freq. dielectric constant tensor:
#      x y z
#    x 1.850050 0.000000 0.000000 
#    y 0.000000 1.831150 0.000000 
#    z 0.000000 0.000000 1.849090 
# 
# From -- ./inp_files/6788.got.cif
#   From: 2010.03.12/outbox.cif.g09.slc.cpg/sg33_4_cif.got.tgz:6788.got - 2010.04.14 01:49:19.
