data_PCOD8171945
_publ_section_title
;
Structure prediction by ZEFSAII (Michael W. Deem and Ramdas Pophale) SiO2 
 PCOD8171945
Probable space group: P N N 2
;
_chemical_formula_sum "Si O2"
_cell_formula_units_Z 18
_cell_length_a 12.442342
_cell_length_b 7.504445
_cell_length_c 8.206802
_cell_angle_alpha 90.000000
_cell_angle_beta 90.000000
_cell_angle_gamma 90.000000
_cell_volume 766.292666
_symmetry_space_group_name_H-M "P N N 2"
_symmetry_group_IT_number 34
_symmetry_cell_setting 'orthorhombic'
loop_
_space_group_symop_operation_xyz
x,y,z
-x,-y,z
1/2-x,1/2+y,1/2+z
1/2+x,1/2-y,1/2+z
loop_
_atom_site_type_symbol
_atom_site_label
_atom_site_fract_x
_atom_site_fract_y
_atom_site_fract_z
Si Si1 0.250353 0.632205 0.035470
Si Si2 0.332947 0.310876 0.222380
Si Si3 0.000000 0.000000 0.935502
Si Si4 0.481785 0.708827 0.001411
Si Si5 0.527398 0.810685 0.650998
O O1 0.256806 0.422753 0.095119
O O2 0.362315 0.732223 0.075256
O O3 0.155707 0.725358 0.138072
O O4 0.227229 0.666691 0.839408
O O5 0.395039 0.459743 0.328798
O O6 0.427418 0.210155 0.121291
O O7 0.036054 0.163532 0.049051
O O8 0.500000 0.500000 0.964795
O O9 0.488542 0.816267 0.835092
O O10 0.500000 0.000000 0.568944
#
# Coordination Sequence:
#
# PCOD8171945 Si02
#       5
#     4   4   2   4   4
#     4  10  21  40  68  97 132 185 229 280 360 417
#     4  10  20  42  68  96 137 180 235 282 352 422
#     4  10  20  42  68  90 136 186 204 290 346 406
#     4  10  20  43  66  92 138 180 221 285 353 415
#     4  11  23  41  65 103 136 167 236 285 333 420
#
# _framework density 23.489719999999998
#
# number of rings (size 3 to 8) (size 9 to 14) (size 15 to 20)
#    0.000    1.778    4.444    1.333    0.000    0.000 
#   12.000    8.889    0.000    0.000    0.000    0.000 
#    0.000    0.000    0.000    0.000    0.000    0.000 
#
# Total GULP energy -223014.940958 kJ/mol
# GULP energy per Si atom -12389.718942 kJ/mol
# Density = 2.343626 g / cm^3
# Si number density = 23.489720 Si / 1000 Ang^3
#
#
#
# Elastic Constant Matrix: (Units=GPa)
#
#
# Indices 1 2 3 4 5 6 
#
# 1 80.0643 12.2511 21.7900 0.0000 0.0000 0.0000
# 2 12.2511 97.9293 50.4906 0.0000 0.0000 0.0000
# 3 21.7900 50.4906 128.4925 0.0000 0.0000 0.0000
# 4 0.0000 0.0000 0.0000 23.5981 0.0000 0.0000
# 5 0.0000 0.0000 0.0000 0.0000 39.6940 0.0000
# 6 0.0000 0.0000 0.0000 0.0000 0.0000 17.4720
#
#
#
# Elastic Compliance Matrix: (Units=1/GPa)
#
#
# Indices 1 2 3 4 5 6 
#
# 1 0.013124 -0.000620 -0.001982 0.000000 0.000000 0.000000
# 2 -0.000620 0.012835 -0.004938 0.000000 0.000000 0.000000
# 3 -0.001982 -0.004938 0.010059 0.000000 0.000000 0.000000
# 4 0.000000 0.000000 0.000000 0.042376 0.000000 0.000000
# 5 0.000000 0.000000 0.000000 0.000000 0.025193 0.000000
# 6 0.000000 0.000000 0.000000 0.000000 0.000000 0.057234
#
#
# Mechanical properties :
#
#
# Convention : Reuss Voigt Hill
#
# Bulk Modulus (GPa) = 47.76043 52.83884 50.29963
# Shear Modulus (GPa) = 27.34002 30.94977 29.14489
#
# Velocity S-wave (km/s) = 3.41532 3.63380 3.52625
# Velocity P-wave (km/s) = 5.99409 6.33634 6.16759
#
# Compressibility (1/GPa) = 0.02093783
#
# Stress axis : x y z
#
# Youngs Moduli (GPa) = 76.19487 77.91099 99.41161
#
# Poissons Ratio (x) = 0.04830 0.19704
# Poissons Ratio (y) = 0.04724 0.49093
# Poissons Ratio (z) = 0.15102 0.38475
#
# Static dielectric constant tensor:
#      x y z
#    x 4.501220 0.000000 0.000000 
#    y 0.000000 4.005420 0.000000 
#    z 0.000000 0.000000 4.417310 
# 
# 
# High freq. dielectric constant tensor:
#      x y z
#    x 1.936700 0.000000 0.000000 
#    y 0.000000 1.896730 0.000000 
#    z 0.000000 0.000000 1.929270 
# 
# From -- ./inp_files/2419.got.cif
#   From: 2010.03.12/outbox.cif.g09.slc.cpg/sg34_2_cif.got.tgz:2419.got - 2010.04.14 01:56:33.
