data_PCOD8171777
_publ_section_title
;
Structure prediction by ZEFSAII (Michael W. Deem and Ramdas Pophale) SiO2 
 PCOD8171777
Probable space group: P N A 21
;
_chemical_formula_sum "Si O2"
_cell_formula_units_Z 28
_cell_length_a 9.783511
_cell_length_b 10.392290
_cell_length_c 11.139302
_cell_angle_alpha 90.000000
_cell_angle_beta 90.000000
_cell_angle_gamma 90.000000
_cell_volume 1132.567183
_symmetry_space_group_name_H-M "P N A 21"
_symmetry_group_IT_number 33
_symmetry_cell_setting 'orthorhombic'
loop_
_space_group_symop_operation_xyz
x,y,z
-x,-y,1/2+z
1/2-x,1/2+y,1/2+z
1/2+x,1/2-y,z
loop_
_atom_site_type_symbol
_atom_site_label
_atom_site_fract_x
_atom_site_fract_y
_atom_site_fract_z
Si Si1 0.811249 0.625985 0.254360
Si Si2 0.089345 0.559163 0.312328
Si Si3 0.756954 0.263985 0.989364
Si Si4 0.544289 0.207439 0.389740
Si Si5 0.819008 0.019346 0.131867
Si Si6 0.394498 0.588075 0.686430
Si Si7 0.214099 0.725641 0.035859
O O1 0.814537 0.675163 0.390576
O O2 0.733430 0.489981 0.241088
O O3 0.730228 0.731400 0.174868
O O4 0.974710 0.621249 0.221851
O O5 0.126718 0.649599 0.425385
O O6 0.223307 0.505324 0.246620
O O7 0.001012 0.436109 0.354714
O O8 0.818783 0.167810 0.089298
O O9 0.648245 0.354423 0.057123
O O10 0.556884 0.300581 0.276264
O O11 0.689192 0.188444 0.453733
O O12 0.435347 0.256786 0.486909
O O13 0.976854 0.991923 0.167084
O O14 0.766129 0.922589 0.027700
#
# Coordination Sequence:
#
# PCOD8171777 Si02
#       7
#     4   4   4   4   4   4   4
#     4  12  28  49  78 115 158 214 267 333 404 480
#     4  12  26  48  80 111 161 207 270 327 411 477
#     4  12  27  50  79 121 160 214 269 338 399 490
#     4  12  25  48  77 110 152 207 258 332 401 483
#     4  12  26  47  78 115 157 210 266 333 401 483
#     4  12  28  48  81 116 163 208 274 333 407 483
#     4  12  26  48  75 110 155 202 266 326 403 476
#
# _framework density 24.722594999999998
#
# number of rings (size 3 to 8) (size 9 to 14) (size 15 to 20)
#    0.000    0.000    2.857    6.857    4.000    3.429 
#    0.000    0.000    0.000    0.000    0.000    0.000 
#    0.000    0.000    0.000    0.000    0.000    0.000 
#
# Total GULP energy -347184.631126 kJ/mol
# GULP energy per Si atom -12399.451112 kJ/mol
# Density = 2.466633 g / cm^3
# Si number density = 24.722595 Si / 1000 Ang^3
#
#
#
# Elastic Constant Matrix: (Units=GPa)
#
#
# Indices 1 2 3 4 5 6 
#
# 1 134.2074 44.6963 53.7395 0.0000 0.0000 0.0000
# 2 44.6963 127.6152 43.0166 0.0000 0.0000 0.0000
# 3 53.7395 43.0166 126.2486 0.0000 0.0000 0.0000
# 4 0.0000 0.0000 0.0000 51.4163 0.0000 0.0000
# 5 0.0000 0.0000 0.0000 0.0000 47.9047 0.0000
# 6 0.0000 0.0000 0.0000 0.0000 0.0000 33.0360
#
#
#
# Elastic Compliance Matrix: (Units=1/GPa)
#
#
# Indices 1 2 3 4 5 6 
#
# 1 0.009509 -0.002221 -0.003291 0.000000 0.000000 0.000000
# 2 -0.002221 0.009372 -0.002248 0.000000 0.000000 0.000000
# 3 -0.003291 -0.002248 0.010087 0.000000 0.000000 0.000000
# 4 0.000000 0.000000 0.000000 0.019449 0.000000 0.000000
# 5 0.000000 0.000000 0.000000 0.000000 0.020875 0.000000
# 6 0.000000 0.000000 0.000000 0.000000 0.000000 0.030270
#
#
# Mechanical properties :
#
#
# Convention : Reuss Voigt Hill
#
# Bulk Modulus (GPa) = 74.35686 74.55289 74.45488
# Shear Modulus (GPa) = 41.81886 42.91266 42.36576
#
# Velocity S-wave (km/s) = 4.11728 4.17077 4.14411
# Velocity P-wave (km/s) = 7.26253 7.30856 7.28558
#
# Compressibility (1/GPa) = 0.01344866
#
# Stress axis : x y z
#
# Youngs Moduli (GPa) = 105.16904 106.70482 99.13295
#
# Poissons Ratio (x) = 0.23700 0.32621
# Poissons Ratio (y) = 0.23359 0.22283
# Poissons Ratio (z) = 0.34607 0.23985
#
# Static dielectric constant tensor:
#      x y z
#    x 4.382070 0.000000 0.000000 
#    y 0.000000 4.573420 0.000000 
#    z 0.000000 0.000000 4.346780 
# 
# 
# High freq. dielectric constant tensor:
#      x y z
#    x 1.994830 0.000000 0.000000 
#    y 0.000000 1.994520 0.000000 
#    z 0.000000 0.000000 1.983830 
# 
# From -- ./inp_files/5873.got.cif
#   From: 2010.03.12/outbox.cif.g09.slc.cpg/sg33_3_cif.got.tgz:5873.got - 2010.04.14 01:49:19.
