data_PCOD8171064
_publ_section_title
;
Structure prediction by ZEFSAII (Michael W. Deem and Ramdas Pophale) SiO2 
 PCOD8171064
Probable space group: P N A 21
;
_chemical_formula_sum "Si O2"
_cell_formula_units_Z 24
_cell_length_a 8.007744
_cell_length_b 8.852435
_cell_length_c 15.750816
_cell_angle_alpha 90.000000
_cell_angle_beta 90.000000
_cell_angle_gamma 90.000000
_cell_volume 1116.544368
_symmetry_space_group_name_H-M "P N A 21"
_symmetry_group_IT_number 33
_symmetry_cell_setting 'orthorhombic'
loop_
_space_group_symop_operation_xyz
x,y,z
-x,-y,1/2+z
1/2-x,1/2+y,1/2+z
1/2+x,1/2-y,z
loop_
_atom_site_type_symbol
_atom_site_label
_atom_site_fract_x
_atom_site_fract_y
_atom_site_fract_z
Si Si1 0.925694 0.819687 0.380470
Si Si2 0.816709 0.554515 0.962156
Si Si3 0.233451 0.090811 0.124999
Si Si4 0.722923 0.546013 0.304817
Si Si5 0.884829 0.121470 0.051898
Si Si6 0.311307 0.123797 0.454153
O O1 0.854661 0.660937 0.348356
O O2 0.039114 0.879122 0.302308
O O3 0.041009 0.798415 0.465700
O O4 0.775876 0.935898 0.400378
O O5 0.701959 0.701271 0.976250
O O6 0.998331 0.591602 0.927735
O O7 0.846205 0.492844 0.056391
O O8 0.277287 0.267680 0.112401
O O9 0.037973 0.061205 0.107902
O O10 0.282172 0.019113 0.215078
O O11 0.706242 0.404519 0.368408
O O12 0.762767 0.982660 0.028709
#
# Coordination Sequence:
#
# PCOD8171064 Si02
#       6
#     4   4   4   4   4   4
#     4  10  21  41  63  85 120 162 202 241 298 365
#     4  11  22  40  64  89 119 159 202 243 295 364
#     4  11  23  39  61  90 120 157 201 250 301 349
#     4  11  23  39  61  90 120 157 201 250 301 349
#     4  10  21  41  63  85 120 162 202 241 298 365
#     4  11  22  40  64  89 119 159 202 243 295 364
#
# _framework density 21.494893000000001
#
# number of rings (size 3 to 8) (size 9 to 14) (size 15 to 20)
#    0.000    1.333    0.000   10.000    0.000    5.333 
#    0.000    3.333    0.000    0.000    0.000    0.000 
#    0.000    0.000    0.000    0.000    0.000    0.000 
#
# Total GULP energy -297493.824284 kJ/mol
# GULP energy per Si atom -12395.576012 kJ/mol
# Density = 2.144597 g / cm^3
# Si number density = 21.494893 Si / 1000 Ang^3
#
#
#
# Elastic Constant Matrix: (Units=GPa)
#
#
# Indices 1 2 3 4 5 6 
#
# 1 86.1320 14.6257 2.3194 0.0000 0.0000 0.0000
# 2 14.6257 104.5045 41.9909 0.0000 0.0000 0.0000
# 3 2.3194 41.9909 81.5322 0.0000 0.0000 0.0000
# 4 0.0000 0.0000 0.0000 31.9014 0.0000 0.0000
# 5 0.0000 0.0000 0.0000 0.0000 21.5090 0.0000
# 6 0.0000 0.0000 0.0000 0.0000 0.0000 32.4207
#
#
#
# Elastic Compliance Matrix: (Units=1/GPa)
#
#
# Indices 1 2 3 4 5 6 
#
# 1 0.011920 -0.001932 0.000656 0.000000 0.000000 0.000000
# 2 -0.001932 0.012379 -0.006320 0.000000 0.000000 0.000000
# 3 0.000656 -0.006320 0.015502 0.000000 0.000000 0.000000
# 4 0.000000 0.000000 0.000000 0.031347 0.000000 0.000000
# 5 0.000000 0.000000 0.000000 0.000000 0.046492 0.000000
# 6 0.000000 0.000000 0.000000 0.000000 0.000000 0.030844
#
#
# Mechanical properties :
#
#
# Convention : Reuss Voigt Hill
#
# Bulk Modulus (GPa) = 40.63708 43.33787 41.98747
# Shear Modulus (GPa) = 29.09008 31.38174 30.23591
#
# Velocity S-wave (km/s) = 3.68278 3.82509 3.75461
# Velocity P-wave (km/s) = 6.08525 6.30192 6.19453
#
# Compressibility (1/GPa) = 0.02460807
#
# Stress axis : x y z
#
# Youngs Moduli (GPa) = 83.88942 80.78226 64.50941
#
# Poissons Ratio (x) = 0.15606 -0.04231
# Poissons Ratio (y) = 0.16206 0.40773
# Poissons Ratio (z) = -0.05502 0.51058
#
# Static dielectric constant tensor:
#      x y z
#    x 3.981360 0.000000 0.000000 
#    y 0.000000 3.960630 0.000000 
#    z 0.000000 0.000000 3.631790 
# 
# 
# High freq. dielectric constant tensor:
#      x y z
#    x 1.858400 0.000000 0.000000 
#    y 0.000000 1.851290 0.000000 
#    z 0.000000 0.000000 1.808790 
# 
# From -- ./inp_files/7550.got.cif
#   From: 2010.03.12/outbox.cif.g09.slc.cpg/sg33_4_cif.got.tgz:7550.got - 2010.04.14 01:49:19.
