data_PCOD8171022
_publ_section_title
;
Structure prediction by ZEFSAII (Michael W. Deem and Ramdas Pophale) SiO2 
 PCOD8171022
Probable space group: P N A 21
;
_chemical_formula_sum "Si O2"
_cell_formula_units_Z 24
_cell_length_a 4.931699
_cell_length_b 24.936673
_cell_length_c 8.683547
_cell_angle_alpha 90.000000
_cell_angle_beta 90.000000
_cell_angle_gamma 90.000000
_cell_volume 1067.904045
_symmetry_space_group_name_H-M "P N A 21"
_symmetry_group_IT_number 33
_symmetry_cell_setting 'orthorhombic'
loop_
_space_group_symop_operation_xyz
x,y,z
-x,-y,1/2+z
1/2-x,1/2+y,1/2+z
1/2+x,1/2-y,z
loop_
_atom_site_type_symbol
_atom_site_label
_atom_site_fract_x
_atom_site_fract_y
_atom_site_fract_z
Si Si1 0.644036 0.601457 0.099860
Si Si2 0.183564 0.434628 0.933768
Si Si3 0.853911 0.442585 0.438815
Si Si4 0.999865 0.784404 0.548604
Si Si5 0.313904 0.602290 0.613724
Si Si6 0.484916 0.715531 0.189963
O O1 0.770984 0.585946 0.262408
O O2 0.562148 0.663824 0.090538
O O3 0.372845 0.567346 0.069231
O O4 0.871221 0.590067 0.971414
O O5 0.070873 0.494922 0.933640
O O6 0.461964 0.433087 0.027701
O O7 0.959566 0.396302 0.012025
O O8 0.736962 0.424638 0.276378
O O9 0.798350 0.735855 0.591823
O O10 0.922367 0.837511 0.642533
O O11 0.994472 0.800302 0.369172
O O12 0.684425 0.764654 0.148681
#
# Coordination Sequence:
#
# PCOD8171022 Si02
#       6
#     4   4   4   4   4   4
#     4  12  25  44  67  99 131 173 218 271 328 387
#     4  12  24  43  70  94 128 179 229 259 314 392
#     4  12  26  43  64  98 140 170 211 274 333 386
#     4  10  21  39  66  97 124 165 220 273 315 381
#     4  12  25  44  67  99 131 174 218 270 328 387
#     4  10  21  39  66  97 124 165 220 273 316 381
#
# _framework density 22.473928999999998
#
# number of rings (size 3 to 8) (size 9 to 14) (size 15 to 20)
#    0.000    0.667    1.667    7.000    4.667    0.000 
#    0.000    5.000    0.000    0.000    0.000    0.000 
#    0.000    0.000    0.000    0.000    0.000    0.000 
#
# Total GULP energy -297796.329186 kJ/mol
# GULP energy per Si atom -12408.180383 kJ/mol
# Density = 2.242278 g / cm^3
# Si number density = 22.473929 Si / 1000 Ang^3
#
#
#
# Elastic Constant Matrix: (Units=GPa)
#
#
# Indices 1 2 3 4 5 6 
#
# 1 99.0042 0.9384 11.3245 0.0000 0.0000 0.0000
# 2 0.9384 85.7100 23.4774 0.0000 0.0000 0.0000
# 3 11.3245 23.4774 58.4674 0.0000 0.0000 0.0000
# 4 0.0000 0.0000 0.0000 18.3936 0.0000 0.0000
# 5 0.0000 0.0000 0.0000 0.0000 34.8369 0.0000
# 6 0.0000 0.0000 0.0000 0.0000 0.0000 26.7094
#
#
#
# Elastic Compliance Matrix: (Units=1/GPa)
#
#
# Indices 1 2 3 4 5 6 
#
# 1 0.010348 0.000490 -0.002201 0.000000 0.000000 0.000000
# 2 0.000490 0.013132 -0.005368 0.000000 0.000000 0.000000
# 3 -0.002201 -0.005368 0.019685 0.000000 0.000000 0.000000
# 4 0.000000 0.000000 0.000000 0.054367 0.000000 0.000000
# 5 0.000000 0.000000 0.000000 0.000000 0.028705 0.000000
# 6 0.000000 0.000000 0.000000 0.000000 0.000000 0.037440
#
#
# Mechanical properties :
#
#
# Convention : Reuss Voigt Hill
#
# Bulk Modulus (GPa) = 34.47482 34.96248 34.71865
# Shear Modulus (GPa) = 26.66601 29.81743 28.24172
#
# Velocity S-wave (km/s) = 3.44834 3.64642 3.54876
# Velocity P-wave (km/s) = 5.58820 5.77228 5.68098
#
# Compressibility (1/GPa) = 0.02900668
#
# Stress axis : x y z
#
# Youngs Moduli (GPa) = 96.64002 76.14821 50.79921
#
# Poissons Ratio (x) = -0.03728 0.11180
# Poissons Ratio (y) = -0.04731 0.27269
# Poissons Ratio (z) = 0.21269 0.40877
#
# Static dielectric constant tensor:
#      x y z
#    x 4.292470 0.000000 0.000000 
#    y 0.000000 4.499790 0.000000 
#    z 0.000000 0.000000 3.813440 
# 
# 
# High freq. dielectric constant tensor:
#      x y z
#    x 1.906290 0.000000 0.000000 
#    y 0.000000 1.895200 0.000000 
#    z 0.000000 0.000000 1.863740 
# 
# From -- ./inp_files/2696.got.cif
#   From: 2010.03.12/outbox.cif.g09.slc.cpg/sg33_2_cif.got.tgz:2696.got - 2010.04.14 01:49:19.
