data_PCOD8171074
_publ_section_title
;
Structure prediction by ZEFSAII (Michael W. Deem and Ramdas Pophale) SiO2 
 PCOD8171074
Probable space group: P N A 21
;
_chemical_formula_sum "Si O2"
_cell_formula_units_Z 24
_cell_length_a 13.893619
_cell_length_b 9.102290
_cell_length_c 9.373928
_cell_angle_alpha 90.000000
_cell_angle_beta 90.000000
_cell_angle_gamma 90.000000
_cell_volume 1185.462080
_symmetry_space_group_name_H-M "P N A 21"
_symmetry_group_IT_number 33
_symmetry_cell_setting 'orthorhombic'
loop_
_space_group_symop_operation_xyz
x,y,z
-x,-y,1/2+z
1/2-x,1/2+y,1/2+z
1/2+x,1/2-y,z
loop_
_atom_site_type_symbol
_atom_site_label
_atom_site_fract_x
_atom_site_fract_y
_atom_site_fract_z
Si Si1 0.853636 0.170786 0.925710
Si Si2 0.501342 0.103537 0.994298
Si Si3 0.699688 0.137396 0.152567
Si Si4 0.251864 0.181130 0.678073
Si Si5 0.728346 0.378034 0.366981
Si Si6 0.609806 0.067272 0.718217
O O1 0.836099 0.245612 0.771433
O O2 0.856553 0.993628 0.909249
O O3 0.951931 0.234435 0.992820
O O4 0.764724 0.211470 0.029912
O O5 0.597781 0.101428 0.084557
O O6 0.428109 0.986173 0.064254
O O7 0.522672 0.059391 0.831258
O O8 0.680076 0.247280 0.281095
O O9 0.752888 0.992437 0.216210
O O10 0.277731 0.188480 0.509379
O O11 0.150900 0.266358 0.705649
O O12 0.806632 0.459209 0.270619
#
# Coordination Sequence:
#
# PCOD8171074 Si02
#       6
#     4   4   4   4   4   4
#     4  10  22  42  62  93 135 167 217 278 327 401
#     4  12  23  42  68 100 129 179 225 280 338 412
#     4  11  22  43  68  92 133 175 224 278 339 400
#     4  10  21  41  65  94 127 171 217 275 335 401
#     4  10  22  43  63  94 126 177 223 269 341 397
#     4  11  24  41  68  97 130 175 230 274 342 407
#
# _framework density 20.245270999999999
#
# number of rings (size 3 to 8) (size 9 to 14) (size 15 to 20)
#    0.000    1.333    6.667    1.000    4.667    0.000 
#    6.000    0.000    0.000    0.000    0.000    0.000 
#    0.000    0.000    0.000    0.000    0.000    0.000 
#
# Total GULP energy -297489.775608 kJ/mol
# GULP energy per Si atom -12395.407317 kJ/mol
# Density = 2.019919 g / cm^3
# Si number density = 20.245271 Si / 1000 Ang^3
#
#
#
# Elastic Constant Matrix: (Units=GPa)
#
#
# Indices 1 2 3 4 5 6 
#
# 1 69.8278 36.6946 19.4533 0.0000 0.0000 0.0000
# 2 36.6946 111.9153 64.9095 0.0000 0.0000 0.0000
# 3 19.4533 64.9095 89.6618 0.0000 0.0000 0.0000
# 4 0.0000 0.0000 0.0000 44.6311 0.0000 0.0000
# 5 0.0000 0.0000 0.0000 0.0000 29.2795 0.0000
# 6 0.0000 0.0000 0.0000 0.0000 0.0000 27.5296
#
#
#
# Elastic Compliance Matrix: (Units=1/GPa)
#
#
# Indices 1 2 3 4 5 6 
#
# 1 0.017321 -0.006033 0.000609 0.000000 0.000000 0.000000
# 2 -0.006033 0.017503 -0.011363 0.000000 0.000000 0.000000
# 3 0.000609 -0.011363 0.019247 0.000000 0.000000 0.000000
# 4 0.000000 0.000000 0.000000 0.022406 0.000000 0.000000
# 5 0.000000 0.000000 0.000000 0.000000 0.034154 0.000000
# 6 0.000000 0.000000 0.000000 0.000000 0.000000 0.036325
#
#
# Mechanical properties :
#
#
# Convention : Reuss Voigt Hill
#
# Bulk Modulus (GPa) = 48.78186 57.05772 52.91979
# Shear Modulus (GPa) = 26.68651 30.31120 28.49886
#
# Velocity S-wave (km/s) = 3.63459 3.87356 3.75598
# Velocity P-wave (km/s) = 6.46230 6.94625 6.70864
#
# Compressibility (1/GPa) = 0.02049942
#
# Stress axis : x y z
#
# Youngs Moduli (GPa) = 57.73216 57.13179 51.95721
#
# Poissons Ratio (x) = 0.34465 -0.03165
# Poissons Ratio (y) = 0.34827 0.59036
# Poissons Ratio (z) = -0.03516 0.64916
#
# Static dielectric constant tensor:
#      x y z
#    x 3.477230 0.000000 0.000000 
#    y 0.000000 3.864330 0.000000 
#    z 0.000000 0.000000 3.970700 
# 
# 
# High freq. dielectric constant tensor:
#      x y z
#    x 1.764350 0.000000 0.000000 
#    y 0.000000 1.787610 0.000000 
#    z 0.000000 0.000000 1.805870 
# 
# From -- ./inp_files/4235.got.cif
#   From: 2010.03.12/outbox.cif.g09.slc.cpg/sg33_3_cif.got.tgz:4235.got - 2010.04.14 01:49:19.
