data_PCOD8171961
_publ_section_title
;
Structure prediction by ZEFSAII (Michael W. Deem and Ramdas Pophale) SiO2 
 PCOD8171961
Probable space group: P N N 2
;
_chemical_formula_sum "Si O2"
_cell_formula_units_Z 32
_cell_length_a 12.072957
_cell_length_b 9.266049
_cell_length_c 15.048267
_cell_angle_alpha 90.000000
_cell_angle_beta 90.000000
_cell_angle_gamma 90.000000
_cell_volume 1683.428729
_symmetry_space_group_name_H-M "P N N 2"
_symmetry_group_IT_number 34
_symmetry_cell_setting 'orthorhombic'
loop_
_space_group_symop_operation_xyz
x,y,z
-x,-y,z
1/2-x,1/2+y,1/2+z
1/2+x,1/2-y,1/2+z
loop_
_atom_site_type_symbol
_atom_site_label
_atom_site_fract_x
_atom_site_fract_y
_atom_site_fract_z
Si Si1 0.126506 0.669599 0.064280
Si Si2 0.733832 0.171769 0.206927
Si Si3 0.488772 0.839668 0.937245
Si Si4 0.371513 0.830332 0.565958
Si Si5 0.209962 0.836044 0.408512
Si Si6 0.007583 0.340207 0.642374
Si Si7 0.722746 0.331955 0.899488
Si Si8 0.274603 0.164537 0.199565
O O1 0.171897 0.747390 0.151764
O O2 0.138858 0.500241 0.081093
O O3 0.998826 0.714607 0.050837
O O4 0.193527 0.720293 0.976547
O O5 0.750018 0.198808 0.310225
O O6 0.612067 0.239766 0.187347
O O7 0.738821 0.004487 0.177187
O O8 0.598795 0.749917 0.924159
O O9 0.386222 0.763915 0.890198
O O10 0.500000 0.000000 0.896371
O O11 0.460960 0.848730 0.040158
O O12 0.302687 0.783432 0.478552
O O13 0.326168 0.749311 0.653480
O O14 0.185089 0.005072 0.419506
O O15 0.000000 0.500000 0.684840
O O16 0.888783 0.266308 0.660429
O O17 0.782400 0.315180 0.805114
#
# Coordination Sequence:
#
# PCOD8171961 Si02
#       8
#     4   4   4   4   4   4   4   4
#     4  10  22  39  57  82 116 151 186 231 285 335
#     4  10  21  38  60  84 111 148 192 234 278 334
#     4  11  21  37  61  84 113 148 188 237 283 333
#     4  10  22  39  57  82 116 151 186 231 285 335
#     4  10  22  38  59  85 114 149 190 234 281 335
#     4   9  18  35  59  84 107 140 188 237 279 323
#     4  10  22  38  59  85 114 149 190 234 281 335
#     4  10  21  38  60  84 111 148 192 234 278 334
#
# _framework density 19.008825000000002
#
# number of rings (size 3 to 8) (size 9 to 14) (size 15 to 20)
#    0.000    2.000    2.500    0.375    3.500    1.500 
#    0.000    0.625    0.000    0.000    0.000    0.000 
#    0.000    0.000    0.000    0.000    0.000    0.000 
#
# Total GULP energy -396797.655413 kJ/mol
# GULP energy per Si atom -12399.926732 kJ/mol
# Density = 1.896556 g / cm^3
# Si number density = 19.008825 Si / 1000 Ang^3
#
#
#
# Elastic Constant Matrix: (Units=GPa)
#
#
# Indices 1 2 3 4 5 6 
#
# 1 133.8476 36.4708 25.9976 0.0000 0.0000 0.0000
# 2 36.4708 43.6139 22.0303 0.0000 0.0000 0.0000
# 3 25.9976 22.0303 77.1230 0.0000 0.0000 0.0000
# 4 0.0000 0.0000 0.0000 18.6837 0.0000 0.0000
# 5 0.0000 0.0000 0.0000 0.0000 16.9960 0.0000
# 6 0.0000 0.0000 0.0000 0.0000 0.0000 22.1236
#
#
#
# Elastic Compliance Matrix: (Units=1/GPa)
#
#
# Indices 1 2 3 4 5 6 
#
# 1 0.009758 -0.007594 -0.001120 0.000000 0.000000 0.000000
# 2 -0.007594 0.032705 -0.006782 0.000000 0.000000 0.000000
# 3 -0.001120 -0.006782 0.015281 0.000000 0.000000 0.000000
# 4 0.000000 0.000000 0.000000 0.053523 0.000000 0.000000
# 5 0.000000 0.000000 0.000000 0.000000 0.058838 0.000000
# 6 0.000000 0.000000 0.000000 0.000000 0.000000 0.045201
#
#
# Mechanical properties :
#
#
# Convention : Reuss Voigt Hill
#
# Bulk Modulus (GPa) = 37.38165 47.06466 42.22315
# Shear Modulus (GPa) = 19.59140 22.89971 21.24555
#
# Velocity S-wave (km/s) = 3.21385 3.47463 3.34678
# Velocity P-wave (km/s) = 5.78618 6.39613 6.09879
#
# Compressibility (1/GPa) = 0.02675110
#
# Stress axis : x y z
#
# Youngs Moduli (GPa) = 102.48040 30.57679 65.43976
#
# Poissons Ratio (x) = 0.23220 0.07330
# Poissons Ratio (y) = 0.77824 0.44383
# Poissons Ratio (z) = 0.11479 0.20738
#
# Static dielectric constant tensor:
#      x y z
#    x 3.728470 0.000000 0.000000 
#    y 0.000000 3.404670 0.000000 
#    z 0.000000 0.000000 3.591620 
# 
# 
# High freq. dielectric constant tensor:
#      x y z
#    x 1.753010 0.000000 0.000000 
#    y 0.000000 1.717500 0.000000 
#    z 0.000000 0.000000 1.744190 
# 
# From -- ./inp_files/6569.got.cif
#   From: 2010.03.12/outbox.cif.g09.slc.cpg/sg34_4_cif.got.tgz:6569.got - 2010.04.14 01:56:33.
