data_PCOD8171509
_publ_section_title
;
Structure prediction by ZEFSAII (Michael W. Deem and Ramdas Pophale) SiO2 
 PCOD8171509
Probable space group: P N A 21
;
_chemical_formula_sum "Si O2"
_cell_formula_units_Z 28
_cell_length_a 12.052960
_cell_length_b 14.699085
_cell_length_c 8.401289
_cell_angle_alpha 90.000000
_cell_angle_beta 90.000000
_cell_angle_gamma 90.000000
_cell_volume 1488.435231
_symmetry_space_group_name_H-M "P N A 21"
_symmetry_group_IT_number 33
_symmetry_cell_setting 'orthorhombic'
loop_
_space_group_symop_operation_xyz
x,y,z
-x,-y,1/2+z
1/2-x,1/2+y,1/2+z
1/2+x,1/2-y,z
loop_
_atom_site_type_symbol
_atom_site_label
_atom_site_fract_x
_atom_site_fract_y
_atom_site_fract_z
Si Si1 0.877392 0.571721 0.855100
Si Si2 0.735423 0.930580 0.570279
Si Si3 0.878787 0.350618 0.350222
Si Si4 0.741239 0.994810 0.059934
Si Si5 0.330881 0.342830 0.462471
Si Si6 0.599068 0.465140 0.828114
Si Si7 0.650838 0.574222 0.279083
O O1 0.850943 0.530593 0.681831
O O2 0.794462 0.655815 0.893095
O O3 0.002165 0.603336 0.854530
O O4 0.857685 0.496825 0.993304
O O5 0.671456 0.852936 0.670025
O O6 0.818542 0.897582 0.429465
O O7 0.817271 0.981193 0.691896
O O8 0.801636 0.404492 0.472750
O O9 0.892400 0.246523 0.401386
O O10 0.855493 0.967372 0.148258
O O11 0.770879 0.076715 0.935925
O O12 0.395529 0.432914 0.402237
O O13 0.328614 0.342218 0.656721
O O14 0.476685 0.425878 0.833191
#
# Coordination Sequence:
#
# PCOD8171509 Si02
#       7
#     4   4   4   4   4   4   4
#     4   9  19  36  51  72 108 140 174 213 255 316
#     4   8  18  31  50  77 102 138 182 204 246 329
#     4  11  19  33  56  77 103 136 172 221 266 296
#     4   9  18  31  53  76 100 142 181 203 252 328
#     4   9  21  33  50  81 104 128 177 222 257 308
#     4   9  17  34  53  75 107 140 174 210 254 316
#     4   9  16  32  55  76 104 138 170 211 260 311
#
# _framework density 18.811700999999999
#
# number of rings (size 3 to 8) (size 9 to 14) (size 15 to 20)
#    0.000    3.429    0.000    2.571    0.000    3.429 
#    0.000    5.714    0.000    6.857    0.000    0.000 
#    0.000    0.000    0.000    0.000    0.000    0.000 
#
# Total GULP energy -346891.932936 kJ/mol
# GULP energy per Si atom -12388.997605 kJ/mol
# Density = 1.876889 g / cm^3
# Si number density = 18.811701 Si / 1000 Ang^3
#
#
#
# Elastic Constant Matrix: (Units=GPa)
#
#
# Indices 1 2 3 4 5 6 
#
# 1 68.1158 23.0413 29.9610 0.0000 0.0000 0.0000
# 2 23.0413 57.0124 32.1997 0.0000 0.0000 0.0000
# 3 29.9610 32.1997 109.1815 0.0000 0.0000 0.0000
# 4 0.0000 0.0000 0.0000 21.9581 0.0000 0.0000
# 5 0.0000 0.0000 0.0000 0.0000 26.6660 0.0000
# 6 0.0000 0.0000 0.0000 0.0000 0.0000 13.2108
#
#
#
# Elastic Compliance Matrix: (Units=1/GPa)
#
#
# Indices 1 2 3 4 5 6 
#
# 1 0.017970 -0.005372 -0.003347 0.000000 0.000000 0.000000
# 2 -0.005372 0.022652 -0.005206 0.000000 0.000000 0.000000
# 3 -0.003347 -0.005206 0.011613 0.000000 0.000000 0.000000
# 4 0.000000 0.000000 0.000000 0.045541 0.000000 0.000000
# 5 0.000000 0.000000 0.000000 0.000000 0.037501 0.000000
# 6 0.000000 0.000000 0.000000 0.000000 0.000000 0.075696
#
#
# Mechanical properties :
#
#
# Convention : Reuss Voigt Hill
#
# Bulk Modulus (GPa) = 41.01047 44.96820 42.98933
# Shear Modulus (GPa) = 20.24686 22.30748 21.27717
#
# Velocity S-wave (km/s) = 3.28425 3.44732 3.36677
# Velocity P-wave (km/s) = 6.01910 6.30886 6.16568
#
# Compressibility (1/GPa) = 0.02438402
#
# Stress axis : x y z
#
# Youngs Moduli (GPa) = 55.64733 44.14692 86.11121
#
# Poissons Ratio (x) = 0.23717 0.28821
# Poissons Ratio (y) = 0.29896 0.44831
# Poissons Ratio (z) = 0.18625 0.22984
#
# Static dielectric constant tensor:
#      x y z
#    x 3.372300 0.000000 0.000000 
#    y 0.000000 2.982180 0.000000 
#    z 0.000000 0.000000 3.969200 
# 
# 
# High freq. dielectric constant tensor:
#      x y z
#    x 1.732040 0.000000 0.000000 
#    y 0.000000 1.672500 0.000000 
#    z 0.000000 0.000000 1.754280 
# 
# From -- ./inp_files/3893.got.cif
#   From: 2010.03.12/outbox.cif.g09.slc.cpg/sg33_2_cif.got.tgz:3893.got - 2010.04.14 01:49:19.
