data_PCOD8171243
_publ_section_title
;
Structure prediction by ZEFSAII (Michael W. Deem and Ramdas Pophale) SiO2 
 PCOD8171243
Probable space group: P N A 21
;
_chemical_formula_sum "Si O2"
_cell_formula_units_Z 16
_cell_length_a 8.737124
_cell_length_b 13.250706
_cell_length_c 4.750337
_cell_angle_alpha 90.000000
_cell_angle_beta 90.000000
_cell_angle_gamma 90.000000
_cell_volume 549.961057
_symmetry_space_group_name_H-M "P N A 21"
_symmetry_group_IT_number 33
_symmetry_cell_setting 'orthorhombic'
loop_
_space_group_symop_operation_xyz
x,y,z
-x,-y,1/2+z
1/2-x,1/2+y,1/2+z
1/2+x,1/2-y,z
loop_
_atom_site_type_symbol
_atom_site_label
_atom_site_fract_x
_atom_site_fract_y
_atom_site_fract_z
Si Si1 0.747342 0.379120 0.107680
Si Si2 0.442439 0.797812 0.457892
Si Si3 0.977636 0.927870 0.071792
Si Si4 0.295277 0.895418 0.966779
O O1 0.678326 0.386953 0.426144
O O2 0.610754 0.321165 0.925502
O O3 0.812911 0.483805 0.990839
O O4 0.890374 0.302989 0.097325
O O5 0.320618 0.858378 0.650005
O O6 0.431442 0.845963 0.149909
O O7 0.127425 0.854869 0.078569
O O8 0.053509 0.016783 0.868585
#
# Coordination Sequence:
#
# PCOD8171243 Si02
#       4
#     4   4   4   4
#     4  11  26  47  71 104 145 183 239 296 354 429
#     4  12  27  44  71 104 138 190 237 293 361 425
#     4  10  22  42  73 102 136 184 230 289 358 419
#     4  11  25  47  71 102 141 185 236 294 357 421
#
# _framework density 29.092972
#
# number of rings (size 3 to 8) (size 9 to 14) (size 15 to 20)
#    0.000    1.000    0.000    6.000    0.000   18.000 
#    0.000    0.000    0.000    0.000    0.000    0.000 
#    0.000    0.000    0.000    0.000    0.000    0.000 
#
# Total GULP energy -198348.792676 kJ/mol
# GULP energy per Si atom -12396.799542 kJ/mol
# Density = 2.902676 g / cm^3
# Si number density = 29.092972 Si / 1000 Ang^3
#
#
#
# Elastic Constant Matrix: (Units=GPa)
#
#
# Indices 1 2 3 4 5 6 
#
# 1 138.9332 26.4482 -7.4843 0.0000 0.0000 0.0000
# 2 26.4482 170.5489 22.9784 0.0000 0.0000 0.0000
# 3 -7.4843 22.9784 81.3056 0.0000 0.0000 0.0000
# 4 0.0000 0.0000 0.0000 41.0009 0.0000 0.0000
# 5 0.0000 0.0000 0.0000 0.0000 41.7929 0.0000
# 6 0.0000 0.0000 0.0000 0.0000 0.0000 43.6923
#
#
#
# Elastic Compliance Matrix: (Units=1/GPa)
#
#
# Indices 1 2 3 4 5 6 
#
# 1 0.007504 -0.001306 0.001060 0.000000 0.000000 0.000000
# 2 -0.001306 0.006323 -0.001907 0.000000 0.000000 0.000000
# 3 0.001060 -0.001907 0.012936 0.000000 0.000000 0.000000
# 4 0.000000 0.000000 0.000000 0.024390 0.000000 0.000000
# 5 0.000000 0.000000 0.000000 0.000000 0.023927 0.000000
# 6 0.000000 0.000000 0.000000 0.000000 0.000000 0.022887
#
#
# Mechanical properties :
#
#
# Convention : Reuss Voigt Hill
#
# Bulk Modulus (GPa) = 44.53380 52.74139 48.63760
# Shear Modulus (GPa) = 45.55421 48.55358 47.05389
#
# Velocity S-wave (km/s) = 3.96133 4.08966 4.02601
# Velocity P-wave (km/s) = 6.02192 6.36148 6.19402
#
# Compressibility (1/GPa) = 0.02245485
#
# Stress axis : x y z
#
# Youngs Moduli (GPa) = 133.27112 158.15312 77.30444
#
# Poissons Ratio (x) = 0.20662 -0.08194
# Poissons Ratio (y) = 0.17411 0.14744
# Poissons Ratio (z) = -0.14126 0.30164
#
# Static dielectric constant tensor:
#      x y z
#    x 5.479580 0.000000 0.000000 
#    y 0.000000 5.487430 0.000000 
#    z 0.000000 0.000000 5.289870 
# 
# 
# High freq. dielectric constant tensor:
#      x y z
#    x 2.200950 0.000000 0.000000 
#    y 0.000000 2.202170 0.000000 
#    z 0.000000 0.000000 2.187690 
# 
# From -- ./inp_files/284.got.cif
#   From: 2010.03.12/outbox.cif.g09.slc.cpg/sg33_1_cif.got.tgz:284.got - 2010.04.14 01:49:19.
