data_PCOD8171915
_publ_section_title
;
Structure prediction by ZEFSAII (Michael W. Deem and Ramdas Pophale) SiO2 
 PCOD8171915
Probable space group: P N N 2
;
_chemical_formula_sum "Si O2"
_cell_formula_units_Z 24
_cell_length_a 15.168596
_cell_length_b 9.007225
_cell_length_c 9.367856
_cell_angle_alpha 90.000000
_cell_angle_beta 90.000000
_cell_angle_gamma 90.000000
_cell_volume 1279.901660
_symmetry_space_group_name_H-M "P N N 2"
_symmetry_group_IT_number 34
_symmetry_cell_setting 'orthorhombic'
loop_
_space_group_symop_operation_xyz
x,y,z
-x,-y,z
1/2-x,1/2+y,1/2+z
1/2+x,1/2-y,1/2+z
loop_
_atom_site_type_symbol
_atom_site_label
_atom_site_fract_x
_atom_site_fract_y
_atom_site_fract_z
Si Si1 0.988615 0.167563 0.683400
Si Si2 0.015049 0.834944 0.356051
Si Si3 0.596579 0.072093 0.883354
Si Si4 0.664262 0.151409 0.176128
Si Si5 0.842509 0.332070 0.179604
Si Si6 0.408789 0.087022 0.371310
O O1 0.952790 0.169327 0.520775
O O2 0.921607 0.263793 0.778283
O O3 0.083807 0.238369 0.693690
O O4 0.000000 0.000000 0.741240
O O5 0.088793 0.776522 0.251441
O O6 0.924451 0.741052 0.335425
O O7 0.000000 0.000000 0.303197
O O8 0.500000 0.000000 0.916228
O O9 0.652626 0.989700 0.761673
O O10 0.657448 0.069530 0.023400
O O11 0.749086 0.253549 0.192693
O O12 0.660989 0.022359 0.295006
O O13 0.865773 0.360903 0.016989
O O14 0.500000 0.000000 0.398121
#
# Coordination Sequence:
#
# PCOD8171915 Si02
#       6
#     4   4   4   4   4   4
#     4   9  19  37  60  80 107 149 186 213 265 341
#     4   9  18  35  59  81 107 147 186 216 264 339
#     4   9  18  38  59  75 107 152 182 211 271 343
#     4  10  21  36  55  80 109 144 182 223 274 326
#     4  11  22  35  56  85 109 138 184 235 275 309
#     4  10  20  37  57  79 111 146 180 224 275 326
#
# _framework density 18.751439999999999
#
# number of rings (size 3 to 8) (size 9 to 14) (size 15 to 20)
#    0.000    2.333    0.000    5.000    0.000    6.000 
#    0.000    5.000    0.000    0.000    0.000    0.000 
#    0.000    0.000    0.000    0.000    0.000    0.000 
#
# Total GULP energy -297534.215728 kJ/mol
# GULP energy per Si atom -12397.258989 kJ/mol
# Density = 1.870876 g / cm^3
# Si number density = 18.751440 Si / 1000 Ang^3
#
#
#
# Elastic Constant Matrix: (Units=GPa)
#
#
# Indices 1 2 3 4 5 6 
#
# 1 71.8451 39.2376 58.3440 0.0000 0.0000 0.0000
# 2 39.2376 150.6806 70.7682 0.0000 0.0000 0.0000
# 3 58.3440 70.7682 127.7369 0.0000 0.0000 0.0000
# 4 0.0000 0.0000 0.0000 21.9804 0.0000 0.0000
# 5 0.0000 0.0000 0.0000 0.0000 17.6967 0.0000
# 6 0.0000 0.0000 0.0000 0.0000 0.0000 28.4406
#
#
#
# Elastic Compliance Matrix: (Units=1/GPa)
#
#
# Indices 1 2 3 4 5 6 
#
# 1 0.022338 -0.001385 -0.009435 0.000000 0.000000 0.000000
# 2 -0.001385 0.009057 -0.004385 0.000000 0.000000 0.000000
# 3 -0.009435 -0.004385 0.014567 0.000000 0.000000 0.000000
# 4 0.000000 0.000000 0.000000 0.045495 0.000000 0.000000
# 5 0.000000 0.000000 0.000000 0.000000 0.056508 0.000000
# 6 0.000000 0.000000 0.000000 0.000000 0.000000 0.035161
#
#
# Mechanical properties :
#
#
# Convention : Reuss Voigt Hill
#
# Bulk Modulus (GPa) = 64.30501 76.32912 70.31707
# Shear Modulus (GPa) = 22.86032 25.75107 24.30569
#
# Velocity S-wave (km/s) = 3.49538 3.70981 3.60419
# Velocity P-wave (km/s) = 7.11745 7.69053 7.40953
#
# Compressibility (1/GPa) = 0.01555089
#
# Stress axis : x y z
#
# Youngs Moduli (GPa) = 44.76756 110.41627 68.64700
#
# Poissons Ratio (x) = 0.15298 0.64769
# Poissons Ratio (y) = 0.06202 0.30100
# Poissons Ratio (z) = 0.42239 0.48414
#
# Static dielectric constant tensor:
#      x y z
#    x 3.192610 0.000000 0.000000 
#    y 0.000000 3.848930 0.000000 
#    z 0.000000 0.000000 3.510510 
# 
# 
# High freq. dielectric constant tensor:
#      x y z
#    x 1.699780 0.000000 0.000000 
#    y 0.000000 1.747320 0.000000 
#    z 0.000000 0.000000 1.729540 
# 
# From -- ./inp_files/3533.got.cif
#   From: 2010.03.12/outbox.cif.g09.slc.cpg/sg34_2_cif.got.tgz:3533.got - 2010.04.14 01:56:33.
