data_PCOD8171130
_publ_section_title
;
Structure prediction by ZEFSAII (Michael W. Deem and Ramdas Pophale) SiO2 
 PCOD8171130
Probable space group: P N A 21
;
_chemical_formula_sum "Si O2"
_cell_formula_units_Z 32
_cell_length_a 10.654266
_cell_length_b 15.554224
_cell_length_c 8.748872
_cell_angle_alpha 90.000000
_cell_angle_beta 90.000000
_cell_angle_gamma 90.000000
_cell_volume 1449.852918
_symmetry_space_group_name_H-M "P N A 21"
_symmetry_group_IT_number 33
_symmetry_cell_setting 'orthorhombic'
loop_
_space_group_symop_operation_xyz
x,y,z
-x,-y,1/2+z
1/2-x,1/2+y,1/2+z
1/2+x,1/2-y,z
loop_
_atom_site_type_symbol
_atom_site_label
_atom_site_fract_x
_atom_site_fract_y
_atom_site_fract_z
Si Si1 0.206173 0.868957 0.369180
Si Si2 0.875830 0.061949 0.561524
Si Si3 0.379289 0.023404 0.348519
Si Si4 0.976913 0.882229 0.561066
Si Si5 0.129438 0.521020 0.495050
Si Si6 0.997266 0.801764 0.876406
Si Si7 0.256754 0.676469 0.351034
Si Si8 0.769456 0.313903 0.489318
O O1 0.146877 0.872254 0.199860
O O2 0.233080 0.771336 0.414575
O O3 0.112026 0.905297 0.495061
O O4 0.330682 0.926616 0.375054
O O5 0.975078 0.103832 0.446092
O O6 0.922494 0.970882 0.630068
O O7 0.746357 0.043405 0.471670
O O8 0.393732 0.044144 0.170877
O O9 0.282221 0.090869 0.420611
O O10 0.513409 0.031567 0.427824
O O11 0.891521 0.850593 0.418970
O O12 0.990320 0.810461 0.692904
O O13 0.149527 0.611282 0.408430
O O14 0.107884 0.738947 0.934480
O O15 0.859180 0.769825 0.928664
O O16 0.249389 0.677708 0.169288
#
# Coordination Sequence:
#
# PCOD8171130 Si02
#       8
#     4   4   4   4   4   4   4   4
#     4  11  24  42  70  99 134 190 227 292 351 434
#     4  10  21  47  68  99 139 187 236 286 360 426
#     4  11  25  44  72 102 151 184 247 289 371 424
#     4  11  25  42  73  99 143 176 245 291 361 426
#     4  10  24  43  72 104 143 189 236 298 351 439
#     4  12  27  44  73 105 144 185 242 300 361 429
#     4  11  25  44  71 102 140 187 241 293 364 429
#     4  12  27  46  71 104 146 190 242 301 365 435
#
# _framework density 22.071206
#
# number of rings (size 3 to 8) (size 9 to 14) (size 15 to 20)
#    0.000    1.000    1.250    5.250    7.000    4.000 
#    0.000    0.000    0.000    0.000    0.000    0.000 
#    0.000    0.000    0.000    0.000    0.000    0.000 
#
# Total GULP energy -396850.542555 kJ/mol
# GULP energy per Si atom -12401.579455 kJ/mol
# Density = 2.202097 g / cm^3
# Si number density = 22.071206 Si / 1000 Ang^3
#
#
#
# Elastic Constant Matrix: (Units=GPa)
#
#
# Indices 1 2 3 4 5 6 
#
# 1 126.5178 29.2579 50.7329 0.0000 0.0000 0.0000
# 2 29.2579 87.5346 25.8429 0.0000 0.0000 0.0000
# 3 50.7329 25.8429 117.1512 0.0000 0.0000 0.0000
# 4 0.0000 0.0000 0.0000 26.3904 0.0000 0.0000
# 5 0.0000 0.0000 0.0000 0.0000 36.3141 0.0000
# 6 0.0000 0.0000 0.0000 0.0000 0.0000 28.9067
#
#
#
# Elastic Compliance Matrix: (Units=1/GPa)
#
#
# Indices 1 2 3 4 5 6 
#
# 1 0.009944 -0.002195 -0.003822 0.000000 0.000000 0.000000
# 2 -0.002195 0.012705 -0.001852 0.000000 0.000000 0.000000
# 3 -0.003822 -0.001852 0.010600 0.000000 0.000000 0.000000
# 4 0.000000 0.000000 0.000000 0.037893 0.000000 0.000000
# 5 0.000000 0.000000 0.000000 0.000000 0.027538 0.000000
# 6 0.000000 0.000000 0.000000 0.000000 0.000000 0.034594
#
#
# Mechanical properties :
#
#
# Convention : Reuss Voigt Hill
#
# Bulk Modulus (GPa) = 57.11079 60.31900 58.71490
# Shear Modulus (GPa) = 32.28965 33.34687 32.81826
#
# Velocity S-wave (km/s) = 3.82904 3.89122 3.86025
# Velocity P-wave (km/s) = 6.74393 6.89763 6.82121
#
# Compressibility (1/GPa) = 0.01750982
#
# Stress axis : x y z
#
# Youngs Moduli (GPa) = 100.55904 78.71181 94.34232
#
# Poissons Ratio (x) = 0.17281 0.36059
# Poissons Ratio (y) = 0.22077 0.17470
# Poissons Ratio (z) = 0.38435 0.14576
#
# Static dielectric constant tensor:
#      x y z
#    x 4.064320 0.000000 0.000000 
#    y 0.000000 3.944110 0.000000 
#    z 0.000000 0.000000 3.936950 
# 
# 
# High freq. dielectric constant tensor:
#      x y z
#    x 1.877200 0.000000 0.000000 
#    y 0.000000 1.868250 0.000000 
#    z 0.000000 0.000000 1.873400 
# 
# From -- ./inp_files/3977.got.cif
#   From: 2010.03.12/outbox.cif.g09.slc.cpg/sg33_2_cif.got.tgz:3977.got - 2010.04.14 01:49:19.
