data_PCOD8171527
_publ_section_title
;
Structure prediction by ZEFSAII (Michael W. Deem and Ramdas Pophale) SiO2 
 PCOD8171527
Probable space group: P N A 21
;
_chemical_formula_sum "Si O2"
_cell_formula_units_Z 32
_cell_length_a 13.220155
_cell_length_b 5.505082
_cell_length_c 18.425745
_cell_angle_alpha 90.000000
_cell_angle_beta 90.000000
_cell_angle_gamma 90.000000
_cell_volume 1340.989557
_symmetry_space_group_name_H-M "P N A 21"
_symmetry_group_IT_number 33
_symmetry_cell_setting 'orthorhombic'
loop_
_space_group_symop_operation_xyz
x,y,z
-x,-y,1/2+z
1/2-x,1/2+y,1/2+z
1/2+x,1/2-y,z
loop_
_atom_site_type_symbol
_atom_site_label
_atom_site_fract_x
_atom_site_fract_y
_atom_site_fract_z
Si Si1 0.026056 0.970944 0.150280
Si Si2 0.628827 0.398909 0.008193
Si Si3 0.876540 0.277612 0.393493
Si Si4 0.874002 0.686419 0.057148
Si Si5 0.656378 0.622934 0.739558
Si Si6 0.242400 0.876420 0.187739
Si Si7 0.536780 0.887589 0.436294
Si Si8 0.790824 0.081596 0.949493
O O1 0.078272 0.125669 0.086515
O O2 0.952238 0.136827 0.199071
O O3 0.120593 0.866263 0.196755
O O4 0.958307 0.757995 0.116392
O O5 0.643641 0.668068 0.974455
O O6 0.556613 0.289457 0.946745
O O7 0.733744 0.253384 0.007709
O O8 0.864146 0.099686 0.325595
O O9 0.785045 0.472107 0.389895
O O10 0.990591 0.390511 0.389256
O O11 0.771042 0.617122 0.101062
O O12 0.920892 0.459860 0.015511
O O13 0.855128 0.893646 0.997439
O O14 0.715887 0.376831 0.719895
O O15 0.714246 0.876050 0.723459
O O16 0.630559 0.742411 0.400251
#
# Coordination Sequence:
#
# PCOD8171527 Si02
#       8
#     4   4   4   4   4   4   4   4
#     4  11  23  47  74 108 148 196 250 315 379 444
#     4  11  23  40  74 103 143 186 247 313 374 435
#     4  11  25  47  69 105 151 193 253 311 373 452
#     4  11  23  43  71 114 142 181 252 316 376 449
#     4  11  29  52  72 107 156 204 258 308 372 469
#     4  11  27  47  75 105 149 202 249 308 382 453
#     4  11  21  40  71 105 141 183 241 312 378 436
#     4  11  23  40  70 107 142 187 232 321 374 448
#
# _framework density 23.862974000000001
#
# number of rings (size 3 to 8) (size 9 to 14) (size 15 to 20)
#    0.000    1.000    2.500    3.000   10.500    2.000 
#    6.750    0.000    0.000    0.000    0.000    0.000 
#    0.000    0.000    0.000    0.000    0.000    0.000 
#
# Total GULP energy -396574.147828 kJ/mol
# GULP energy per Si atom -12392.942120 kJ/mol
# Density = 2.380866 g / cm^3
# Si number density = 23.862974 Si / 1000 Ang^3
#
#
#
# Elastic Constant Matrix: (Units=GPa)
#
#
# Indices 1 2 3 4 5 6 
#
# 1 158.5545 43.6255 29.9575 0.0000 0.0000 0.0000
# 2 43.6255 103.4338 24.2996 0.0000 0.0000 0.0000
# 3 29.9575 24.2996 90.3905 0.0000 0.0000 0.0000
# 4 0.0000 0.0000 0.0000 29.5975 0.0000 0.0000
# 5 0.0000 0.0000 0.0000 0.0000 19.7945 0.0000
# 6 0.0000 0.0000 0.0000 0.0000 0.0000 28.5174
#
#
#
# Elastic Compliance Matrix: (Units=1/GPa)
#
#
# Indices 1 2 3 4 5 6 
#
# 1 0.007376 -0.002708 -0.001717 0.000000 0.000000 0.000000
# 2 -0.002708 0.011314 -0.002144 0.000000 0.000000 0.000000
# 3 -0.001717 -0.002144 0.012208 0.000000 0.000000 0.000000
# 4 0.000000 0.000000 0.000000 0.033787 0.000000 0.000000
# 5 0.000000 0.000000 0.000000 0.000000 0.050519 0.000000
# 6 0.000000 0.000000 0.000000 0.000000 0.000000 0.035066
#
#
# Mechanical properties :
#
#
# Convention : Reuss Voigt Hill
#
# Bulk Modulus (GPa) = 56.30192 60.90489 58.60341
# Shear Modulus (GPa) = 29.52839 32.54828 31.03833
#
# Velocity S-wave (km/s) = 3.52151 3.69720 3.61042
# Velocity P-wave (km/s) = 6.33875 6.61845 6.48011
#
# Compressibility (1/GPa) = 0.01776138
#
# Stress axis : x y z
#
# Youngs Moduli (GPa) = 135.56755 88.38756 81.91043
#
# Poissons Ratio (x) = 0.23934 0.14062
# Poissons Ratio (y) = 0.36710 0.17562
# Poissons Ratio (z) = 0.23274 0.18951
#
# Static dielectric constant tensor:
#      x y z
#    x 4.682760 0.000000 0.000000 
#    y 0.000000 4.302570 0.000000 
#    z 0.000000 0.000000 3.873380 
# 
# 
# High freq. dielectric constant tensor:
#      x y z
#    x 1.972770 0.000000 0.000000 
#    y 0.000000 1.948730 0.000000 
#    z 0.000000 0.000000 1.912700 
# 
# From -- ./inp_files/9120.got.cif
#   From: 2010.03.12/outbox.cif.g09.slc.cpg/sg33_5_cif.got.tgz:9120.got - 2010.04.14 01:49:19.
