data_PCOD8171532
_publ_section_title
;
Structure prediction by ZEFSAII (Michael W. Deem and Ramdas Pophale) SiO2 
 PCOD8171532
Probable space group: P N A 21
;
_chemical_formula_sum "Si O2"
_cell_formula_units_Z 32
_cell_length_a 11.649941
_cell_length_b 14.715007
_cell_length_c 8.650037
_cell_angle_alpha 90.000000
_cell_angle_beta 90.000000
_cell_angle_gamma 90.000000
_cell_volume 1482.866876
_symmetry_space_group_name_H-M "P N A 21"
_symmetry_group_IT_number 33
_symmetry_cell_setting 'orthorhombic'
loop_
_space_group_symop_operation_xyz
x,y,z
-x,-y,1/2+z
1/2-x,1/2+y,1/2+z
1/2+x,1/2-y,z
loop_
_atom_site_type_symbol
_atom_site_label
_atom_site_fract_x
_atom_site_fract_y
_atom_site_fract_z
Si Si1 0.252343 0.950765 0.741990
Si Si2 0.787285 0.247710 0.657619
Si Si3 0.540218 0.163855 0.358367
Si Si4 0.055357 0.851336 0.912652
Si Si5 0.120523 0.617970 0.383421
Si Si6 0.836003 0.425273 0.210083
Si Si7 0.681193 0.418104 0.484268
Si Si8 0.402142 0.880685 0.198824
O O1 0.347161 0.869680 0.761767
O O2 0.130280 0.912840 0.797385
O O3 0.292554 0.037520 0.840117
O O4 0.232077 0.990782 0.567875
O O5 0.861277 0.184114 0.546681
O O6 0.864308 0.289194 0.791038
O O7 0.726627 0.325912 0.559607
O O8 0.695200 0.188690 0.753989
O O9 0.505398 0.268042 0.317983
O O10 0.438054 0.094567 0.328111
O O11 0.546391 0.163091 0.543905
O O12 0.957254 0.915902 0.987028
O O13 0.144744 0.640813 0.562838
O O14 0.988831 0.594766 0.339213
O O15 0.717804 0.415580 0.303568
O O16 0.844521 0.526243 0.142738
#
# Coordination Sequence:
#
# PCOD8171532 Si02
#       8
#     4   4   4   4   4   4   4   4
#     4  11  24  42  71  99 133 189 238 289 353 439
#     4  11  21  43  69  99 135 187 231 283 359 435
#     4  12  22  41  71  99 138 177 237 286 356 420
#     4  12  22  44  74  98 142 188 235 293 361 435
#     4  11  23  41  65 102 136 173 235 290 350 422
#     4  12  24  41  66 103 135 177 235 298 347 421
#     4  11  25  44  69  99 142 188 238 291 362 428
#     4  12  21  42  71  99 129 185 229 294 348 428
#
# _framework density 21.579820999999999
#
# number of rings (size 3 to 8) (size 9 to 14) (size 15 to 20)
#    0.000    0.500    7.500    0.750    1.750    2.000 
#    4.500    0.000    0.000    0.000    0.000    0.000 
#    0.000    0.000    0.000    0.000    0.000    0.000 
#
# Total GULP energy -396607.411744 kJ/mol
# GULP energy per Si atom -12393.981617 kJ/mol
# Density = 2.153070 g / cm^3
# Si number density = 21.579821 Si / 1000 Ang^3
#
#
#
# Elastic Constant Matrix: (Units=GPa)
#
#
# Indices 1 2 3 4 5 6 
#
# 1 118.5182 42.1717 42.8687 0.0000 0.0000 0.0000
# 2 42.1717 78.4008 34.3237 0.0000 0.0000 0.0000
# 3 42.8687 34.3237 90.9037 0.0000 0.0000 0.0000
# 4 0.0000 0.0000 0.0000 23.7646 0.0000 0.0000
# 5 0.0000 0.0000 0.0000 0.0000 28.9965 0.0000
# 6 0.0000 0.0000 0.0000 0.0000 0.0000 48.2542
#
#
#
# Elastic Compliance Matrix: (Units=1/GPa)
#
#
# Indices 1 2 3 4 5 6 
#
# 1 0.011366 -0.004513 -0.003656 0.000000 0.000000 0.000000
# 2 -0.004513 0.017073 -0.004318 0.000000 0.000000 0.000000
# 3 -0.003656 -0.004318 0.014355 0.000000 0.000000 0.000000
# 4 0.000000 0.000000 0.000000 0.042079 0.000000 0.000000
# 5 0.000000 0.000000 0.000000 0.000000 0.034487 0.000000
# 6 0.000000 0.000000 0.000000 0.000000 0.000000 0.020724
#
#
# Mechanical properties :
#
#
# Convention : Reuss Voigt Hill
#
# Bulk Modulus (GPa) = 56.11764 58.50566 57.31165
# Shear Modulus (GPa) = 29.24011 31.43364 30.33688
#
# Velocity S-wave (km/s) = 3.68499 3.82071 3.75347
# Velocity P-wave (km/s) = 6.64580 6.82890 6.73797
#
# Compressibility (1/GPa) = 0.01781971
#
# Stress axis : x y z
#
# Youngs Moduli (GPa) = 87.98380 58.57179 69.66138
#
# Poissons Ratio (x) = 0.26434 0.25467
# Poissons Ratio (y) = 0.39708 0.30081
# Poissons Ratio (z) = 0.32165 0.25292
#
# Static dielectric constant tensor:
#      x y z
#    x 4.068890 0.000000 0.000000 
#    y 0.000000 3.990590 0.000000 
#    z 0.000000 0.000000 3.726910 
# 
# 
# High freq. dielectric constant tensor:
#      x y z
#    x 1.852080 0.000000 0.000000 
#    y 0.000000 1.848110 0.000000 
#    z 0.000000 0.000000 1.827230 
# 
# From -- ./inp_files/3962.got.cif
#   From: 2010.03.12/outbox.cif.g09.slc.cpg/sg33_2_cif.got.tgz:3962.got - 2010.04.14 01:49:19.
