data_PCOD8171103
_publ_section_title
;
Structure prediction by ZEFSAII (Michael W. Deem and Ramdas Pophale) SiO2 
 PCOD8171103
Probable space group: P N A 21
;
_chemical_formula_sum "Si O2"
_cell_formula_units_Z 16
_cell_length_a 8.897145
_cell_length_b 12.654531
_cell_length_c 7.452550
_cell_angle_alpha 90.000000
_cell_angle_beta 90.000000
_cell_angle_gamma 90.000000
_cell_volume 839.076622
_symmetry_space_group_name_H-M "P N A 21"
_symmetry_group_IT_number 33
_symmetry_cell_setting 'orthorhombic'
loop_
_space_group_symop_operation_xyz
x,y,z
-x,-y,1/2+z
1/2-x,1/2+y,1/2+z
1/2+x,1/2-y,z
loop_
_atom_site_type_symbol
_atom_site_label
_atom_site_fract_x
_atom_site_fract_y
_atom_site_fract_z
Si Si1 0.686320 0.991917 0.125000
Si Si2 0.627347 0.291441 0.545009
Si Si3 0.814951 0.115499 0.433261
Si Si4 0.377704 0.910141 0.251349
O O1 0.807200 0.041492 0.260792
O O2 0.743844 0.875132 0.087257
O O3 0.522985 0.982682 0.215052
O O4 0.679043 0.066855 0.951115
O O5 0.704125 0.215302 0.396029
O O6 0.484736 0.348646 0.462275
O O7 0.588691 0.216227 0.718877
O O8 0.754889 0.055259 0.612664
#
# Coordination Sequence:
#
# PCOD8171103 Si02
#       4
#     4   4   4   4
#     4  12  22  42  69  90 130 172 208 260 332 368
#     4  10  22  45  58  98 130 159 222 264 301 394
#     4  10  23  42  62  91 130 165 213 263 309 388
#     4  10  21  43  63  89 128 170 205 263 320 374
#
# _framework density 19.068580999999998
#
# number of rings (size 3 to 8) (size 9 to 14) (size 15 to 20)
#    1.500    0.000    5.000    0.000    3.500    0.000 
#   13.500    0.000    0.000    0.000    0.000    0.000 
#    0.000    0.000    0.000    0.000    0.000    0.000 
#
# Total GULP energy -198257.097026 kJ/mol
# GULP energy per Si atom -12391.068564 kJ/mol
# Density = 1.902518 g / cm^3
# Si number density = 19.068581 Si / 1000 Ang^3
#
#
#
# Elastic Constant Matrix: (Units=GPa)
#
#
# Indices 1 2 3 4 5 6 
#
# 1 64.0088 -3.4121 6.2681 0.0000 0.0000 0.0000
# 2 -3.4121 61.2728 11.3043 0.0000 0.0000 0.0000
# 3 6.2681 11.3043 76.1881 0.0000 0.0000 0.0000
# 4 0.0000 0.0000 0.0000 23.0544 0.0000 0.0000
# 5 0.0000 0.0000 0.0000 0.0000 21.3088 0.0000
# 6 0.0000 0.0000 0.0000 0.0000 0.0000 28.0116
#
#
#
# Elastic Compliance Matrix: (Units=1/GPa)
#
#
# Indices 1 2 3 4 5 6 
#
# 1 0.015829 0.001153 -0.001473 0.000000 0.000000 0.000000
# 2 0.001153 0.016864 -0.002597 0.000000 0.000000 0.000000
# 3 -0.001473 -0.002597 0.013632 0.000000 0.000000 0.000000
# 4 0.000000 0.000000 0.000000 0.043376 0.000000 0.000000
# 5 0.000000 0.000000 0.000000 0.000000 0.046929 0.000000
# 6 0.000000 0.000000 0.000000 0.000000 0.000000 0.035699
#
#
# Mechanical properties :
#
#
# Convention : Reuss Voigt Hill
#
# Bulk Modulus (GPa) = 24.69736 25.53225 25.11480
# Shear Modulus (GPa) = 26.08793 26.96225 26.52509
#
# Velocity S-wave (km/s) = 3.70281 3.76435 3.73371
# Velocity P-wave (km/s) = 5.59116 5.68441 5.63798
#
# Compressibility (1/GPa) = 0.04049016
#
# Stress axis : x y z
#
# Youngs Moduli (GPa) = 63.17678 59.29856 73.35701
#
# Poissons Ratio (x) = -0.06839 0.10808
# Poissons Ratio (y) = -0.07286 0.19051
# Poissons Ratio (z) = 0.09308 0.15400
#
# Static dielectric constant tensor:
#      x y z
#    x 3.385480 0.000000 0.000000 
#    y 0.000000 3.393290 0.000000 
#    z 0.000000 0.000000 3.205450 
# 
# 
# High freq. dielectric constant tensor:
#      x y z
#    x 1.751140 0.000000 0.000000 
#    y 0.000000 1.737110 0.000000 
#    z 0.000000 0.000000 1.716640 
# 
# From -- ./inp_files/287.got.cif
#   From: 2010.03.12/outbox.cif.g09.slc.cpg/sg33_1_cif.got.tgz:287.got - 2010.04.14 01:49:19.
