data_PCOD8171409
_publ_section_title
;
Structure prediction by ZEFSAII (Michael W. Deem and Ramdas Pophale) SiO2 
 PCOD8171409
Probable space group: P N A 21
;
_chemical_formula_sum "Si O2"
_cell_formula_units_Z 28
_cell_length_a 22.480594
_cell_length_b 8.446721
_cell_length_c 6.467948
_cell_angle_alpha 90.000000
_cell_angle_beta 90.000000
_cell_angle_gamma 90.000000
_cell_volume 1228.181217
_symmetry_space_group_name_H-M "P N A 21"
_symmetry_group_IT_number 33
_symmetry_cell_setting 'orthorhombic'
loop_
_space_group_symop_operation_xyz
x,y,z
-x,-y,1/2+z
1/2-x,1/2+y,1/2+z
1/2+x,1/2-y,z
loop_
_atom_site_type_symbol
_atom_site_label
_atom_site_fract_x
_atom_site_fract_y
_atom_site_fract_z
Si Si1 0.728859 0.636738 0.571820
Si Si2 0.510495 0.775670 0.470015
Si Si3 0.571222 0.951418 0.120194
Si Si4 0.110172 0.772113 0.787807
Si Si5 0.204186 0.210889 0.722150
Si Si6 0.396058 0.587405 0.511096
Si Si7 0.344004 0.800409 0.812914
O O1 0.668597 0.720923 0.646893
O O2 0.742242 0.688416 0.331621
O O3 0.727199 0.446942 0.604050
O O4 0.779563 0.709281 0.712561
O O5 0.544779 0.807398 0.255333
O O6 0.554536 0.701544 0.638394
O O7 0.459965 0.645313 0.430312
O O8 0.483589 0.938720 0.555210
O O9 0.619915 0.043231 0.253771
O O10 0.604402 0.891507 0.912882
O O11 0.110473 0.902832 0.970080
O O12 0.155375 0.180019 0.893324
O O13 0.168276 0.314408 0.555821
O O14 0.383157 0.642793 0.749329
#
# Coordination Sequence:
#
# PCOD8171409 Si02
#       7
#     4   4   4   4   4   4   4
#     4  10  25  44  69 107 134 188 232 298 353 423
#     4  11  24  42  68 102 137 185 236 285 360 413
#     4  11  25  43  70 101 138 188 232 294 348 431
#     4  11  25  44  70 104 143 177 245 288 355 429
#     4  10  23  46  72  98 145 181 238 290 355 430
#     4   9  24  45  65 103 136 188 227 292 353 411
#     4  10  24  44  72  97 141 183 232 289 358 411
#
# _framework density 22.797937000000001
#
# number of rings (size 3 to 8) (size 9 to 14) (size 15 to 20)
#    0.000    1.714    1.429    0.000    8.000    6.857 
#    2.571    0.000    0.000    0.000    0.000    0.000 
#    0.000    0.000    0.000    0.000    0.000    0.000 
#
# Total GULP energy -347142.919105 kJ/mol
# GULP energy per Si atom -12397.961397 kJ/mol
# Density = 2.274605 g / cm^3
# Si number density = 22.797937 Si / 1000 Ang^3
#
#
#
# Elastic Constant Matrix: (Units=GPa)
#
#
# Indices 1 2 3 4 5 6 
#
# 1 127.6711 50.3450 44.3842 0.0000 0.0000 0.0000
# 2 50.3450 40.0183 29.8943 0.0000 0.0000 0.0000
# 3 44.3842 29.8943 106.6250 0.0000 0.0000 0.0000
# 4 0.0000 0.0000 0.0000 26.8905 0.0000 0.0000
# 5 0.0000 0.0000 0.0000 0.0000 40.2445 0.0000
# 6 0.0000 0.0000 0.0000 0.0000 0.0000 31.7461
#
#
#
# Elastic Compliance Matrix: (Units=1/GPa)
#
#
# Indices 1 2 3 4 5 6 
#
# 1 0.015676 -0.018780 -0.001260 0.000000 0.000000 0.000000
# 2 -0.018780 0.054107 -0.007352 0.000000 0.000000 0.000000
# 3 -0.001260 -0.007352 0.011965 0.000000 0.000000 0.000000
# 4 0.000000 0.000000 0.000000 0.037188 0.000000 0.000000
# 5 0.000000 0.000000 0.000000 0.000000 0.024848 0.000000
# 6 0.000000 0.000000 0.000000 0.000000 0.000000 0.031500
#
#
# Mechanical properties :
#
#
# Convention : Reuss Voigt Hill
#
# Bulk Modulus (GPa) = 37.08829 58.17349 47.63089
# Shear Modulus (GPa) = 20.91546 29.75564 25.33555
#
# Velocity S-wave (km/s) = 3.03219 3.61666 3.33725
# Velocity P-wave (km/s) = 5.34439 6.55841 5.98227
#
# Compressibility (1/GPa) = 0.02696269
#
# Stress axis : x y z
#
# Youngs Moduli (GPa) = 63.79011 18.48174 83.57998
#
# Poissons Ratio (x) = 0.34709 0.10532
# Poissons Ratio (y) = 1.19800 0.61452
# Poissons Ratio (z) = 0.08038 0.13589
#
# Static dielectric constant tensor:
#      x y z
#    x 4.254030 0.000000 0.000000 
#    y 0.000000 3.918540 0.000000 
#    z 0.000000 0.000000 4.239260 
# 
# 
# High freq. dielectric constant tensor:
#      x y z
#    x 1.912970 0.000000 0.000000 
#    y 0.000000 1.889320 0.000000 
#    z 0.000000 0.000000 1.900490 
# 
# From -- ./inp_files/2247.got.cif
#   From: 2010.03.12/outbox.cif.g09.slc.cpg/sg33_2_cif.got.tgz:2247.got - 2010.04.14 01:49:19.
