data_PCOD8171109
_publ_section_title
;
Structure prediction by ZEFSAII (Michael W. Deem and Ramdas Pophale) SiO2 
 PCOD8171109
Probable space group: P N A 21
;
_chemical_formula_sum "Si O2"
_cell_formula_units_Z 24
_cell_length_a 14.954269
_cell_length_b 7.929846
_cell_length_c 8.742789
_cell_angle_alpha 90.000000
_cell_angle_beta 90.000000
_cell_angle_gamma 90.000000
_cell_volume 1036.764073
_symmetry_space_group_name_H-M "P N A 21"
_symmetry_group_IT_number 33
_symmetry_cell_setting 'orthorhombic'
loop_
_space_group_symop_operation_xyz
x,y,z
-x,-y,1/2+z
1/2-x,1/2+y,1/2+z
1/2+x,1/2-y,z
loop_
_atom_site_type_symbol
_atom_site_label
_atom_site_fract_x
_atom_site_fract_y
_atom_site_fract_z
Si Si1 0.180609 0.827535 0.796610
Si Si2 0.624931 0.615337 0.458428
Si Si3 0.066446 0.025955 0.033846
Si Si4 0.548218 0.935202 0.903366
Si Si5 0.127909 0.227176 0.310625
Si Si6 0.547804 0.805103 0.220108
O O1 0.169761 0.843284 0.616288
O O2 0.286121 0.847209 0.826763
O O3 0.138010 0.645426 0.834471
O O4 0.131665 0.968589 0.897500
O O5 0.516979 0.618049 0.459541
O O6 0.657816 0.432225 0.411404
O O7 0.636011 0.762794 0.326847
O O8 0.025768 0.870194 0.132959
O O9 0.116852 0.161997 0.137681
O O10 0.460786 0.818179 0.871888
O O11 0.532284 0.117727 0.826300
O O12 0.564734 0.946878 0.087878
#
# Coordination Sequence:
#
# PCOD8171109 Si02
#       6
#     4   4   4   4   4   4
#     4  11  23  39  69  98 135 173 237 282 337 411
#     4  11  20  45  68  91 131 189 226 274 344 412
#     4  10  21  43  67  94 130 186 224 270 344 419
#     4  11  22  41  62  99 134 176 222 290 340 394
#     4  11  24  41  67  98 131 179 233 275 339 413
#     4  10  22  37  69  90 131 175 224 277 344 401
#
# _framework density 23.148949000000002
#
# number of rings (size 3 to 8) (size 9 to 14) (size 15 to 20)
#    0.000    1.333    5.000    2.000    0.000    5.333 
#    0.000    1.667    0.000    0.000    0.000    0.000 
#    0.000    0.000    0.000    0.000    0.000    0.000 
#
# Total GULP energy -297318.429421 kJ/mol
# GULP energy per Si atom -12388.267893 kJ/mol
# Density = 2.309626 g / cm^3
# Si number density = 23.148949 Si / 1000 Ang^3
#
#
#
# Elastic Constant Matrix: (Units=GPa)
#
#
# Indices 1 2 3 4 5 6 
#
# 1 97.8091 10.9518 24.3948 0.0000 0.0000 0.0000
# 2 10.9518 52.1798 17.7457 0.0000 0.0000 0.0000
# 3 24.3948 17.7457 150.3243 0.0000 0.0000 0.0000
# 4 0.0000 0.0000 0.0000 23.0300 0.0000 0.0000
# 5 0.0000 0.0000 0.0000 0.0000 60.7442 0.0000
# 6 0.0000 0.0000 0.0000 0.0000 0.0000 22.2592
#
#
#
# Elastic Compliance Matrix: (Units=1/GPa)
#
#
# Indices 1 2 3 4 5 6 
#
# 1 0.010805 -0.001741 -0.001548 0.000000 0.000000 0.000000
# 2 -0.001741 0.020247 -0.002108 0.000000 0.000000 0.000000
# 3 -0.001548 -0.002108 0.007152 0.000000 0.000000 0.000000
# 4 0.000000 0.000000 0.000000 0.043422 0.000000 0.000000
# 5 0.000000 0.000000 0.000000 0.000000 0.016462 0.000000
# 6 0.000000 0.000000 0.000000 0.000000 0.000000 0.044925
#
#
# Mechanical properties :
#
#
# Convention : Reuss Voigt Hill
#
# Bulk Modulus (GPa) = 36.48247 45.16643 40.82445
# Shear Modulus (GPa) = 30.68542 37.68808 34.18675
#
# Velocity S-wave (km/s) = 3.64478 4.03931 3.84711
# Velocity P-wave (km/s) = 5.78849 6.42715 6.11616
#
# Compressibility (1/GPa) = 0.02741043
#
# Stress axis : x y z
#
# Youngs Moduli (GPa) = 92.54936 49.39064 139.81577
#
# Poissons Ratio (x) = 0.08601 0.21642
# Poissons Ratio (y) = 0.16117 0.29466
# Poissons Ratio (z) = 0.14326 0.10409
#
# Static dielectric constant tensor:
#      x y z
#    x 0.257040 0.000000 0.000000 
#    y 0.000000 4.187200 0.000000 
#    z 0.000000 0.000000 4.747890 
# 
# 
# High freq. dielectric constant tensor:
#      x y z
#    x 1.872950 0.000000 0.000000 
#    y 0.000000 1.914460 0.000000 
#    z 0.000000 0.000000 1.945200 
# 
# From -- ./inp_files/4229.got.cif
#   From: 2010.03.12/outbox.cif.g09.slc.cpg/sg33_3_cif.got.tgz:4229.got - 2010.04.14 01:49:19.
