data_PCOD8171825
_publ_section_title
;
Structure prediction by ZEFSAII (Michael W. Deem and Ramdas Pophale) SiO2 
 PCOD8171825
Probable space group: P N N 2
;
_chemical_formula_sum "Si O2"
_cell_formula_units_Z 30
_cell_length_a 14.690799
_cell_length_b 11.170185
_cell_length_c 8.748677
_cell_angle_alpha 90.000000
_cell_angle_beta 90.000000
_cell_angle_gamma 90.000000
_cell_volume 1435.648645
_symmetry_space_group_name_H-M "P N N 2"
_symmetry_group_IT_number 34
_symmetry_cell_setting 'orthorhombic'
loop_
_space_group_symop_operation_xyz
x,y,z
-x,-y,z
1/2-x,1/2+y,1/2+z
1/2+x,1/2-y,1/2+z
loop_
_atom_site_type_symbol
_atom_site_label
_atom_site_fract_x
_atom_site_fract_y
_atom_site_fract_z
Si Si1 0.181398 0.284408 0.676300
Si Si2 0.659859 0.592493 0.517610
Si Si3 0.551330 0.886691 0.917469
Si Si4 0.254076 0.153807 0.950753
Si Si5 0.212159 0.743455 0.769309
Si Si6 0.000000 0.000000 0.204730
Si Si7 0.905895 0.804945 0.390708
Si Si8 0.908568 0.466764 0.748363
O O1 0.281819 0.307214 0.607706
O O2 0.184980 0.222390 0.840920
O O3 0.120248 0.195819 0.570909
O O4 0.138791 0.414401 0.689527
O O5 0.704670 0.460939 0.523647
O O6 0.658044 0.642497 0.341801
O O7 0.559712 0.585686 0.593462
O O8 0.655470 0.884101 0.856398
O O9 0.496652 0.771092 0.862048
O O10 0.500000 0.000000 0.844448
O O11 0.553214 0.894344 0.101665
O O12 0.288444 0.243662 0.084757
O O13 0.318192 0.752097 0.810577
O O14 0.162989 0.620997 0.833104
O O15 0.071190 0.067101 0.316635
O O16 0.000000 0.500000 0.847507
#
# Coordination Sequence:
#
# PCOD8171825 Si02
#       8
#     4   4   4   4   4   2   4   4
#     4  11  21  40  70  92 127 175 224 274 336 406
#     4  11  23  45  64  91 139 178 213 282 343 405
#     4  10  17  36  68  90 119 166 225 267 328 391
#     4  11  22  42  65  99 130 176 221 278 344 412
#     4  10  22  42  68  93 133 174 220 273 349 399
#     4  12  24  42  66  96 144 178 224 282 344 420
#     4  11  21  40  67  94 129 182 218 271 341 410
#     4  10  18  38  65  89 123 166 218 275 325 390
#
# _framework density 20.896477999999998
#
# number of rings (size 3 to 8) (size 9 to 14) (size 15 to 20)
#    0.000    1.333    6.667    1.600    0.000    1.067 
#   12.000    0.000    0.000    0.000    0.000    0.000 
#    0.000    0.000    0.000    0.000    0.000    0.000 
#
# Total GULP energy -371735.245609 kJ/mol
# GULP energy per Si atom -12391.174854 kJ/mol
# Density = 2.084892 g / cm^3
# Si number density = 20.896478 Si / 1000 Ang^3
#
#
#
# Elastic Constant Matrix: (Units=GPa)
#
#
# Indices 1 2 3 4 5 6 
#
# 1 108.4330 24.1841 27.8481 0.0000 0.0000 0.0000
# 2 24.1841 67.8186 50.0527 0.0000 0.0000 0.0000
# 3 27.8481 50.0527 84.8041 0.0000 0.0000 0.0000
# 4 0.0000 0.0000 0.0000 32.6406 0.0000 0.0000
# 5 0.0000 0.0000 0.0000 0.0000 31.9786 0.0000
# 6 0.0000 0.0000 0.0000 0.0000 0.0000 39.1778
#
#
#
# Elastic Compliance Matrix: (Units=1/GPa)
#
#
# Indices 1 2 3 4 5 6 
#
# 1 0.010233 -0.002071 -0.002138 0.000000 0.000000 0.000000
# 2 -0.002071 0.026545 -0.014987 0.000000 0.000000 0.000000
# 3 -0.002138 -0.014987 0.021339 0.000000 0.000000 0.000000
# 4 0.000000 0.000000 0.000000 0.030637 0.000000 0.000000
# 5 0.000000 0.000000 0.000000 0.000000 0.031271 0.000000
# 6 0.000000 0.000000 0.000000 0.000000 0.000000 0.025525
#
#
# Mechanical properties :
#
#
# Convention : Reuss Voigt Hill
#
# Bulk Modulus (GPa) = 50.69662 51.69172 51.19417
# Shear Modulus (GPa) = 26.24435 31.35746 28.80090
#
# Velocity S-wave (km/s) = 3.54774 3.87797 3.71653
# Velocity P-wave (km/s) = 6.41058 6.69644 6.55507
#
# Compressibility (1/GPa) = 0.01972518
#
# Stress axis : x y z
#
# Youngs Moduli (GPa) = 97.71995 37.67221 46.86159
#
# Poissons Ratio (x) = 0.07803 0.10019
# Poissons Ratio (y) = 0.20241 0.70231
# Poissons Ratio (z) = 0.20892 0.56459
#
# Static dielectric constant tensor:
#      x y z
#    x 4.158180 0.000000 0.000000 
#    y 0.000000 3.700000 0.000000 
#    z 0.000000 0.000000 3.541390 
# 
# 
# High freq. dielectric constant tensor:
#      x y z
#    x 1.837650 0.000000 0.000000 
#    y 0.000000 1.802620 0.000000 
#    z 0.000000 0.000000 1.781270 
# 
# From -- ./inp_files/3653.got.cif
#   From: 2010.03.12/outbox.cif.g09.slc.cpg/sg34_2_cif.got.tgz:3653.got - 2010.04.14 01:56:33.
