data_PCOD8171093
_publ_section_title
;
Structure prediction by ZEFSAII (Michael W. Deem and Ramdas Pophale) SiO2 
 PCOD8171093
Probable space group: P N A 21
;
_chemical_formula_sum "Si O2"
_cell_formula_units_Z 32
_cell_length_a 12.631217
_cell_length_b 14.372525
_cell_length_c 8.341395
_cell_angle_alpha 90.000000
_cell_angle_beta 90.000000
_cell_angle_gamma 90.000000
_cell_volume 1514.317553
_symmetry_space_group_name_H-M "P N A 21"
_symmetry_group_IT_number 33
_symmetry_cell_setting 'orthorhombic'
loop_
_space_group_symop_operation_xyz
x,y,z
-x,-y,1/2+z
1/2-x,1/2+y,1/2+z
1/2+x,1/2-y,z
loop_
_atom_site_type_symbol
_atom_site_label
_atom_site_fract_x
_atom_site_fract_y
_atom_site_fract_z
Si Si1 0.011338 0.117179 0.375000
Si Si2 0.401252 0.125777 0.078695
Si Si3 0.168915 0.434520 0.706427
Si Si4 0.783889 0.847538 0.367968
Si Si5 0.195082 0.789506 0.773083
Si Si6 0.614107 0.493018 0.092877
Si Si7 0.664189 0.255803 0.553939
Si Si8 0.856624 0.657314 0.522925
O O1 0.085400 0.063961 0.250706
O O2 0.072470 0.207977 0.436739
O O3 0.907767 0.146398 0.277567
O O4 0.982966 0.055331 0.530686
O O5 0.330157 0.190817 0.192108
O O6 0.401558 0.021390 0.148967
O O7 0.340359 0.130863 0.906813
O O8 0.520009 0.162132 0.068056
O O9 0.288569 0.442155 0.644250
O O10 0.120648 0.338283 0.637244
O O11 0.164952 0.428271 0.900746
O O12 0.855441 0.928434 0.442696
O O13 0.801517 0.837598 0.177601
O O14 0.822466 0.751478 0.440245
O O15 0.284840 0.850917 0.682028
O O16 0.231980 0.768238 0.952219
#
# Coordination Sequence:
#
# PCOD8171093 Si02
#       8
#     4   4   4   4   4   4   4   4
#     4  12  25  40  71  94 132 180 220 279 336 400
#     4  10  21  42  66  93 127 173 216 267 328 408
#     4  10  23  43  63  95 137 161 218 276 327 404
#     4   9  21  41  65  92 131 165 221 273 326 395
#     4  11  23  42  63  95 130 171 222 271 326 395
#     4  11  23  45  64 102 129 170 229 280 326 398
#     4  11  22  42  63  96 133 174 214 274 338 395
#     4  10  22  41  65  91 127 176 210 268 337 393
#
# _framework density 21.131632
#
# number of rings (size 3 to 8) (size 9 to 14) (size 15 to 20)
#    0.000    1.500    1.250    4.500    1.750    4.000 
#    9.000    0.000    0.000    0.000    0.000    0.000 
#    0.000    0.000    0.000    0.000    0.000    0.000 
#
# Total GULP energy -396832.936667 kJ/mol
# GULP energy per Si atom -12401.029271 kJ/mol
# Density = 2.108354 g / cm^3
# Si number density = 21.131632 Si / 1000 Ang^3
#
#
#
# Elastic Constant Matrix: (Units=GPa)
#
#
# Indices 1 2 3 4 5 6 
#
# 1 99.7675 23.6520 28.9408 0.0000 0.0000 0.0000
# 2 23.6520 65.7983 21.5081 0.0000 0.0000 0.0000
# 3 28.9408 21.5081 96.5082 0.0000 0.0000 0.0000
# 4 0.0000 0.0000 0.0000 22.3719 0.0000 0.0000
# 5 0.0000 0.0000 0.0000 0.0000 29.4412 0.0000
# 6 0.0000 0.0000 0.0000 0.0000 0.0000 19.5154
#
#
#
# Elastic Compliance Matrix: (Units=1/GPa)
#
#
# Indices 1 2 3 4 5 6 
#
# 1 0.011596 -0.003270 -0.002749 0.000000 0.000000 0.000000
# 2 -0.003270 0.017314 -0.002878 0.000000 0.000000 0.000000
# 3 -0.002749 -0.002878 0.011827 0.000000 0.000000 0.000000
# 4 0.000000 0.000000 0.000000 0.044699 0.000000 0.000000
# 5 0.000000 0.000000 0.000000 0.000000 0.033966 0.000000
# 6 0.000000 0.000000 0.000000 0.000000 0.000000 0.051242
#
#
# Mechanical properties :
#
#
# Convention : Reuss Voigt Hill
#
# Bulk Modulus (GPa) = 43.58373 45.58620 44.58496
# Shear Modulus (GPa) = 25.49912 26.79724 26.14818
#
# Velocity S-wave (km/s) = 3.47750 3.56492 3.52148
# Velocity P-wave (km/s) = 6.06578 6.21001 6.13831
#
# Compressibility (1/GPa) = 0.02294434
#
# Stress axis : x y z
#
# Youngs Moduli (GPa) = 86.23807 57.75629 84.54874
#
# Poissons Ratio (x) = 0.18885 0.23239
# Poissons Ratio (y) = 0.28198 0.24334
# Poissons Ratio (z) = 0.23704 0.16623
#
# Static dielectric constant tensor:
#      x y z
#    x 3.696440 0.000000 0.000000 
#    y 0.000000 3.845210 0.000000 
#    z 0.000000 0.000000 4.143480 
# 
# 
# High freq. dielectric constant tensor:
#      x y z
#    x 1.824180 0.000000 0.000000 
#    y 0.000000 1.830740 0.000000 
#    z 0.000000 0.000000 1.833990 
# 
# From -- ./inp_files/3921.got.cif
#   From: 2010.03.12/outbox.cif.g09.slc.cpg/sg33_2_cif.got.tgz:3921.got - 2010.04.14 01:49:19.
