data_PCOD8171727
_publ_section_title
;
Structure prediction by ZEFSAII (Michael W. Deem and Ramdas Pophale) SiO2 
 PCOD8171727
Probable space group: P N A 21
;
_chemical_formula_sum "Si O2"
_cell_formula_units_Z 24
_cell_length_a 13.996329
_cell_length_b 8.646084
_cell_length_c 8.605805
_cell_angle_alpha 90.000000
_cell_angle_beta 90.000000
_cell_angle_gamma 90.000000
_cell_volume 1041.418035
_symmetry_space_group_name_H-M "P N A 21"
_symmetry_group_IT_number 33
_symmetry_cell_setting 'orthorhombic'
loop_
_space_group_symop_operation_xyz
x,y,z
-x,-y,1/2+z
1/2-x,1/2+y,1/2+z
1/2+x,1/2-y,z
loop_
_atom_site_type_symbol
_atom_site_label
_atom_site_fract_x
_atom_site_fract_y
_atom_site_fract_z
Si Si1 0.591650 0.617250 0.075130
Si Si2 0.919399 0.997519 0.257240
Si Si3 0.784505 0.443772 0.104326
Si Si4 0.609953 0.145024 0.842111
Si Si5 0.600014 0.899617 0.312843
Si Si6 0.227640 0.375226 0.144698
O O1 0.515396 0.502436 0.154726
O O2 0.695759 0.546503 0.056575
O O3 0.598966 0.777089 0.170006
O O4 0.562423 0.626990 0.892437
O O5 0.900411 0.828332 0.327195
O O6 0.827443 0.033039 0.151616
O O7 0.859224 0.557304 0.185677
O O8 0.746109 0.299653 0.205746
O O9 0.832706 0.353909 0.957502
O O10 0.505762 0.075241 0.881528
O O11 0.689469 0.109859 0.969578
O O12 0.644041 0.059970 0.253783
#
# Coordination Sequence:
#
# PCOD8171727 Si02
#       6
#     4   4   4   4   4   4
#     4  11  25  48  71 105 148 188 247 303 366 438
#     4  11  26  47  71 108 145 192 246 307 368 436
#     4  12  25  45  72 103 145 186 240 300 365 432
#     4  11  26  47  71 103 145 192 238 302 362 441
#     4  11  26  49  71 104 148 185 244 299 361 441
#     4  12  24  44  72 105 141 187 243 295 368 434
#
# _framework density 23.045501000000002
#
# number of rings (size 3 to 8) (size 9 to 14) (size 15 to 20)
#    0.000    0.667    3.333    3.000    9.333    2.667 
#    3.000    0.000    0.000    0.000    0.000    0.000 
#    0.000    0.000    0.000    0.000    0.000    0.000 
#
# Total GULP energy -297487.815618 kJ/mol
# GULP energy per Si atom -12395.325651 kJ/mol
# Density = 2.299305 g / cm^3
# Si number density = 23.045501 Si / 1000 Ang^3
#
#
#
# Elastic Constant Matrix: (Units=GPa)
#
#
# Indices 1 2 3 4 5 6 
#
# 1 147.3592 15.9975 61.0737 0.0000 0.0000 0.0000
# 2 15.9975 63.2323 32.1489 0.0000 0.0000 0.0000
# 3 61.0737 32.1489 107.2785 0.0000 0.0000 0.0000
# 4 0.0000 0.0000 0.0000 35.9572 0.0000 0.0000
# 5 0.0000 0.0000 0.0000 0.0000 44.5160 0.0000
# 6 0.0000 0.0000 0.0000 0.0000 0.0000 24.6502
#
#
#
# Elastic Compliance Matrix: (Units=1/GPa)
#
#
# Indices 1 2 3 4 5 6 
#
# 1 0.008890 0.000382 -0.005175 0.000000 0.000000 0.000000
# 2 0.000382 0.018674 -0.005814 0.000000 0.000000 0.000000
# 3 -0.005175 -0.005814 0.014010 0.000000 0.000000 0.000000
# 4 0.000000 0.000000 0.000000 0.027811 0.000000 0.000000
# 5 0.000000 0.000000 0.000000 0.000000 0.022464 0.000000
# 6 0.000000 0.000000 0.000000 0.000000 0.000000 0.040568
#
#
# Mechanical properties :
#
#
# Convention : Reuss Voigt Hill
#
# Bulk Modulus (GPa) = 49.11636 59.59004 54.35320
# Shear Modulus (GPa) = 31.16887 34.93465 33.05176
#
# Velocity S-wave (km/s) = 3.68161 3.89768 3.79119
# Velocity P-wave (km/s) = 6.27944 6.79482 6.54221
#
# Compressibility (1/GPa) = 0.02035982
#
# Stress axis : x y z
#
# Youngs Moduli (GPa) = 112.49070 53.55079 71.37673
#
# Poissons Ratio (x) = -0.02047 0.36941
# Poissons Ratio (y) = -0.04300 0.41497
# Poissons Ratio (z) = 0.58219 0.31133
#
# Static dielectric constant tensor:
#      x y z
#    x 4.554120 0.000000 0.000000 
#    y 0.000000 4.110420 0.000000 
#    z 0.000000 0.000000 4.282550 
# 
# 
# High freq. dielectric constant tensor:
#      x y z
#    x 1.937190 0.000000 0.000000 
#    y 0.000000 1.901100 0.000000 
#    z 0.000000 0.000000 1.906100 
# 
# From -- ./inp_files/4264.got.cif
#   From: 2010.03.12/outbox.cif.g09.slc.cpg/sg33_3_cif.got.tgz:4264.got - 2010.04.14 01:49:19.
