data_PCOD8171557
_publ_section_title
;
Structure prediction by ZEFSAII (Michael W. Deem and Ramdas Pophale) SiO2 
 PCOD8171557
Probable space group: P N A 21
;
_chemical_formula_sum "Si O2"
_cell_formula_units_Z 32
_cell_length_a 9.691265
_cell_length_b 11.189472
_cell_length_c 13.439245
_cell_angle_alpha 90.000000
_cell_angle_beta 90.000000
_cell_angle_gamma 90.000000
_cell_volume 1457.353587
_symmetry_space_group_name_H-M "P N A 21"
_symmetry_group_IT_number 33
_symmetry_cell_setting 'orthorhombic'
loop_
_space_group_symop_operation_xyz
x,y,z
-x,-y,1/2+z
1/2-x,1/2+y,1/2+z
1/2+x,1/2-y,z
loop_
_atom_site_type_symbol
_atom_site_label
_atom_site_fract_x
_atom_site_fract_y
_atom_site_fract_z
Si Si1 0.758914 0.981433 0.824340
Si Si2 0.387976 0.743828 0.908684
Si Si3 0.461504 0.532977 0.645338
Si Si4 0.980513 0.283830 0.053887
Si Si5 0.531726 0.078593 0.245695
Si Si6 0.856323 0.112084 0.463276
Si Si7 0.307401 0.551151 0.279112
Si Si8 0.262507 0.769088 0.415028
O O1 0.841433 0.953373 0.724770
O O2 0.801741 0.109315 0.870263
O O3 0.800896 0.878344 0.901325
O O4 0.595372 0.979717 0.804971
O O5 0.415091 0.801574 0.800446
O O6 0.297356 0.834419 0.975785
O O7 0.532868 0.719535 0.962454
O O8 0.523607 0.659422 0.612795
O O9 0.387088 0.476205 0.551562
O O10 0.587814 0.452056 0.685841
O O11 0.984524 0.389883 0.134251
O O12 0.844733 0.298266 0.986754
O O13 0.107298 0.301396 0.980948
O O14 0.654446 0.982252 0.242340
O O15 0.868538 0.042096 0.359032
O O16 0.304410 0.683844 0.323860
#
# Coordination Sequence:
#
# PCOD8171557 Si02
#       8
#     4   4   4   4   4   4   4   4
#     4  12  24  44  66 101 137 183 223 288 355 407
#     4  11  22  43  68  99 135 179 227 287 346 401
#     4  12  24  43  73 100 134 184 234 275 347 424
#     4  12  23  43  70 105 127 180 242 282 327 422
#     4  11  24  41  72 101 133 173 241 296 328 407
#     4  11  23  43  70 100 134 177 231 288 338 410
#     4  11  24  45  67 103 140 182 224 287 357 405
#     4  12  26  44  68  99 146 178 220 289 362 410
#
# _framework density 21.957609000000001
#
# number of rings (size 3 to 8) (size 9 to 14) (size 15 to 20)
#    0.000    0.500    5.000    3.750    1.750    1.000 
#    0.000    2.500    0.000    0.000    0.000    0.000 
#    0.000    0.000    0.000    0.000    0.000    0.000 
#
# Total GULP energy -396997.845592 kJ/mol
# GULP energy per Si atom -12406.182675 kJ/mol
# Density = 2.190763 g / cm^3
# Si number density = 21.957609 Si / 1000 Ang^3
#
#
#
# Elastic Constant Matrix: (Units=GPa)
#
#
# Indices 1 2 3 4 5 6 
#
# 1 96.7204 4.1003 14.3083 0.0000 0.0000 0.0000
# 2 4.1003 69.5301 15.2537 0.0000 0.0000 0.0000
# 3 14.3083 15.2537 69.9545 0.0000 0.0000 0.0000
# 4 0.0000 0.0000 0.0000 34.2943 0.0000 0.0000
# 5 0.0000 0.0000 0.0000 0.0000 31.0280 0.0000
# 6 0.0000 0.0000 0.0000 0.0000 0.0000 28.5634
#
#
#
# Elastic Compliance Matrix: (Units=1/GPa)
#
#
# Indices 1 2 3 4 5 6 
#
# 1 0.010663 -0.000158 -0.002147 0.000000 0.000000 0.000000
# 2 -0.000158 0.015107 -0.003262 0.000000 0.000000 0.000000
# 3 -0.002147 -0.003262 0.015445 0.000000 0.000000 0.000000
# 4 0.000000 0.000000 0.000000 0.029159 0.000000 0.000000
# 5 0.000000 0.000000 0.000000 0.000000 0.032229 0.000000
# 6 0.000000 0.000000 0.000000 0.000000 0.000000 0.035010
#
#
# Mechanical properties :
#
#
# Convention : Reuss Voigt Hill
#
# Bulk Modulus (GPa) = 33.24126 33.72550 33.48338
# Shear Modulus (GPa) = 31.49124 32.28001 31.88563
#
# Velocity S-wave (km/s) = 3.79117 3.83836 3.81484
# Velocity P-wave (km/s) = 5.85966 5.91918 5.88950
#
# Compressibility (1/GPa) = 0.03008309
#
# Stress axis : x y z
#
# Youngs Moduli (GPa) = 93.77935 66.19374 64.74451
#
# Poissons Ratio (x) = 0.01045 0.13898
# Poissons Ratio (y) = 0.01481 0.21119
# Poissons Ratio (z) = 0.20131 0.21591
#
# Static dielectric constant tensor:
#      x y z
#    x 3.984900 0.000000 0.000000 
#    y 0.000000 3.848190 0.000000 
#    z 0.000000 0.000000 3.832330 
# 
# 
# High freq. dielectric constant tensor:
#      x y z
#    x 1.882390 0.000000 0.000000 
#    y 0.000000 1.856690 0.000000 
#    z 0.000000 0.000000 1.854060 
# 
# From -- ./inp_files/7634.got.cif
#   From: 2010.03.12/outbox.cif.g09.slc.cpg/sg33_4_cif.got.tgz:7634.got - 2010.04.14 01:49:19.
