data_PCOD8171001
_publ_section_title
;
Structure prediction by ZEFSAII (Michael W. Deem and Ramdas Pophale) SiO2 
 PCOD8171001
Probable space group: P N A 21
;
_chemical_formula_sum "Si O2"
_cell_formula_units_Z 32
_cell_length_a 11.410983
_cell_length_b 14.258151
_cell_length_c 8.006405
_cell_angle_alpha 90.000000
_cell_angle_beta 90.000000
_cell_angle_gamma 90.000000
_cell_volume 1302.638240
_symmetry_space_group_name_H-M "P N A 21"
_symmetry_group_IT_number 33
_symmetry_cell_setting 'orthorhombic'
loop_
_space_group_symop_operation_xyz
x,y,z
-x,-y,1/2+z
1/2-x,1/2+y,1/2+z
1/2+x,1/2-y,z
loop_
_atom_site_type_symbol
_atom_site_label
_atom_site_fract_x
_atom_site_fract_y
_atom_site_fract_z
Si Si1 0.666546 0.858574 0.420790
Si Si2 0.326819 0.824216 0.958280
Si Si3 0.683403 0.369176 0.615717
Si Si4 0.688507 0.673705 0.626176
Si Si5 0.665448 0.023370 0.964909
Si Si6 0.527424 0.520543 0.756305
Si Si7 0.983303 0.558454 0.169510
Si Si8 0.318417 0.484790 0.568952
O O1 0.771401 0.832645 0.294930
O O2 0.648356 0.772699 0.549330
O O3 0.550915 0.880195 0.311001
O O4 0.705239 0.951738 0.522534
O O5 0.291801 0.820852 0.764310
O O6 0.220805 0.875934 0.059362
O O7 0.354666 0.719269 0.010187
O O8 0.445755 0.880248 0.006686
O O9 0.786503 0.421854 0.517225
O O10 0.574377 0.438998 0.632447
O O11 0.744821 0.608577 0.483881
O O12 0.573121 0.623322 0.700292
O O13 0.554228 0.030566 0.094154
O O14 0.632180 0.021122 0.768765
O O15 0.383626 0.513753 0.744210
O O16 0.575785 0.495809 0.938115
#
# Coordination Sequence:
#
# PCOD8171001 Si02
#       8
#     4   4   4   4   4   4   4   4
#     4  10  22  41  62  86 124 167 215 263 323 392
#     4  11  23  39  61  92 128 162 213 271 325 385
#     4   9  21  39  57  86 120 161 207 261 316 383
#     4  10  22  41  61  89 125 167 214 268 321 389
#     4  10  21  39  61  86 122 162 207 257 319 383
#     4   9  21  39  60  84 122 163 207 257 315 380
#     4  11  22  39  65  93 125 169 210 264 327 389
#     4  10  22  41  61  90 126 165 211 263 318 385
#
# _framework density 24.565532999999999
#
# number of rings (size 3 to 8) (size 9 to 14) (size 15 to 20)
#    0.000    2.000    0.000    4.500    0.000   11.000 
#    0.000    5.000    0.000    0.000    0.000    0.000 
#    0.000    0.000    0.000    0.000    0.000    0.000 
#
# Total GULP energy -396599.132615 kJ/mol
# GULP energy per Si atom -12393.722894 kJ/mol
# Density = 2.450962 g / cm^3
# Si number density = 24.565533 Si / 1000 Ang^3
#
#
#
# Elastic Constant Matrix: (Units=GPa)
#
#
# Indices 1 2 3 4 5 6 
#
# 1 36.3115 -3.9237 -2.8365 0.0000 0.0000 0.0000
# 2 -3.9237 111.5464 24.1024 0.0000 0.0000 0.0000
# 3 -2.8365 24.1024 85.4642 0.0000 0.0000 0.0000
# 4 0.0000 0.0000 0.0000 25.9758 0.0000 0.0000
# 5 0.0000 0.0000 0.0000 0.0000 54.2729 0.0000
# 6 0.0000 0.0000 0.0000 0.0000 0.0000 16.6000
#
#
#
# Elastic Compliance Matrix: (Units=1/GPa)
#
#
# Indices 1 2 3 4 5 6 
#
# 1 0.027682 0.000826 0.000686 0.000000 0.000000 0.000000
# 2 0.000826 0.009571 -0.002672 0.000000 0.000000 0.000000
# 3 0.000686 -0.002672 0.012477 0.000000 0.000000 0.000000
# 4 0.000000 0.000000 0.000000 0.038497 0.000000 0.000000
# 5 0.000000 0.000000 0.000000 0.000000 0.018425 0.000000
# 6 0.000000 0.000000 0.000000 0.000000 0.000000 0.060241
#
#
# Mechanical properties :
#
#
# Convention : Reuss Voigt Hill
#
# Bulk Modulus (GPa) = 21.09270 29.77851 25.43560
# Shear Modulus (GPa) = 27.02437 33.76842 30.39639
#
# Velocity S-wave (km/s) = 3.32036 3.71162 3.52143
# Velocity P-wave (km/s) = 4.82749 5.52418 5.18754
#
# Compressibility (1/GPa) = 0.04740978
#
# Stress axis : x y z
#
# Youngs Moduli (GPa) = 36.12421 104.47974 80.14692
#
# Poissons Ratio (x) = -0.08625 -0.05498
# Poissons Ratio (y) = -0.02982 0.21414
# Poissons Ratio (z) = -0.02478 0.27915
#
# Static dielectric constant tensor:
#      x y z
#    x 4.610040 0.000000 0.000000 
#    y 0.000000 4.059740 0.000000 
#    z 0.000000 0.000000 4.518340 
# 
# 
# High freq. dielectric constant tensor:
#      x y z
#    x 1.980770 0.000000 0.000000 
#    y 0.000000 1.955530 0.000000 
#    z 0.000000 0.000000 1.991180 
# 
# From -- ./inp_files/3980.got.cif
#   From: 2010.03.12/outbox.cif.g09.slc.cpg/sg33_2_cif.got.tgz:3980.got - 2010.04.14 01:49:19.
