data_PCOD8171415
_publ_section_title
;
Structure prediction by ZEFSAII (Michael W. Deem and Ramdas Pophale) SiO2 
 PCOD8171415
Probable space group: P N A 21
;
_chemical_formula_sum "Si O2"
_cell_formula_units_Z 28
_cell_length_a 10.296987
_cell_length_b 9.650699
_cell_length_c 12.677790
_cell_angle_alpha 90.000000
_cell_angle_beta 90.000000
_cell_angle_gamma 90.000000
_cell_volume 1259.831574
_symmetry_space_group_name_H-M "P N A 21"
_symmetry_group_IT_number 33
_symmetry_cell_setting 'orthorhombic'
loop_
_space_group_symop_operation_xyz
x,y,z
-x,-y,1/2+z
1/2-x,1/2+y,1/2+z
1/2+x,1/2-y,z
loop_
_atom_site_type_symbol
_atom_site_label
_atom_site_fract_x
_atom_site_fract_y
_atom_site_fract_z
Si Si1 0.532446 0.117386 0.250000
Si Si2 0.881945 0.856239 0.902869
Si Si3 0.428270 0.346380 0.943645
Si Si4 0.164607 0.271610 0.061140
Si Si5 0.588628 0.816384 0.240503
Si Si6 0.828028 0.744309 0.125735
Si Si7 0.259548 0.052952 0.203082
O O1 0.543254 0.236635 0.338386
O O2 0.633433 0.118650 0.153109
O O3 0.393998 0.136197 0.195102
O O4 0.544113 0.960908 0.296404
O O5 0.778987 0.932486 0.826384
O O6 0.966388 0.988615 0.944769
O O7 0.817261 0.777991 0.001627
O O8 0.390840 0.301918 0.826316
O O9 0.300547 0.318587 0.012959
O O10 0.550388 0.250100 0.975906
O O11 0.162310 0.125997 0.122780
O O12 0.727455 0.847914 0.184078
O O13 0.478256 0.754459 0.161663
O O14 0.765599 0.598918 0.156651
#
# Coordination Sequence:
#
# PCOD8171415 Si02
#       7
#     4   4   4   4   4   4   4
#     4  10  24  46  69 100 138 185 234 288 351 431
#     4  11  26  42  73 105 138 182 241 292 357 425
#     4  12  25  44  72 104 140 185 233 296 354 430
#     4  11  24  44  71  99 138 182 231 283 364 417
#     4  11  25  46  67  99 142 183 233 291 349 430
#     4  11  25  45  69 100 140 183 232 293 356 422
#     4  10  23  47  67 103 144 178 236 299 347 437
#
# _framework density 22.225193999999998
#
# number of rings (size 3 to 8) (size 9 to 14) (size 15 to 20)
#    0.000    1.143    2.857    1.714    8.000    0.000 
#    7.714    0.000    0.000    0.000    0.000    0.000 
#    0.000    0.000    0.000    0.000    0.000    0.000 
#
# Total GULP energy -346901.226736 kJ/mol
# GULP energy per Si atom -12389.329526 kJ/mol
# Density = 2.217461 g / cm^3
# Si number density = 22.225194 Si / 1000 Ang^3
#
#
#
# Elastic Constant Matrix: (Units=GPa)
#
#
# Indices 1 2 3 4 5 6 
#
# 1 73.4536 25.6172 9.8496 0.0000 0.0000 0.0000
# 2 25.6172 122.5475 49.7176 0.0000 0.0000 0.0000
# 3 9.8496 49.7176 118.1007 0.0000 0.0000 0.0000
# 4 0.0000 0.0000 0.0000 30.0572 0.0000 0.0000
# 5 0.0000 0.0000 0.0000 0.0000 34.2384 0.0000
# 6 0.0000 0.0000 0.0000 0.0000 0.0000 29.0803
#
#
#
# Elastic Compliance Matrix: (Units=1/GPa)
#
#
# Indices 1 2 3 4 5 6 
#
# 1 0.014685 -0.003103 0.000081 0.000000 0.000000 0.000000
# 2 -0.003103 0.010496 -0.004160 0.000000 0.000000 0.000000
# 3 0.000081 -0.004160 0.010212 0.000000 0.000000 0.000000
# 4 0.000000 0.000000 0.000000 0.033270 0.000000 0.000000
# 5 0.000000 0.000000 0.000000 0.000000 0.029207 0.000000
# 6 0.000000 0.000000 0.000000 0.000000 0.000000 0.034388
#
#
# Mechanical properties :
#
#
# Convention : Reuss Voigt Hill
#
# Bulk Modulus (GPa) = 47.54934 53.83008 50.68971
# Shear Modulus (GPa) = 32.54553 33.93631 33.24092
#
# Velocity S-wave (km/s) = 3.83084 3.91183 3.87155
# Velocity P-wave (km/s) = 6.40374 6.68402 6.54538
#
# Compressibility (1/GPa) = 0.02103079
#
# Stress axis : x y z
#
# Youngs Moduli (GPa) = 68.09555 95.27052 97.92581
#
# Poissons Ratio (x) = 0.29561 -0.00798
# Poissons Ratio (y) = 0.21129 0.40737
# Poissons Ratio (z) = -0.00555 0.39632
#
# Static dielectric constant tensor:
#      x y z
#    x 3.975980 0.000000 0.000000 
#    y 0.000000 4.018000 0.000000 
#    z 0.000000 0.000000 3.954240 
# 
# 
# High freq. dielectric constant tensor:
#      x y z
#    x 1.870180 0.000000 0.000000 
#    y 0.000000 1.886680 0.000000 
#    z 0.000000 0.000000 1.878000 
# 
# From -- ./inp_files/6341.got.cif
#   From: 2010.03.12/outbox.cif.g09.slc.cpg/sg33_4_cif.got.tgz:6341.got - 2010.04.14 01:49:19.
