data_PCOD8171927
_publ_section_title
;
Structure prediction by ZEFSAII (Michael W. Deem and Ramdas Pophale) SiO2 
 PCOD8171927
Probable space group: P N N 2
;
_chemical_formula_sum "Si O2"
_cell_formula_units_Z 24
_cell_length_a 12.373427
_cell_length_b 8.186773
_cell_length_c 11.939386
_cell_angle_alpha 90.000000
_cell_angle_beta 90.000000
_cell_angle_gamma 90.000000
_cell_volume 1209.441153
_symmetry_space_group_name_H-M "P N N 2"
_symmetry_group_IT_number 34
_symmetry_cell_setting 'orthorhombic'
loop_
_space_group_symop_operation_xyz
x,y,z
-x,-y,z
1/2-x,1/2+y,1/2+z
1/2+x,1/2-y,1/2+z
loop_
_atom_site_type_symbol
_atom_site_label
_atom_site_fract_x
_atom_site_fract_y
_atom_site_fract_z
Si Si1 0.425550 0.851484 0.906140
Si Si2 0.371576 0.983488 0.456881
Si Si3 0.000000 0.000000 0.380116
Si Si4 0.130754 0.262210 0.166505
Si Si5 0.222410 0.958820 0.255836
Si Si6 0.706677 0.668013 0.520667
Si Si7 0.500000 0.500000 0.554891
O O1 0.467869 0.669349 0.945937
O O2 0.409663 0.865801 0.772259
O O3 0.500000 0.000000 0.946704
O O4 0.312593 0.897219 0.961659
O O5 0.315687 0.153910 0.476356
O O6 0.500000 0.000000 0.444209
O O7 0.335994 0.872150 0.561173
O O8 0.319423 0.916240 0.341400
O O9 0.895301 0.052716 0.310702
O O10 0.230667 0.142957 0.202389
O O11 0.026694 0.155158 0.131953
O O12 0.225867 0.829523 0.154635
O O13 0.606529 0.549069 0.483932
#
# Coordination Sequence:
#
# PCOD8171927 Si02
#       7
#     4   4   2   4   4   4   2
#     4  11  23  39  68  98 125 170 220 265 330 394
#     4  12  23  40  68  95 126 170 218 264 329 395
#     4  10  21  42  66  91 132 159 216 282 311 376
#     4  10  20  38  65  91 123 163 216 271 316 382
#     4  10  23  42  62  92 133 164 208 283 326 373
#     4  11  22  43  63  93 131 164 213 266 328 390
#     4  10  21  40  62  91 122 163 214 276 313 376
#
# _framework density 19.843874
#
# number of rings (size 3 to 8) (size 9 to 14) (size 15 to 20)
#    0.000    1.333    5.000    5.000    2.333    3.333 
#    0.000    0.000    0.000    1.000    0.000    0.000 
#    0.000    0.000    0.000    0.000    0.000    0.000 
#
# Total GULP energy -297338.062202 kJ/mol
# GULP energy per Si atom -12389.085925 kJ/mol
# Density = 1.979871 g / cm^3
# Si number density = 19.843874 Si / 1000 Ang^3
#
#
#
# Elastic Constant Matrix: (Units=GPa)
#
#
# Indices 1 2 3 4 5 6 
#
# 1 119.2682 38.3123 49.8790 0.0000 0.0000 0.0000
# 2 38.3123 67.0783 22.8065 0.0000 0.0000 0.0000
# 3 49.8790 22.8065 45.8331 0.0000 0.0000 0.0000
# 4 0.0000 0.0000 0.0000 19.7528 0.0000 0.0000
# 5 0.0000 0.0000 0.0000 0.0000 45.9397 0.0000
# 6 0.0000 0.0000 0.0000 0.0000 0.0000 30.4825
#
#
#
# Elastic Compliance Matrix: (Units=1/GPa)
#
#
# Indices 1 2 3 4 5 6 
#
# 1 0.016202 -0.003923 -0.015681 0.000000 0.000000 0.000000
# 2 -0.003923 0.018893 -0.005132 0.000000 0.000000 0.000000
# 3 -0.015681 -0.005132 0.041437 0.000000 0.000000 0.000000
# 4 0.000000 0.000000 0.000000 0.050626 0.000000 0.000000
# 5 0.000000 0.000000 0.000000 0.000000 0.021768 0.000000
# 6 0.000000 0.000000 0.000000 0.000000 0.000000 0.032806
#
#
# Mechanical properties :
#
#
# Convention : Reuss Voigt Hill
#
# Bulk Modulus (GPa) = 36.95307 50.46389 43.70848
# Shear Modulus (GPa) = 20.81390 27.31379 24.06384
#
# Velocity S-wave (km/s) = 3.24216 3.71406 3.48610
# Velocity P-wave (km/s) = 5.71645 6.62404 6.18691
#
# Compressibility (1/GPa) = 0.02706135
#
# Stress axis : x y z
#
# Youngs Moduli (GPa) = 61.71940 52.92845 24.13294
#
# Poissons Ratio (x) = 0.20762 0.37842
# Poissons Ratio (y) = 0.24211 0.12386
# Poissons Ratio (z) = 0.96780 0.27165
#
# Static dielectric constant tensor:
#      x y z
#    x 3.438160 0.000000 0.000000 
#    y 0.000000 7.236760 0.000000 
#    z 0.000000 0.000000 3.579830 
# 
# 
# High freq. dielectric constant tensor:
#      x y z
#    x 1.772690 0.000000 0.000000 
#    y 0.000000 1.774930 0.000000 
#    z 0.000000 0.000000 1.750010 
# 
# From -- ./inp_files/5346.got.cif
#   From: 2010.03.12/outbox.cif.g09.slc.cpg/sg34_3_cif.got.tgz:5346.got - 2010.04.14 01:56:33.
