data_PCOD8171136
_publ_section_title
;
Structure prediction by ZEFSAII (Michael W. Deem and Ramdas Pophale) SiO2 
 PCOD8171136
Probable space group: P N A 21
;
_chemical_formula_sum "Si O2"
_cell_formula_units_Z 32
_cell_length_a 28.497772
_cell_length_b 6.748653
_cell_length_c 8.185242
_cell_angle_alpha 90.000000
_cell_angle_beta 90.000000
_cell_angle_gamma 90.000000
_cell_volume 1574.198629
_symmetry_space_group_name_H-M "P N A 21"
_symmetry_group_IT_number 33
_symmetry_cell_setting 'orthorhombic'
loop_
_space_group_symop_operation_xyz
x,y,z
-x,-y,1/2+z
1/2-x,1/2+y,1/2+z
1/2+x,1/2-y,z
loop_
_atom_site_type_symbol
_atom_site_label
_atom_site_fract_x
_atom_site_fract_y
_atom_site_fract_z
Si Si1 0.043608 0.839830 0.331440
Si Si2 0.289093 0.686572 0.898625
Si Si3 0.047615 0.092296 0.641212
Si Si4 0.286485 0.385615 0.170538
Si Si5 0.930352 0.575886 0.906547
Si Si6 0.660304 0.999634 0.600933
Si Si7 0.358694 0.664944 0.331518
Si Si8 0.881610 0.890796 0.704109
O O1 0.038612 0.602004 0.334109
O O2 0.995990 0.933011 0.261339
O O3 0.049312 0.910079 0.517057
O O4 0.088694 0.905616 0.222063
O O5 0.254913 0.763858 0.757612
O O6 0.336784 0.599565 0.822403
O O7 0.267666 0.507777 0.010930
O O8 0.299217 0.873609 0.013119
O O9 0.041659 0.298013 0.542096
O O10 0.095944 0.078809 0.740417
O O11 0.312384 0.538004 0.290734
O O12 0.324477 0.224395 0.120536
O O13 0.916743 0.716544 0.756342
O O14 0.884348 0.482705 0.985698
O O15 0.648697 0.107445 0.773693
O O16 0.365131 0.653470 0.523169
#
# Coordination Sequence:
#
# PCOD8171136 Si02
#       8
#     4   4   4   4   4   4   4   4
#     4  11  21  39  63  87 121 164 199 246 310 357
#     4  10  24  39  60  88 123 157 207 254 302 371
#     4  10  22  37  60  88 121 156 205 251 294 367
#     4  11  23  40  63  87 120 166 203 249 317 363
#     4   9  20  39  59  84 118 157 196 244 299 355
#     4   9  20  40  60  82 119 159 197 247 301 357
#     4  10  22  40  59  90 125 158 201 256 302 365
#     4  10  22  40  60  90 125 155 202 255 301 363
#
# _framework density 20.327804
#
# number of rings (size 3 to 8) (size 9 to 14) (size 15 to 20)
#    0.000    2.000    0.000    4.500    3.500    5.000 
#    2.250    2.500    0.000    0.000    0.000    0.000 
#    0.000    0.000    0.000    0.000    0.000    0.000 
#
# Total GULP energy -396782.738151 kJ/mol
# GULP energy per Si atom -12399.460567 kJ/mol
# Density = 2.028154 g / cm^3
# Si number density = 20.327804 Si / 1000 Ang^3
#
#
#
# Elastic Constant Matrix: (Units=GPa)
#
#
# Indices 1 2 3 4 5 6 
#
# 1 70.0263 12.7464 12.3297 0.0000 0.0000 0.0000
# 2 12.7464 83.1692 26.0643 0.0000 0.0000 0.0000
# 3 12.3297 26.0643 94.4123 0.0000 0.0000 0.0000
# 4 0.0000 0.0000 0.0000 23.5075 0.0000 0.0000
# 5 0.0000 0.0000 0.0000 0.0000 30.0199 0.0000
# 6 0.0000 0.0000 0.0000 0.0000 0.0000 24.9292
#
#
#
# Elastic Compliance Matrix: (Units=1/GPa)
#
#
# Indices 1 2 3 4 5 6 
#
# 1 0.014866 -0.001828 -0.001437 0.000000 0.000000 0.000000
# 2 -0.001828 0.013387 -0.003457 0.000000 0.000000 0.000000
# 3 -0.001437 -0.003457 0.011734 0.000000 0.000000 0.000000
# 4 0.000000 0.000000 0.000000 0.042540 0.000000 0.000000
# 5 0.000000 0.000000 0.000000 0.000000 0.033311 0.000000
# 6 0.000000 0.000000 0.000000 0.000000 0.000000 0.040114
#
#
# Mechanical properties :
#
#
# Convention : Reuss Voigt Hill
#
# Bulk Modulus (GPa) = 37.67418 38.87651 38.27535
# Shear Modulus (GPa) = 28.05157 28.78916 28.42036
#
# Velocity S-wave (km/s) = 3.71881 3.76739 3.74318
# Velocity P-wave (km/s) = 6.08383 6.17176 6.12795
#
# Compressibility (1/GPa) = 0.02654338
#
# Stress axis : x y z
#
# Youngs Moduli (GPa) = 67.26727 74.69788 85.22347
#
# Poissons Ratio (x) = 0.13656 0.12244
# Poissons Ratio (y) = 0.12297 0.29462
# Poissons Ratio (z) = 0.09665 0.25824
#
# Static dielectric constant tensor:
#      x y z
#    x 3.597850 0.000000 0.000000 
#    y 0.000000 3.670390 0.000000 
#    z 0.000000 0.000000 3.763860 
# 
# 
# High freq. dielectric constant tensor:
#      x y z
#    x 1.790650 0.000000 0.000000 
#    y 0.000000 1.795300 0.000000 
#    z 0.000000 0.000000 1.794140 
# 
# From -- ./inp_files/5311.got.cif
#   From: 2010.03.12/outbox.cif.g09.slc.cpg/sg33_3_cif.got.tgz:5311.got - 2010.04.14 01:49:19.
