data_PCOD8171867
_publ_section_title
;
Structure prediction by ZEFSAII (Michael W. Deem and Ramdas Pophale) SiO2 
 PCOD8171867
Probable space group: P N N 2
;
_chemical_formula_sum "Si O2"
_cell_formula_units_Z 32
_cell_length_a 9.597478
_cell_length_b 14.076824
_cell_length_c 12.183493
_cell_angle_alpha 90.000000
_cell_angle_beta 90.000000
_cell_angle_gamma 90.000000
_cell_volume 1646.014377
_symmetry_space_group_name_H-M "P N N 2"
_symmetry_group_IT_number 34
_symmetry_cell_setting 'orthorhombic'
loop_
_space_group_symop_operation_xyz
x,y,z
-x,-y,z
1/2-x,1/2+y,1/2+z
1/2+x,1/2-y,1/2+z
loop_
_atom_site_type_symbol
_atom_site_label
_atom_site_fract_x
_atom_site_fract_y
_atom_site_fract_z
Si Si1 0.957015 0.182121 0.519480
Si Si2 0.752221 0.415283 0.009589
Si Si3 0.529176 0.797550 0.385274
Si Si4 0.154196 0.959791 0.687450
Si Si5 0.106800 0.914545 0.920860
Si Si6 0.922286 0.362431 0.648810
Si Si7 0.717797 0.046114 0.128010
Si Si8 0.263563 0.401303 0.860496
O O1 0.858785 0.130177 0.608449
O O2 0.941829 0.291726 0.547526
O O3 0.892360 0.161764 0.400947
O O4 0.116463 0.150696 0.514832
O O5 0.761163 0.464914 0.130761
O O6 0.884747 0.350074 0.982345
O O7 0.741197 0.496156 0.917881
O O8 0.523507 0.684944 0.410365
O O9 0.602205 0.812145 0.266808
O O10 0.376147 0.841784 0.383596
O O11 0.200090 0.932514 0.810904
O O12 0.000000 0.000000 0.699481
O O13 0.215244 0.908578 0.020298
O O14 0.000000 0.000000 0.944201
O O15 0.790930 0.431013 0.622232
O O16 0.062958 0.420904 0.652397
O O17 0.802818 0.080845 0.234040
#
# Coordination Sequence:
#
# PCOD8171867 Si02
#       8
#     4   4   4   4   4   4   4   4
#     4  10  19  35  62  88 119 151 204 248 294 358
#     4  10  19  36  64  92 117 152 207 255 292 354
#     4  11  21  38  63  89 119 161 204 243 301 366
#     4   8  17  34  56  84 112 153 191 238 290 348
#     4  11  23  38  58  88 126 162 196 247 304 366
#     4  10  20  39  62  84 115 167 205 236 301 372
#     4  10  22  39  60  84 122 161 202 247 301 364
#     4  10  21  37  62  93 119 154 201 257 302 348
#
# _framework density 19.440899999999999
#
# number of rings (size 3 to 8) (size 9 to 14) (size 15 to 20)
#    0.000    2.000    2.500    2.250    1.750    1.000 
#    0.000    0.000   13.750    0.000    0.000    0.000 
#    0.000    0.000    0.000    0.000    0.000    0.000 
#
# Total GULP energy -396586.768061 kJ/mol
# GULP energy per Si atom -12393.336502 kJ/mol
# Density = 1.939665 g / cm^3
# Si number density = 19.440900 Si / 1000 Ang^3
#
#
#
# Elastic Constant Matrix: (Units=GPa)
#
#
# Indices 1 2 3 4 5 6 
#
# 1 35.5660 14.5179 22.7783 0.0000 0.0000 0.0000
# 2 14.5179 109.8420 33.0689 0.0000 0.0000 0.0000
# 3 22.7783 33.0689 126.3047 0.0000 0.0000 0.0000
# 4 0.0000 0.0000 0.0000 28.6154 0.0000 0.0000
# 5 0.0000 0.0000 0.0000 0.0000 26.1848 0.0000
# 6 0.0000 0.0000 0.0000 0.0000 0.0000 20.6427
#
#
#
# Elastic Compliance Matrix: (Units=1/GPa)
#
#
# Indices 1 2 3 4 5 6 
#
# 1 0.032536 -0.002751 -0.005148 0.000000 0.000000 0.000000
# 2 -0.002751 0.010116 -0.002152 0.000000 0.000000 0.000000
# 3 -0.005148 -0.002152 0.009409 0.000000 0.000000 0.000000
# 4 0.000000 0.000000 0.000000 0.034946 0.000000 0.000000
# 5 0.000000 0.000000 0.000000 0.000000 0.038190 0.000000
# 6 0.000000 0.000000 0.000000 0.000000 0.000000 0.048443
#
#
# Mechanical properties :
#
#
# Convention : Reuss Voigt Hill
#
# Bulk Modulus (GPa) = 31.28920 45.82699 38.55809
# Shear Modulus (GPa) = 24.46244 28.51176 26.48710
#
# Velocity S-wave (km/s) = 3.55110 3.83376 3.69513
# Velocity P-wave (km/s) = 5.73962 6.57424 6.17105
#
# Compressibility (1/GPa) = 0.03195991
#
# Stress axis : x y z
#
# Youngs Moduli (GPa) = 30.73493 98.85794 106.27869
#
# Poissons Ratio (x) = 0.27192 0.54708
# Poissons Ratio (y) = 0.08454 0.22875
# Poissons Ratio (z) = 0.15821 0.21278
#
# Static dielectric constant tensor:
#      x y z
#    x 3.249150 0.000000 0.000000 
#    y 0.000000 3.763100 0.000000 
#    z 0.000000 0.000000 3.808790 
# 
# 
# High freq. dielectric constant tensor:
#      x y z
#    x 1.723090 0.000000 0.000000 
#    y 0.000000 1.768240 0.000000 
#    z 0.000000 0.000000 1.759310 
# 
# From -- ./inp_files/5085.got.cif
#   From: 2010.03.12/outbox.cif.g09.slc.cpg/sg34_3_cif.got.tgz:5085.got - 2010.04.14 01:56:33.
