data_PCOD8171496
_publ_section_title
;
Structure prediction by ZEFSAII (Michael W. Deem and Ramdas Pophale) SiO2 
 PCOD8171496
Probable space group: P N A 21
;
_chemical_formula_sum "Si O2"
_cell_formula_units_Z 20
_cell_length_a 8.625982
_cell_length_b 4.619441
_cell_length_c 17.592891
_cell_angle_alpha 90.000000
_cell_angle_beta 90.000000
_cell_angle_gamma 90.000000
_cell_volume 701.027709
_symmetry_space_group_name_H-M "P N A 21"
_symmetry_group_IT_number 33
_symmetry_cell_setting 'orthorhombic'
loop_
_space_group_symop_operation_xyz
x,y,z
-x,-y,1/2+z
1/2-x,1/2+y,1/2+z
1/2+x,1/2-y,z
loop_
_atom_site_type_symbol
_atom_site_label
_atom_site_fract_x
_atom_site_fract_y
_atom_site_fract_z
Si Si1 0.639375 0.973793 0.698230
Si Si2 0.083954 0.077095 0.297565
Si Si3 0.377444 0.524751 0.095168
Si Si4 0.420182 0.043730 0.903376
Si Si5 0.649277 0.657865 0.993834
O O1 0.796872 0.069911 0.739765
O O2 0.542696 0.771006 0.754032
O O3 0.675873 0.788875 0.623056
O O4 0.562341 0.273955 0.667488
O O5 0.168285 0.318561 0.348047
O O6 0.022174 0.830445 0.357381
O O7 0.506044 0.475643 0.029323
O O8 0.222761 0.663310 0.062436
O O9 0.576573 0.890156 0.934553
O O10 0.278757 0.076116 0.964140
#
# Coordination Sequence:
#
# PCOD8171496 Si02
#       5
#     4   4   4   4   4
#     4  12  25  45  72 104 144 190 241 302 364 435
#     4  12  26  45  70 104 146 190 241 298 364 439
#     4  11  24  44  72 104 141 188 243 302 366 433
#     4  11  26  45  70 104 145 190 241 298 364 438
#     4  10  25  45  72 104 144 190 242 302 364 435
#
# _framework density 28.529544000000001
#
# number of rings (size 3 to 8) (size 9 to 14) (size 15 to 20)
#    0.000    0.800    0.000    6.000    0.000   14.400 
#    0.000    2.000    0.000    0.000    0.000    0.000 
#    0.000    0.000    0.000    0.000    0.000    0.000 
#
# Total GULP energy -247826.618408 kJ/mol
# GULP energy per Si atom -12391.330920 kJ/mol
# Density = 2.846461 g / cm^3
# Si number density = 28.529544 Si / 1000 Ang^3
#
#
#
# Elastic Constant Matrix: (Units=GPa)
#
#
# Indices 1 2 3 4 5 6 
#
# 1 79.8331 -4.6082 29.7009 0.0000 0.0000 0.0000
# 2 -4.6082 114.5090 20.2167 0.0000 0.0000 0.0000
# 3 29.7009 20.2167 75.8559 0.0000 0.0000 0.0000
# 4 0.0000 0.0000 0.0000 35.7310 0.0000 0.0000
# 5 0.0000 0.0000 0.0000 0.0000 14.2565 0.0000
# 6 0.0000 0.0000 0.0000 0.0000 0.0000 30.3966
#
#
#
# Elastic Compliance Matrix: (Units=1/GPa)
#
#
# Indices 1 2 3 4 5 6 
#
# 1 0.014978 0.001719 -0.006323 0.000000 0.000000 0.000000
# 2 0.001719 0.009361 -0.003168 0.000000 0.000000 0.000000
# 3 -0.006323 -0.003168 0.016503 0.000000 0.000000 0.000000
# 4 0.000000 0.000000 0.000000 0.027987 0.000000 0.000000
# 5 0.000000 0.000000 0.000000 0.000000 0.070144 0.000000
# 6 0.000000 0.000000 0.000000 0.000000 0.000000 0.032898
#
#
# Mechanical properties :
#
#
# Convention : Reuss Voigt Hill
#
# Bulk Modulus (GPa) = 39.52777 40.09077 39.80927
# Shear Modulus (GPa) = 25.53018 31.06938 28.29978
#
# Velocity S-wave (km/s) = 2.99468 3.30362 3.15293
# Velocity P-wave (km/s) = 5.08356 5.35114 5.21907
#
# Compressibility (1/GPa) = 0.02529867
#
# Stress axis : x y z
#
# Youngs Moduli (GPa) = 66.76655 106.82128 60.59594
#
# Poissons Ratio (x) = -0.18362 0.38312
# Poissons Ratio (y) = -0.11477 0.19197
# Poissons Ratio (z) = 0.42213 0.33841
#
# Static dielectric constant tensor:
#      x y z
#    x 4.778970 0.000000 0.000000 
#    y 0.000000 5.193170 0.000000 
#    z 0.000000 0.000000 6.279690 
# 
# 
# High freq. dielectric constant tensor:
#      x y z
#    x 2.142060 0.000000 0.000000 
#    y 0.000000 2.160320 0.000000 
#    z 0.000000 0.000000 2.188600 
# 
# From -- ./inp_files/8406.got.cif
#   From: 2010.03.12/outbox.cif.g09.slc.cpg/sg33_5_cif.got.tgz:8406.got - 2010.04.14 01:49:19.
