data_PCOD8171265
_publ_section_title
;
Structure prediction by ZEFSAII (Michael W. Deem and Ramdas Pophale) SiO2 
 PCOD8171265
Probable space group: P N A 21
;
_chemical_formula_sum "Si O2"
_cell_formula_units_Z 28
_cell_length_a 20.166623
_cell_length_b 5.637846
_cell_length_c 9.349710
_cell_angle_alpha 90.000000
_cell_angle_beta 90.000000
_cell_angle_gamma 90.000000
_cell_volume 1063.027572
_symmetry_space_group_name_H-M "P N A 21"
_symmetry_group_IT_number 33
_symmetry_cell_setting 'orthorhombic'
loop_
_space_group_symop_operation_xyz
x,y,z
-x,-y,1/2+z
1/2-x,1/2+y,1/2+z
1/2+x,1/2-y,z
loop_
_atom_site_type_symbol
_atom_site_label
_atom_site_fract_x
_atom_site_fract_y
_atom_site_fract_z
Si Si1 0.574012 0.213255 0.298970
Si Si2 0.183875 0.353239 0.736679
Si Si3 0.380095 0.506620 0.544918
Si Si4 0.814797 0.371659 0.740789
Si Si5 0.571663 0.815810 0.801796
Si Si6 0.119646 0.964780 0.537213
Si Si7 0.750542 0.755671 0.545827
O O1 0.577728 0.300646 0.134382
O O2 0.503035 0.080096 0.314166
O O3 0.574309 0.431277 0.411464
O O4 0.636469 0.040463 0.334536
O O5 0.246911 0.229128 0.825022
O O6 0.126271 0.478057 0.832674
O O7 0.148747 0.181174 0.627899
O O8 0.225929 0.559502 0.662881
O O9 0.359855 0.320309 0.666056
O O10 0.422328 0.391229 0.418805
O O11 0.315815 0.624514 0.468846
O O12 0.777283 0.518546 0.618127
O O13 0.579364 0.708283 0.642556
O O14 0.180711 0.819558 0.462384
#
# Coordination Sequence:
#
# PCOD8171265 Si02
#       7
#     4   4   4   4   4   4   4
#     4  11  24  42  68 102 140 184 230 284 351 418
#     4   9  20  43  64  97 132 180 229 284 341 406
#     4  10  22  44  65 100 135 181 229 287 342 414
#     4   9  20  43  64  97 132 180 229 284 341 406
#     4  11  24  42  68 102 140 184 230 284 351 418
#     4  10  22  44  65 100 135 181 229 287 342 414
#     4   8  18  42  64  94 128 176 228 282 338 398
#
# _framework density 26.339863000000001
#
# number of rings (size 3 to 8) (size 9 to 14) (size 15 to 20)
#    0.000    2.286    0.000    0.857    0.000    6.857 
#   61.714    0.000    0.000    0.000    0.000    0.000 
#    0.000    0.000    0.000    0.000    0.000    0.000 
#
# Total GULP energy -346898.506632 kJ/mol
# GULP energy per Si atom -12389.232380 kJ/mol
# Density = 2.627991 g / cm^3
# Si number density = 26.339863 Si / 1000 Ang^3
#
#
#
# Elastic Constant Matrix: (Units=GPa)
#
#
# Indices 1 2 3 4 5 6 
#
# 1 196.5965 56.5187 67.9230 0.0000 0.0000 0.0000
# 2 56.5187 78.0296 11.9895 0.0000 0.0000 0.0000
# 3 67.9230 11.9895 96.2953 0.0000 0.0000 0.0000
# 4 0.0000 0.0000 0.0000 31.6457 0.0000 0.0000
# 5 0.0000 0.0000 0.0000 0.0000 24.7825 0.0000
# 6 0.0000 0.0000 0.0000 0.0000 0.0000 43.1336
#
#
#
# Elastic Compliance Matrix: (Units=1/GPa)
#
#
# Indices 1 2 3 4 5 6 
#
# 1 0.008438 -0.005299 -0.005292 0.000000 0.000000 0.000000
# 2 -0.005299 0.016393 0.001697 0.000000 0.000000 0.000000
# 3 -0.005292 0.001697 0.013907 0.000000 0.000000 0.000000
# 4 0.000000 0.000000 0.000000 0.031600 0.000000 0.000000
# 5 0.000000 0.000000 0.000000 0.000000 0.040351 0.000000
# 6 0.000000 0.000000 0.000000 0.000000 0.000000 0.023184
#
#
# Mechanical properties :
#
#
# Convention : Reuss Voigt Hill
#
# Bulk Modulus (GPa) = 47.73584 71.53153 59.63368
# Shear Modulus (GPa) = 31.51689 35.54505 33.53097
#
# Velocity S-wave (km/s) = 3.46287 3.67751 3.57180
# Velocity P-wave (km/s) = 5.84388 6.72668 6.30076
#
# Compressibility (1/GPa) = 0.02094862
#
# Stress axis : x y z
#
# Youngs Moduli (GPa) = 118.50554 61.00118 71.90866
#
# Poissons Ratio (x) = 0.32324 0.38057
# Poissons Ratio (y) = 0.62796 -0.12200
# Poissons Ratio (z) = 0.62718 -0.10350
#
# Static dielectric constant tensor:
#      x y z
#    x 5.049180 0.000000 0.000000 
#    y 0.000000 5.084440 0.000000 
#    z 0.000000 0.000000 4.746970 
# 
# 
# High freq. dielectric constant tensor:
#      x y z
#    x 2.075200 0.000000 0.000000 
#    y 0.000000 2.056070 0.000000 
#    z 0.000000 0.000000 2.079880 
# 
# From -- ./inp_files/6979.got.cif
#   From: 2010.03.12/outbox.cif.g09.slc.cpg/sg33_4_cif.got.tgz:6979.got - 2010.04.14 01:49:19.
