data_PCOD8171270
_publ_section_title
;
Structure prediction by ZEFSAII (Michael W. Deem and Ramdas Pophale) SiO2 
 PCOD8171270
Probable space group: P N A 21
;
_chemical_formula_sum "Si O2"
_cell_formula_units_Z 32
_cell_length_a 21.630474
_cell_length_b 8.251645
_cell_length_c 8.641288
_cell_angle_alpha 90.000000
_cell_angle_beta 90.000000
_cell_angle_gamma 90.000000
_cell_volume 1542.357508
_symmetry_space_group_name_H-M "P N A 21"
_symmetry_group_IT_number 33
_symmetry_cell_setting 'orthorhombic'
loop_
_space_group_symop_operation_xyz
x,y,z
-x,-y,1/2+z
1/2-x,1/2+y,1/2+z
1/2+x,1/2-y,z
loop_
_atom_site_type_symbol
_atom_site_label
_atom_site_fract_x
_atom_site_fract_y
_atom_site_fract_z
Si Si1 0.384204 0.749999 0.428920
Si Si2 0.423425 0.207083 0.608745
Si Si3 0.576573 0.707079 0.749098
Si Si4 0.877943 0.749996 0.928920
Si Si5 0.952133 0.941958 0.676756
Si Si6 0.952134 0.558039 0.181083
Si Si7 0.321653 0.535741 0.175666
Si Si8 0.178349 0.464258 0.182174
O O1 0.428166 0.616188 0.508725
O O2 0.428162 0.883816 0.349110
O O3 0.339274 0.662680 0.308556
O O4 0.339275 0.837314 0.549290
O O5 0.428073 0.250002 0.428921
O O6 0.434299 0.371809 0.704416
O O7 0.473987 0.075096 0.664458
O O8 0.357340 0.133403 0.654961
O O9 0.526012 0.575087 0.693390
O O10 0.642658 0.633403 0.702878
O O11 0.565695 0.871802 0.653427
O O12 0.922324 0.830960 0.805763
O O13 0.835791 0.613320 0.849361
O O14 0.922325 0.669024 0.052070
O O15 0.835795 0.886676 0.008483
O O16 0.250001 0.499999 0.178914
#
# Coordination Sequence:
#
# PCOD8171270 Si02
#       8
#     4   4   4   4   4   4   4   4
#     4  10  22  44  68  96 136 180 218 292 340 402
#     4  12  25  42  69 102 135 179 224 287 348 407
#     4  12  25  42  69 102 135 179 224 287 348 407
#     4  10  24  44  64 100 130 178 224 284 338 410
#     4  11  23  41  69  98 136 165 225 283 355 405
#     4  11  23  41  69  98 136 165 225 283 355 405
#     4  11  26  44  68  97 137 183 235 275 335 408
#     4  11  26  44  68  97 137 183 235 275 335 408
#
# _framework density 20.747458999999999
#
# number of rings (size 3 to 8) (size 9 to 14) (size 15 to 20)
#    0.000    1.000    3.750    3.000    1.750    3.000 
#    0.000    5.000    0.000    0.000    0.000    0.000 
#    0.000    0.000    0.000    0.000    0.000    0.000 
#
# Total GULP energy -397008.631394 kJ/mol
# GULP energy per Si atom -12406.519731 kJ/mol
# Density = 2.070024 g / cm^3
# Si number density = 20.747459 Si / 1000 Ang^3
#
#
#
# Elastic Constant Matrix: (Units=GPa)
#
#
# Indices 1 2 3 4 5 6 
#
# 1 160.7017 45.8358 22.3990 0.0000 0.0000 0.0000
# 2 45.8358 124.7950 6.0216 0.0000 0.0000 0.0000
# 3 22.3990 6.0216 63.3990 0.0000 0.0000 0.0000
# 4 0.0000 0.0000 0.0000 27.9304 0.0000 0.0000
# 5 0.0000 0.0000 0.0000 0.0000 17.5967 0.0000
# 6 0.0000 0.0000 0.0000 0.0000 0.0000 35.7954
#
#
#
# Elastic Compliance Matrix: (Units=1/GPa)
#
#
# Indices 1 2 3 4 5 6 
#
# 1 0.007278 -0.002561 -0.002328 0.000000 0.000000 0.000000
# 2 -0.002561 0.008951 0.000055 0.000000 0.000000 0.000000
# 3 -0.002328 0.000055 0.016590 0.000000 0.000000 0.000000
# 4 0.000000 0.000000 0.000000 0.035803 0.000000 0.000000
# 5 0.000000 0.000000 0.000000 0.000000 0.056829 0.000000
# 6 0.000000 0.000000 0.000000 0.000000 0.000000 0.027937
#
#
# Mechanical properties :
#
#
# Convention : Reuss Voigt Hill
#
# Bulk Modulus (GPa) = 43.19505 55.26762 49.23134
# Shear Modulus (GPa) = 29.27867 34.57377 31.92622
#
# Velocity S-wave (km/s) = 3.76066 4.08660 3.92701
# Velocity P-wave (km/s) = 6.30249 6.99737 6.65900
#
# Compressibility (1/GPa) = 0.02315080
#
# Stress axis : x y z
#
# Youngs Moduli (GPa) = 137.40911 111.71929 60.27574
#
# Poissons Ratio (x) = 0.28607 0.14032
# Poissons Ratio (y) = 0.35185 -0.00329
# Poissons Ratio (z) = 0.31988 -0.00609
#
# Static dielectric constant tensor:
#      x y z
#    x 3.591920 0.000000 0.000000 
#    y 0.000000 4.018180 0.000000 
#    z 0.000000 0.000000 4.061010 
# 
# 
# High freq. dielectric constant tensor:
#      x y z
#    x 1.801910 0.000000 0.000000 
#    y 0.000000 1.827280 0.000000 
#    z 0.000000 0.000000 1.822530 
# 
# From -- ./inp_files/5021.got.cif
#   From: 2010.03.12/outbox.cif.g09.slc.cpg/sg33_3_cif.got.tgz:5021.got - 2010.04.14 01:49:19.
