data_PCOD8171493
_publ_section_title
;
Structure prediction by ZEFSAII (Michael W. Deem and Ramdas Pophale) SiO2 
 PCOD8171493
Probable space group: P N A 21
;
_chemical_formula_sum "Si O2"
_cell_formula_units_Z 20
_cell_length_a 10.843487
_cell_length_b 8.053053
_cell_length_c 9.722966
_cell_angle_alpha 90.000000
_cell_angle_beta 90.000000
_cell_angle_gamma 90.000000
_cell_volume 849.040267
_symmetry_space_group_name_H-M "P N A 21"
_symmetry_group_IT_number 33
_symmetry_cell_setting 'orthorhombic'
loop_
_space_group_symop_operation_xyz
x,y,z
-x,-y,1/2+z
1/2-x,1/2+y,1/2+z
1/2+x,1/2-y,z
loop_
_atom_site_type_symbol
_atom_site_label
_atom_site_fract_x
_atom_site_fract_y
_atom_site_fract_z
Si Si1 0.416891 0.082386 0.224370
Si Si2 0.750077 0.098045 0.924385
Si Si3 0.108936 0.093700 0.919305
Si Si4 0.077973 0.958529 0.645423
Si Si5 0.379080 0.068309 0.916881
O O1 0.417408 0.280577 0.220327
O O2 0.288234 0.023215 0.299298
O O3 0.535962 0.016098 0.303955
O O4 0.424116 0.015670 0.068961
O O5 0.628321 0.210349 0.956682
O O6 0.867448 0.227441 0.897852
O O7 0.794000 0.001171 0.061935
O O8 0.239946 0.997872 0.904212
O O9 0.050717 0.088162 0.766706
O O10 0.032472 0.009400 0.039261
#
# Coordination Sequence:
#
# PCOD8171493 Si02
#       5
#     4   4   4   4   4
#     4  11  22  45  71  96 137 182 229 278 341 406
#     4   9  22  43  68  95 133 173 226 282 335 403
#     4  10  25  44  67  99 138 176 225 282 342 400
#     4  11  25  44  69  97 141 179 226 285 337 405
#     4   9  24  40  69  97 135 174 228 281 337 400
#
# _framework density 23.556010000000001
#
# number of rings (size 3 to 8) (size 9 to 14) (size 15 to 20)
#    1.200    0.800    0.000    2.400    8.400    1.600 
#    7.200    0.000    0.000    0.000    0.000    0.000 
#    0.000    0.000    0.000    0.000    0.000    0.000 
#
# Total GULP energy -247761.577740 kJ/mol
# GULP energy per Si atom -12388.078887 kJ/mol
# Density = 2.350240 g / cm^3
# Si number density = 23.556010 Si / 1000 Ang^3
#
#
#
# Elastic Constant Matrix: (Units=GPa)
#
#
# Indices 1 2 3 4 5 6 
#
# 1 84.5698 37.5603 93.3246 0.0000 0.0000 0.0000
# 2 37.5603 24.8663 36.7458 0.0000 0.0000 0.0000
# 3 93.3246 36.7458 191.9101 0.0000 0.0000 0.0000
# 4 0.0000 0.0000 0.0000 38.9913 0.0000 0.0000
# 5 0.0000 0.0000 0.0000 0.0000 59.0974 0.0000
# 6 0.0000 0.0000 0.0000 0.0000 0.0000 20.8070
#
#
#
# Elastic Compliance Matrix: (Units=1/GPa)
#
#
# Indices 1 2 3 4 5 6 
#
# 1 0.057337 -0.063320 -0.015758 0.000000 0.000000 0.000000
# 2 -0.063320 0.126012 0.006664 0.000000 0.000000 0.000000
# 3 -0.015758 0.006664 0.011598 0.000000 0.000000 0.000000
# 4 0.000000 0.000000 0.000000 0.025647 0.000000 0.000000
# 5 0.000000 0.000000 0.000000 0.000000 0.016921 0.000000
# 6 0.000000 0.000000 0.000000 0.000000 0.000000 0.048061
#
#
# Mechanical properties :
#
#
# Convention : Reuss Voigt Hill
#
# Bulk Modulus (GPa) = 19.95294 70.73416 45.34355
# Shear Modulus (GPa) = 11.18291 32.69350 21.93821
#
# Velocity S-wave (km/s) = 2.18121 3.72950 3.05507
# Velocity P-wave (km/s) = 3.85128 6.97415 5.63344
#
# Compressibility (1/GPa) = 0.05011794
#
# Stress axis : x y z
#
# Youngs Moduli (GPa) = 17.44071 7.93575 86.22202
#
# Poissons Ratio (x) = 0.50250 1.35873
# Poissons Ratio (y) = 1.10435 -0.57461
# Poissons Ratio (z) = 0.27484 -0.05289
#
# Static dielectric constant tensor:
#      x y z
#    x 4.376000 0.000000 0.000000 
#    y 0.000000 3.809650 0.000000 
#    z 0.000000 0.000000 4.251260 
# 
# 
# High freq. dielectric constant tensor:
#      x y z
#    x 1.949940 0.000000 0.000000 
#    y 0.000000 1.891770 0.000000 
#    z 0.000000 0.000000 1.940350 
# 
# From -- ./inp_files/3700.got.cif
#   From: 2010.03.12/outbox.cif.g09.slc.cpg/sg33_2_cif.got.tgz:3700.got - 2010.04.14 01:49:19.
