data_PCOD8171443
_publ_section_title
;
Structure prediction by ZEFSAII (Michael W. Deem and Ramdas Pophale) SiO2 
 PCOD8171443
Probable space group: P N A 21
;
_chemical_formula_sum "Si O2"
_cell_formula_units_Z 28
_cell_length_a 13.254810
_cell_length_b 8.791968
_cell_length_c 11.026064
_cell_angle_alpha 90.000000
_cell_angle_beta 90.000000
_cell_angle_gamma 90.000000
_cell_volume 1284.931910
_symmetry_space_group_name_H-M "P N A 21"
_symmetry_group_IT_number 33
_symmetry_cell_setting 'orthorhombic'
loop_
_space_group_symop_operation_xyz
x,y,z
-x,-y,1/2+z
1/2-x,1/2+y,1/2+z
1/2+x,1/2-y,z
loop_
_atom_site_type_symbol
_atom_site_label
_atom_site_fract_x
_atom_site_fract_y
_atom_site_fract_z
Si Si1 0.617239 0.395719 0.101540
Si Si2 0.715065 0.416353 0.840096
Si Si3 0.112661 0.339591 0.296899
Si Si4 0.245094 0.353933 0.680662
Si Si5 0.220080 0.130320 0.463872
Si Si6 0.612983 0.583815 0.635120
Si Si7 0.385663 0.101032 0.260277
O O1 0.632048 0.229283 0.162359
O O2 0.664041 0.524745 0.189163
O O3 0.499747 0.430267 0.085096
O O4 0.675092 0.403952 0.975235
O O5 0.809296 0.529313 0.829085
O O6 0.752217 0.250425 0.799779
O O7 0.625437 0.475436 0.752731
O O8 0.125064 0.200832 0.391465
O O9 0.000127 0.404789 0.305784
O O10 0.255527 0.254119 0.561306
O O11 0.139537 0.449188 0.683248
O O12 0.315328 0.102136 0.378461
O O13 0.187295 0.973589 0.528729
O O14 0.639255 0.755789 0.673725
#
# Coordination Sequence:
#
# PCOD8171443 Si02
#       7
#     4   4   4   4   4   4   4
#     4  11  23  44  72  96 136 184 231 293 349 420
#     4  11  24  45  65 103 141 179 232 294 339 430
#     4  11  24  46  71 101 142 182 232 291 358 416
#     4  11  24  42  66  98 136 177 230 280 347 414
#     4  11  23  44  68  98 139 181 225 291 345 419
#     4  10  24  42  73  99 133 180 236 280 359 410
#     4  11  24  47  67 103 141 181 232 291 353 419
#
# _framework density 21.791039000000001
#
# number of rings (size 3 to 8) (size 9 to 14) (size 15 to 20)
#    0.000    1.143    4.286    0.000    6.000    5.714 
#    7.714    0.000    0.000    0.000    0.000    0.000 
#    0.000    0.000    0.000    0.000    0.000    0.000 
#
# Total GULP energy -347205.524063 kJ/mol
# GULP energy per Si atom -12400.197288 kJ/mol
# Density = 2.174144 g / cm^3
# Si number density = 21.791039 Si / 1000 Ang^3
#
#
#
# Elastic Constant Matrix: (Units=GPa)
#
#
# Indices 1 2 3 4 5 6 
#
# 1 147.6550 52.4887 78.6235 0.0000 0.0000 0.0000
# 2 52.4887 109.3752 72.3209 0.0000 0.0000 0.0000
# 3 78.6235 72.3209 105.8391 0.0000 0.0000 0.0000
# 4 0.0000 0.0000 0.0000 31.1240 0.0000 0.0000
# 5 0.0000 0.0000 0.0000 0.0000 35.1298 0.0000
# 6 0.0000 0.0000 0.0000 0.0000 0.0000 27.4135
#
#
#
# Elastic Compliance Matrix: (Units=1/GPa)
#
#
# Indices 1 2 3 4 5 6 
#
# 1 0.011208 0.000231 -0.008484 0.000000 0.000000 0.000000
# 2 0.000231 0.016683 -0.011571 0.000000 0.000000 0.000000
# 3 -0.008484 -0.011571 0.023657 0.000000 0.000000 0.000000
# 4 0.000000 0.000000 0.000000 0.032130 0.000000 0.000000
# 5 0.000000 0.000000 0.000000 0.000000 0.028466 0.000000
# 6 0.000000 0.000000 0.000000 0.000000 0.000000 0.036478
#
#
# Mechanical properties :
#
#
# Convention : Reuss Voigt Hill
#
# Bulk Modulus (GPa) = 84.03219 85.52617 84.77918
# Shear Modulus (GPa) = 26.00957 29.36254 27.68605
#
# Velocity S-wave (km/s) = 3.45859 3.67476 3.56831
# Velocity P-wave (km/s) = 7.38888 7.57223 7.48112
#
# Compressibility (1/GPa) = 0.01190020
#
# Stress axis : x y z
#
# Youngs Moduli (GPa) = 89.22338 59.94054 42.27030
#
# Poissons Ratio (x) = -0.01384 0.35861
# Poissons Ratio (y) = -0.02061 0.48912
# Poissons Ratio (z) = 0.75694 0.69359
#
# Static dielectric constant tensor:
#      x y z
#    x 3.930700 0.000000 0.000000 
#    y 0.000000 4.190480 0.000000 
#    z 0.000000 0.000000 4.035520 
# 
# 
# High freq. dielectric constant tensor:
#      x y z
#    x 1.850860 0.000000 0.000000 
#    y 0.000000 1.866740 0.000000 
#    z 0.000000 0.000000 1.863700 
# 
# From -- ./inp_files/6746.got.cif
#   From: 2010.03.12/outbox.cif.g09.slc.cpg/sg33_4_cif.got.tgz:6746.got - 2010.04.14 01:49:19.
