data_PCOD8171241
_publ_section_title
;
Structure prediction by ZEFSAII (Michael W. Deem and Ramdas Pophale) SiO2 
 PCOD8171241
Probable space group: P N A 21
;
_chemical_formula_sum "Si O2"
_cell_formula_units_Z 28
_cell_length_a 11.152769
_cell_length_b 10.614579
_cell_length_c 11.023129
_cell_angle_alpha 90.000000
_cell_angle_beta 90.000000
_cell_angle_gamma 90.000000
_cell_volume 1304.939480
_symmetry_space_group_name_H-M "P N A 21"
_symmetry_group_IT_number 33
_symmetry_cell_setting 'orthorhombic'
loop_
_space_group_symop_operation_xyz
x,y,z
-x,-y,1/2+z
1/2-x,1/2+y,1/2+z
1/2+x,1/2-y,z
loop_
_atom_site_type_symbol
_atom_site_label
_atom_site_fract_x
_atom_site_fract_y
_atom_site_fract_z
Si Si1 0.103687 0.633039 0.160810
Si Si2 0.826183 0.172335 0.845490
Si Si3 0.720125 0.306009 0.063594
Si Si4 0.283917 0.420230 0.215624
Si Si5 0.162853 0.454490 0.659810
Si Si6 0.335771 0.326875 0.481257
Si Si7 0.986161 0.039428 0.033020
O O1 0.094862 0.760078 0.241539
O O2 0.204094 0.545611 0.223507
O O3 0.979644 0.558870 0.158388
O O4 0.140723 0.681519 0.024172
O O5 0.778326 0.282430 0.932638
O O6 0.715914 0.095287 0.786859
O O7 0.906912 0.070759 0.915512
O O8 0.587299 0.355428 0.045545
O O9 0.709523 0.173761 0.131259
O O10 0.804287 0.399263 0.141253
O O11 0.309633 0.347225 0.340250
O O12 0.410033 0.459187 0.156253
O O13 0.217643 0.376033 0.548867
O O14 0.455336 0.403208 0.517398
#
# Coordination Sequence:
#
# PCOD8171241 Si02
#       7
#     4   4   4   4   4   4   4
#     4  11  24  42  70  97 139 174 230 285 340 414
#     4  10  22  42  70  97 128 181 222 279 350 406
#     4  10  23  44  63  96 136 170 227 277 338 408
#     4  11  26  42  66  99 137 178 223 281 350 403
#     4  10  23  43  65 100 127 175 229 273 341 406
#     4  10  25  43  67  98 135 176 226 285 340 418
#     4  10  23  42  69  91 132 176 227 276 343 411
#
# _framework density 21.456932999999999
#
# number of rings (size 3 to 8) (size 9 to 14) (size 15 to 20)
#    0.000    1.714    0.000    2.571   14.000    3.429 
#    7.714    0.000    0.000    0.000    0.000    0.000 
#    0.000    0.000    0.000    0.000    0.000    0.000 
#
# Total GULP energy -347214.531854 kJ/mol
# GULP energy per Si atom -12400.518995 kJ/mol
# Density = 2.140810 g / cm^3
# Si number density = 21.456933 Si / 1000 Ang^3
#
#
#
# Elastic Constant Matrix: (Units=GPa)
#
#
# Indices 1 2 3 4 5 6 
#
# 1 113.1338 24.6271 43.4384 0.0000 0.0000 0.0000
# 2 24.6271 76.9888 30.9047 0.0000 0.0000 0.0000
# 3 43.4384 30.9047 119.5436 0.0000 0.0000 0.0000
# 4 0.0000 0.0000 0.0000 31.9099 0.0000 0.0000
# 5 0.0000 0.0000 0.0000 0.0000 21.6897 0.0000
# 6 0.0000 0.0000 0.0000 0.0000 0.0000 22.6252
#
#
#
# Elastic Compliance Matrix: (Units=1/GPa)
#
#
# Indices 1 2 3 4 5 6 
#
# 1 0.010554 -0.002049 -0.003305 0.000000 0.000000 0.000000
# 2 -0.002049 0.014891 -0.003105 0.000000 0.000000 0.000000
# 3 -0.003305 -0.003105 0.010369 0.000000 0.000000 0.000000
# 4 0.000000 0.000000 0.000000 0.031338 0.000000 0.000000
# 5 0.000000 0.000000 0.000000 0.000000 0.046105 0.000000
# 6 0.000000 0.000000 0.000000 0.000000 0.000000 0.044198
#
#
# Mechanical properties :
#
#
# Convention : Reuss Voigt Hill
#
# Bulk Modulus (GPa) = 52.92441 56.40074 54.66258
# Shear Modulus (GPa) = 27.67433 29.29137 28.48285
#
# Velocity S-wave (km/s) = 3.59522 3.69877 3.64736
# Velocity P-wave (km/s) = 6.47712 6.67711 6.57788
#
# Compressibility (1/GPa) = 0.01889487
#
# Stress axis : x y z
#
# Youngs Moduli (GPa) = 94.74829 67.15551 96.44222
#
# Poissons Ratio (x) = 0.13762 0.31877
# Poissons Ratio (y) = 0.19417 0.29945
# Poissons Ratio (z) = 0.31317 0.20852
#
# Static dielectric constant tensor:
#      x y z
#    x 3.743060 0.000000 0.000000 
#    y 0.000000 3.854310 0.000000 
#    z 0.000000 0.000000 4.031530 
# 
# 
# High freq. dielectric constant tensor:
#      x y z
#    x 1.840570 0.000000 0.000000 
#    y 0.000000 1.843270 0.000000 
#    z 0.000000 0.000000 1.849800 
# 
# From -- ./inp_files/6362.got.cif
#   From: 2010.03.12/outbox.cif.g09.slc.cpg/sg33_4_cif.got.tgz:6362.got - 2010.04.14 01:49:19.
