data_PCOD8171916
_publ_section_title
;
Structure prediction by ZEFSAII (Michael W. Deem and Ramdas Pophale) SiO2 
 PCOD8171916
Probable space group: P N N 2
;
_chemical_formula_sum "Si O2"
_cell_formula_units_Z 32
_cell_length_a 9.280389
_cell_length_b 15.130749
_cell_length_c 11.958309
_cell_angle_alpha 90.000000
_cell_angle_beta 90.000000
_cell_angle_gamma 90.000000
_cell_volume 1679.176621
_symmetry_space_group_name_H-M "P N N 2"
_symmetry_group_IT_number 34
_symmetry_cell_setting 'orthorhombic'
loop_
_space_group_symop_operation_xyz
x,y,z
-x,-y,z
1/2-x,1/2+y,1/2+z
1/2+x,1/2-y,1/2+z
loop_
_atom_site_type_symbol
_atom_site_label
_atom_site_fract_x
_atom_site_fract_y
_atom_site_fract_z
Si Si1 0.832099 0.138012 0.156400
Si Si2 0.837491 0.899822 0.908555
Si Si3 0.167029 0.337863 0.207508
Si Si4 0.332099 0.638012 0.656400
Si Si5 0.332971 0.162137 0.707508
Si Si6 0.172346 0.500000 0.803894
Si Si7 0.337491 0.399822 0.408555
Si Si8 0.170910 0.500000 0.059901
O O1 0.802377 0.242154 0.157065
O O2 0.736128 0.088203 0.247859
O O3 1.000000 0.115624 0.178187
O O4 0.781026 0.104881 0.035213
O O5 0.741703 0.840331 0.828054
O O6 0.000000 0.863011 0.903863
O O7 0.828546 1.000000 0.865816
O O8 0.781026 0.895119 0.035213
O O9 0.197623 0.242154 0.157065
O O10 0.241703 0.340331 0.328054
O O11 0.229442 0.412100 0.122796
O O12 1.000000 0.355455 0.228384
O O13 0.236128 0.588203 0.747859
O O14 0.270558 0.087900 0.622796
O O15 0.000000 0.500000 0.792901
O O16 0.225124 0.500000 0.932427
O O17 0.000000 0.500000 0.060340
#
# Coordination Sequence:
#
# PCOD8171916 Si02
#       8
#     4   4   4   4   4   4   4   4
#     4  10  22  40  60  83 116 156 189 229 291 345
#     4  10  20  37  60  82 111 151 191 235 285 337
#     4  10  21  38  61  84 112 151 191 235 283 337
#     4  10  22  40  60  83 116 156 189 229 291 345
#     4  10  21  38  61  84 112 151 191 235 283 337
#     4  11  23  38  61  86 114 151 192 241 282 331
#     4  10  20  37  60  82 111 151 191 235 285 337
#     4   9  20  38  57  82 114 149 188 229 284 339
#
# _framework density 19.056961000000001
#
# number of rings (size 3 to 8) (size 9 to 14) (size 15 to 20)
#    0.000    2.000    2.500    0.375    3.500    2.000 
#    0.000    2.500    0.000    0.000    0.000    0.000 
#    0.000    0.000    0.000    0.000    0.000    0.000 
#
# Total GULP energy -396866.078141 kJ/mol
# GULP energy per Si atom -12402.064942 kJ/mol
# Density = 1.901359 g / cm^3
# Si number density = 19.056961 Si / 1000 Ang^3
#
#
#
# Elastic Constant Matrix: (Units=GPa)
#
#
# Indices 1 2 3 4 5 6 
#
# 1 56.1758 36.7708 48.6827 0.0000 0.0000 0.0000
# 2 36.7708 113.7604 49.0374 0.0000 0.0000 0.0000
# 3 48.6827 49.0374 135.6139 0.0000 0.0000 0.0000
# 4 0.0000 0.0000 0.0000 28.1215 0.0000 0.0000
# 5 0.0000 0.0000 0.0000 0.0000 34.0353 0.0000
# 6 0.0000 0.0000 0.0000 0.0000 0.0000 26.7374
#
#
#
# Elastic Compliance Matrix: (Units=1/GPa)
#
#
# Indices 1 2 3 4 5 6 
#
# 1 0.028675 -0.005723 -0.008224 0.000000 0.000000 0.000000
# 2 -0.005723 0.011556 -0.002124 0.000000 0.000000 0.000000
# 3 -0.008224 -0.002124 0.011094 0.000000 0.000000 0.000000
# 4 0.000000 0.000000 0.000000 0.035560 0.000000 0.000000
# 5 0.000000 0.000000 0.000000 0.000000 0.029381 0.000000
# 6 0.000000 0.000000 0.000000 0.000000 0.000000 0.037401
#
#
# Mechanical properties :
#
#
# Convention : Reuss Voigt Hill
#
# Bulk Modulus (GPa) = 52.13265 63.83686 57.98475
# Shear Modulus (GPa) = 26.01403 29.18279 27.59841
#
# Velocity S-wave (km/s) = 3.69869 3.91749 3.80966
# Velocity P-wave (km/s) = 6.75692 7.35071 7.06006
#
# Compressibility (1/GPa) = 0.01918184
#
# Stress axis : x y z
#
# Youngs Moduli (GPa) = 34.87386 86.53540 90.13737
#
# Poissons Ratio (x) = 0.49528 0.74130
# Poissons Ratio (y) = 0.19960 0.19145
# Poissons Ratio (z) = 0.28681 0.18380
#
# Static dielectric constant tensor:
#      x y z
#    x 3.292550 0.000000 0.000000 
#    y 0.000000 3.561200 0.000000 
#    z 0.000000 0.000000 3.559570 
# 
# 
# High freq. dielectric constant tensor:
#      x y z
#    x 1.718250 0.000000 0.000000 
#    y 0.000000 1.749990 0.000000 
#    z 0.000000 0.000000 1.748560 
# 
# From -- ./inp_files/5105.got.cif
#   From: 2010.03.12/outbox.cif.g09.slc.cpg/sg34_3_cif.got.tgz:5105.got - 2010.04.14 01:56:33.
