data_PCOD8171707
_publ_section_title
;
Structure prediction by ZEFSAII (Michael W. Deem and Ramdas Pophale) SiO2 
 PCOD8171707
Probable space group: P N A 21
;
_chemical_formula_sum "Si O2"
_cell_formula_units_Z 24
_cell_length_a 12.498989
_cell_length_b 9.229766
_cell_length_c 9.217846
_cell_angle_alpha 90.000000
_cell_angle_beta 90.000000
_cell_angle_gamma 90.000000
_cell_volume 1063.396006
_symmetry_space_group_name_H-M "P N A 21"
_symmetry_group_IT_number 33
_symmetry_cell_setting 'orthorhombic'
loop_
_space_group_symop_operation_xyz
x,y,z
-x,-y,1/2+z
1/2-x,1/2+y,1/2+z
1/2+x,1/2-y,z
loop_
_atom_site_type_symbol
_atom_site_label
_atom_site_fract_x
_atom_site_fract_y
_atom_site_fract_z
Si Si1 0.798405 0.919866 0.333990
Si Si2 0.997532 0.742239 0.419191
Si Si3 0.861005 0.476672 0.425860
Si Si4 0.141442 0.762168 0.154113
Si Si5 0.743063 0.950410 0.631055
Si Si6 0.693772 0.646385 0.602307
O O1 0.748712 0.801906 0.226369
O O2 0.899430 0.854423 0.418656
O O3 0.709592 0.962068 0.458886
O O4 0.834792 0.061437 0.248185
O O5 0.040038 0.734733 0.254779
O O6 0.084152 0.794281 0.535133
O O7 0.959213 0.581555 0.465690
O O8 0.879377 0.318599 0.499555
O O9 0.849967 0.473294 0.250472
O O10 0.750246 0.542803 0.486067
O O11 0.159035 0.935421 0.142689
O O12 0.773331 0.779101 0.647300
#
# Coordination Sequence:
#
# PCOD8171707 Si02
#       6
#     4   4   4   4   4   4
#     4  11  25  43  68  96 134 181 223 281 351 404
#     4  12  22  44  68  98 136 172 226 292 332 414
#     4  11  25  43  68  96 134 181 223 281 351 404
#     4  11  25  43  68  96 134 181 223 281 351 404
#     4  12  20  48  64 100 130 176 226 286 336 416
#     4  11  25  43  68  96 134 181 223 281 351 404
#
# _framework density 22.569199999999999
#
# number of rings (size 3 to 8) (size 9 to 14) (size 15 to 20)
#    0.000    0.667    6.667    1.000    4.667    0.000 
#    0.000    0.000    0.000    0.000    0.000    0.000 
#    0.000    0.000    0.000    0.000    0.000    0.000 
#
# Total GULP energy -297337.018481 kJ/mol
# GULP energy per Si atom -12389.042437 kJ/mol
# Density = 2.251783 g / cm^3
# Si number density = 22.569200 Si / 1000 Ang^3
#
#
#
# Elastic Constant Matrix: (Units=GPa)
#
#
# Indices 1 2 3 4 5 6 
#
# 1 66.2324 35.8820 27.7505 0.0000 0.0000 0.0000
# 2 35.8820 130.0138 66.1605 0.0000 0.0000 0.0000
# 3 27.7505 66.1605 117.0863 0.0000 0.0000 0.0000
# 4 0.0000 0.0000 0.0000 40.5053 0.0000 0.0000
# 5 0.0000 0.0000 0.0000 0.0000 30.8968 0.0000
# 6 0.0000 0.0000 0.0000 0.0000 0.0000 23.2445
#
#
#
# Elastic Compliance Matrix: (Units=1/GPa)
#
#
# Indices 1 2 3 4 5 6 
#
# 1 0.018100 -0.003947 -0.002059 0.000000 0.000000 0.000000
# 2 -0.003947 0.011657 -0.005651 0.000000 0.000000 0.000000
# 3 -0.002059 -0.005651 0.012222 0.000000 0.000000 0.000000
# 4 0.000000 0.000000 0.000000 0.024688 0.000000 0.000000
# 5 0.000000 0.000000 0.000000 0.000000 0.032366 0.000000
# 6 0.000000 0.000000 0.000000 0.000000 0.000000 0.043021
#
#
# Mechanical properties :
#
#
# Convention : Reuss Voigt Hill
#
# Bulk Modulus (GPa) = 53.58260 63.65761 58.62011
# Shear Modulus (GPa) = 29.13934 31.16532 30.15233
#
# Velocity S-wave (km/s) = 3.59710 3.72005 3.65909
# Velocity P-wave (km/s) = 6.40665 6.83509 6.62434
#
# Compressibility (1/GPa) = 0.01866277
#
# Stress axis : x y z
#
# Youngs Moduli (GPa) = 55.24961 85.78845 81.81985
#
# Poissons Ratio (x) = 0.33863 0.16849
# Poissons Ratio (y) = 0.21809 0.46237
# Poissons Ratio (z) = 0.11378 0.48480
#
# Static dielectric constant tensor:
#      x y z
#    x 3.657990 0.000000 0.000000 
#    y 0.000000 4.417310 0.000000 
#    z 0.000000 0.000000 4.335490 
# 
# 
# High freq. dielectric constant tensor:
#      x y z
#    x 1.852290 0.000000 0.000000 
#    y 0.000000 1.904950 0.000000 
#    z 0.000000 0.000000 1.903450 
# 
# From -- ./inp_files/3715.got.cif
#   From: 2010.03.12/outbox.cif.g09.slc.cpg/sg33_2_cif.got.tgz:3715.got - 2010.04.14 01:49:19.
