data_PCOD8171405
_publ_section_title
;
Structure prediction by ZEFSAII (Michael W. Deem and Ramdas Pophale) SiO2 
 PCOD8171405
Probable space group: P N A 21
;
_chemical_formula_sum "Si O2"
_cell_formula_units_Z 32
_cell_length_a 10.900770
_cell_length_b 13.991946
_cell_length_c 9.429670
_cell_angle_alpha 90.000000
_cell_angle_beta 90.000000
_cell_angle_gamma 90.000000
_cell_volume 1438.241418
_symmetry_space_group_name_H-M "P N A 21"
_symmetry_group_IT_number 33
_symmetry_cell_setting 'orthorhombic'
loop_
_space_group_symop_operation_xyz
x,y,z
-x,-y,1/2+z
1/2-x,1/2+y,1/2+z
1/2+x,1/2-y,z
loop_
_atom_site_type_symbol
_atom_site_label
_atom_site_fract_x
_atom_site_fract_y
_atom_site_fract_z
Si Si1 0.442503 0.972082 0.751100
Si Si2 0.811719 0.650083 0.965900
Si Si3 0.666026 0.359555 0.368187
Si Si4 0.762360 0.042658 0.027087
Si Si5 0.796949 0.686214 0.278321
Si Si6 0.413000 0.367563 0.263304
Si Si7 0.427896 0.186978 0.833779
Si Si8 0.369583 0.166305 0.157278
O O1 0.411559 0.921517 0.900246
O O2 0.354302 0.939408 0.625203
O O3 0.574881 0.933799 0.707467
O O4 0.446085 0.084450 0.764139
O O5 0.851563 0.760796 0.952476
O O6 0.685073 0.625781 0.888590
O O7 0.806381 0.627392 0.132330
O O8 0.734056 0.434068 0.471908
O O9 0.537808 0.409093 0.327873
O O10 0.732272 0.335419 0.218993
O O11 0.879229 0.070420 0.124070
O O12 0.750110 0.114869 0.897959
O O13 0.684019 0.760679 0.252520
O O14 0.932622 0.732115 0.320376
O O15 0.439484 0.257490 0.222726
O O16 0.373425 0.177442 0.990085
#
# Coordination Sequence:
#
# PCOD8171405 Si02
#       8
#     4   4   4   4   4   4   4   4
#     4  11  24  47  72 101 137 183 241 286 342 429
#     4  10  25  44  71 101 139 181 234 291 352 417
#     4  11  24  43  71  99 142 186 233 290 360 423
#     4  11  24  45  69 102 141 185 235 287 353 426
#     4  12  27  46  70 108 143 181 234 297 353 420
#     4  10  23  46  69 100 142 186 231 291 359 432
#     4  12  28  44  76 104 145 182 239 297 353 423
#     4  11  23  43  74  99 133 190 235 291 350 424
#
# _framework density 22.249395
#
# number of rings (size 3 to 8) (size 9 to 14) (size 15 to 20)
#    0.000    1.000    3.750    1.500    7.000    1.000 
#    6.750    0.000    0.000    0.000    0.000    0.000 
#    0.000    0.000    0.000    0.000    0.000    0.000 
#
# Total GULP energy -396724.303507 kJ/mol
# GULP energy per Si atom -12397.634485 kJ/mol
# Density = 2.219875 g / cm^3
# Si number density = 22.249395 Si / 1000 Ang^3
#
#
#
# Elastic Constant Matrix: (Units=GPa)
#
#
# Indices 1 2 3 4 5 6 
#
# 1 100.0934 11.8983 20.2335 0.0000 0.0000 0.0000
# 2 11.8983 74.4267 -1.1454 0.0000 0.0000 0.0000
# 3 20.2335 -1.1454 124.6638 0.0000 0.0000 0.0000
# 4 0.0000 0.0000 0.0000 32.1992 0.0000 0.0000
# 5 0.0000 0.0000 0.0000 0.0000 11.7174 0.0000
# 6 0.0000 0.0000 0.0000 0.0000 0.0000 25.9330
#
#
#
# Elastic Compliance Matrix: (Units=1/GPa)
#
#
# Indices 1 2 3 4 5 6 
#
# 1 0.010543 -0.001712 -0.001727 0.000000 0.000000 0.000000
# 2 -0.001712 0.013716 0.000404 0.000000 0.000000 0.000000
# 3 -0.001727 0.000404 0.008306 0.000000 0.000000 0.000000
# 4 0.000000 0.000000 0.000000 0.031057 0.000000 0.000000
# 5 0.000000 0.000000 0.000000 0.000000 0.085343 0.000000
# 6 0.000000 0.000000 0.000000 0.000000 0.000000 0.038561
#
#
# Mechanical properties :
#
#
# Convention : Reuss Voigt Hill
#
# Bulk Modulus (GPa) = 37.74361 40.12851 38.93606
# Shear Modulus (GPa) = 24.70024 31.84976 28.27500
#
# Velocity S-wave (km/s) = 3.33551 3.78761 3.56873
# Velocity P-wave (km/s) = 5.64224 6.09942 5.87528
#
# Compressibility (1/GPa) = 0.02649455
#
# Stress axis : x y z
#
# Youngs Moduli (GPa) = 94.84710 72.90774 120.40101
#
# Poissons Ratio (x) = 0.12482 0.20793
# Poissons Ratio (y) = 0.16239 -0.04863
# Poissons Ratio (z) = 0.16380 -0.02945
#
# Static dielectric constant tensor:
#      x y z
#    x 4.195730 0.000000 0.000000 
#    y 0.000000 3.989880 0.000000 
#    z 0.000000 0.000000 4.072610 
# 
# 
# High freq. dielectric constant tensor:
#      x y z
#    x 1.878390 0.000000 0.000000 
#    y 0.000000 1.866400 0.000000 
#    z 0.000000 0.000000 1.889140 
# 
# From -- ./inp_files/3914.got.cif
#   From: 2010.03.12/outbox.cif.g09.slc.cpg/sg33_2_cif.got.tgz:3914.got - 2010.04.14 01:49:19.
