data_PCOD8171990
_publ_section_title
;
Structure prediction by ZEFSAII (Michael W. Deem and Ramdas Pophale) SiO2 
 PCOD8171990
Probable space group: P N N 2
;
_chemical_formula_sum "Si O2"
_cell_formula_units_Z 32
_cell_length_a 9.386156
_cell_length_b 13.112461
_cell_length_c 14.142020
_cell_angle_alpha 90.000000
_cell_angle_beta 90.000000
_cell_angle_gamma 90.000000
_cell_volume 1740.537660
_symmetry_space_group_name_H-M "P N N 2"
_symmetry_group_IT_number 34
_symmetry_cell_setting 'orthorhombic'
loop_
_space_group_symop_operation_xyz
x,y,z
-x,-y,z
1/2-x,1/2+y,1/2+z
1/2+x,1/2-y,1/2+z
loop_
_atom_site_type_symbol
_atom_site_label
_atom_site_fract_x
_atom_site_fract_y
_atom_site_fract_z
Si Si1 0.660666 0.531846 0.534070
Si Si2 0.215014 0.731377 0.034069
Si Si3 0.635201 0.929985 0.892067
Si Si4 0.364801 0.070017 0.176070
Si Si5 0.844487 0.043939 0.534068
Si Si6 0.948160 0.261835 0.534068
Si Si7 0.645049 0.937290 0.393711
Si Si8 0.145051 0.562708 0.174426
O O1 0.500000 0.500000 0.534070
O O2 0.664554 0.653402 0.534071
O O3 0.732744 0.485755 0.440937
O O4 0.732744 0.485753 0.627203
O O5 0.147840 0.673423 0.943519
O O6 0.386961 0.727609 0.034067
O O7 0.147842 0.673422 0.124620
O O8 0.676268 0.914418 0.783523
O O9 0.500000 0.000000 0.906019
O O10 0.593424 0.823203 0.939699
O O11 0.406576 0.176798 0.128437
O O12 0.323737 0.085586 0.284615
O O13 0.500000 0.000000 0.162115
O O14 0.845440 0.165211 0.534067
O O15 0.767875 0.006407 0.438823
O O16 0.767875 0.006410 0.629313
O O17 0.000000 0.000000 0.534069
O O18 0.500000 0.000000 0.409258
O O19 0.000000 0.500000 0.158881
#
# Coordination Sequence:
#
# PCOD8171990 Si02
#       8
#     4   4   4   4   4   4   4   4
#     4  11  23  39  61  90 122 154 198 262 300 351
#     4  11  20  41  63  89 123 158 199 251 304 354
#     4  10  21  42  62  84 120 167 202 241 307 366
#     4  10  21  42  62  84 120 167 202 241 307 366
#     4  11  21  37  60  92 123 157 197 252 305 355
#     4  11  20  39  68  86 118 165 207 243 302 367
#     4  10  23  40  62  88 125 162 199 249 303 365
#     4  10  23  40  62  88 125 162 199 249 303 365
#
# _framework density 18.385121999999999
#
# number of rings (size 3 to 8) (size 9 to 14) (size 15 to 20)
#    0.000    1.500    5.000    2.250    0.000    7.000 
#    4.500    0.000    0.000    0.000    0.000    0.000 
#    0.000    0.000    0.000    0.000    0.000    0.000 
#
# Total GULP energy -396772.831780 kJ/mol
# GULP energy per Si atom -12399.150993 kJ/mol
# Density = 1.834328 g / cm^3
# Si number density = 18.385122 Si / 1000 Ang^3
#
#
#
# Elastic Constant Matrix: (Units=GPa)
#
#
# Indices 1 2 3 4 5 6 
#
# 1 125.2501 46.1663 70.4388 0.0000 0.0000 0.0000
# 2 46.1663 128.1285 63.4283 0.0000 0.0000 0.0000
# 3 70.4388 63.4283 182.2889 0.0000 0.0000 0.0000
# 4 0.0000 0.0000 0.0000 16.2588 0.0000 0.0000
# 5 0.0000 0.0000 0.0000 0.0000 27.6511 0.0000
# 6 0.0000 0.0000 0.0000 0.0000 0.0000 38.5943
#
#
#
# Elastic Compliance Matrix: (Units=1/GPa)
#
#
# Indices 1 2 3 4 5 6 
#
# 1 0.010683 -0.002181 -0.003369 0.000000 0.000000 0.000000
# 2 -0.002181 0.009874 -0.002593 0.000000 0.000000 0.000000
# 3 -0.003369 -0.002593 0.007690 0.000000 0.000000 0.000000
# 4 0.000000 0.000000 0.000000 0.061505 0.000000 0.000000
# 5 0.000000 0.000000 0.000000 0.000000 0.036165 0.000000
# 6 0.000000 0.000000 0.000000 0.000000 0.000000 0.025911
#
#
# Mechanical properties :
#
#
# Convention : Reuss Voigt Hill
#
# Bulk Modulus (GPa) = 83.60933 88.41489 86.01211
# Shear Modulus (GPa) = 29.05277 33.54309 31.29793
#
# Velocity S-wave (km/s) = 3.97953 4.27601 4.13043
# Velocity P-wave (km/s) = 8.16645 8.51903 8.34460
#
# Compressibility (1/GPa) = 0.01196039
#
# Stress axis : x y z
#
# Youngs Moduli (GPa) = 93.60941 101.27397 130.04256
#
# Poissons Ratio (x) = 0.22092 0.43810
# Poissons Ratio (y) = 0.20420 0.33718
# Poissons Ratio (z) = 0.31536 0.26259
#
# Static dielectric constant tensor:
#      x y z
#    x 3.649580 0.000000 0.000000 
#    y 0.000000 3.418850 0.000000 
#    z 0.000000 0.000000 3.588120 
# 
# 
# High freq. dielectric constant tensor:
#      x y z
#    x 1.718870 0.000000 0.000000 
#    y 0.000000 1.725890 0.000000 
#    z 0.000000 0.000000 1.716430 
# 
# From -- ./inp_files/6561.got.cif
#   From: 2010.03.12/outbox.cif.g09.slc.cpg/sg34_4_cif.got.tgz:6561.got - 2010.04.14 01:56:33.
