data_PCOD8171251
_publ_section_title
;
Structure prediction by ZEFSAII (Michael W. Deem and Ramdas Pophale) SiO2 
 PCOD8171251
Probable space group: P N A 21
;
_chemical_formula_sum "Si O2"
_cell_formula_units_Z 32
_cell_length_a 8.736782
_cell_length_b 5.495326
_cell_length_c 26.879675
_cell_angle_alpha 90.000000
_cell_angle_beta 90.000000
_cell_angle_gamma 90.000000
_cell_volume 1290.532583
_symmetry_space_group_name_H-M "P N A 21"
_symmetry_group_IT_number 33
_symmetry_cell_setting 'orthorhombic'
loop_
_space_group_symop_operation_xyz
x,y,z
-x,-y,1/2+z
1/2-x,1/2+y,1/2+z
1/2+x,1/2-y,z
loop_
_atom_site_type_symbol
_atom_site_label
_atom_site_fract_x
_atom_site_fract_y
_atom_site_fract_z
Si Si1 0.923129 0.282178 0.767710
Si Si2 0.975744 0.182313 0.420744
Si Si3 0.276243 0.925370 0.682371
Si Si4 0.524256 0.682313 0.614676
Si Si5 0.257712 0.566770 0.987087
Si Si6 0.757712 0.933230 0.548333
Si Si7 0.276243 0.925370 0.853049
Si Si8 0.289983 0.092214 0.267710
O O1 0.837906 0.361472 0.717001
O O2 0.837905 0.361472 0.818419
O O3 0.098955 0.356245 0.767710
O O4 0.890564 0.993209 0.767710
O O5 0.079559 0.028893 0.459055
O O6 0.080776 0.307652 0.380072
O O7 0.881240 0.395784 0.448631
O O8 0.853190 0.998742 0.393877
O O9 0.419224 0.807651 0.655348
O O10 0.146810 0.001258 0.641543
O O11 0.183642 0.739266 0.717647
O O12 0.618760 0.895784 0.586789
O O13 0.420441 0.528893 0.576365
O O14 0.228074 0.319188 0.017042
O O15 0.271926 0.819188 0.018378
O O16 0.183642 0.739265 0.817773
#
# Coordination Sequence:
#
# PCOD8171251 Si02
#       8
#     4   4   4   4   4   4   4   4
#     4  11  24  40  65  93 137 181 223 273 342 402
#     4  10  22  43  66  96 128 176 226 285 338 416
#     4  10  22  45  60  94 138 172 226 277 332 404
#     4  10  22  43  66  96 128 176 226 285 338 416
#     4  11  24  47  70  99 136 179 226 287 358 409
#     4  11  24  47  70  99 136 179 226 287 358 409
#     4  10  22  45  60  94 138 172 226 277 332 404
#     4  11  24  40  65  93 137 181 223 273 342 402
#
# _framework density 24.795964000000001
#
# number of rings (size 3 to 8) (size 9 to 14) (size 15 to 20)
#    0.000    1.500    2.500    1.500    3.500    0.000 
#   27.000    0.000    0.000    0.000    0.000    0.000 
#    0.000    0.000    0.000    0.000    0.000    0.000 
#
# Total GULP energy -396451.854277 kJ/mol
# GULP energy per Si atom -12389.120446 kJ/mol
# Density = 2.473953 g / cm^3
# Si number density = 24.795964 Si / 1000 Ang^3
#
#
#
# Elastic Constant Matrix: (Units=GPa)
#
#
# Indices 1 2 3 4 5 6 
#
# 1 115.8339 -5.7520 43.0057 0.0000 0.0000 0.0000
# 2 -5.7520 45.0777 17.5284 0.0000 0.0000 0.0000
# 3 43.0057 17.5284 130.2667 0.0000 0.0000 0.0000
# 4 0.0000 0.0000 0.0000 10.8619 0.0000 0.0000
# 5 0.0000 0.0000 0.0000 0.0000 29.4267 0.0000
# 6 0.0000 0.0000 0.0000 0.0000 0.0000 18.6108
#
#
#
# Elastic Compliance Matrix: (Units=1/GPa)
#
#
# Indices 1 2 3 4 5 6 
#
# 1 0.010150 0.002742 -0.003720 0.000000 0.000000 0.000000
# 2 0.002742 0.024149 -0.004155 0.000000 0.000000 0.000000
# 3 -0.003720 -0.004155 0.009464 0.000000 0.000000 0.000000
# 4 0.000000 0.000000 0.000000 0.092065 0.000000 0.000000
# 5 0.000000 0.000000 0.000000 0.000000 0.033983 0.000000
# 6 0.000000 0.000000 0.000000 0.000000 0.000000 0.053732
#
#
# Mechanical properties :
#
#
# Convention : Reuss Voigt Hill
#
# Bulk Modulus (GPa) = 29.85291 44.52694 37.18993
# Shear Modulus (GPa) = 20.41031 27.53964 23.97497
#
# Velocity S-wave (km/s) = 2.87214 3.33626 3.11286
# Velocity P-wave (km/s) = 4.80255 5.73037 5.28685
#
# Compressibility (1/GPa) = 0.03349757
#
# Stress axis : x y z
#
# Youngs Moduli (GPa) = 98.51949 41.40915 105.66735
#
# Poissons Ratio (x) = -0.11353 0.39307
# Poissons Ratio (y) = -0.27011 0.43900
# Poissons Ratio (z) = 0.36648 0.17204
#
# Static dielectric constant tensor:
#      x y z
#    x 4.734170 0.000000 0.000000 
#    y 0.000000 3.902790 0.000000 
#    z 0.000000 0.000000 4.958940 
# 
# 
# High freq. dielectric constant tensor:
#      x y z
#    x 2.016130 0.000000 0.000000 
#    y 0.000000 1.940260 0.000000 
#    z 0.000000 0.000000 2.013420 
# 
# From -- ./inp_files/9389.got.cif
#   From: 2010.03.12/outbox.cif.g09.slc.cpg/sg33_5_cif.got.tgz:9389.got - 2010.04.14 01:49:19.
