data_PCOD8171444
_publ_section_title
;
Structure prediction by ZEFSAII (Michael W. Deem and Ramdas Pophale) SiO2 
 PCOD8171444
Probable space group: P N A 21
;
_chemical_formula_sum "Si O2"
_cell_formula_units_Z 28
_cell_length_a 9.221398
_cell_length_b 14.367810
_cell_length_c 9.122515
_cell_angle_alpha 90.000000
_cell_angle_beta 90.000000
_cell_angle_gamma 90.000000
_cell_volume 1208.653821
_symmetry_space_group_name_H-M "P N A 21"
_symmetry_group_IT_number 33
_symmetry_cell_setting 'orthorhombic'
loop_
_space_group_symop_operation_xyz
x,y,z
-x,-y,1/2+z
1/2-x,1/2+y,1/2+z
1/2+x,1/2-y,z
loop_
_atom_site_type_symbol
_atom_site_label
_atom_site_fract_x
_atom_site_fract_y
_atom_site_fract_z
Si Si1 0.459417 0.854279 0.492600
Si Si2 0.540604 0.354313 0.110349
Si Si3 0.736619 0.534801 0.638358
Si Si4 0.263416 0.034803 0.964583
Si Si5 0.904339 0.249975 0.551490
Si Si6 0.340371 0.633487 0.923278
Si Si7 0.159592 0.366519 0.679675
O O1 0.444190 0.749970 0.551411
O O2 0.396457 0.925077 0.612158
O O3 0.626468 0.878477 0.468265
O O4 0.359745 0.880957 0.352151
O O5 0.373568 0.378516 0.134769
O O6 0.640324 0.380919 0.250792
O O7 0.603538 0.425159 0.990844
O O8 0.750047 0.499952 0.801443
O O9 0.689893 0.457183 0.520515
O O10 0.310230 0.957163 0.082350
O O11 0.797861 0.298252 0.434402
O O12 0.797887 0.201693 0.668596
O O13 0.005752 0.175436 0.472917
O O14 0.005750 0.324511 0.630062
#
# Coordination Sequence:
#
# PCOD8171444 Si02
#       7
#     4   4   4   4   4   4   4
#     4  12  28  45  75 107 148 190 248 303 369 439
#     4  12  28  45  75 107 148 190 248 303 369 439
#     4  12  27  49  73 109 148 195 244 304 371 444
#     4  12  27  49  73 109 148 195 244 304 371 444
#     4  10  24  42  76 104 138 182 244 296 360 426
#     4  11  25  46  73 103 145 189 241 298 366 435
#     4  11  25  46  73 103 145 189 241 298 366 435
#
# _framework density 23.166270000000001
#
# number of rings (size 3 to 8) (size 9 to 14) (size 15 to 20)
#    0.000    0.571    0.000    6.857   16.000    0.000 
#    0.000    0.000    0.000    0.000    0.000    0.000 
#    0.000    0.000    0.000    0.000    0.000    0.000 
#
# Total GULP energy -347153.137048 kJ/mol
# GULP energy per Si atom -12398.326323 kJ/mol
# Density = 2.311354 g / cm^3
# Si number density = 23.166270 Si / 1000 Ang^3
#
#
#
# Elastic Constant Matrix: (Units=GPa)
#
#
# Indices 1 2 3 4 5 6 
#
# 1 126.2733 31.7844 17.1427 0.0000 0.0000 0.0000
# 2 31.7844 122.5716 54.8295 0.0000 0.0000 0.0000
# 3 17.1427 54.8295 128.4672 0.0000 0.0000 0.0000
# 4 0.0000 0.0000 0.0000 42.5219 0.0000 0.0000
# 5 0.0000 0.0000 0.0000 0.0000 32.5758 0.0000
# 6 0.0000 0.0000 0.0000 0.0000 0.0000 27.0202
#
#
#
# Elastic Compliance Matrix: (Units=1/GPa)
#
#
# Indices 1 2 3 4 5 6 
#
# 1 0.008478 -0.002092 -0.000239 0.000000 0.000000 0.000000
# 2 -0.002092 0.010600 -0.004245 0.000000 0.000000 0.000000
# 3 -0.000239 -0.004245 0.009628 0.000000 0.000000 0.000000
# 4 0.000000 0.000000 0.000000 0.023517 0.000000 0.000000
# 5 0.000000 0.000000 0.000000 0.000000 0.030698 0.000000
# 6 0.000000 0.000000 0.000000 0.000000 0.000000 0.037009
#
#
# Mechanical properties :
#
#
# Convention : Reuss Voigt Hill
#
# Bulk Modulus (GPa) = 64.28708 64.98060 64.63384
# Shear Modulus (GPa) = 36.16238 38.66063 37.41150
#
# Velocity S-wave (km/s) = 3.95523 4.08957 4.02296
# Velocity P-wave (km/s) = 6.97631 7.10000 7.03843
#
# Compressibility (1/GPa) = 0.01555523
#
# Stress axis : x y z
#
# Youngs Moduli (GPa) = 117.94892 94.34189 103.86809
#
# Poissons Ratio (x) = 0.19734 0.02478
# Poissons Ratio (y) = 0.24673 0.44090
# Poissons Ratio (z) = 0.02814 0.40046
#
# Static dielectric constant tensor:
#      x y z
#    x 4.461770 0.000000 0.000000 
#    y 0.000000 4.184120 0.000000 
#    z 0.000000 0.000000 4.278300 
# 
# 
# High freq. dielectric constant tensor:
#      x y z
#    x 1.939050 0.000000 0.000000 
#    y 0.000000 1.923170 0.000000 
#    z 0.000000 0.000000 1.923330 
# 
# From -- ./inp_files/3202.got.cif
#   From: 2010.03.12/outbox.cif.g09.slc.cpg/sg33_2_cif.got.tgz:3202.got - 2010.04.14 01:49:19.
