data_PCOD8171365
_publ_section_title
;
Structure prediction by ZEFSAII (Michael W. Deem and Ramdas Pophale) SiO2 
 PCOD8171365
Probable space group: P N A 21
;
_chemical_formula_sum "Si O2"
_cell_formula_units_Z 28
_cell_length_a 15.382476
_cell_length_b 13.705976
_cell_length_c 5.223570
_cell_angle_alpha 90.000000
_cell_angle_beta 90.000000
_cell_angle_gamma 90.000000
_cell_volume 1101.294910
_symmetry_space_group_name_H-M "P N A 21"
_symmetry_group_IT_number 33
_symmetry_cell_setting 'orthorhombic'
loop_
_space_group_symop_operation_xyz
x,y,z
-x,-y,1/2+z
1/2-x,1/2+y,1/2+z
1/2+x,1/2-y,z
loop_
_atom_site_type_symbol
_atom_site_label
_atom_site_fract_x
_atom_site_fract_y
_atom_site_fract_z
Si Si1 0.727347 0.219481 0.000000
Si Si2 0.037242 0.251937 0.165460
Si Si3 0.959018 0.126092 0.798047
Si Si4 0.702379 0.622058 0.999338
Si Si5 0.533620 0.947065 0.839022
Si Si6 0.605768 0.424767 0.484355
Si Si7 0.268769 0.076215 0.197834
O O1 0.774334 0.153333 0.213431
O O2 0.765328 0.328089 0.023424
O O3 0.624352 0.208881 0.031714
O O4 0.745981 0.182811 0.714485
O O5 0.961347 0.226966 0.958246
O O6 0.055171 0.148926 0.298263
O O7 0.000757 0.335789 0.352264
O O8 0.901098 0.141538 0.541380
O O9 0.062039 0.100353 0.756914
O O10 0.913040 0.038180 0.944509
O O11 0.726852 0.508472 0.024071
O O12 0.636208 0.950795 0.793234
O O13 0.485656 0.003544 0.609894
O O14 0.708891 0.406976 0.453573
#
# Coordination Sequence:
#
# PCOD8171365 Si02
#       7
#     4   4   4   4   4   4   4
#     4  11  26  46  69 106 141 187 237 288 357 421
#     4  11  25  43  70 102 142 187 234 300 352 424
#     4  11  23  41  72 104 141 181 232 291 368 428
#     4  11  26  45  70 101 145 185 234 294 351 423
#     4  12  28  49  72 101 140 192 247 290 342 413
#     4  10  23  43  67 106 144 178 230 293 364 431
#     4  10  25  47  70 106 137 192 232 296 348 422
#
# _framework density 25.424616
#
# number of rings (size 3 to 8) (size 9 to 14) (size 15 to 20)
#    0.000    1.143    1.429    2.571   10.000    2.286 
#    2.571    0.000    0.000    0.000    0.000    0.000 
#    0.000    0.000    0.000    0.000    0.000    0.000 
#
# Total GULP energy -347097.844825 kJ/mol
# GULP energy per Si atom -12396.351601 kJ/mol
# Density = 2.536675 g / cm^3
# Si number density = 25.424616 Si / 1000 Ang^3
#
#
#
# Elastic Constant Matrix: (Units=GPa)
#
#
# Indices 1 2 3 4 5 6 
#
# 1 104.2263 25.1007 -11.2359 0.0000 0.0000 0.0000
# 2 25.1007 107.6072 12.0921 0.0000 0.0000 0.0000
# 3 -11.2359 12.0921 40.6650 0.0000 0.0000 0.0000
# 4 0.0000 0.0000 0.0000 24.2794 0.0000 0.0000
# 5 0.0000 0.0000 0.0000 0.0000 35.8246 0.0000
# 6 0.0000 0.0000 0.0000 0.0000 0.0000 38.7307
#
#
#
# Elastic Compliance Matrix: (Units=1/GPa)
#
#
# Indices 1 2 3 4 5 6 
#
# 1 0.010713 -0.002929 0.003831 0.000000 0.000000 0.000000
# 2 -0.002929 0.010415 -0.003907 0.000000 0.000000 0.000000
# 3 0.003831 -0.003907 0.026811 0.000000 0.000000 0.000000
# 4 0.000000 0.000000 0.000000 0.041187 0.000000 0.000000
# 5 0.000000 0.000000 0.000000 0.000000 0.027914 0.000000
# 6 0.000000 0.000000 0.000000 0.000000 0.000000 0.025819
#
#
# Mechanical properties :
#
#
# Convention : Reuss Voigt Hill
#
# Bulk Modulus (GPa) = 23.84921 33.82359 28.83640
# Shear Modulus (GPa) = 30.70377 34.86971 32.78674
#
# Velocity S-wave (km/s) = 3.47888 3.70739 3.59495
# Velocity P-wave (km/s) = 5.05347 5.62660 5.34772
#
# Compressibility (1/GPa) = 0.04193012
#
# Stress axis : x y z
#
# Youngs Moduli (GPa) = 93.34443 96.01194 37.29756
#
# Poissons Ratio (x) = 0.28126 -0.14289
# Poissons Ratio (y) = 0.27345 0.14570
# Poissons Ratio (z) = -0.35762 0.37507
#
# Static dielectric constant tensor:
#      x y z
#    x 4.988890 0.000000 0.000000 
#    y 0.000000 4.826360 0.000000 
#    z 0.000000 0.000000 4.391490 
# 
# 
# High freq. dielectric constant tensor:
#      x y z
#    x 2.032060 0.000000 0.000000 
#    y 0.000000 2.030440 0.000000 
#    z 0.000000 0.000000 1.999190 
# 
# From -- ./inp_files/1396.got.cif
#   From: 2010.03.12/outbox.cif.g09.slc.cpg/sg33_1_cif.got.tgz:1396.got - 2010.04.14 01:49:19.
