data_PCOD8171860
_publ_section_title
;
Structure prediction by ZEFSAII (Michael W. Deem and Ramdas Pophale) SiO2 
 PCOD8171860
Probable space group: P N N 2
;
_chemical_formula_sum "Si O2"
_cell_formula_units_Z 28
_cell_length_a 9.070765
_cell_length_b 8.945739
_cell_length_c 16.906808
_cell_angle_alpha 90.000000
_cell_angle_beta 90.000000
_cell_angle_gamma 90.000000
_cell_volume 1371.897799
_symmetry_space_group_name_H-M "P N N 2"
_symmetry_group_IT_number 34
_symmetry_cell_setting 'orthorhombic'
loop_
_space_group_symop_operation_xyz
x,y,z
-x,-y,z
1/2-x,1/2+y,1/2+z
1/2+x,1/2-y,1/2+z
loop_
_atom_site_type_symbol
_atom_site_label
_atom_site_fract_x
_atom_site_fract_y
_atom_site_fract_z
Si Si1 0.157279 0.930609 0.345850
Si Si2 0.966784 0.344855 0.412507
Si Si3 0.716833 0.628818 0.673315
Si Si4 0.286093 0.646070 0.974314
Si Si5 0.283646 0.154195 0.068956
Si Si6 0.035404 0.155738 0.631048
Si Si7 0.986831 0.323210 0.077885
O O1 0.142513 0.753165 0.358784
O O2 0.209311 0.958564 0.256615
O O3 0.254831 0.007765 0.415048
O O4 0.000000 0.000000 0.361867
O O5 0.880370 0.382862 0.492780
O O6 0.000000 0.500000 0.367680
O O7 0.127929 0.273042 0.425978
O O8 0.740559 0.504578 0.606358
O O9 0.852385 0.742579 0.679787
O O10 0.569959 0.726338 0.653763
O O11 0.392666 0.602381 0.047400
O O12 0.130324 0.703896 0.007465
O O13 0.384751 0.251564 0.126861
O O14 0.141229 0.255131 0.049244
O O15 0.000000 0.000000 0.676498
O O16 0.000000 0.500000 0.098776
#
# Coordination Sequence:
#
# PCOD8171860 Si02
#       7
#     4   4   4   4   4   4   4
#     4  10  20  37  58  83 114 151 190 235 289 351
#     4  10  19  34  59  82 108 146 192 239 286 341
#     4  11  23  37  57  86 117 150 193 240 289 342
#     4   9  19  36  58  83 111 148 193 233 281 348
#     4  11  20  35  58  85 115 149 187 236 285 338
#     4  10  19  37  61  84 110 148 194 233 278 343
#     4  11  21  34  55  85 117 152 192 240 287 339
#
# _framework density 20.409683000000001
#
# number of rings (size 3 to 8) (size 9 to 14) (size 15 to 20)
#    0.000    1.714    0.000    9.000    0.000    0.571 
#    0.000    7.143    0.000    3.429    0.000    0.000 
#    0.000    0.000    0.000    0.000    0.000    0.000 
#
# Total GULP energy -347049.576829 kJ/mol
# GULP energy per Si atom -12394.627744 kJ/mol
# Density = 2.036323 g / cm^3
# Si number density = 20.409683 Si / 1000 Ang^3
#
#
#
# Elastic Constant Matrix: (Units=GPa)
#
#
# Indices 1 2 3 4 5 6 
#
# 1 91.2300 17.1806 1.6141 0.0000 0.0000 0.0000
# 2 17.1806 114.4800 9.7674 0.0000 0.0000 0.0000
# 3 1.6141 9.7674 67.3634 0.0000 0.0000 0.0000
# 4 0.0000 0.0000 0.0000 25.1176 0.0000 0.0000
# 5 0.0000 0.0000 0.0000 0.0000 16.1854 0.0000
# 6 0.0000 0.0000 0.0000 0.0000 0.0000 33.0303
#
#
#
# Elastic Compliance Matrix: (Units=1/GPa)
#
#
# Indices 1 2 3 4 5 6 
#
# 1 0.011280 -0.001691 -0.000025 0.000000 0.000000 0.000000
# 2 -0.001691 0.009098 -0.001279 0.000000 0.000000 0.000000
# 3 -0.000025 -0.001279 0.015031 0.000000 0.000000 0.000000
# 4 0.000000 0.000000 0.000000 0.039813 0.000000 0.000000
# 5 0.000000 0.000000 0.000000 0.000000 0.061784 0.000000
# 6 0.000000 0.000000 0.000000 0.000000 0.000000 0.030275
#
#
# Mechanical properties :
#
#
# Convention : Reuss Voigt Hill
#
# Bulk Modulus (GPa) = 33.99053 36.68861 35.33957
# Shear Modulus (GPa) = 27.31098 31.16742 29.23920
#
# Velocity S-wave (km/s) = 3.66203 3.91204 3.78910
# Velocity P-wave (km/s) = 5.87970 6.19843 6.04117
#
# Compressibility (1/GPa) = 0.02941996
#
# Stress axis : x y z
#
# Youngs Moduli (GPa) = 88.65125 109.91448 66.52985
#
# Poissons Ratio (x) = 0.18584 0.00167
# Poissons Ratio (y) = 0.14988 0.08507
# Poissons Ratio (z) = 0.00223 0.14054
#
# Static dielectric constant tensor:
#      x y z
#    x 3.749820 0.000000 0.000000 
#    y 0.000000 4.064810 0.000000 
#    z 0.000000 0.000000 3.285550 
# 
# 
# High freq. dielectric constant tensor:
#      x y z
#    x 1.794790 0.000000 0.000000 
#    y 0.000000 1.817480 0.000000 
#    z 0.000000 0.000000 1.754660 
# 
# From -- ./inp_files/8051.got.cif
#   From: 2010.03.12/outbox.cif.g09.slc.cpg/sg34_5_cif.got.tgz:8051.got - 2010.04.14 01:56:33.
