data_PCOD8171893
_publ_section_title
;
Structure prediction by ZEFSAII (Michael W. Deem and Ramdas Pophale) SiO2 
 PCOD8171893
Probable space group: P N N 2
;
_chemical_formula_sum "Si O2"
_cell_formula_units_Z 32
_cell_length_a 9.377186
_cell_length_b 14.628505
_cell_length_c 10.871248
_cell_angle_alpha 90.000000
_cell_angle_beta 90.000000
_cell_angle_gamma 90.000000
_cell_volume 1491.254881
_symmetry_space_group_name_H-M "P N N 2"
_symmetry_group_IT_number 34
_symmetry_cell_setting 'orthorhombic'
loop_
_space_group_symop_operation_xyz
x,y,z
-x,-y,z
1/2-x,1/2+y,1/2+z
1/2+x,1/2-y,1/2+z
loop_
_atom_site_type_symbol
_atom_site_label
_atom_site_fract_x
_atom_site_fract_y
_atom_site_fract_z
Si Si1 0.348355 0.016509 0.358610
Si Si2 0.204418 0.658715 0.662565
Si Si3 0.168519 0.502293 0.509439
Si Si4 0.756156 0.137016 0.197908
Si Si5 0.634623 0.057916 0.739539
Si Si6 0.463242 0.726455 0.085347
Si Si7 0.033383 0.238248 0.289465
Si Si8 0.148838 0.038185 0.568960
O O1 0.281664 0.918032 0.322047
O O2 0.500000 0.000000 0.424594
O O3 0.380788 0.083483 0.244199
O O4 0.243802 0.066292 0.453067
O O5 0.220956 0.607567 0.530340
O O6 0.351880 0.670557 0.732049
O O7 0.121759 0.754796 0.640924
O O8 0.275285 0.439042 0.591016
O O9 0.193222 0.475025 0.369839
O O10 0.000000 0.500000 0.542695
O O11 0.626267 0.193506 0.144182
O O12 0.886240 0.205283 0.227189
O O13 0.579043 0.161448 0.743882
O O14 0.500000 0.000000 0.694171
O O15 0.768113 0.037685 0.649481
O O16 0.394754 0.632601 0.136728
O O17 0.468388 0.731713 0.936971
O O18 0.000000 0.000000 0.518500
#
# Coordination Sequence:
#
# PCOD8171893 Si02
#       8
#     4   4   4   4   4   4   4   4
#     4  11  22  42  70 103 131 183 228 279 353 424
#     4  11  22  42  69 101 132 173 230 289 345 420
#     4  10  19  42  75  96 130 184 229 283 346 410
#     4  11  22  40  70 101 131 172 234 280 338 421
#     4  11  23  46  67  94 139 190 233 276 355 424
#     4  12  22  45  67  97 138 180 233 288 346 412
#     4  12  25  41  68 106 138 178 230 296 350 407
#     4  12  26  43  65  99 144 183 224 295 358 407
#
# _framework density 21.458438000000001
#
# number of rings (size 3 to 8) (size 9 to 14) (size 15 to 20)
#    0.000    0.750    5.000    4.125    0.000    1.500 
#    2.250    1.250    0.000    0.000    0.000    0.000 
#    0.000    0.000    0.000    0.000    0.000    0.000 
#
# Total GULP energy -396514.852811 kJ/mol
# GULP energy per Si atom -12391.089150 kJ/mol
# Density = 2.140960 g / cm^3
# Si number density = 21.458438 Si / 1000 Ang^3
#
#
#
# Elastic Constant Matrix: (Units=GPa)
#
#
# Indices 1 2 3 4 5 6 
#
# 1 101.3467 26.9342 43.0486 0.0000 0.0000 0.0000
# 2 26.9342 101.6518 22.6973 0.0000 0.0000 0.0000
# 3 43.0486 22.6973 81.1800 0.0000 0.0000 0.0000
# 4 0.0000 0.0000 0.0000 28.9926 0.0000 0.0000
# 5 0.0000 0.0000 0.0000 0.0000 23.1580 0.0000
# 6 0.0000 0.0000 0.0000 0.0000 0.0000 41.3056
#
#
#
# Elastic Compliance Matrix: (Units=1/GPa)
#
#
# Indices 1 2 3 4 5 6 
#
# 1 0.013125 -0.002052 -0.006386 0.000000 0.000000 0.000000
# 2 -0.002052 0.010813 -0.001935 0.000000 0.000000 0.000000
# 3 -0.006386 -0.001935 0.016246 0.000000 0.000000 0.000000
# 4 0.000000 0.000000 0.000000 0.034492 0.000000 0.000000
# 5 0.000000 0.000000 0.000000 0.000000 0.043182 0.000000
# 6 0.000000 0.000000 0.000000 0.000000 0.000000 0.024210
#
#
# Mechanical properties :
#
#
# Convention : Reuss Voigt Hill
#
# Bulk Modulus (GPa) = 51.44687 52.17095 51.80891
# Shear Modulus (GPa) = 29.53453 31.45781 30.49617
#
# Velocity S-wave (km/s) = 3.71396 3.83298 3.77394
# Velocity P-wave (km/s) = 6.51295 6.62980 6.57163
#
# Compressibility (1/GPa) = 0.01943753
#
# Stress axis : x y z
#
# Youngs Moduli (GPa) = 76.18980 92.47903 61.55354
#
# Poissons Ratio (x) = 0.18974 0.39311
# Poissons Ratio (y) = 0.15632 0.11913
# Poissons Ratio (z) = 0.48658 0.17898
#
# Static dielectric constant tensor:
#      x y z
#    x 3.809240 0.000000 0.000000 
#    y 0.000000 4.211050 0.000000 
#    z 0.000000 0.000000 3.827320 
# 
# 
# High freq. dielectric constant tensor:
#      x y z
#    x 1.837520 0.000000 0.000000 
#    y 0.000000 1.855580 0.000000 
#    z 0.000000 0.000000 1.833090 
# 
# From -- ./inp_files/5095.got.cif
#   From: 2010.03.12/outbox.cif.g09.slc.cpg/sg34_3_cif.got.tgz:5095.got - 2010.04.14 01:56:33.
