data_PCOD8171595
_publ_section_title
;
Structure prediction by ZEFSAII (Michael W. Deem and Ramdas Pophale) SiO2 
 PCOD8171595
Probable space group: P N A 21
;
_chemical_formula_sum "Si O2"
_cell_formula_units_Z 20
_cell_length_a 15.178476
_cell_length_b 12.283074
_cell_length_c 4.871585
_cell_angle_alpha 90.000000
_cell_angle_beta 90.000000
_cell_angle_gamma 90.000000
_cell_volume 908.250240
_symmetry_space_group_name_H-M "P N A 21"
_symmetry_group_IT_number 33
_symmetry_cell_setting 'orthorhombic'
loop_
_space_group_symop_operation_xyz
x,y,z
-x,-y,1/2+z
1/2-x,1/2+y,1/2+z
1/2+x,1/2-y,z
loop_
_atom_site_type_symbol
_atom_site_label
_atom_site_fract_x
_atom_site_fract_y
_atom_site_fract_z
Si Si1 0.174206 0.093029 0.239660
Si Si2 0.993078 0.197839 0.091993
Si Si3 0.967861 0.439659 0.916603
Si Si4 0.285590 0.144884 0.753266
Si Si5 0.116790 0.857684 0.100404
O O1 0.214506 0.093545 0.544654
O O2 0.081097 0.153272 0.229020
O O3 0.166024 0.971667 0.123101
O O4 0.241395 0.157887 0.048639
O O5 0.913397 0.166401 0.292283
O O6 0.001258 0.326798 0.046899
O O7 0.968844 0.142600 0.800938
O O8 0.870726 0.432686 0.784200
O O9 0.032078 0.473861 0.666300
O O10 0.312947 0.265810 0.673584
#
# Coordination Sequence:
#
# PCOD8171595 Si02
#       5
#     4   4   4   4   4
#     4  12  24  41  67  94 123 165 212 263 319 371
#     4  11  23  42  66  93 122 168 219 253 310 389
#     4  11  23  42  66  92 131 175 210 255 318 387
#     4  11  25  41  60  97 128 157 208 266 313 367
#     4  11  23  44  63  88 130 165 203 265 316 372
#
# _framework density 22.020363
#
# number of rings (size 3 to 8) (size 9 to 14) (size 15 to 20)
#    0.000    0.800    0.000    9.600    0.000    4.800 
#    0.000    0.000    0.000    0.000    0.000    0.000 
#    0.000    0.000    0.000    0.000    0.000    0.000 
#
# Total GULP energy -248086.079401 kJ/mol
# GULP energy per Si atom -12404.303970 kJ/mol
# Density = 2.197024 g / cm^3
# Si number density = 22.020363 Si / 1000 Ang^3
#
#
#
# Elastic Constant Matrix: (Units=GPa)
#
#
# Indices 1 2 3 4 5 6 
#
# 1 86.6267 56.4086 21.6165 0.0000 0.0000 0.0000
# 2 56.4086 107.4013 31.1743 0.0000 0.0000 0.0000
# 3 21.6165 31.1743 99.8992 0.0000 0.0000 0.0000
# 4 0.0000 0.0000 0.0000 28.3461 0.0000 0.0000
# 5 0.0000 0.0000 0.0000 0.0000 62.3370 0.0000
# 6 0.0000 0.0000 0.0000 0.0000 0.0000 30.3296
#
#
#
# Elastic Compliance Matrix: (Units=1/GPa)
#
#
# Indices 1 2 3 4 5 6 
#
# 1 0.017637 -0.008968 -0.001018 0.000000 0.000000 0.000000
# 2 -0.008968 0.014798 -0.002677 0.000000 0.000000 0.000000
# 3 -0.001018 -0.002677 0.011066 0.000000 0.000000 0.000000
# 4 0.000000 0.000000 0.000000 0.035278 0.000000 0.000000
# 5 0.000000 0.000000 0.000000 0.000000 0.016042 0.000000
# 6 0.000000 0.000000 0.000000 0.000000 0.000000 0.032971
#
#
# Mechanical properties :
#
#
# Convention : Reuss Voigt Hill
#
# Bulk Modulus (GPa) = 55.02088 56.92512 55.97300
# Shear Modulus (GPa) = 31.41149 36.51770 33.96460
#
# Velocity S-wave (km/s) = 3.78097 4.07672 3.93162
# Velocity P-wave (km/s) = 6.64090 6.93302 6.78853
#
# Compressibility (1/GPa) = 0.01817492
#
# Stress axis : x y z
#
# Youngs Moduli (GPa) = 56.69748 67.57628 90.36825
#
# Poissons Ratio (x) = 0.60602 0.09199
# Poissons Ratio (y) = 0.50846 0.24195
# Poissons Ratio (z) = 0.05771 0.18092
#
# Static dielectric constant tensor:
#      x y z
#    x 3.903700 0.000000 0.000000 
#    y 0.000000 3.929810 0.000000 
#    z 0.000000 0.000000 4.203030 
# 
# 
# High freq. dielectric constant tensor:
#      x y z
#    x 1.862450 0.000000 0.000000 
#    y 0.000000 1.867280 0.000000 
#    z 0.000000 0.000000 1.890120 
# 
# From -- ./inp_files/725.got.cif
#   From: 2010.03.12/outbox.cif.g09.slc.cpg/sg33_1_cif.got.tgz:725.got - 2010.04.14 01:49:19.
