data_PCOD8171938
_publ_section_title
;
Structure prediction by ZEFSAII (Michael W. Deem and Ramdas Pophale) SiO2 
 PCOD8171938
Probable space group: P N N 2
;
_chemical_formula_sum "Si O2"
_cell_formula_units_Z 28
_cell_length_a 8.157965
_cell_length_b 17.549972
_cell_length_c 8.956748
_cell_angle_alpha 90.000000
_cell_angle_beta 90.000000
_cell_angle_gamma 90.000000
_cell_volume 1282.356038
_symmetry_space_group_name_H-M "P N N 2"
_symmetry_group_IT_number 34
_symmetry_cell_setting 'orthorhombic'
loop_
_space_group_symop_operation_xyz
x,y,z
-x,-y,z
1/2-x,1/2+y,1/2+z
1/2+x,1/2-y,1/2+z
loop_
_atom_site_type_symbol
_atom_site_label
_atom_site_fract_x
_atom_site_fract_y
_atom_site_fract_z
Si Si1 0.184635 0.698931 0.008330
Si Si2 0.190561 0.328933 0.678447
Si Si3 0.190985 0.291658 0.013690
Si Si4 0.508397 0.622010 0.120162
Si Si5 0.667532 0.835945 0.171286
Si Si6 0.752264 0.997482 0.129376
Si Si7 0.000000 0.000000 0.869888
Si Si8 0.500000 0.500000 0.878323
O O1 0.194754 0.788747 0.053793
O O2 0.324553 0.657327 0.107289
O O3 0.993680 0.674748 0.040836
O O4 0.230497 0.680571 0.838794
O O5 0.181675 0.419766 0.663384
O O6 0.008760 0.295542 0.653535
O O7 0.248752 0.305154 0.844133
O O8 0.330014 0.324578 0.126530
O O9 0.200779 0.201266 0.055854
O O10 0.503468 0.575857 0.272664
O O11 0.554461 0.569765 0.979656
O O12 0.630663 0.925023 0.129108
O O13 0.839910 0.999764 0.971196
O O14 0.859154 0.970715 0.269882
#
# Coordination Sequence:
#
# PCOD8171938 Si02
#       8
#     4   4   4   4   4   4   2   2
#     4  11  26  42  70 102 135 179 230 282 335 408
#     4  11  25  44  68 101 137 178 232 280 341 411
#     4  11  26  42  70 102 135 179 230 282 335 408
#     4  11  22  50  66 103 136 178 224 282 345 403
#     4  11  25  44  68 101 137 178 232 280 341 411
#     4  11  23  42  67  99 133 182 223 281 343 402
#     4  10  28  40  72 102 142 172 232 284 336 422
#     4  10  20  40  74  88 128 184 218 264 352 408
#
# _framework density 21.834807000000001
#
# number of rings (size 3 to 8) (size 9 to 14) (size 15 to 20)
#    0.000    1.143    4.286    0.429   10.000    0.000 
#    0.000    4.286    0.000    0.000    0.000    0.000 
#    0.000    0.000    0.000    0.000    0.000    0.000 
#
# Total GULP energy -346871.214657 kJ/mol
# GULP energy per Si atom -12388.257666 kJ/mol
# Density = 2.178511 g / cm^3
# Si number density = 21.834807 Si / 1000 Ang^3
#
#
#
# Elastic Constant Matrix: (Units=GPa)
#
#
# Indices 1 2 3 4 5 6 
#
# 1 105.5686 35.2611 45.5782 0.0000 0.0000 0.0000
# 2 35.2611 121.1752 59.9054 0.0000 0.0000 0.0000
# 3 45.5782 59.9054 121.9266 0.0000 0.0000 0.0000
# 4 0.0000 0.0000 0.0000 33.1554 0.0000 0.0000
# 5 0.0000 0.0000 0.0000 0.0000 30.6990 0.0000
# 6 0.0000 0.0000 0.0000 0.0000 0.0000 28.0663
#
#
#
# Elastic Compliance Matrix: (Units=1/GPa)
#
#
# Indices 1 2 3 4 5 6 
#
# 1 0.011531 -0.001617 -0.003516 0.000000 0.000000 0.000000
# 2 -0.001617 0.011127 -0.004862 0.000000 0.000000 0.000000
# 3 -0.003516 -0.004862 0.011905 0.000000 0.000000 0.000000
# 4 0.000000 0.000000 0.000000 0.030161 0.000000 0.000000
# 5 0.000000 0.000000 0.000000 0.000000 0.032574 0.000000
# 6 0.000000 0.000000 0.000000 0.000000 0.000000 0.035630
#
#
# Mechanical properties :
#
#
# Convention : Reuss Voigt Hill
#
# Bulk Modulus (GPa) = 68.62612 70.01776 69.32194
# Shear Modulus (GPa) = 31.69057 32.24585 31.96821
#
# Velocity S-wave (km/s) = 3.81383 3.84710 3.83050
# Velocity P-wave (km/s) = 7.13384 7.20210 7.16805
#
# Compressibility (1/GPa) = 0.01457171
#
# Stress axis : x y z
#
# Youngs Moduli (GPa) = 86.72591 89.87202 83.99905
#
# Poissons Ratio (x) = 0.14534 0.29532
# Poissons Ratio (y) = 0.14026 0.40844
# Poissons Ratio (z) = 0.30491 0.43699
#
# Static dielectric constant tensor:
#      x y z
#    x 3.631280 0.000000 0.000000 
#    y 0.000000 4.090960 0.000000 
#    z 0.000000 0.000000 3.806240 
# 
# 
# High freq. dielectric constant tensor:
#      x y z
#    x 1.857510 0.000000 0.000000 
#    y 0.000000 1.869060 0.000000 
#    z 0.000000 0.000000 1.854790 
# 
# From -- ./inp_files/2801.got.cif
#   From: 2010.03.12/outbox.cif.g09.slc.cpg/sg34_2_cif.got.tgz:2801.got - 2010.04.14 01:56:33.
