data_PCOD8171118
_publ_section_title
;
Structure prediction by ZEFSAII (Michael W. Deem and Ramdas Pophale) SiO2 
 PCOD8171118
Probable space group: P N A 21
;
_chemical_formula_sum "Si O2"
_cell_formula_units_Z 24
_cell_length_a 11.574567
_cell_length_b 6.238735
_cell_length_c 11.902180
_cell_angle_alpha 90.000000
_cell_angle_beta 90.000000
_cell_angle_gamma 90.000000
_cell_volume 859.464229
_symmetry_space_group_name_H-M "P N A 21"
_symmetry_group_IT_number 33
_symmetry_cell_setting 'orthorhombic'
loop_
_space_group_symop_operation_xyz
x,y,z
-x,-y,1/2+z
1/2-x,1/2+y,1/2+z
1/2+x,1/2-y,z
loop_
_atom_site_type_symbol
_atom_site_label
_atom_site_fract_x
_atom_site_fract_y
_atom_site_fract_z
Si Si1 0.277043 0.991946 0.143590
Si Si2 0.557939 0.611418 0.271023
Si Si3 0.231543 0.932522 0.464957
Si Si4 0.820416 0.989314 0.207897
Si Si5 0.329460 0.895724 0.910748
Si Si6 0.561853 0.984128 0.826152
O O1 0.142377 0.987296 0.175909
O O2 0.327985 0.753768 0.161785
O O3 0.349757 0.138094 0.236828
O O4 0.302819 0.065475 0.013406
O O5 0.619282 0.631761 0.392597
O O6 0.446148 0.454525 0.262360
O O7 0.515558 0.853869 0.250854
O O8 0.218024 0.867465 0.597908
O O9 0.240544 0.190496 0.451002
O O10 0.357135 0.871810 0.411291
O O11 0.720144 0.997483 0.299396
O O12 0.466708 0.840814 0.893404
#
# Coordination Sequence:
#
# PCOD8171118 Si02
#       6
#     4   4   4   4   4   4
#     4   9  21  41  66  92 123 179 217 262 332 398
#     4  10  21  44  63  87 132 171 216 266 332 394
#     4  10  25  42  62 101 129 166 224 274 333 399
#     4  10  22  39  66  92 129 169 216 274 326 392
#     4  11  23  39  69  92 128 171 219 271 336 386
#     4  10  22  43  66  90 131 172 218 269 331 399
#
# _framework density 27.924372999999999
#
# number of rings (size 3 to 8) (size 9 to 14) (size 15 to 20)
#    0.000    2.000    1.667    0.000    7.000    2.667 
#    9.000    0.000    0.000    0.000    0.000    0.000 
#    0.000    0.000    0.000    0.000    0.000    0.000 
#
# Total GULP energy -297433.993047 kJ/mol
# GULP energy per Si atom -12393.083044 kJ/mol
# Density = 2.786082 g / cm^3
# Si number density = 27.924373 Si / 1000 Ang^3
#
#
#
# Elastic Constant Matrix: (Units=GPa)
#
#
# Indices 1 2 3 4 5 6 
#
# 1 212.5420 14.0038 95.1041 0.0000 0.0000 0.0000
# 2 14.0038 29.5741 11.6298 0.0000 0.0000 0.0000
# 3 95.1041 11.6298 249.5993 0.0000 0.0000 0.0000
# 4 0.0000 0.0000 0.0000 34.2227 0.0000 0.0000
# 5 0.0000 0.0000 0.0000 0.0000 38.3663 0.0000
# 6 0.0000 0.0000 0.0000 0.0000 0.0000 30.8101
#
#
#
# Elastic Compliance Matrix: (Units=1/GPa)
#
#
# Indices 1 2 3 4 5 6 
#
# 1 0.005775 -0.001904 -0.002112 0.000000 0.000000 0.000000
# 2 -0.001904 0.035072 -0.000909 0.000000 0.000000 0.000000
# 3 -0.002112 -0.000909 0.004853 0.000000 0.000000 0.000000
# 4 0.000000 0.000000 0.000000 0.029220 0.000000 0.000000
# 5 0.000000 0.000000 0.000000 0.000000 0.026065 0.000000
# 6 0.000000 0.000000 0.000000 0.000000 0.000000 0.032457
#
#
# Mechanical properties :
#
#
# Convention : Reuss Voigt Hill
#
# Bulk Modulus (GPa) = 27.89260 81.46563 54.67912
# Shear Modulus (GPa) = 32.20758 45.41168 38.80963
#
# Velocity S-wave (km/s) = 3.39984 4.03704 3.73206
# Velocity P-wave (km/s) = 5.04204 7.13913 6.18019
#
# Compressibility (1/GPa) = 0.03585180
#
# Stress axis : x y z
#
# Youngs Moduli (GPa) = 173.14857 28.51247 206.03991
#
# Poissons Ratio (x) = 0.05430 0.43513
# Poissons Ratio (y) = 0.32972 0.18720
# Poissons Ratio (z) = 0.36566 0.02591
#
# Static dielectric constant tensor:
#      x y z
#    x 5.244760 0.000000 0.000000 
#    y 0.000000 5.693940 0.000000 
#    z 0.000000 0.000000 5.708300 
# 
# 
# High freq. dielectric constant tensor:
#      x y z
#    x 2.134980 0.000000 0.000000 
#    y 0.000000 2.177710 0.000000 
#    z 0.000000 0.000000 2.126820 
# 
# From -- ./inp_files/6264.got.cif
#   From: 2010.03.12/outbox.cif.g09.slc.cpg/sg33_4_cif.got.tgz:6264.got - 2010.04.14 01:49:19.
