data_PCOD8171499
_publ_section_title
;
Structure prediction by ZEFSAII (Michael W. Deem and Ramdas Pophale) SiO2 
 PCOD8171499
Probable space group: P N A 21
;
_chemical_formula_sum "Si O2"
_cell_formula_units_Z 32
_cell_length_a 12.405194
_cell_length_b 6.303943
_cell_length_c 17.539974
_cell_angle_alpha 90.000000
_cell_angle_beta 90.000000
_cell_angle_gamma 90.000000
_cell_volume 1371.654660
_symmetry_space_group_name_H-M "P N A 21"
_symmetry_group_IT_number 33
_symmetry_cell_setting 'orthorhombic'
loop_
_space_group_symop_operation_xyz
x,y,z
-x,-y,1/2+z
1/2-x,1/2+y,1/2+z
1/2+x,1/2-y,z
loop_
_atom_site_type_symbol
_atom_site_label
_atom_site_fract_x
_atom_site_fract_y
_atom_site_fract_z
Si Si1 0.871338 0.898225 0.430110
Si Si2 0.346383 0.901288 0.562204
Si Si3 0.927094 0.001424 0.203575
Si Si4 0.793084 0.370764 0.169229
Si Si5 0.732853 0.219102 0.790816
Si Si6 0.437313 0.839089 0.079056
Si Si7 0.211299 0.212701 0.454421
Si Si8 0.577642 0.536785 0.342326
O O1 0.874941 0.803640 0.513349
O O2 0.836775 0.719229 0.368600
O O3 0.995027 0.948126 0.411480
O O4 0.794997 0.104151 0.430279
O O5 0.296738 0.795899 0.638840
O O6 0.454445 0.025279 0.581992
O O7 0.263617 0.050829 0.516034
O O8 0.816552 0.900826 0.237717
O O9 0.965705 0.864973 0.131223
O O10 0.019781 0.035935 0.265492
O O11 0.902599 0.239375 0.180092
O O12 0.763340 0.490126 0.247768
O O13 0.828399 0.546375 0.108230
O O14 0.858033 0.254591 0.817486
O O15 0.401661 0.788557 0.992752
O O16 0.175360 0.110907 0.373897
#
# Coordination Sequence:
#
# PCOD8171499 Si02
#       8
#     4   4   4   4   4   4   4   4
#     4  11  26  48  72 107 145 188 250 298 365 442
#     4  12  26  44  77 103 144 196 240 302 367 434
#     4  10  25  48  69 104 143 186 241 297 364 436
#     4  11  25  47  69 105 142 186 244 303 357 433
#     4  10  25  46  69 101 140 186 239 299 359 428
#     4  11  26  44  73 106 143 187 243 297 369 428
#     4  12  25  48  70 109 145 189 243 305 362 438
#     4  11  26  45  73  99 142 188 234 293 359 433
#
# _framework density 23.329487
#
# number of rings (size 3 to 8) (size 9 to 14) (size 15 to 20)
#    0.000    1.000    3.750    0.750   10.500    2.000 
#    4.500    0.000    0.000    0.000    0.000    0.000 
#    0.000    0.000    0.000    0.000    0.000    0.000 
#
# Total GULP energy -396435.083486 kJ/mol
# GULP energy per Si atom -12388.596359 kJ/mol
# Density = 2.327639 g / cm^3
# Si number density = 23.329487 Si / 1000 Ang^3
#
#
#
# Elastic Constant Matrix: (Units=GPa)
#
#
# Indices 1 2 3 4 5 6 
#
# 1 104.4564 37.0858 39.7331 0.0000 0.0000 0.0000
# 2 37.0858 86.8825 40.5345 0.0000 0.0000 0.0000
# 3 39.7331 40.5345 96.9854 0.0000 0.0000 0.0000
# 4 0.0000 0.0000 0.0000 35.6335 0.0000 0.0000
# 5 0.0000 0.0000 0.0000 0.0000 31.3483 0.0000
# 6 0.0000 0.0000 0.0000 0.0000 0.0000 22.0380
#
#
#
# Elastic Compliance Matrix: (Units=1/GPa)
#
#
# Indices 1 2 3 4 5 6 
#
# 1 0.012168 -0.003563 -0.003496 0.000000 0.000000 0.000000
# 2 -0.003563 0.015341 -0.004952 0.000000 0.000000 0.000000
# 3 -0.003496 -0.004952 0.013813 0.000000 0.000000 0.000000
# 4 0.000000 0.000000 0.000000 0.028063 0.000000 0.000000
# 5 0.000000 0.000000 0.000000 0.000000 0.031900 0.000000
# 6 0.000000 0.000000 0.000000 0.000000 0.000000 0.045376
#
#
# Mechanical properties :
#
#
# Convention : Reuss Voigt Hill
#
# Bulk Modulus (GPa) = 57.80338 58.11457 57.95897
# Shear Modulus (GPa) = 28.33670 29.20201 28.76936
#
# Velocity S-wave (km/s) = 3.48894 3.54181 3.51547
# Velocity P-wave (km/s) = 6.40788 6.45680 6.43239
#
# Compressibility (1/GPa) = 0.01730003
#
# Stress axis : x y z
#
# Youngs Moduli (GPa) = 82.18186 65.18495 72.39713
#
# Poissons Ratio (x) = 0.23225 0.25310
# Poissons Ratio (y) = 0.29281 0.35851
# Poissons Ratio (z) = 0.28730 0.32280
#
# Static dielectric constant tensor:
#      x y z
#    x 4.275100 0.000000 0.000000 
#    y 0.000000 4.179060 0.000000 
#    z 0.000000 0.000000 4.317350 
# 
# 
# High freq. dielectric constant tensor:
#      x y z
#    x 1.931690 0.000000 0.000000 
#    y 0.000000 1.910270 0.000000 
#    z 0.000000 0.000000 1.941560 
# 
# From -- ./inp_files/9141.got.cif
#   From: 2010.03.12/outbox.cif.g09.slc.cpg/sg33_5_cif.got.tgz:9141.got - 2010.04.14 01:49:19.
