data_PCOD8171737
_publ_section_title
;
Structure prediction by ZEFSAII (Michael W. Deem and Ramdas Pophale) SiO2 
 PCOD8171737
Probable space group: P N A 21
;
_chemical_formula_sum "Si O2"
_cell_formula_units_Z 20
_cell_length_a 9.544080
_cell_length_b 11.673150
_cell_length_c 7.222286
_cell_angle_alpha 90.000000
_cell_angle_beta 90.000000
_cell_angle_gamma 90.000000
_cell_volume 804.631109
_symmetry_space_group_name_H-M "P N A 21"
_symmetry_group_IT_number 33
_symmetry_cell_setting 'orthorhombic'
loop_
_space_group_symop_operation_xyz
x,y,z
-x,-y,1/2+z
1/2-x,1/2+y,1/2+z
1/2+x,1/2-y,z
loop_
_atom_site_type_symbol
_atom_site_label
_atom_site_fract_x
_atom_site_fract_y
_atom_site_fract_z
Si Si1 0.498696 0.845648 0.114540
Si Si2 0.361911 0.052834 0.278012
Si Si3 0.497183 0.370627 0.041199
Si Si4 0.932202 0.884383 0.941706
Si Si5 0.204588 0.695404 0.423314
O O1 0.648034 0.846462 0.223298
O O2 0.385739 0.918544 0.232166
O O3 0.515475 0.902121 0.912412
O O4 0.434902 0.717870 0.091408
O O5 0.220384 0.072181 0.389354
O O6 0.365383 0.119902 0.085001
O O7 0.491095 0.338862 0.257734
O O8 0.515686 0.507652 0.026428
O O9 0.627385 0.309228 0.936017
O O10 0.353276 0.324887 0.952102
#
# Coordination Sequence:
#
# PCOD8171737 Si02
#       5
#     4   4   4   4   4
#     4  12  25  49  79 113 155 209 259 328 394 465
#     4  11  26  48  75 113 150 208 262 322 392 466
#     4  11  26  50  74 116 155 207 262 320 397 469
#     4  11  27  48  79 112 159 207 263 327 394 480
#     4  11  26  47  77 110 155 203 260 323 383 478
#
# _framework density 24.856109
#
# number of rings (size 3 to 8) (size 9 to 14) (size 15 to 20)
#    0.000    0.800    4.000    1.200    8.400    3.200 
#    0.000    0.000    0.000    0.000    0.000    0.000 
#    0.000    0.000    0.000    0.000    0.000    0.000 
#
# Total GULP energy -248035.197020 kJ/mol
# GULP energy per Si atom -12401.759851 kJ/mol
# Density = 2.479954 g / cm^3
# Si number density = 24.856109 Si / 1000 Ang^3
#
#
#
# Elastic Constant Matrix: (Units=GPa)
#
#
# Indices 1 2 3 4 5 6 
#
# 1 92.8592 60.6916 22.2145 0.0000 0.0000 0.0000
# 2 60.6916 169.2574 45.6206 0.0000 0.0000 0.0000
# 3 22.2145 45.6206 117.4225 0.0000 0.0000 0.0000
# 4 0.0000 0.0000 0.0000 47.3183 0.0000 0.0000
# 5 0.0000 0.0000 0.0000 0.0000 37.1006 0.0000
# 6 0.0000 0.0000 0.0000 0.0000 0.0000 30.3712
#
#
#
# Elastic Compliance Matrix: (Units=1/GPa)
#
#
# Indices 1 2 3 4 5 6 
#
# 1 0.014130 -0.004855 -0.000787 0.000000 0.000000 0.000000
# 2 -0.004855 0.008267 -0.002293 0.000000 0.000000 0.000000
# 3 -0.000787 -0.002293 0.009556 0.000000 0.000000 0.000000
# 4 0.000000 0.000000 0.000000 0.021133 0.000000 0.000000
# 5 0.000000 0.000000 0.000000 0.000000 0.026954 0.000000
# 6 0.000000 0.000000 0.000000 0.000000 0.000000 0.032926
#
#
# Mechanical properties :
#
#
# Convention : Reuss Voigt Hill
#
# Bulk Modulus (GPa) = 62.17707 70.73250 66.45479
# Shear Modulus (GPa) = 37.25834 39.69216 38.47525
#
# Velocity S-wave (km/s) = 3.87584 4.00043 3.93863
# Velocity P-wave (km/s) = 6.71555 7.06091 6.89040
#
# Compressibility (1/GPa) = 0.01608310
#
# Stress axis : x y z
#
# Youngs Moduli (GPa) = 70.77044 120.96178 104.64381
#
# Poissons Ratio (x) = 0.58722 0.08237
# Poissons Ratio (y) = 0.34356 0.24000
# Poissons Ratio (z) = 0.05570 0.27742
#
# Static dielectric constant tensor:
#      x y z
#    x 4.018540 0.000000 0.000000 
#    y 0.000000 4.419050 0.000000 
#    z 0.000000 0.000000 4.705810 
# 
# 
# High freq. dielectric constant tensor:
#      x y z
#    x 1.968750 0.000000 0.000000 
#    y 0.000000 1.993100 0.000000 
#    z 0.000000 0.000000 2.016360 
# 
# From -- ./inp_files/3012.got.cif
#   From: 2010.03.12/outbox.cif.g09.slc.cpg/sg33_2_cif.got.tgz:3012.got - 2010.04.14 01:49:19.
