data_PCOD8171607
_publ_section_title
;
Structure prediction by ZEFSAII (Michael W. Deem and Ramdas Pophale) SiO2 
 PCOD8171607
Probable space group: P N A 21
;
_chemical_formula_sum "Si O2"
_cell_formula_units_Z 32
_cell_length_a 8.784141
_cell_length_b 11.292491
_cell_length_c 14.492289
_cell_angle_alpha 90.000000
_cell_angle_beta 90.000000
_cell_angle_gamma 90.000000
_cell_volume 1437.560190
_symmetry_space_group_name_H-M "P N A 21"
_symmetry_group_IT_number 33
_symmetry_cell_setting 'orthorhombic'
loop_
_space_group_symop_operation_xyz
x,y,z
-x,-y,1/2+z
1/2-x,1/2+y,1/2+z
1/2+x,1/2-y,z
loop_
_atom_site_type_symbol
_atom_site_label
_atom_site_fract_x
_atom_site_fract_y
_atom_site_fract_z
Si Si1 0.962436 0.854276 0.831790
Si Si2 0.500193 0.372513 0.660899
Si Si3 0.820607 0.338563 0.585422
Si Si4 0.341687 0.597525 0.630096
Si Si5 0.726110 0.170763 0.422285
Si Si6 0.898244 0.104006 0.867762
Si Si7 0.115932 0.267953 0.964869
Si Si8 0.438195 0.022988 0.039273
O O1 0.143778 0.861733 0.847942
O O2 0.911188 0.858973 0.725880
O O3 0.914243 0.725738 0.866847
O O4 0.887925 0.963394 0.890306
O O5 0.683374 0.366824 0.656424
O O6 0.447436 0.244865 0.628701
O O7 0.443586 0.483347 0.597109
O O8 0.417533 0.392552 0.757889
O O9 0.769787 0.275437 0.492234
O O10 0.904217 0.462530 0.567718
O O11 0.340083 0.709972 0.562158
O O12 0.163983 0.555105 0.630042
O O13 0.669660 0.054151 0.473324
O O14 0.753070 0.170176 0.909661
O O15 0.053333 0.161078 0.903840
O O16 0.980602 0.360997 0.981148
#
# Coordination Sequence:
#
# PCOD8171607 Si02
#       8
#     4   4   4   4   4   4   4   4
#     4  11  27  45  72 104 145 183 244 307 359 422
#     4  11  23  44  71 105 146 184 246 304 359 426
#     4  12  22  41  75 107 141 189 237 302 366 426
#     4  11  26  48  68 103 152 191 240 301 363 444
#     4  12  23  46  73 105 139 187 243 299 362 436
#     4  11  26  46  70 101 142 191 242 299 354 433
#     4  12  26  45  72 100 147 195 240 287 371 435
#     4  12  25  43  75 109 140 198 242 295 360 452
#
# _framework density 22.259936
#
# number of rings (size 3 to 8) (size 9 to 14) (size 15 to 20)
#    0.000    0.500    5.000    2.250    5.250    1.000 
#    2.250    0.000    0.000    0.000    0.000    0.000 
#    0.000    0.000    0.000    0.000    0.000    0.000 
#
# Total GULP energy -396599.676465 kJ/mol
# GULP energy per Si atom -12393.739890 kJ/mol
# Density = 2.220927 g / cm^3
# Si number density = 22.259936 Si / 1000 Ang^3
#
#
#
# Elastic Constant Matrix: (Units=GPa)
#
#
# Indices 1 2 3 4 5 6 
#
# 1 137.2105 36.5465 47.8763 0.0000 0.0000 0.0000
# 2 36.5465 95.7927 35.7852 0.0000 0.0000 0.0000
# 3 47.8763 35.7852 82.3272 0.0000 0.0000 0.0000
# 4 0.0000 0.0000 0.0000 28.5465 0.0000 0.0000
# 5 0.0000 0.0000 0.0000 0.0000 36.2498 0.0000
# 6 0.0000 0.0000 0.0000 0.0000 0.0000 47.9491
#
#
#
# Elastic Compliance Matrix: (Units=1/GPa)
#
#
# Indices 1 2 3 4 5 6 
#
# 1 0.009409 -0.001845 -0.004670 0.000000 0.000000 0.000000
# 2 -0.001845 0.012825 -0.004501 0.000000 0.000000 0.000000
# 3 -0.004670 -0.004501 0.016819 0.000000 0.000000 0.000000
# 4 0.000000 0.000000 0.000000 0.035031 0.000000 0.000000
# 5 0.000000 0.000000 0.000000 0.000000 0.027586 0.000000
# 6 0.000000 0.000000 0.000000 0.000000 0.000000 0.020855
#
#
# Mechanical properties :
#
#
# Convention : Reuss Voigt Hill
#
# Bulk Modulus (GPa) = 58.75450 61.74961 60.25205
# Shear Modulus (GPa) = 33.28212 35.55723 34.41968
#
# Velocity S-wave (km/s) = 3.87092 4.00104 3.93652
# Velocity P-wave (km/s) = 6.81401 7.01034 6.91287
#
# Compressibility (1/GPa) = 0.01701997
#
# Stress axis : x y z
#
# Youngs Moduli (GPa) = 106.28250 77.97379 59.45712
#
# Poissons Ratio (x) = 0.14388 0.27764
# Poissons Ratio (y) = 0.19612 0.26765
# Poissons Ratio (z) = 0.49629 0.35100
#
# Static dielectric constant tensor:
#      x y z
#    x 4.067390 0.000000 0.000000 
#    y 0.000000 4.848750 0.000000 
#    z 0.000000 0.000000 4.012340 
# 
# 
# High freq. dielectric constant tensor:
#      x y z
#    x 1.884970 0.000000 0.000000 
#    y 0.000000 1.899270 0.000000 
#    z 0.000000 0.000000 1.859090 
# 
# From -- ./inp_files/7672.got.cif
#   From: 2010.03.12/outbox.cif.g09.slc.cpg/sg33_4_cif.got.tgz:7672.got - 2010.04.14 01:49:19.
