data_PCOD8171942
_publ_section_title
;
Structure prediction by ZEFSAII (Michael W. Deem and Ramdas Pophale) SiO2 
 PCOD8171942
Probable space group: P N N 2
;
_chemical_formula_sum "Si O2"
_cell_formula_units_Z 32
_cell_length_a 11.030225
_cell_length_b 16.194680
_cell_length_c 8.781464
_cell_angle_alpha 90.000000
_cell_angle_beta 90.000000
_cell_angle_gamma 90.000000
_cell_volume 1568.641381
_symmetry_space_group_name_H-M "P N N 2"
_symmetry_group_IT_number 34
_symmetry_cell_setting 'orthorhombic'
loop_
_space_group_symop_operation_xyz
x,y,z
-x,-y,z
1/2-x,1/2+y,1/2+z
1/2+x,1/2-y,1/2+z
loop_
_atom_site_type_symbol
_atom_site_label
_atom_site_fract_x
_atom_site_fract_y
_atom_site_fract_z
Si Si1 0.748945 0.634831 0.253260
Si Si2 0.110540 0.680942 0.501234
Si Si3 0.754079 0.402665 0.012007
Si Si4 0.871589 0.756895 0.057042
Si Si5 0.090306 0.720490 0.843923
Si Si6 0.037403 0.181166 0.357310
Si Si7 0.370107 0.028666 0.806128
Si Si8 0.611168 0.554441 0.997856
O O1 0.856779 0.669559 0.145032
O O2 0.695714 0.708935 0.358118
O O3 0.795817 0.555395 0.347699
O O4 0.639491 0.610511 0.142907
O O5 0.245814 0.715982 0.481089
O O6 0.062563 0.694969 0.671539
O O7 0.110216 0.583998 0.457087
O O8 0.016583 0.728158 0.390545
O O9 0.793238 0.415221 0.187704
O O10 0.866956 0.363114 0.925460
O O11 0.636905 0.343698 0.986070
O O12 0.722322 0.494671 0.947128
O O13 0.908325 0.823276 0.187349
O O14 0.969463 0.753061 0.923828
O O15 0.928009 0.114221 0.359705
O O16 0.500000 0.000000 0.739209
O O17 0.500000 0.500000 0.055265
#
# Coordination Sequence:
#
# PCOD8171942 Si02
#       8
#     4   4   4   4   4   4   4   4
#     4  10  20  42  61  92 132 163 228 260 327 408
#     4  11  24  41  67  97 133 169 230 276 329 402
#     4  10  21  38  68  94 127 171 226 265 339 396
#     4  11  23  41  69  95 131 178 220 274 334 411
#     4  11  22  41  64  97 132 174 221 279 325 401
#     4  11  19  41  63  93 130 170 221 275 326 400
#     4  11  24  42  66  96 134 180 216 280 345 401
#     4   9  19  34  62  90 120 168 207 267 324 388
#
# _framework density 20.399819999999998
#
# number of rings (size 3 to 8) (size 9 to 14) (size 15 to 20)
#    0.000    1.500    5.000    2.250    1.750    1.000 
#    2.250    3.125    0.000    0.000    0.000    0.000 
#    0.000    0.000    0.000    0.000    0.000    0.000 
#
# Total GULP energy -396583.767270 kJ/mol
# GULP energy per Si atom -12393.242727 kJ/mol
# Density = 2.035339 g / cm^3
# Si number density = 20.399820 Si / 1000 Ang^3
#
#
#
# Elastic Constant Matrix: (Units=GPa)
#
#
# Indices 1 2 3 4 5 6 
#
# 1 81.5512 30.2633 41.1534 0.0000 0.0000 0.0000
# 2 30.2633 108.0870 40.9932 0.0000 0.0000 0.0000
# 3 41.1534 40.9932 80.4012 0.0000 0.0000 0.0000
# 4 0.0000 0.0000 0.0000 28.7196 0.0000 0.0000
# 5 0.0000 0.0000 0.0000 0.0000 33.1931 0.0000
# 6 0.0000 0.0000 0.0000 0.0000 0.0000 37.3986
#
#
#
# Elastic Compliance Matrix: (Units=1/GPa)
#
#
# Indices 1 2 3 4 5 6 
#
# 1 0.016807 -0.001789 -0.007691 0.000000 0.000000 0.000000
# 2 -0.001789 0.011660 -0.005029 0.000000 0.000000 0.000000
# 3 -0.007691 -0.005029 0.018938 0.000000 0.000000 0.000000
# 4 0.000000 0.000000 0.000000 0.034819 0.000000 0.000000
# 5 0.000000 0.000000 0.000000 0.000000 0.030127 0.000000
# 6 0.000000 0.000000 0.000000 0.000000 0.000000 0.026739
#
#
# Mechanical properties :
#
#
# Convention : Reuss Voigt Hill
#
# Bulk Modulus (GPa) = 54.38429 54.98438 54.68433
# Shear Modulus (GPa) = 28.69645 30.37089 29.53367
#
# Velocity S-wave (km/s) = 3.75467 3.86266 3.80905
# Velocity P-wave (km/s) = 6.74639 6.84875 6.79776
#
# Compressibility (1/GPa) = 0.01838766
#
# Stress axis : x y z
#
# Youngs Moduli (GPa) = 59.49885 85.76224 52.80323
#
# Poissons Ratio (x) = 0.15344 0.40608
# Poissons Ratio (y) = 0.10645 0.26556
# Poissons Ratio (z) = 0.45758 0.43132
#
# Static dielectric constant tensor:
#      x y z
#    x 3.813610 0.000000 0.000000 
#    y 0.000000 3.992960 0.000000 
#    z 0.000000 0.000000 3.328050 
# 
# 
# High freq. dielectric constant tensor:
#      x y z
#    x 1.806970 0.000000 0.000000 
#    y 0.000000 1.810110 0.000000 
#    z 0.000000 0.000000 1.757580 
# 
# From -- ./inp_files/3338.got.cif
#   From: 2010.03.12/outbox.cif.g09.slc.cpg/sg34_2_cif.got.tgz:3338.got - 2010.04.14 01:56:33.
