data_PCOD8171095
_publ_section_title
;
Structure prediction by ZEFSAII (Michael W. Deem and Ramdas Pophale) SiO2 
 PCOD8171095
Probable space group: P N A 21
;
_chemical_formula_sum "Si O2"
_cell_formula_units_Z 32
_cell_length_a 9.759535
_cell_length_b 11.179084
_cell_length_c 14.675401
_cell_angle_alpha 90.000000
_cell_angle_beta 90.000000
_cell_angle_gamma 90.000000
_cell_volume 1601.125309
_symmetry_space_group_name_H-M "P N A 21"
_symmetry_group_IT_number 33
_symmetry_cell_setting 'orthorhombic'
loop_
_space_group_symop_operation_xyz
x,y,z
-x,-y,1/2+z
1/2-x,1/2+y,1/2+z
1/2+x,1/2-y,z
loop_
_atom_site_type_symbol
_atom_site_label
_atom_site_fract_x
_atom_site_fract_y
_atom_site_fract_z
Si Si1 0.759937 0.359943 0.895100
Si Si2 0.494614 0.270280 0.807390
Si Si3 0.988247 0.411273 0.648601
Si Si4 0.225120 0.992446 0.066680
Si Si5 0.471061 0.524537 0.727271
Si Si6 0.779906 0.564798 0.749192
Si Si7 0.874835 0.254723 0.487838
Si Si8 0.127676 0.214964 0.363661
O O1 0.621854 0.292750 0.871420
O O2 0.876413 0.262683 0.878048
O O3 0.781783 0.476674 0.834410
O O4 0.758576 0.399198 0.999327
O O5 0.524425 0.162479 0.738658
O O6 0.458061 0.384359 0.746636
O O7 0.889662 0.522805 0.673385
O O8 0.905005 0.329551 0.578142
O O9 0.131904 0.453933 0.610010
O O10 0.122100 0.049574 0.139741
O O11 0.153115 0.882936 0.013846
O O12 0.627049 0.565820 0.706351
O O13 0.413178 0.592057 0.815539
O O14 0.820713 0.694890 0.785522
O O15 0.743712 0.312033 0.438354
O O16 0.998345 0.267958 0.417006
#
# Coordination Sequence:
#
# PCOD8171095 Si02
#       8
#     4   4   4   4   4   4   4   4
#     4  10  21  43  64  93 128 166 215 273 315 390
#     4  10  21  42  67  93 127 171 213 264 333 388
#     4  11  24  40  71  98 130 169 226 279 323 401
#     4  12  24  43  64 101 131 170 223 276 327 387
#     4  11  24  42  68  94 130 176 218 270 338 399
#     4  10  23  44  67  95 130 172 219 272 339 388
#     4  12  23  41  69  97 129 170 228 276 320 395
#     4  12  24  45  66  95 135 178 220 272 339 402
#
# _framework density 19.985945000000001
#
# number of rings (size 3 to 8) (size 9 to 14) (size 15 to 20)
#    0.000    1.000    5.000    1.500    7.000    0.000 
#    6.750    0.000    0.000    0.000    0.000    0.000 
#    0.000    0.000    0.000    0.000    0.000    0.000 
#
# Total GULP energy -396932.744398 kJ/mol
# GULP energy per Si atom -12404.148262 kJ/mol
# Density = 1.994046 g / cm^3
# Si number density = 19.985945 Si / 1000 Ang^3
#
#
#
# Elastic Constant Matrix: (Units=GPa)
#
#
# Indices 1 2 3 4 5 6 
#
# 1 138.5960 53.6504 64.3495 0.0000 0.0000 0.0000
# 2 53.6504 61.5429 46.4867 0.0000 0.0000 0.0000
# 3 64.3495 46.4867 111.0275 0.0000 0.0000 0.0000
# 4 0.0000 0.0000 0.0000 29.1232 0.0000 0.0000
# 5 0.0000 0.0000 0.0000 0.0000 263.5524 0.0000
# 6 0.0000 0.0000 0.0000 0.0000 0.0000 28.1623
#
#
#
# Elastic Compliance Matrix: (Units=1/GPa)
#
#
# Indices 1 2 3 4 5 6 
#
# 1 0.011856 -0.007525 -0.003721 0.000000 0.000000 0.000000
# 2 -0.007525 0.028541 -0.007589 0.000000 0.000000 0.000000
# 3 -0.003721 -0.007589 0.014341 0.000000 0.000000 0.000000
# 4 0.000000 0.000000 0.000000 0.034337 0.000000 0.000000
# 5 0.000000 0.000000 0.000000 0.000000 0.003794 0.000000
# 6 0.000000 0.000000 0.000000 0.000000 0.000000 0.035508
#
#
# Mechanical properties :
#
#
# Convention : Reuss Voigt Hill
#
# Bulk Modulus (GPa) = 58.58697 71.12664 64.85681
# Shear Modulus (GPa) = 29.11482 73.94625 51.53054
#
# Velocity S-wave (km/s) = 3.82090 6.08929 5.08324
# Velocity P-wave (km/s) = 6.98881 9.22523 8.18377
#
# Compressibility (1/GPa) = 0.01706864
#
# Stress axis : x y z
#
# Youngs Moduli (GPa) = 84.34901 35.03776 69.73233
#
# Poissons Ratio (x) = 0.26365 0.25945
# Poissons Ratio (y) = 0.63470 0.52918
# Poissons Ratio (z) = 0.31384 0.26589
#
# Static dielectric constant tensor:
#      x y z
#    x 3.802430 0.000000 0.000000 
#    y 0.000000 3.580370 0.000000 
#    z 0.000000 0.000000 3.639440 
# 
# 
# High freq. dielectric constant tensor:
#      x y z
#    x 1.799360 0.000000 0.000000 
#    y 0.000000 1.770220 0.000000 
#    z 0.000000 0.000000 1.780790 
# 
# From -- ./inp_files/7619.got.cif
#   From: 2010.03.12/outbox.cif.g09.slc.cpg/sg33_4_cif.got.tgz:7619.got - 2010.04.14 01:49:19.
