data_PCOD8171138
_publ_section_title
;
Structure prediction by ZEFSAII (Michael W. Deem and Ramdas Pophale) SiO2 
 PCOD8171138
Probable space group: P N A 21
;
_chemical_formula_sum "Si O2"
_cell_formula_units_Z 28
_cell_length_a 10.755955
_cell_length_b 23.411548
_cell_length_c 4.977109
_cell_angle_alpha 90.000000
_cell_angle_beta 90.000000
_cell_angle_gamma 90.000000
_cell_volume 1253.303520
_symmetry_space_group_name_H-M "P N A 21"
_symmetry_group_IT_number 33
_symmetry_cell_setting 'orthorhombic'
loop_
_space_group_symop_operation_xyz
x,y,z
-x,-y,1/2+z
1/2-x,1/2+y,1/2+z
1/2+x,1/2-y,z
loop_
_atom_site_type_symbol
_atom_site_label
_atom_site_fract_x
_atom_site_fract_y
_atom_site_fract_z
Si Si1 0.335897 0.507698 0.920340
Si Si2 0.114948 0.823158 0.649491
Si Si3 0.727220 0.880255 0.957160
Si Si4 0.850059 0.709992 0.347055
Si Si5 0.604781 0.560589 0.919279
Si Si6 0.514502 0.795516 0.839218
Si Si7 0.646313 0.335952 0.955068
O O1 0.220830 0.552270 0.879812
O O2 0.458674 0.547151 0.897224
O O3 0.337262 0.457141 0.703622
O O4 0.321810 0.477483 0.204265
O O5 0.231297 0.825547 0.445309
O O6 0.130137 0.872614 0.871416
O O7 0.091037 0.764549 0.822473
O O8 0.002848 0.837816 0.443642
O O9 0.594763 0.849349 0.939198
O O10 0.819248 0.846795 0.761845
O O11 0.787891 0.880234 0.255089
O O12 0.966178 0.693838 0.537978
O O13 0.802522 0.774340 0.377912
O O14 0.894853 0.704304 0.038304
#
# Coordination Sequence:
#
# PCOD8171138 Si02
#       7
#     4   4   4   4   4   4   4
#     4  10  22  38  58  93 127 164 208 265 323 399
#     4  11  24  43  67  95 141 172 211 281 337 395
#     4  12  22  42  65  90 131 170 214 267 324 398
#     4  11  25  41  60  95 134 171 223 259 324 402
#     4  10  22  37  60  93 130 160 212 263 330 385
#     4  11  26  42  63  96 132 176 220 263 327 404
#     4  11  23  37  61  96 125 173 202 262 337 387
#
# _framework density 22.340955000000001
#
# number of rings (size 3 to 8) (size 9 to 14) (size 15 to 20)
#    0.000    1.143    2.857    3.429    6.000    3.429 
#    0.000    0.000    0.000    3.429    0.000    0.000 
#    0.000    0.000    0.000    0.000    0.000    0.000 
#
# Total GULP energy -347119.797113 kJ/mol
# GULP energy per Si atom -12397.135611 kJ/mol
# Density = 2.229011 g / cm^3
# Si number density = 22.340955 Si / 1000 Ang^3
#
#
#
# Elastic Constant Matrix: (Units=GPa)
#
#
# Indices 1 2 3 4 5 6 
#
# 1 67.0220 21.2598 12.1633 0.0000 0.0000 0.0000
# 2 21.2598 46.8297 -9.9503 0.0000 0.0000 0.0000
# 3 12.1633 -9.9503 71.6804 0.0000 0.0000 0.0000
# 4 0.0000 0.0000 0.0000 20.7682 0.0000 0.0000
# 5 0.0000 0.0000 0.0000 0.0000 22.8779 0.0000
# 6 0.0000 0.0000 0.0000 0.0000 0.0000 27.2919
#
#
#
# Elastic Compliance Matrix: (Units=1/GPa)
#
#
# Indices 1 2 3 4 5 6 
#
# 1 0.018737 -0.009461 -0.004493 0.000000 0.000000 0.000000
# 2 -0.009461 0.026780 0.005323 0.000000 0.000000 0.000000
# 3 -0.004493 0.005323 0.015452 0.000000 0.000000 0.000000
# 4 0.000000 0.000000 0.000000 0.048150 0.000000 0.000000
# 5 0.000000 0.000000 0.000000 0.000000 0.043710 0.000000
# 6 0.000000 0.000000 0.000000 0.000000 0.000000 0.036641
#
#
# Mechanical properties :
#
#
# Convention : Reuss Voigt Hill
#
# Bulk Modulus (GPa) = 22.87936 25.83088 24.35512
# Shear Modulus (GPa) = 22.59366 24.99156 23.79261
#
# Velocity S-wave (km/s) = 3.18356 3.34824 3.26694
# Velocity P-wave (km/s) = 4.87613 5.15120 5.01555
#
# Compressibility (1/GPa) = 0.04370751
#
# Stress axis : x y z
#
# Youngs Moduli (GPa) = 53.37086 37.34141 64.71634
#
# Poissons Ratio (x) = 0.35328 0.29075
# Poissons Ratio (y) = 0.50493 -0.34447
# Poissons Ratio (z) = 0.23978 -0.19876
#
# Static dielectric constant tensor:
#      x y z
#    x 3.737320 0.000000 0.000000 
#    y 0.000000 3.995750 0.000000 
#    z 0.000000 0.000000 4.094410 
# 
# 
# High freq. dielectric constant tensor:
#      x y z
#    x 1.844020 0.000000 0.000000 
#    y 0.000000 1.872900 0.000000 
#    z 0.000000 0.000000 1.894240 
# 
# From -- ./inp_files/988.got.cif
#   From: 2010.03.12/outbox.cif.g09.slc.cpg/sg33_1_cif.got.tgz:988.got - 2010.04.14 01:49:19.
