data_PCOD8171467
_publ_section_title
;
Structure prediction by ZEFSAII (Michael W. Deem and Ramdas Pophale) SiO2 
 PCOD8171467
Probable space group: P N A 21
;
_chemical_formula_sum "Si O2"
_cell_formula_units_Z 24
_cell_length_a 21.913128
_cell_length_b 5.356654
_cell_length_c 8.449491
_cell_angle_alpha 90.000000
_cell_angle_beta 90.000000
_cell_angle_gamma 90.000000
_cell_volume 991.810081
_symmetry_space_group_name_H-M "P N A 21"
_symmetry_group_IT_number 33
_symmetry_cell_setting 'orthorhombic'
loop_
_space_group_symop_operation_xyz
x,y,z
-x,-y,1/2+z
1/2-x,1/2+y,1/2+z
1/2+x,1/2-y,z
loop_
_atom_site_type_symbol
_atom_site_label
_atom_site_fract_x
_atom_site_fract_y
_atom_site_fract_z
Si Si1 0.199476 0.167780 0.877800
Si Si2 0.023158 0.892139 0.255730
Si Si3 0.408834 0.892078 0.239323
Si Si4 0.922913 0.619020 0.881003
Si Si5 0.602307 0.707420 0.980707
Si Si6 0.311923 0.954793 0.685863
O O1 0.164058 0.375162 0.773217
O O2 0.146309 0.964957 0.879322
O O3 0.258740 0.078037 0.787972
O O4 0.216033 0.267081 0.053895
O O5 0.047076 0.613081 0.292271
O O6 0.949299 0.863489 0.262039
O O7 0.039764 0.120808 0.370627
O O8 0.051128 0.947591 0.080483
O O9 0.433098 0.100151 0.364098
O O10 0.417349 0.977220 0.059923
O O11 0.856428 0.688732 0.807974
O O12 0.648394 0.834861 0.103946
#
# Coordination Sequence:
#
# PCOD8171467 Si02
#       6
#     4   4   4   4   4   4
#     4  11  25  44  70  97 142 188 242 298 362 426
#     4  11  25  47  74 101 153 185 240 299 362 432
#     4  11  27  41  72 107 139 189 245 293 368 434
#     4  11  26  46  72 108 140 193 238 300 362 428
#     4  10  24  46  66 102 141 190 238 297 366 427
#     4  10  25  44  68  99 141 187 243 299 356 433
#
# _framework density 24.198181000000002
#
# number of rings (size 3 to 8) (size 9 to 14) (size 15 to 20)
#    0.000    1.333    1.667    1.000   11.667    2.667 
#    0.000    0.000    0.000    0.000    0.000    0.000 
#    0.000    0.000    0.000    0.000    0.000    0.000 
#
# Total GULP energy -297449.412599 kJ/mol
# GULP energy per Si atom -12393.725525 kJ/mol
# Density = 2.414310 g / cm^3
# Si number density = 24.198181 Si / 1000 Ang^3
#
#
#
# Elastic Constant Matrix: (Units=GPa)
#
#
# Indices 1 2 3 4 5 6 
#
# 1 116.9388 24.1066 52.3563 0.0000 0.0000 0.0000
# 2 24.1066 81.0412 15.1764 0.0000 0.0000 0.0000
# 3 52.3563 15.1764 127.0623 0.0000 0.0000 0.0000
# 4 0.0000 0.0000 0.0000 19.4802 0.0000 0.0000
# 5 0.0000 0.0000 0.0000 0.0000 36.6845 0.0000
# 6 0.0000 0.0000 0.0000 0.0000 0.0000 25.6699
#
#
#
# Elastic Compliance Matrix: (Units=1/GPa)
#
#
# Indices 1 2 3 4 5 6 
#
# 1 0.010948 -0.002467 -0.004216 0.000000 0.000000 0.000000
# 2 -0.002467 0.013178 -0.000557 0.000000 0.000000 0.000000
# 3 -0.004216 -0.000557 0.009674 0.000000 0.000000 0.000000
# 4 0.000000 0.000000 0.000000 0.051334 0.000000 0.000000
# 5 0.000000 0.000000 0.000000 0.000000 0.027259 0.000000
# 6 0.000000 0.000000 0.000000 0.000000 0.000000 0.038956
#
#
# Mechanical properties :
#
#
# Convention : Reuss Voigt Hill
#
# Bulk Modulus (GPa) = 51.76532 56.48010 54.12271
# Shear Modulus (GPa) = 29.02417 31.92712 30.47565
#
# Velocity S-wave (km/s) = 3.46704 3.63630 3.55268
# Velocity P-wave (km/s) = 6.12094 6.40480 6.26448
#
# Compressibility (1/GPa) = 0.01931795
#
# Stress axis : x y z
#
# Youngs Moduli (GPa) = 91.34235 75.88625 103.36862
#
# Poissons Ratio (x) = 0.18721 0.43585
# Poissons Ratio (y) = 0.22534 0.05762
# Poissons Ratio (z) = 0.38514 0.04230
#
# Static dielectric constant tensor:
#      x y z
#    x 4.443670 0.000000 0.000000 
#    y 0.000000 4.152640 0.000000 
#    z 0.000000 0.000000 4.587510 
# 
# 
# High freq. dielectric constant tensor:
#      x y z
#    x 1.970720 0.000000 0.000000 
#    y 0.000000 1.950070 0.000000 
#    z 0.000000 0.000000 1.971210 
# 
# From -- ./inp_files/5104.got.cif
#   From: 2010.03.12/outbox.cif.g09.slc.cpg/sg33_3_cif.got.tgz:5104.got - 2010.04.14 01:49:19.
