data_PCOD8171525
_publ_section_title
;
Structure prediction by ZEFSAII (Michael W. Deem and Ramdas Pophale) SiO2 
 PCOD8171525
Probable space group: P N A 21
;
_chemical_formula_sum "Si O2"
_cell_formula_units_Z 32
_cell_length_a 8.768527
_cell_length_b 11.524876
_cell_length_c 15.001528
_cell_angle_alpha 90.000000
_cell_angle_beta 90.000000
_cell_angle_gamma 90.000000
_cell_volume 1515.997210
_symmetry_space_group_name_H-M "P N A 21"
_symmetry_group_IT_number 33
_symmetry_cell_setting 'orthorhombic'
loop_
_space_group_symop_operation_xyz
x,y,z
-x,-y,1/2+z
1/2-x,1/2+y,1/2+z
1/2+x,1/2-y,z
loop_
_atom_site_type_symbol
_atom_site_label
_atom_site_fract_x
_atom_site_fract_y
_atom_site_fract_z
Si Si1 0.110547 0.944155 0.905980
Si Si2 0.245258 0.804318 0.277622
Si Si3 0.839953 0.678115 0.475924
Si Si4 0.368002 0.890934 0.110854
Si Si5 0.171144 0.598805 0.500454
Si Si6 0.352863 0.521926 0.038594
Si Si7 0.148278 0.732921 0.014194
Si Si8 0.924239 0.912897 0.238775
O O1 0.110778 0.803977 0.922342
O O2 0.275228 0.001956 0.928549
O O3 0.069457 0.974750 0.803918
O O4 0.993043 0.006505 0.973963
O O5 0.269018 0.839978 0.378964
O O6 0.368636 0.875605 0.217474
O O7 0.277564 0.666838 0.263115
O O8 0.072780 0.833717 0.251350
O O9 0.801846 0.804915 0.515567
O O10 0.768239 0.582284 0.541326
O O11 0.021189 0.665667 0.467380
O O12 0.208941 0.831296 0.081380
O O13 0.502564 0.825326 0.059563
O O14 0.366273 0.028548 0.091159
O O15 0.411071 0.542838 0.138323
O O16 0.273767 0.635516 0.996033
#
# Coordination Sequence:
#
# PCOD8171525 Si02
#       8
#     4   4   4   4   4   4   4   4
#     4  11  23  43  66 101 138 175 225 284 347 406
#     4  12  23  40  65 103 129 169 232 291 326 404
#     4  12  24  42  66  97 140 178 220 278 354 402
#     4  11  22  39  67  99 129 170 227 277 336 390
#     4  11  24  41  66  98 136 180 218 276 346 410
#     4  12  24  43  69  98 138 180 229 282 348 405
#     4  11  21  40  68  95 134 173 220 283 335 399
#     4  12  25  40  69 103 134 183 231 289 342 408
#
# _framework density 21.108218000000001
#
# number of rings (size 3 to 8) (size 9 to 14) (size 15 to 20)
#    0.000    0.500    6.250    3.750    0.000    0.000 
#    0.000    1.250    2.750    0.000    0.000    0.000 
#    0.000    0.000    0.000    0.000    0.000    0.000 
#
# Total GULP energy -396731.356818 kJ/mol
# GULP energy per Si atom -12397.854901 kJ/mol
# Density = 2.106017 g / cm^3
# Si number density = 21.108218 Si / 1000 Ang^3
#
#
#
# Elastic Constant Matrix: (Units=GPa)
#
#
# Indices 1 2 3 4 5 6 
#
# 1 97.4104 42.2920 33.4557 0.0000 0.0000 0.0000
# 2 42.2920 126.5679 50.1410 0.0000 0.0000 0.0000
# 3 33.4557 50.1410 103.7602 0.0000 0.0000 0.0000
# 4 0.0000 0.0000 0.0000 32.4706 0.0000 0.0000
# 5 0.0000 0.0000 0.0000 0.0000 21.3788 0.0000
# 6 0.0000 0.0000 0.0000 0.0000 0.0000 37.9689
#
#
#
# Elastic Compliance Matrix: (Units=1/GPa)
#
#
# Indices 1 2 3 4 5 6 
#
# 1 0.012507 -0.003193 -0.002490 0.000000 0.000000 0.000000
# 2 -0.003193 0.010587 -0.004086 0.000000 0.000000 0.000000
# 3 -0.002490 -0.004086 0.012415 0.000000 0.000000 0.000000
# 4 0.000000 0.000000 0.000000 0.030797 0.000000 0.000000
# 5 0.000000 0.000000 0.000000 0.000000 0.046775 0.000000
# 6 0.000000 0.000000 0.000000 0.000000 0.000000 0.026337
#
#
# Mechanical properties :
#
#
# Convention : Reuss Voigt Hill
#
# Bulk Modulus (GPa) = 62.61422 64.39065 63.50244
# Shear Modulus (GPa) = 30.43575 31.82030 31.12803
#
# Velocity S-wave (km/s) = 3.80134 3.88685 3.84433
# Velocity P-wave (km/s) = 6.99963 7.12142 7.06079
#
# Compressibility (1/GPa) = 0.01597081
#
# Stress axis : x y z
#
# Youngs Moduli (GPa) = 79.95400 94.45876 80.54699
#
# Poissons Ratio (x) = 0.30159 0.20055
# Poissons Ratio (y) = 0.25528 0.32915
# Poissons Ratio (z) = 0.19907 0.38600
#
# Static dielectric constant tensor:
#      x y z
#    x 4.019990 0.000000 0.000000 
#    y 0.000000 3.943060 0.000000 
#    z 0.000000 0.000000 3.757870 
# 
# 
# High freq. dielectric constant tensor:
#      x y z
#    x 1.844780 0.000000 0.000000 
#    y 0.000000 1.823080 0.000000 
#    z 0.000000 0.000000 1.802390 
# 
# From -- ./inp_files/7668.got.cif
#   From: 2010.03.12/outbox.cif.g09.slc.cpg/sg33_4_cif.got.tgz:7668.got - 2010.04.14 01:49:19.
