data_PCOD8171356
_publ_section_title
;
Structure prediction by ZEFSAII (Michael W. Deem and Ramdas Pophale) SiO2 
 PCOD8171356
Probable space group: P N A 21
;
_chemical_formula_sum "Si O2"
_cell_formula_units_Z 28
_cell_length_a 13.444023
_cell_length_b 13.874783
_cell_length_c 6.448494
_cell_angle_alpha 90.000000
_cell_angle_beta 90.000000
_cell_angle_gamma 90.000000
_cell_volume 1202.856298
_symmetry_space_group_name_H-M "P N A 21"
_symmetry_group_IT_number 33
_symmetry_cell_setting 'orthorhombic'
loop_
_space_group_symop_operation_xyz
x,y,z
-x,-y,1/2+z
1/2-x,1/2+y,1/2+z
1/2+x,1/2-y,z
loop_
_atom_site_type_symbol
_atom_site_label
_atom_site_fract_x
_atom_site_fract_y
_atom_site_fract_z
Si Si1 0.445032 0.384514 0.393870
Si Si2 0.076415 0.414837 0.299991
Si Si3 0.069646 0.630150 0.453968
Si Si4 0.207720 0.133990 0.896881
Si Si5 0.063544 0.266777 0.639031
Si Si6 0.720170 0.556509 0.629372
Si Si7 0.375630 0.511103 0.733243
O O1 0.509353 0.292190 0.455194
O O2 0.368381 0.368981 0.200029
O O3 0.380850 0.416894 0.591052
O O4 0.518750 0.473555 0.344290
O O5 0.061750 0.527469 0.340918
O O6 0.098902 0.362617 0.518994
O O7 0.171215 0.395062 0.149011
O O8 0.978067 0.375534 0.183638
O O9 0.182595 0.668838 0.463284
O O10 0.012373 0.709326 0.320539
O O11 0.155716 0.211361 0.745790
O O12 0.214405 0.032945 0.782778
O O13 0.149236 0.110803 0.110758
O O14 0.709198 0.516849 0.397584
#
# Coordination Sequence:
#
# PCOD8171356 Si02
#       7
#     4   4   4   4   4   4   4
#     4  11  22  39  67 105 139 184 228 299 357 425
#     4  11  26  48  70  98 138 195 245 291 361 436
#     4  11  26  48  71  99 140 192 236 303 364 417
#     4  10  25  43  70 107 139 186 234 301 355 427
#     4  12  26  45  70 103 146 181 254 294 350 437
#     4  10  23  42  74 100 140 186 234 289 372 431
#     4  11  20  41  70 102 148 178 227 289 375 423
#
# _framework density 23.277926999999998
#
# number of rings (size 3 to 8) (size 9 to 14) (size 15 to 20)
#    0.000    1.143    4.286    0.857    6.000    1.143 
#    2.571    0.000    0.000    0.000    0.000    0.000 
#    0.000    0.000    0.000    0.000    0.000    0.000 
#
# Total GULP energy -347188.338194 kJ/mol
# GULP energy per Si atom -12399.583507 kJ/mol
# Density = 2.322495 g / cm^3
# Si number density = 23.277927 Si / 1000 Ang^3
#
#
#
# Elastic Constant Matrix: (Units=GPa)
#
#
# Indices 1 2 3 4 5 6 
#
# 1 141.6153 26.9528 39.0936 0.0000 0.0000 0.0000
# 2 26.9528 49.2373 13.4126 0.0000 0.0000 0.0000
# 3 39.0936 13.4126 99.0959 0.0000 0.0000 0.0000
# 4 0.0000 0.0000 0.0000 39.9085 0.0000 0.0000
# 5 0.0000 0.0000 0.0000 0.0000 36.8541 0.0000
# 6 0.0000 0.0000 0.0000 0.0000 0.0000 26.0709
#
#
#
# Elastic Compliance Matrix: (Units=1/GPa)
#
#
# Indices 1 2 3 4 5 6 
#
# 1 0.008599 -0.003928 -0.002861 0.000000 0.000000 0.000000
# 2 -0.003928 0.022881 -0.001548 0.000000 0.000000 0.000000
# 3 -0.002861 -0.001548 0.011429 0.000000 0.000000 0.000000
# 4 0.000000 0.000000 0.000000 0.025057 0.000000 0.000000
# 5 0.000000 0.000000 0.000000 0.000000 0.027134 0.000000
# 6 0.000000 0.000000 0.000000 0.000000 0.000000 0.038357
#
#
# Mechanical properties :
#
#
# Convention : Reuss Voigt Hill
#
# Bulk Modulus (GPa) = 38.11313 49.87405 43.99359
# Shear Modulus (GPa) = 31.47132 34.59933 33.03532
#
# Velocity S-wave (km/s) = 3.68092 3.85951 3.77127
# Velocity P-wave (km/s) = 5.87147 6.42908 6.15659
#
# Compressibility (1/GPa) = 0.02623768
#
# Stress axis : x y z
#
# Youngs Moduli (GPa) = 116.29821 43.70360 87.49528
#
# Poissons Ratio (x) = 0.17165 0.25028
# Poissons Ratio (y) = 0.45678 0.13540
# Poissons Ratio (z) = 0.33268 0.06763
#
# Static dielectric constant tensor:
#      x y z
#    x 4.436810 0.000000 0.000000 
#    y 0.000000 3.912550 0.000000 
#    z 0.000000 0.000000 4.156610 
# 
# 
# High freq. dielectric constant tensor:
#      x y z
#    x 1.924390 0.000000 0.000000 
#    y 0.000000 1.902980 0.000000 
#    z 0.000000 0.000000 1.928910 
# 
# From -- ./inp_files/1417.got.cif
#   From: 2010.03.12/outbox.cif.g09.slc.cpg/sg33_1_cif.got.tgz:1417.got - 2010.04.14 01:49:19.
