data_PCOD8171838
_publ_section_title
;
Structure prediction by ZEFSAII (Michael W. Deem and Ramdas Pophale) SiO2 
 PCOD8171838
Probable space group: P N N 2
;
_chemical_formula_sum "Si O2"
_cell_formula_units_Z 30
_cell_length_a 8.787725
_cell_length_b 5.149190
_cell_length_c 30.560237
_cell_angle_alpha 90.000000
_cell_angle_beta 90.000000
_cell_angle_gamma 90.000000
_cell_volume 1382.840508
_symmetry_space_group_name_H-M "P N N 2"
_symmetry_group_IT_number 34
_symmetry_cell_setting 'orthorhombic'
loop_
_space_group_symop_operation_xyz
x,y,z
-x,-y,z
1/2-x,1/2+y,1/2+z
1/2+x,1/2-y,1/2+z
loop_
_atom_site_type_symbol
_atom_site_label
_atom_site_fract_x
_atom_site_fract_y
_atom_site_fract_z
Si Si1 0.820322 0.491592 0.087780
Si Si2 0.843329 0.908165 0.316340
Si Si3 0.180075 0.520339 0.729365
Si Si4 0.000000 0.500000 0.375746
Si Si5 0.245617 0.986626 0.937903
Si Si6 0.818690 0.486174 0.187139
Si Si7 0.162163 0.449691 0.893315
Si Si8 0.818092 0.995967 0.036030
O O1 0.766369 0.442422 0.137319
O O2 0.758604 0.252332 0.059935
O O3 0.000000 0.500000 0.087563
O O4 0.760795 0.756489 0.065765
O O5 0.720785 0.877839 0.278121
O O6 0.885786 0.654873 0.344102
O O7 0.778906 0.107902 0.352908
O O8 0.000000 0.000000 0.294055
O O9 0.246146 0.736038 0.697380
O O10 0.000000 0.500000 0.724708
O O11 0.254129 0.241358 0.718206
O O12 0.113633 0.628797 0.411765
O O13 0.218413 0.691454 0.923103
O O14 0.119773 0.200270 0.923786
O O15 0.267147 0.005249 0.989730
O O16 0.000000 0.500000 0.193276
O O17 0.000000 0.500000 0.870369
O O18 0.000000 0.000000 0.028925
#
# Coordination Sequence:
#
# PCOD8171838 Si02
#       8
#     4   4   4   2   4   4   4   4
#     4   9  19  35  62  92 125 157 210 267 323 382
#     4  11  23  42  64  90 125 172 223 266 328 383
#     4  12  27  43  68 100 137 173 220 283 338 409
#     4  10  24  42  62  88 128 178 216 284 306 398
#     4  11  22  37  60  86 129 166 217 258 329 368
#     4  11  23  45  71 102 131 176 223 274 339 406
#     4  11  22  37  58  88 124 165 208 267 323 377
#     4  10  18  32  57  93 125 162 206 267 318 383
#
# _framework density 21.694479000000001
#
# number of rings (size 3 to 8) (size 9 to 14) (size 15 to 20)
#    0.000    1.333    1.333    4.800    2.800    3.200 
#    0.000    2.667    8.800    0.000    0.000    0.000 
#    0.000    0.000    0.000    0.000    0.000    0.000 
#
# Total GULP energy -371646.421527 kJ/mol
# GULP energy per Si atom -12388.214051 kJ/mol
# Density = 2.164510 g / cm^3
# Si number density = 21.694479 Si / 1000 Ang^3
#
#
#
# Elastic Constant Matrix: (Units=GPa)
#
#
# Indices 1 2 3 4 5 6 
#
# 1 82.6853 19.7382 39.3739 0.0000 0.0000 0.0000
# 2 19.7382 123.7990 44.8633 0.0000 0.0000 0.0000
# 3 39.3739 44.8633 148.6778 0.0000 0.0000 0.0000
# 4 0.0000 0.0000 0.0000 41.6731 0.0000 0.0000
# 5 0.0000 0.0000 0.0000 0.0000 -10.5602 0.0000
# 6 0.0000 0.0000 0.0000 0.0000 0.0000 22.1741
#
#
#
# Elastic Compliance Matrix: (Units=1/GPa)
#
#
# Indices 1 2 3 4 5 6 
#
# 1 0.013947 -0.000994 -0.003394 0.000000 0.000000 0.000000
# 2 -0.000994 0.009140 -0.002495 0.000000 0.000000 0.000000
# 3 -0.003394 -0.002495 0.008378 0.000000 0.000000 0.000000
# 4 0.000000 0.000000 0.000000 0.023996 0.000000 0.000000
# 5 0.000000 0.000000 0.000000 0.000000 -0.094695 0.000000
# 6 0.000000 0.000000 0.000000 0.000000 0.000000 0.045098
#
#
# Mechanical properties :
#
#
# Convention : Reuss Voigt Hill
#
# Bulk Modulus (GPa) = 56.49668 62.56812 59.53240
# Shear Modulus (GPa) = 195.85996 27.40320 111.63158
#
# Velocity S-wave (km/s) = 9.51194 3.55793 7.18108
# Velocity P-wave (km/s) = 12.11340 6.76621 9.81112
#
# Compressibility (1/GPa) = 0.01770016
#
# Stress axis : x y z
#
# Youngs Moduli (GPa) = 71.69813 109.40720 119.36710
#
# Poissons Ratio (x) = 0.10874 0.40510
# Poissons Ratio (y) = 0.07126 0.29780
# Poissons Ratio (z) = 0.24332 0.27295
#
# Static dielectric constant tensor:
#      x y z
#    x 4.063220 0.000000 0.000000 
#    y 0.000000 4.003440 0.000000 
#    z 0.000000 0.000000 3.968660 
# 
# 
# High freq. dielectric constant tensor:
#      x y z
#    x 1.836600 0.000000 0.000000 
#    y 0.000000 1.859150 0.000000 
#    z 0.000000 0.000000 1.861220 
# 
# From -- ./inp_files/8685.got.cif
#   From: 2010.03.12/outbox.cif.g09.slc.cpg/sg34_5_cif.got.tgz:8685.got - 2010.04.14 01:56:33.
