data_PCOD8171377
_publ_section_title
;
Structure prediction by ZEFSAII (Michael W. Deem and Ramdas Pophale) SiO2 
 PCOD8171377
Probable space group: P N A 21
;
_chemical_formula_sum "Si O2"
_cell_formula_units_Z 20
_cell_length_a 14.625051
_cell_length_b 8.180638
_cell_length_c 7.590839
_cell_angle_alpha 90.000000
_cell_angle_beta 90.000000
_cell_angle_gamma 90.000000
_cell_volume 908.185042
_symmetry_space_group_name_H-M "P N A 21"
_symmetry_group_IT_number 33
_symmetry_cell_setting 'orthorhombic'
loop_
_space_group_symop_operation_xyz
x,y,z
-x,-y,1/2+z
1/2-x,1/2+y,1/2+z
1/2+x,1/2-y,z
loop_
_atom_site_type_symbol
_atom_site_label
_atom_site_fract_x
_atom_site_fract_y
_atom_site_fract_z
Si Si1 0.801442 0.387909 0.185340
Si Si2 0.605269 0.869707 0.030377
Si Si3 0.928932 0.490141 0.901070
Si Si4 0.066998 0.847582 0.533602
Si Si5 0.390388 0.487271 0.682548
O O1 0.820575 0.436607 0.389088
O O2 0.848621 0.208907 0.159819
O O3 0.693677 0.389930 0.142100
O O4 0.847918 0.514876 0.044904
O O5 0.606970 0.992157 0.199163
O O6 0.626760 0.684320 0.085064
O O7 0.506287 0.873205 0.931700
O O8 0.974682 0.310887 0.932436
O O9 0.110390 0.968866 0.392216
O O10 0.987088 0.934874 0.638013
#
# Coordination Sequence:
#
# PCOD8171377 Si02
#       5
#     4   4   4   4   4
#     4  10  23  44  65 101 138 176 225 276 339 405
#     4  11  20  43  70  96 134 181 222 281 336 393
#     4   9  20  41  68  97 132 177 221 271 349 390
#     4   9  22  43  66  97 136 177 216 286 331 394
#     4  11  23  45  69 103 136 179 234 274 339 408
#
# _framework density 22.021944000000001
#
# number of rings (size 3 to 8) (size 9 to 14) (size 15 to 20)
#    1.200    0.800    2.000    1.200    0.000    1.600 
#   18.000    0.000    0.000    0.000    0.000    0.000 
#    0.000    0.000    0.000    0.000    0.000    0.000 
#
# Total GULP energy -247794.426763 kJ/mol
# GULP energy per Si atom -12389.721338 kJ/mol
# Density = 2.197182 g / cm^3
# Si number density = 22.021944 Si / 1000 Ang^3
#
#
#
# Elastic Constant Matrix: (Units=GPa)
#
#
# Indices 1 2 3 4 5 6 
#
# 1 136.4375 48.1696 44.8062 0.0000 0.0000 0.0000
# 2 48.1696 38.4187 27.8249 0.0000 0.0000 0.0000
# 3 44.8062 27.8249 156.3080 0.0000 0.0000 0.0000
# 4 0.0000 0.0000 0.0000 25.6851 0.0000 0.0000
# 5 0.0000 0.0000 0.0000 0.0000 27.6677 0.0000
# 6 0.0000 0.0000 0.0000 0.0000 0.0000 29.7325
#
#
#
# Elastic Compliance Matrix: (Units=1/GPa)
#
#
# Indices 1 2 3 4 5 6 
#
# 1 0.013277 -0.015946 -0.000967 0.000000 0.000000 0.000000
# 2 -0.015946 0.049033 -0.004158 0.000000 0.000000 0.000000
# 3 -0.000967 -0.004158 0.007415 0.000000 0.000000 0.000000
# 4 0.000000 0.000000 0.000000 0.038933 0.000000 0.000000
# 5 0.000000 0.000000 0.000000 0.000000 0.036143 0.000000
# 6 0.000000 0.000000 0.000000 0.000000 0.000000 0.033633
#
#
# Mechanical properties :
#
#
# Convention : Reuss Voigt Hill
#
# Bulk Modulus (GPa) = 36.25359 63.64060 49.94710
# Shear Modulus (GPa) = 21.76081 30.64130 26.20105
#
# Velocity S-wave (km/s) = 3.14688 3.73419 3.45305
# Velocity P-wave (km/s) = 5.44996 6.89592 6.21513
#
# Compressibility (1/GPa) = 0.02758347
#
# Stress axis : x y z
#
# Youngs Moduli (GPa) = 75.31943 20.39426 134.86186
#
# Poissons Ratio (x) = 0.32521 0.13044
# Poissons Ratio (y) = 1.20104 0.56070
# Poissons Ratio (z) = 0.07285 0.08479
#
# Static dielectric constant tensor:
#      x y z
#    x 3.562800 0.000000 0.000000 
#    y 0.000000 3.623650 0.000000 
#    z 0.000000 0.000000 4.192380 
# 
# 
# High freq. dielectric constant tensor:
#      x y z
#    x 1.845430 0.000000 0.000000 
#    y 0.000000 1.831300 0.000000 
#    z 0.000000 0.000000 1.885080 
# 
# From -- ./inp_files/4194.got.cif
#   From: 2010.03.12/outbox.cif.g09.slc.cpg/sg33_3_cif.got.tgz:4194.got - 2010.04.14 01:49:19.
