data_PCOD8171758
_publ_section_title
;
Structure prediction by ZEFSAII (Michael W. Deem and Ramdas Pophale) SiO2 
 PCOD8171758
Probable space group: P N A 21
;
_chemical_formula_sum "Si O2"
_cell_formula_units_Z 32
_cell_length_a 10.713482
_cell_length_b 21.454665
_cell_length_c 5.505220
_cell_angle_alpha 90.000000
_cell_angle_beta 90.000000
_cell_angle_gamma 90.000000
_cell_volume 1265.397759
_symmetry_space_group_name_H-M "P N A 21"
_symmetry_group_IT_number 33
_symmetry_cell_setting 'orthorhombic'
loop_
_space_group_symop_operation_xyz
x,y,z
-x,-y,1/2+z
1/2-x,1/2+y,1/2+z
1/2+x,1/2-y,z
loop_
_atom_site_type_symbol
_atom_site_label
_atom_site_fract_x
_atom_site_fract_y
_atom_site_fract_z
Si Si1 0.372658 0.479743 0.285480
Si Si2 0.590378 0.842625 0.751079
Si Si3 0.688032 0.295384 0.975667
Si Si4 0.337630 0.050342 0.544774
Si Si5 0.233503 0.886323 0.115059
Si Si6 0.005819 0.900666 0.435468
Si Si7 0.873765 0.724703 0.965533
Si Si8 0.536912 0.072115 0.912530
O O1 0.291778 0.515046 0.083007
O O2 0.280717 0.455096 0.496292
O O3 0.479075 0.527276 0.364968
O O4 0.430401 0.413257 0.196491
O O5 0.663966 0.805488 0.535829
O O6 0.518592 0.798973 0.949393
O O7 0.480959 0.888976 0.659393
O O8 0.690393 0.888554 0.881442
O O9 0.620599 0.361951 0.944035
O O10 0.659068 0.257960 0.725589
O O11 0.634869 0.265813 0.222555
O O12 0.402390 0.077636 0.784729
O O13 0.434579 0.001076 0.431542
O O14 0.105791 0.868881 0.256435
O O15 0.352154 0.890263 0.288685
O O16 0.269609 0.829676 0.935346
#
# Coordination Sequence:
#
# PCOD8171758 Si02
#       8
#     4   4   4   4   4   4   4   4
#     4  12  27  47  78 121 160 209 263 338 427 510
#     4  12  29  50  81 114 164 207 281 344 414 501
#     4  12  34  53  86 117 166 225 284 350 413 498
#     4  12  24  41  76 115 164 202 261 333 428 498
#     4  12  27  49  82 114 159 215 275 348 409 504
#     4  12  29  49  79 116 169 211 274 338 433 508
#     4  12  31  56  81 121 158 226 290 347 411 486
#     4  12  23  45  73 122 154 207 256 336 419 501
#
# _framework density 25.288492999999999
#
# number of rings (size 3 to 8) (size 9 to 14) (size 15 to 20)
#    0.000    0.000    5.000    3.000   14.000    0.000 
#    0.000    0.000    0.000    0.000    0.000    0.000 
#    0.000    0.000    0.000    0.000    0.000    0.000 
#
# Total GULP energy -396517.775882 kJ/mol
# GULP energy per Si atom -12391.180496 kJ/mol
# Density = 2.523093 g / cm^3
# Si number density = 25.288493 Si / 1000 Ang^3
#
#
#
# Elastic Constant Matrix: (Units=GPa)
#
#
# Indices 1 2 3 4 5 6 
#
# 1 112.9454 38.8324 28.5704 0.0000 0.0000 0.0000
# 2 38.8324 104.0432 41.7113 0.0000 0.0000 0.0000
# 3 28.5704 41.7113 109.3879 0.0000 0.0000 0.0000
# 4 0.0000 0.0000 0.0000 49.6744 0.0000 0.0000
# 5 0.0000 0.0000 0.0000 0.0000 42.9331 0.0000
# 6 0.0000 0.0000 0.0000 0.0000 0.0000 42.1010
#
#
#
# Elastic Compliance Matrix: (Units=1/GPa)
#
#
# Indices 1 2 3 4 5 6 
#
# 1 0.010349 -0.003280 -0.001452 0.000000 0.000000 0.000000
# 2 -0.003280 0.012386 -0.003866 0.000000 0.000000 0.000000
# 3 -0.001452 -0.003866 0.010995 0.000000 0.000000 0.000000
# 4 0.000000 0.000000 0.000000 0.020131 0.000000 0.000000
# 5 0.000000 0.000000 0.000000 0.000000 0.023292 0.000000
# 6 0.000000 0.000000 0.000000 0.000000 0.000000 0.023752
#
#
# Mechanical properties :
#
#
# Convention : Reuss Voigt Hill
#
# Bulk Modulus (GPa) = 60.48615 60.51164 60.49889
# Shear Modulus (GPa) = 40.44862 41.42586 40.93724
#
# Velocity S-wave (km/s) = 4.00370 4.05177 4.02781
# Velocity P-wave (km/s) = 6.73373 6.77271 6.75325
#
# Compressibility (1/GPa) = 0.01653271
#
# Stress axis : x y z
#
# Youngs Moduli (GPa) = 96.62747 80.73842 90.94847
#
# Poissons Ratio (x) = 0.26486 0.13207
# Poissons Ratio (y) = 0.31698 0.35161
# Poissons Ratio (z) = 0.14031 0.31214
#
# Static dielectric constant tensor:
#      x y z
#    x 4.428240 0.000000 0.000000 
#    y 0.000000 4.778190 0.000000 
#    z 0.000000 0.000000 4.719180 
# 
# 
# High freq. dielectric constant tensor:
#      x y z
#    x 2.012220 0.000000 0.000000 
#    y 0.000000 2.012850 0.000000 
#    z 0.000000 0.000000 2.010360 
# 
# From -- ./inp_files/1048.got.cif
#   From: 2010.03.12/outbox.cif.g09.slc.cpg/sg33_1_cif.got.tgz:1048.got - 2010.04.14 01:49:19.
