data_PCOD8171222
_publ_section_title
;
Structure prediction by ZEFSAII (Michael W. Deem and Ramdas Pophale) SiO2 
 PCOD8171222
Probable space group: P N A 21
;
_chemical_formula_sum "Si O2"
_cell_formula_units_Z 32
_cell_length_a 11.270650
_cell_length_b 8.598657
_cell_length_c 15.013279
_cell_angle_alpha 90.000000
_cell_angle_beta 90.000000
_cell_angle_gamma 90.000000
_cell_volume 1454.973703
_symmetry_space_group_name_H-M "P N A 21"
_symmetry_group_IT_number 33
_symmetry_cell_setting 'orthorhombic'
loop_
_space_group_symop_operation_xyz
x,y,z
-x,-y,1/2+z
1/2-x,1/2+y,1/2+z
1/2+x,1/2-y,z
loop_
_atom_site_type_symbol
_atom_site_label
_atom_site_fract_x
_atom_site_fract_y
_atom_site_fract_z
Si Si1 0.539310 0.228445 0.058310
Si Si2 0.507937 0.429262 0.564244
Si Si3 0.741387 0.008468 0.122478
Si Si4 0.258613 0.508468 0.824980
Si Si5 0.460690 0.728445 0.889148
Si Si6 0.899722 0.250000 0.723729
Si Si7 0.373960 0.250000 0.223729
Si Si8 0.007937 0.429262 0.883214
O O1 0.568755 0.412216 0.054919
O O2 0.452399 0.197210 0.140339
O O3 0.655173 0.122610 0.068128
O O4 0.474637 0.182637 0.965468
O O5 0.648725 0.464810 0.558711
O O6 0.474637 0.317363 0.481990
O O7 0.481898 0.353990 0.660162
O O8 0.679228 0.854428 0.158602
O O9 0.791462 0.102089 0.206837
O O10 0.344827 0.622610 0.879329
O O11 0.320772 0.354428 0.788856
O O12 0.208538 0.602089 0.740621
O O13 0.148725 0.464810 0.888747
O O14 0.547601 0.697210 0.807119
O O15 0.431245 0.912216 0.892539
O O16 0.981898 0.353990 0.787296
#
# Coordination Sequence:
#
# PCOD8171222 Si02
#       8
#     4   4   4   4   4   4   4   4
#     4  11  23  42  65  91 127 164 206 256 308 366
#     4  11  25  42  64  93 126 163 207 257 307 368
#     4  11  22  41  64  91 124 165 205 252 308 366
#     4  11  22  41  64  91 124 165 205 252 308 366
#     4  11  23  42  65  91 127 164 206 256 308 366
#     4  12  24  42  64  92 126 164 206 256 308 366
#     4  10  22  42  64  90 122 162 206 256 306 364
#     4  11  25  42  64  93 126 163 207 257 307 368
#
# _framework density 21.993525999999999
#
# number of rings (size 3 to 8) (size 9 to 14) (size 15 to 20)
#    0.000    1.000    0.000    8.250    0.000    4.000 
#    0.000    7.500    0.000    0.000    0.000    0.000 
#    0.000    0.000    0.000    0.000    0.000    0.000 
#
# Total GULP energy -396856.720631 kJ/mol
# GULP energy per Si atom -12401.772520 kJ/mol
# Density = 2.194347 g / cm^3
# Si number density = 21.993526 Si / 1000 Ang^3
#
#
#
# Elastic Constant Matrix: (Units=GPa)
#
#
# Indices 1 2 3 4 5 6 
#
# 1 73.8547 34.3448 11.7195 0.0000 0.0000 0.0000
# 2 34.3448 144.9281 51.5063 0.0000 0.0000 0.0000
# 3 11.7195 51.5063 122.6338 0.0000 0.0000 0.0000
# 4 0.0000 0.0000 0.0000 48.7050 0.0000 0.0000
# 5 0.0000 0.0000 0.0000 0.0000 6.6662 0.0000
# 6 0.0000 0.0000 0.0000 0.0000 0.0000 31.4117
#
#
#
# Elastic Compliance Matrix: (Units=1/GPa)
#
#
# Indices 1 2 3 4 5 6 
#
# 1 0.015218 -0.003631 0.000071 0.000000 0.000000 0.000000
# 2 -0.003631 0.008977 -0.003423 0.000000 0.000000 0.000000
# 3 0.000071 -0.003423 0.009585 0.000000 0.000000 0.000000
# 4 0.000000 0.000000 0.000000 0.020532 0.000000 0.000000
# 5 0.000000 0.000000 0.000000 0.000000 0.150010 0.000000
# 6 0.000000 0.000000 0.000000 0.000000 0.000000 0.031835
#
#
# Mechanical properties :
#
#
# Convention : Reuss Voigt Hill
#
# Bulk Modulus (GPa) = 50.47345 59.61752 55.04548
# Shear Modulus (GPa) = 19.47581 33.61300 26.54441
#
# Velocity S-wave (km/s) = 2.97901 3.91361 3.47784
# Velocity P-wave (km/s) = 5.90184 6.89837 6.41947
#
# Compressibility (1/GPa) = 0.01981240
#
# Stress axis : x y z
#
# Youngs Moduli (GPa) = 65.71348 111.39342 104.32529
#
# Poissons Ratio (x) = 0.40452 -0.00740
# Poissons Ratio (y) = 0.23863 0.35715
# Poissons Ratio (z) = -0.00466 0.38134
#
# Static dielectric constant tensor:
#      x y z
#    x 3.877190 0.000000 0.000000 
#    y 0.000000 4.149930 0.000000 
#    z 0.000000 0.000000 3.931230 
# 
# 
# High freq. dielectric constant tensor:
#      x y z
#    x 1.854940 0.000000 0.000000 
#    y 0.000000 1.879100 0.000000 
#    z 0.000000 0.000000 1.877980 
# 
# From -- ./inp_files/7951.got.cif
#   From: 2010.03.12/outbox.cif.g09.slc.cpg/sg33_4_cif.got.tgz:7951.got - 2010.04.14 01:49:19.
