data_PCOD8171864
_publ_section_title
;
Structure prediction by ZEFSAII (Michael W. Deem and Ramdas Pophale) SiO2 
 PCOD8171864
Probable space group: P N N 2
;
_chemical_formula_sum "Si O2"
_cell_formula_units_Z 32
_cell_length_a 9.410860
_cell_length_b 15.318606
_cell_length_c 12.006807
_cell_angle_alpha 90.000000
_cell_angle_beta 90.000000
_cell_angle_gamma 90.000000
_cell_volume 1730.916383
_symmetry_space_group_name_H-M "P N N 2"
_symmetry_group_IT_number 34
_symmetry_cell_setting 'orthorhombic'
loop_
_space_group_symop_operation_xyz
x,y,z
-x,-y,z
1/2-x,1/2+y,1/2+z
1/2+x,1/2-y,1/2+z
loop_
_atom_site_type_symbol
_atom_site_label
_atom_site_fract_x
_atom_site_fract_y
_atom_site_fract_z
Si Si1 0.669469 0.499999 0.355830
Si Si2 0.667496 0.999999 0.624138
Si Si3 0.166585 0.661083 0.968892
Si Si4 0.833409 0.661083 0.968895
Si Si5 0.167485 0.854761 0.025791
Si Si6 0.161228 0.099958 0.266945
Si Si7 0.167487 0.145239 0.025793
Si Si8 0.338779 0.400036 0.766946
O O1 0.500000 0.500000 0.336857
O O2 0.746226 0.500000 0.237859
O O3 0.722840 0.585447 0.424037
O O4 0.722840 0.414549 0.424032
O O5 0.712836 0.085882 0.555021
O O6 0.500000 0.000000 0.649890
O O7 0.712831 0.914113 0.555024
O O8 0.243470 0.653884 0.851284
O O9 0.999996 0.655842 0.945698
O O10 0.214353 0.754532 0.015843
O O11 0.756515 0.653896 0.851287
O O12 0.785645 0.754531 0.015857
O O13 0.226913 0.889203 0.143573
O O14 0.999999 0.865813 0.027549
O O15 0.226918 0.110788 0.143571
O O16 0.000006 0.136021 0.271800
O O17 0.166314 0.999997 0.303241
#
# Coordination Sequence:
#
# PCOD8171864 Si02
#       8
#     4   4   4   4   4   4   4   4
#     4  10  20  37  58  78 104 139 181 222 259 308
#     4  10  22  37  52  76 112 145 171 210 267 322
#     4  10  21  37  55  77 109 145 175 210 265 321
#     4  10  21  37  55  77 109 145 175 210 265 321
#     4   9  19  36  57  79 105 140 177 218 267 311
#     4  10  19  35  59  81 103 135 180 226 262 303
#     4   9  19  36  57  79 105 140 177 218 267 311
#     4  10  19  35  59  81 103 135 180 226 262 303
#
# _framework density 18.487317000000001
#
# number of rings (size 3 to 8) (size 9 to 14) (size 15 to 20)
#    0.000    2.250    2.500    0.000    3.500    1.000 
#    0.000    2.500    0.000    0.000    0.000    0.000 
#    0.000    0.000    0.000    0.000    0.000    0.000 
#
# Total GULP energy -396780.123816 kJ/mol
# GULP energy per Si atom -12399.378869 kJ/mol
# Density = 1.844524 g / cm^3
# Si number density = 18.487317 Si / 1000 Ang^3
#
#
#
# Elastic Constant Matrix: (Units=GPa)
#
#
# Indices 1 2 3 4 5 6 
#
# 1 33.6034 27.0279 42.5910 0.0000 0.0000 0.0000
# 2 27.0279 130.2625 54.9018 0.0000 0.0000 0.0000
# 3 42.5910 54.9018 144.1113 0.0000 0.0000 0.0000
# 4 0.0000 0.0000 0.0000 30.6284 0.0000 0.0000
# 5 0.0000 0.0000 0.0000 0.0000 34.0600 0.0000
# 6 0.0000 0.0000 0.0000 0.0000 0.0000 11.9264
#
#
#
# Elastic Compliance Matrix: (Units=1/GPa)
#
#
# Indices 1 2 3 4 5 6 
#
# 1 0.050128 -0.004952 -0.012928 0.000000 0.000000 0.000000
# 2 -0.004952 0.009634 -0.002207 0.000000 0.000000 0.000000
# 3 -0.012928 -0.002207 0.011601 0.000000 0.000000 0.000000
# 4 0.000000 0.000000 0.000000 0.032649 0.000000 0.000000
# 5 0.000000 0.000000 0.000000 0.000000 0.029360 0.000000
# 6 0.000000 0.000000 0.000000 0.000000 0.000000 0.083847
#
#
# Mechanical properties :
#
#
# Convention : Reuss Voigt Hill
#
# Bulk Modulus (GPa) = 32.06288 61.89094 46.97691
# Shear Modulus (GPa) = 18.67125 27.55340 23.11233
#
# Velocity S-wave (km/s) = 3.18142 3.86475 3.53961
# Velocity P-wave (km/s) = 5.55662 7.31199 6.49389
#
# Compressibility (1/GPa) = 0.03118871
#
# Stress axis : x y z
#
# Youngs Moduli (GPa) = 19.94879 103.79444 86.20131
#
# Poissons Ratio (x) = 0.51399 1.11445
# Poissons Ratio (y) = 0.09879 0.19024
# Poissons Ratio (z) = 0.25791 0.22906
#
# Static dielectric constant tensor:
#      x y z
#    x 3.080890 0.000000 0.000000 
#    y 0.000000 3.651880 0.000000 
#    z 0.000000 0.000000 3.446400 
# 
# 
# High freq. dielectric constant tensor:
#      x y z
#    x 1.681270 0.000000 0.000000 
#    y 0.000000 1.728660 0.000000 
#    z 0.000000 0.000000 1.727900 
# 
# From -- ./inp_files/3668.got.cif
#   From: 2010.03.12/outbox.cif.g09.slc.cpg/sg34_2_cif.got.tgz:3668.got - 2010.04.14 01:56:33.
