data_PCOD8171154
_publ_section_title
;
Structure prediction by ZEFSAII (Michael W. Deem and Ramdas Pophale) SiO2 
 PCOD8171154
Probable space group: P N A 21
;
_chemical_formula_sum "Si O2"
_cell_formula_units_Z 32
_cell_length_a 8.474399
_cell_length_b 18.711295
_cell_length_c 10.486852
_cell_angle_alpha 90.000000
_cell_angle_beta 90.000000
_cell_angle_gamma 90.000000
_cell_volume 1662.868448
_symmetry_space_group_name_H-M "P N A 21"
_symmetry_group_IT_number 33
_symmetry_cell_setting 'orthorhombic'
loop_
_space_group_symop_operation_xyz
x,y,z
-x,-y,1/2+z
1/2-x,1/2+y,1/2+z
1/2+x,1/2-y,z
loop_
_atom_site_type_symbol
_atom_site_label
_atom_site_fract_x
_atom_site_fract_y
_atom_site_fract_z
Si Si1 0.012804 0.078997 0.853420
Si Si2 0.276918 0.469349 0.478445
Si Si3 0.021963 0.846761 0.092108
Si Si4 0.504981 0.346558 0.119408
Si Si5 0.488051 0.115917 0.367627
Si Si6 0.305988 0.782593 0.722942
Si Si7 0.790745 0.275722 0.493080
Si Si8 0.297513 0.534814 0.743043
O O1 0.034262 0.129732 0.731480
O O2 0.162683 0.027320 0.875765
O O3 0.996828 0.130421 0.973266
O O4 0.858760 0.030178 0.830509
O O5 0.417687 0.413400 0.508203
O O6 0.226018 0.506405 0.610336
O O7 0.123981 0.434382 0.419088
O O8 0.159344 0.785897 0.094135
O O9 0.871367 0.813507 0.025024
O O10 0.629343 0.282309 0.137548
O O11 0.327305 0.324729 0.147780
O O12 0.558130 0.411362 0.211534
O O13 0.549889 0.163492 0.249881
O O14 0.431866 0.166393 0.484475
O O15 0.340205 0.071154 0.321147
O O16 0.226965 0.758149 0.854001
#
# Coordination Sequence:
#
# PCOD8171154 Si02
#       8
#     4   4   4   4   4   4   4   4
#     4  10  24  41  60  83 124 168 188 238 304 360
#     4  10  22  39  58  86 120 156 198 239 290 358
#     4  11  22  40  62  89 120 155 201 244 300 351
#     4  11  22  40  62  89 120 155 201 244 300 351
#     4  12  22  35  64  87 116 148 204 246 288 342
#     4  12  21  36  63  90 114 151 197 257 292 342
#     4  12  21  36  63  90 114 151 197 257 292 342
#     4  10  22  39  58  86 120 156 198 239 290 358
#
# _framework density 19.243856000000001
#
# number of rings (size 3 to 8) (size 9 to 14) (size 15 to 20)
#    0.000    1.000    5.000    1.500    0.000    3.000 
#    0.000    0.000    0.000    0.000    0.000    0.000 
#    0.000    0.000    0.000    0.000    0.000    0.000 
#
# Total GULP energy -396839.633202 kJ/mol
# GULP energy per Si atom -12401.238538 kJ/mol
# Density = 1.920006 g / cm^3
# Si number density = 19.243856 Si / 1000 Ang^3
#
#
#
# Elastic Constant Matrix: (Units=GPa)
#
#
# Indices 1 2 3 4 5 6 
#
# 1 65.0032 28.2802 23.3508 0.0000 0.0000 0.0000
# 2 28.2802 98.1605 43.9328 0.0000 0.0000 0.0000
# 3 23.3508 43.9328 82.5956 0.0000 0.0000 0.0000
# 4 0.0000 0.0000 0.0000 38.6768 0.0000 0.0000
# 5 0.0000 0.0000 0.0000 0.0000 19.5107 0.0000
# 6 0.0000 0.0000 0.0000 0.0000 0.0000 37.4825
#
#
#
# Elastic Compliance Matrix: (Units=1/GPa)
#
#
# Indices 1 2 3 4 5 6 
#
# 1 0.018169 -0.003853 -0.003087 0.000000 0.000000 0.000000
# 2 -0.003853 0.014187 -0.006457 0.000000 0.000000 0.000000
# 3 -0.003087 -0.006457 0.016415 0.000000 0.000000 0.000000
# 4 0.000000 0.000000 0.000000 0.025855 0.000000 0.000000
# 5 0.000000 0.000000 0.000000 0.000000 0.051254 0.000000
# 6 0.000000 0.000000 0.000000 0.000000 0.000000 0.026679
#
#
# Mechanical properties :
#
#
# Convention : Reuss Voigt Hill
#
# Bulk Modulus (GPa) = 45.50288 48.54300 47.02294
# Shear Modulus (GPa) = 26.78393 29.14704 27.96548
#
# Velocity S-wave (km/s) = 3.73475 3.89603 3.81624
# Velocity P-wave (km/s) = 6.50343 6.74675 6.62621
#
# Compressibility (1/GPa) = 0.02197663
#
# Stress axis : x y z
#
# Youngs Moduli (GPa) = 55.03859 70.48556 60.92167
#
# Poissons Ratio (x) = 0.27156 0.18809
# Poissons Ratio (y) = 0.21205 0.39337
# Poissons Ratio (z) = 0.16992 0.45513
#
# Static dielectric constant tensor:
#      x y z
#    x 3.501760 0.000000 0.000000 
#    y 0.000000 3.902120 0.000000 
#    z 0.000000 0.000000 3.513940 
# 
# 
# High freq. dielectric constant tensor:
#      x y z
#    x 1.752410 0.000000 0.000000 
#    y 0.000000 1.767590 0.000000 
#    z 0.000000 0.000000 1.732270 
# 
# From -- ./inp_files/3521.got.cif
#   From: 2010.03.12/outbox.cif.g09.slc.cpg/sg33_2_cif.got.tgz:3521.got - 2010.04.14 01:49:19.
