data_PCOD8171323
_publ_section_title
;
Structure prediction by ZEFSAII (Michael W. Deem and Ramdas Pophale) SiO2 
 PCOD8171323
Probable space group: P N A 21
;
_chemical_formula_sum "Si O2"
_cell_formula_units_Z 32
_cell_length_a 9.479457
_cell_length_b 8.325443
_cell_length_c 19.360595
_cell_angle_alpha 90.000000
_cell_angle_beta 90.000000
_cell_angle_gamma 90.000000
_cell_volume 1527.951302
_symmetry_space_group_name_H-M "P N A 21"
_symmetry_group_IT_number 33
_symmetry_cell_setting 'orthorhombic'
loop_
_space_group_symop_operation_xyz
x,y,z
-x,-y,1/2+z
1/2-x,1/2+y,1/2+z
1/2+x,1/2-y,z
loop_
_atom_site_type_symbol
_atom_site_label
_atom_site_fract_x
_atom_site_fract_y
_atom_site_fract_z
Si Si1 0.620454 0.407780 0.511760
Si Si2 0.562365 0.535748 0.788972
Si Si3 0.637676 0.318310 0.663046
Si Si4 0.606686 0.412248 0.937005
Si Si5 0.893314 0.587752 0.516224
Si Si6 0.379546 0.907780 0.941469
Si Si7 0.637676 0.181690 0.290183
Si Si8 0.937635 0.464252 0.664258
O O1 0.579290 0.384676 0.591122
O O2 0.478061 0.443172 0.471227
O O3 0.728431 0.555629 0.504664
O O4 0.688616 0.250000 0.476615
O O5 0.567715 0.421765 0.723220
O O6 0.568944 0.416991 0.855404
O O7 0.414842 0.633501 0.784737
O O8 0.691829 0.664748 0.788979
O O9 0.808171 0.335252 0.664251
O O10 0.585158 0.133501 0.668492
O O11 0.564342 0.250000 0.976615
O O12 0.771569 0.444370 0.948565
O O13 0.931057 0.583009 0.597826
O O14 0.978061 0.443172 0.482003
O O15 0.420710 0.884676 0.862107
O O16 0.567715 0.078235 0.230010
#
# Coordination Sequence:
#
# PCOD8171323 Si02
#       8
#     4   4   4   4   4   4   4   4
#     4  11  22  41  65  90 124 165 211 255 315 374
#     4  10  23  43  62  92 127 164 209 256 309 375
#     4  10  23  41  62  91 125 165 208 255 308 372
#     4  11  24  40  63  94 127 162 208 264 314 368
#     4  11  24  40  63  94 127 162 208 264 314 368
#     4  11  22  41  65  90 124 165 211 255 315 374
#     4  10  23  41  62  91 125 165 208 255 308 372
#     4  10  23  43  62  92 127 164 209 256 309 375
#
# _framework density 20.943076000000001
#
# number of rings (size 3 to 8) (size 9 to 14) (size 15 to 20)
#    0.000    1.500    2.500    1.500    7.000    1.000 
#    4.500    0.000    0.000    0.000    0.000    0.000 
#    0.000    0.000    0.000    0.000    0.000    0.000 
#
# Total GULP energy -396773.652291 kJ/mol
# GULP energy per Si atom -12399.176634 kJ/mol
# Density = 2.089541 g / cm^3
# Si number density = 20.943076 Si / 1000 Ang^3
#
#
#
# Elastic Constant Matrix: (Units=GPa)
#
#
# Indices 1 2 3 4 5 6 
#
# 1 46.2767 27.9607 39.8804 0.0000 0.0000 0.0000
# 2 27.9607 94.4583 50.4606 0.0000 0.0000 0.0000
# 3 39.8804 50.4606 174.7431 0.0000 0.0000 0.0000
# 4 0.0000 0.0000 0.0000 33.4541 0.0000 0.0000
# 5 0.0000 0.0000 0.0000 0.0000 26.5172 0.0000
# 6 0.0000 0.0000 0.0000 0.0000 0.0000 32.8257
#
#
#
# Elastic Compliance Matrix: (Units=1/GPa)
#
#
# Indices 1 2 3 4 5 6 
#
# 1 0.029594 -0.006092 -0.004995 0.000000 0.000000 0.000000
# 2 -0.006092 0.013772 -0.002587 0.000000 0.000000 0.000000
# 3 -0.004995 -0.002587 0.007610 0.000000 0.000000 0.000000
# 4 0.000000 0.000000 0.000000 0.029892 0.000000 0.000000
# 5 0.000000 0.000000 0.000000 0.000000 0.037711 0.000000
# 6 0.000000 0.000000 0.000000 0.000000 0.000000 0.030464
#
#
# Mechanical properties :
#
#
# Convention : Reuss Voigt Hill
#
# Bulk Modulus (GPa) = 42.32108 61.34240 51.83174
# Shear Modulus (GPa) = 27.13469 31.70449 29.41959
#
# Velocity S-wave (km/s) = 3.60340 3.89503 3.75205
# Velocity P-wave (km/s) = 6.12897 7.04145 6.60099
#
# Compressibility (1/GPa) = 0.02362889
#
# Stress axis : x y z
#
# Youngs Moduli (GPa) = 33.79007 72.61256 131.41343
#
# Poissons Ratio (x) = 0.44235 0.65641
# Poissons Ratio (y) = 0.20585 0.33991
# Poissons Ratio (z) = 0.16878 0.18782
#
# Static dielectric constant tensor:
#      x y z
#    x 3.675770 0.000000 0.000000 
#    y 0.000000 3.499260 0.000000 
#    z 0.000000 0.000000 3.981890 
# 
# 
# High freq. dielectric constant tensor:
#      x y z
#    x 1.816650 0.000000 0.000000 
#    y 0.000000 1.803530 0.000000 
#    z 0.000000 0.000000 1.841290 
# 
# From -- ./inp_files/8964.got.cif
#   From: 2010.03.12/outbox.cif.g09.slc.cpg/sg33_5_cif.got.tgz:8964.got - 2010.04.14 01:49:19.
