data_PCOD8171408
_publ_section_title
;
Structure prediction by ZEFSAII (Michael W. Deem and Ramdas Pophale) SiO2 
 PCOD8171408
Probable space group: P N A 21
;
_chemical_formula_sum "Si O2"
_cell_formula_units_Z 20
_cell_length_a 8.526686
_cell_length_b 9.555152
_cell_length_c 9.607674
_cell_angle_alpha 90.000000
_cell_angle_beta 90.000000
_cell_angle_gamma 90.000000
_cell_volume 782.773525
_symmetry_space_group_name_H-M "P N A 21"
_symmetry_group_IT_number 33
_symmetry_cell_setting 'orthorhombic'
loop_
_space_group_symop_operation_xyz
x,y,z
-x,-y,1/2+z
1/2-x,1/2+y,1/2+z
1/2+x,1/2-y,z
loop_
_atom_site_type_symbol
_atom_site_label
_atom_site_fract_x
_atom_site_fract_y
_atom_site_fract_z
Si Si1 0.670875 0.271089 0.856210
Si Si2 0.433562 0.120377 0.685154
Si Si3 0.779347 0.829651 0.949171
Si Si4 0.097873 0.886954 0.527692
Si Si5 0.490354 0.174540 0.258751
O O1 0.604129 0.184161 0.722791
O O2 0.818274 0.367167 0.817372
O O3 0.732872 0.173077 0.981123
O O4 0.531340 0.367863 0.909020
O O5 0.357376 0.211535 0.560021
O O6 0.445778 0.951734 0.660974
O O7 0.676284 0.882093 0.817207
O O8 0.891544 0.707255 0.889019
O O9 0.879548 0.946059 0.034004
O O10 0.040326 0.817414 0.671986
#
# Coordination Sequence:
#
# PCOD8171408 Si02
#       5
#     4   4   4   4   4
#     4  10  23  46  72 104 147 190 249 306 374 442
#     4  11  24  47  73 109 147 199 247 314 378 447
#     4  12  26  45  71 108 147 195 247 311 373 449
#     4  11  24  47  72 105 144 200 240 313 373 442
#     4  12  27  47  76 110 149 198 257 308 376 462
#
# _framework density 25.550173999999998
#
# number of rings (size 3 to 8) (size 9 to 14) (size 15 to 20)
#    0.000    0.800    2.000    4.800    8.400    0.000 
#    0.000    0.000    0.000    0.000    0.000    0.000 
#    0.000    0.000    0.000    0.000    0.000    0.000 
#
# Total GULP energy -247808.215003 kJ/mol
# GULP energy per Si atom -12390.410750 kJ/mol
# Density = 2.549202 g / cm^3
# Si number density = 25.550174 Si / 1000 Ang^3
#
#
#
# Elastic Constant Matrix: (Units=GPa)
#
#
# Indices 1 2 3 4 5 6 
#
# 1 112.8195 31.0319 14.1646 0.0000 0.0000 0.0000
# 2 31.0319 82.8492 8.1339 0.0000 0.0000 0.0000
# 3 14.1646 8.1339 59.0871 0.0000 0.0000 0.0000
# 4 0.0000 0.0000 0.0000 24.7527 0.0000 0.0000
# 5 0.0000 0.0000 0.0000 0.0000 59.4557 0.0000
# 6 0.0000 0.0000 0.0000 0.0000 0.0000 33.9491
#
#
#
# Elastic Compliance Matrix: (Units=1/GPa)
#
#
# Indices 1 2 3 4 5 6 
#
# 1 0.010093 -0.003592 -0.001925 0.000000 0.000000 0.000000
# 2 -0.003592 0.013513 -0.000999 0.000000 0.000000 0.000000
# 3 -0.001925 -0.000999 0.017523 0.000000 0.000000 0.000000
# 4 0.000000 0.000000 0.000000 0.040400 0.000000 0.000000
# 5 0.000000 0.000000 0.000000 0.000000 0.016819 0.000000
# 6 0.000000 0.000000 0.000000 0.000000 0.000000 0.029456
#
#
# Mechanical properties :
#
#
# Convention : Reuss Voigt Hill
#
# Bulk Modulus (GPa) = 35.58972 40.15739 37.87356
# Shear Modulus (GPa) = 33.28834 37.05987 35.17411
#
# Velocity S-wave (km/s) = 3.61343 3.81264 3.71437
# Velocity P-wave (km/s) = 5.60078 5.92730 5.76635
#
# Compressibility (1/GPa) = 0.02809800
#
# Stress axis : x y z
#
# Youngs Moduli (GPa) = 99.07562 74.00030 57.06707
#
# Poissons Ratio (x) = 0.26577 0.10987
# Poissons Ratio (y) = 0.35583 0.05703
# Poissons Ratio (z) = 0.19074 0.07395
#
# Static dielectric constant tensor:
#      x y z
#    x 4.941590 0.000000 0.000000 
#    y 0.000000 4.146440 0.000000 
#    z 0.000000 0.000000 4.509970 
# 
# 
# High freq. dielectric constant tensor:
#      x y z
#    x 2.046210 0.000000 0.000000 
#    y 0.000000 1.987980 0.000000 
#    z 0.000000 0.000000 2.018400 
# 
# From -- ./inp_files/3040.got.cif
#   From: 2010.03.12/outbox.cif.g09.slc.cpg/sg33_2_cif.got.tgz:3040.got - 2010.04.14 01:49:19.
