data_PCOD8171216
_publ_section_title
;
Structure prediction by ZEFSAII (Michael W. Deem and Ramdas Pophale) SiO2 
 PCOD8171216
Probable space group: P N A 21
;
_chemical_formula_sum "Si O2"
_cell_formula_units_Z 32
_cell_length_a 5.388383
_cell_length_b 30.103159
_cell_length_c 9.280172
_cell_angle_alpha 90.000000
_cell_angle_beta 90.000000
_cell_angle_gamma 90.000000
_cell_volume 1505.312110
_symmetry_space_group_name_H-M "P N A 21"
_symmetry_group_IT_number 33
_symmetry_cell_setting 'orthorhombic'
loop_
_space_group_symop_operation_xyz
x,y,z
-x,-y,1/2+z
1/2-x,1/2+y,1/2+z
1/2+x,1/2-y,z
loop_
_atom_site_type_symbol
_atom_site_label
_atom_site_fract_x
_atom_site_fract_y
_atom_site_fract_z
Si Si1 0.405335 0.635781 0.019680
Si Si2 0.911403 0.045156 0.986195
Si Si3 0.978433 0.565579 0.278627
Si Si4 0.121069 0.223977 0.351937
Si Si5 0.363063 0.722797 0.518643
Si Si6 0.616367 0.086363 0.480649
Si Si7 0.146780 0.131993 0.844376
Si Si8 0.799689 0.014864 0.289630
O O1 0.652417 0.618249 0.936694
O O2 0.478097 0.639714 0.188514
O O3 0.159025 0.606616 0.990366
O O4 0.337440 0.683208 0.956865
O O5 0.931091 0.040665 0.157807
O O6 0.631419 0.046872 0.927395
O O7 0.027798 0.091873 0.936048
O O8 0.015359 0.000071 0.915693
O O9 0.074059 0.615492 0.311974
O O10 0.186814 0.530632 0.227866
O O11 0.800240 0.568029 0.139247
O O12 0.350090 0.256461 0.386579
O O13 0.137158 0.209378 0.185685
O O14 0.614421 0.749570 0.479019
O O15 0.358158 0.677328 0.431176
O O16 0.599496 0.047995 0.360652
#
# Coordination Sequence:
#
# PCOD8171216 Si02
#       8
#     4   4   4   4   4   4   4   4
#     4  11  24  42  67  94 133 166 216 274 324 397
#     4  11  23  42  64  93 134 172 230 275 331 398
#     4  10  22  42  62  90 133 169 227 276 327 387
#     4  10  22  43  66  95 128 168 212 267 328 399
#     4  10  24  42  67  95 134 169 215 269 327 401
#     4  11  24  42  62  96 128 171 216 272 327 382
#     4  10  24  41  63  99 128 174 215 278 327 391
#     4  11  25  38  65  92 128 183 221 277 331 393
#
# _framework density 21.258049
#
# number of rings (size 3 to 8) (size 9 to 14) (size 15 to 20)
#    0.000    1.500    1.250    2.250    8.750    3.000 
#    0.000    0.000    0.000    0.000    0.000    0.000 
#    0.000    0.000    0.000    0.000    0.000    0.000 
#
# Total GULP energy -396522.242050 kJ/mol
# GULP energy per Si atom -12391.320064 kJ/mol
# Density = 2.120966 g / cm^3
# Si number density = 21.258049 Si / 1000 Ang^3
#
#
#
# Elastic Constant Matrix: (Units=GPa)
#
#
# Indices 1 2 3 4 5 6 
#
# 1 99.9731 34.3544 31.8011 0.0000 0.0000 0.0000
# 2 34.3544 127.6695 72.3155 0.0000 0.0000 0.0000
# 3 31.8011 72.3155 115.0926 0.0000 0.0000 0.0000
# 4 0.0000 0.0000 0.0000 43.6074 0.0000 0.0000
# 5 0.0000 0.0000 0.0000 0.0000 27.8852 0.0000
# 6 0.0000 0.0000 0.0000 0.0000 0.0000 24.1584
#
#
#
# Elastic Compliance Matrix: (Units=1/GPa)
#
#
# Indices 1 2 3 4 5 6 
#
# 1 0.011277 -0.001971 -0.001878 0.000000 0.000000 0.000000
# 2 -0.001971 0.012505 -0.007313 0.000000 0.000000 0.000000
# 3 -0.001878 -0.007313 0.013802 0.000000 0.000000 0.000000
# 4 0.000000 0.000000 0.000000 0.022932 0.000000 0.000000
# 5 0.000000 0.000000 0.000000 0.000000 0.035861 0.000000
# 6 0.000000 0.000000 0.000000 0.000000 0.000000 0.041393
#
#
# Mechanical properties :
#
#
# Convention : Reuss Voigt Hill
#
# Bulk Modulus (GPa) = 65.52210 68.85302 67.18756
# Shear Modulus (GPa) = 30.26975 32.74781 31.50878
#
# Velocity S-wave (km/s) = 3.77758 3.92917 3.85412
# Velocity P-wave (km/s) = 7.06512 7.28313 7.17495
#
# Compressibility (1/GPa) = 0.01526203
#
# Stress axis : x y z
#
# Youngs Moduli (GPa) = 88.67402 79.96644 72.45225
#
# Poissons Ratio (x) = 0.15762 0.13603
# Poissons Ratio (y) = 0.17479 0.52982
# Poissons Ratio (z) = 0.16649 0.58477
#
# Static dielectric constant tensor:
#      x y z
#    x 3.928690 0.000000 0.000000 
#    y 0.000000 3.704680 0.000000 
#    z 0.000000 0.000000 3.832350 
# 
# 
# High freq. dielectric constant tensor:
#      x y z
#    x 1.838280 0.000000 0.000000 
#    y 0.000000 1.833410 0.000000 
#    z 0.000000 0.000000 1.834370 
# 
# From -- ./inp_files/2834.got.cif
#   From: 2010.03.12/outbox.cif.g09.slc.cpg/sg33_2_cif.got.tgz:2834.got - 2010.04.14 01:49:19.
