data_PCOD8171588
_publ_section_title
;
Structure prediction by ZEFSAII (Michael W. Deem and Ramdas Pophale) SiO2 
 PCOD8171588
Probable space group: P N A 21
;
_chemical_formula_sum "Si O2"
_cell_formula_units_Z 32
_cell_length_a 15.716013
_cell_length_b 14.611621
_cell_length_c 6.609986
_cell_angle_alpha 90.000000
_cell_angle_beta 90.000000
_cell_angle_gamma 90.000000
_cell_volume 1517.893558
_symmetry_space_group_name_H-M "P N A 21"
_symmetry_group_IT_number 33
_symmetry_cell_setting 'orthorhombic'
loop_
_space_group_symop_operation_xyz
x,y,z
-x,-y,1/2+z
1/2-x,1/2+y,1/2+z
1/2+x,1/2-y,z
loop_
_atom_site_type_symbol
_atom_site_label
_atom_site_fract_x
_atom_site_fract_y
_atom_site_fract_z
Si Si1 0.381388 0.007428 0.507540
Si Si2 0.450136 0.904789 0.152375
Si Si3 0.795644 0.530848 0.902376
Si Si4 0.479454 0.287004 0.607126
Si Si5 0.827382 0.188857 0.317859
Si Si6 0.048172 0.884858 0.497264
Si Si7 0.420728 0.579701 0.835301
Si Si8 0.234562 0.618011 0.722392
O O1 0.457988 0.048538 0.637426
O O2 0.344883 0.080293 0.349184
O O3 0.413590 0.919316 0.379614
O O4 0.305785 0.981680 0.661463
O O5 0.388089 0.947984 0.988606
O O6 0.458363 0.799085 0.097213
O O7 0.734568 0.618560 0.936780
O O8 0.759991 0.437734 0.008752
O O9 0.393213 0.270347 0.481194
O O10 0.457163 0.300667 0.842492
O O11 0.532512 0.371966 0.521732
O O12 0.779490 0.272519 0.203259
O O13 0.874479 0.129084 0.149765
O O14 0.959876 0.890714 0.619865
O O15 0.066415 0.972424 0.360716
O O16 0.321930 0.604095 0.841798
#
# Coordination Sequence:
#
# PCOD8171588 Si02
#       8
#     4   4   4   4   4   4   4   4
#     4  11  23  42  66  94 132 174 220 274 339 398
#     4  11  23  41  68  95 128 176 221 271 338 401
#     4  11  25  43  66  98 137 173 223 285 333 404
#     4  11  24  42  70  95 134 174 227 277 326 408
#     4  11  25  43  65  99 138 174 227 282 335 407
#     4  11  24  41  68  95 132 177 219 274 341 398
#     4  11  23  44  67  98 131 177 224 274 339 405
#     4  11  25  42  68  98 132 179 223 279 343 399
#
# _framework density 21.081845999999999
#
# number of rings (size 3 to 8) (size 9 to 14) (size 15 to 20)
#    0.000    1.000    3.750    2.250    3.500    5.000 
#    0.000    0.000    0.000    0.000    0.000    0.000 
#    0.000    0.000    0.000    0.000    0.000    0.000 
#
# Total GULP energy -396893.995601 kJ/mol
# GULP energy per Si atom -12402.937363 kJ/mol
# Density = 2.103386 g / cm^3
# Si number density = 21.081846 Si / 1000 Ang^3
#
#
#
# Elastic Constant Matrix: (Units=GPa)
#
#
# Indices 1 2 3 4 5 6 
#
# 1 91.3996 23.2650 22.4260 0.0000 0.0000 0.0000
# 2 23.2650 104.2072 28.0730 0.0000 0.0000 0.0000
# 3 22.4260 28.0730 107.1633 0.0000 0.0000 0.0000
# 4 0.0000 0.0000 0.0000 27.0618 0.0000 0.0000
# 5 0.0000 0.0000 0.0000 0.0000 24.8937 0.0000
# 6 0.0000 0.0000 0.0000 0.0000 0.0000 31.1671
#
#
#
# Elastic Compliance Matrix: (Units=1/GPa)
#
#
# Indices 1 2 3 4 5 6 
#
# 1 0.011964 -0.002148 -0.001941 0.000000 0.000000 0.000000
# 2 -0.002148 0.010711 -0.002356 0.000000 0.000000 0.000000
# 3 -0.001941 -0.002356 0.010355 0.000000 0.000000 0.000000
# 4 0.000000 0.000000 0.000000 0.036952 0.000000 0.000000
# 5 0.000000 0.000000 0.000000 0.000000 0.040171 0.000000
# 6 0.000000 0.000000 0.000000 0.000000 0.000000 0.032085
#
#
# Mechanical properties :
#
#
# Convention : Reuss Voigt Hill
#
# Bulk Modulus (GPa) = 49.65525 50.03313 49.84419
# Shear Modulus (GPa) = 30.89438 31.89159 31.39298
#
# Velocity S-wave (km/s) = 3.83227 3.89363 3.86307
# Velocity P-wave (km/s) = 6.57164 6.63311 6.60244
#
# Compressibility (1/GPa) = 0.02013886
#
# Stress axis : x y z
#
# Youngs Moduli (GPa) = 83.58407 93.36526 96.57171
#
# Poissons Ratio (x) = 0.20056 0.18744
# Poissons Ratio (y) = 0.17955 0.22755
# Poissons Ratio (z) = 0.16223 0.21999
#
# Static dielectric constant tensor:
#      x y z
#    x 3.772660 0.000000 0.000000 
#    y 0.000000 3.744620 0.000000 
#    z 0.000000 0.000000 3.734390 
# 
# 
# High freq. dielectric constant tensor:
#      x y z
#    x 1.832880 0.000000 0.000000 
#    y 0.000000 1.824890 0.000000 
#    z 0.000000 0.000000 1.826550 
# 
# From -- ./inp_files/1835.got.cif
#   From: 2010.03.12/outbox.cif.g09.slc.cpg/sg33_1_cif.got.tgz:1835.got - 2010.04.14 01:49:19.
