data_PCOD8171581
_publ_section_title
;
Structure prediction by ZEFSAII (Michael W. Deem and Ramdas Pophale) SiO2 
 PCOD8171581
Probable space group: P N A 21
;
_chemical_formula_sum "Si O2"
_cell_formula_units_Z 32
_cell_length_a 9.022017
_cell_length_b 5.237259
_cell_length_c 29.341736
_cell_angle_alpha 90.000000
_cell_angle_beta 90.000000
_cell_angle_gamma 90.000000
_cell_volume 1386.415797
_symmetry_space_group_name_H-M "P N A 21"
_symmetry_group_IT_number 33
_symmetry_cell_setting 'orthorhombic'
loop_
_space_group_symop_operation_xyz
x,y,z
-x,-y,1/2+z
1/2-x,1/2+y,1/2+z
1/2+x,1/2-y,z
loop_
_atom_site_type_symbol
_atom_site_label
_atom_site_fract_x
_atom_site_fract_y
_atom_site_fract_z
Si Si1 0.623943 0.949894 0.402510
Si Si2 0.542280 0.556861 0.871186
Si Si3 0.368316 0.042870 0.007587
Si Si4 0.769780 0.212398 0.731057
Si Si5 0.477435 0.468124 0.268683
Si Si6 0.826929 0.459446 0.643091
Si Si7 0.417087 0.193506 0.187717
Si Si8 0.796494 0.456956 0.539436
O O1 0.550059 0.704643 0.378047
O O2 0.637372 0.875983 0.455143
O O3 0.522690 0.204791 0.399389
O O4 0.786900 0.005589 0.383046
O O5 0.532609 0.652033 0.818700
O O6 0.295451 0.279839 0.034751
O O7 0.277395 0.779235 0.012966
O O8 0.537165 0.002292 0.022524
O O9 0.686091 0.456200 0.751729
O O10 0.833669 0.229720 0.679304
O O11 0.896744 0.185559 0.769527
O O12 0.652799 0.988059 0.726242
O O13 0.536194 0.311009 0.224033
O O14 0.695454 0.635169 0.660321
O O15 0.797211 0.368477 0.592040
O O16 0.990316 0.579663 0.645651
#
# Coordination Sequence:
#
# PCOD8171581 Si02
#       8
#     4   4   4   4   4   4   4   4
#     4  12  26  49  74 106 145 184 236 298 378 421
#     4  12  27  44  76 107 141 188 238 302 342 448
#     4  12  26  50  73 108 141 189 229 306 369 430
#     4  11  23  41  61  90 133 180 215 281 328 404
#     4  11  25  39  67  93 135 176 237 270 347 395
#     4  11  25  40  65  95 129 180 228 276 339 403
#     4  11  23  41  61  90 133 178 217 279 331 401
#     4  12  27  44  77 103 143 181 244 292 350 440
#
# _framework density 23.081101
#
# number of rings (size 3 to 8) (size 9 to 14) (size 15 to 20)
#    0.000    0.500    2.500    5.250    7.000    0.000 
#    0.000    0.000    0.000    0.000    0.000    0.000 
#    0.000    0.000    0.000    0.000    0.000    0.000 
#
# Total GULP energy -396455.485426 kJ/mol
# GULP energy per Si atom -12389.233920 kJ/mol
# Density = 2.302857 g / cm^3
# Si number density = 23.081101 Si / 1000 Ang^3
#
#
#
# Elastic Constant Matrix: (Units=GPa)
#
#
# Indices 1 2 3 4 5 6 
#
# 1 119.4721 22.0494 16.7708 0.0000 0.0000 0.0000
# 2 22.0494 88.2487 6.1659 0.0000 0.0000 0.0000
# 3 16.7708 6.1659 99.0526 0.0000 0.0000 0.0000
# 4 0.0000 0.0000 0.0000 30.7639 0.0000 0.0000
# 5 0.0000 0.0000 0.0000 0.0000 31.2787 0.0000
# 6 0.0000 0.0000 0.0000 0.0000 0.0000 29.5325
#
#
#
# Elastic Compliance Matrix: (Units=1/GPa)
#
#
# Indices 1 2 3 4 5 6 
#
# 1 0.008960 -0.002142 -0.001384 0.000000 0.000000 0.000000
# 2 -0.002142 0.011893 -0.000378 0.000000 0.000000 0.000000
# 3 -0.001384 -0.000378 0.010353 0.000000 0.000000 0.000000
# 4 0.000000 0.000000 0.000000 0.032506 0.000000 0.000000
# 5 0.000000 0.000000 0.000000 0.000000 0.031971 0.000000
# 6 0.000000 0.000000 0.000000 0.000000 0.000000 0.033861
#
#
# Mechanical properties :
#
#
# Convention : Reuss Voigt Hill
#
# Bulk Modulus (GPa) = 42.73554 44.08286 43.40920
# Shear Modulus (GPa) = 34.44711 35.76751 35.10731
#
# Velocity S-wave (km/s) = 3.86740 3.94082 3.90428
# Velocity P-wave (km/s) = 6.20467 6.31248 6.25881
#
# Compressibility (1/GPa) = 0.02339973
#
# Stress axis : x y z
#
# Youngs Moduli (GPa) = 111.61098 84.08185 96.58644
#
# Poissons Ratio (x) = 0.18010 0.13364
# Poissons Ratio (y) = 0.23907 0.03648
# Poissons Ratio (z) = 0.15443 0.03176
#
# Static dielectric constant tensor:
#      x y z
#    x 4.353380 0.000000 0.000000 
#    y 0.000000 4.238390 0.000000 
#    z 0.000000 0.000000 4.409630 
# 
# 
# High freq. dielectric constant tensor:
#      x y z
#    x 1.938170 0.000000 0.000000 
#    y 0.000000 1.912290 0.000000 
#    z 0.000000 0.000000 1.917360 
# 
# From -- ./inp_files/9375.got.cif
#   From: 2010.03.12/outbox.cif.g09.slc.cpg/sg33_5_cif.got.tgz:9375.got - 2010.04.14 01:49:19.
