data_PCOD8171364
_publ_section_title
;
Structure prediction by ZEFSAII (Michael W. Deem and Ramdas Pophale) SiO2 
 PCOD8171364
Probable space group: P N A 21
;
_chemical_formula_sum "Si O2"
_cell_formula_units_Z 32
_cell_length_a 11.895345
_cell_length_b 6.827564
_cell_length_c 17.595118
_cell_angle_alpha 90.000000
_cell_angle_beta 90.000000
_cell_angle_gamma 90.000000
_cell_volume 1429.009138
_symmetry_space_group_name_H-M "P N A 21"
_symmetry_group_IT_number 33
_symmetry_cell_setting 'orthorhombic'
loop_
_space_group_symop_operation_xyz
x,y,z
-x,-y,1/2+z
1/2-x,1/2+y,1/2+z
1/2+x,1/2-y,z
loop_
_atom_site_type_symbol
_atom_site_label
_atom_site_fract_x
_atom_site_fract_y
_atom_site_fract_z
Si Si1 0.602909 0.115577 0.746450
Si Si2 0.724623 0.479091 0.794871
Si Si3 0.464506 0.508746 0.413326
Si Si4 0.702111 0.473262 0.049460
Si Si5 0.509991 0.608015 0.140038
Si Si6 0.047174 0.588317 0.376881
Si Si7 0.086679 0.314064 0.498307
Si Si8 0.334514 0.267640 0.158367
O O1 0.709281 0.253984 0.766427
O O2 0.506355 0.268365 0.716790
O O3 0.553094 0.013979 0.821925
O O4 0.630034 0.948462 0.686043
O O5 0.619073 0.555103 0.845261
O O6 0.834478 0.490572 0.846146
O O7 0.740106 0.623467 0.722448
O O8 0.390483 0.579281 0.485923
O O9 0.543288 0.679785 0.382635
O O10 0.558468 0.348587 0.434380
O O11 0.639994 0.559238 0.124673
O O12 0.766981 0.277415 0.079513
O O13 0.781923 0.642605 0.014423
O O14 0.440068 0.405090 0.138881
O O15 0.469888 0.758813 0.076256
O O16 0.030433 0.508239 0.462404
#
# Coordination Sequence:
#
# PCOD8171364 Si02
#       8
#     4   4   4   4   4   4   4   4
#     4  10  23  43  66  98 135 172 221 273 330 401
#     4  10  23  44  67 102 131 175 227 272 335 404
#     4  10  24  46  64  98 140 169 229 284 318 412
#     4  11  24  43  68  98 133 178 225 273 338 398
#     4  10  25  43  63  99 137 165 225 279 317 407
#     4  11  24  43  70  96 133 177 221 273 342 390
#     4  11  23  44  65  97 131 176 223 272 329 394
#     4  11  24  44  67  98 136 178 221 274 345 396
#
# _framework density 22.393138
#
# number of rings (size 3 to 8) (size 9 to 14) (size 15 to 20)
#    0.000    1.500    2.500    0.750    7.000    1.000 
#   13.500    0.000    0.000    0.000    0.000    0.000 
#    0.000    0.000    0.000    0.000    0.000    0.000 
#
# Total GULP energy -396580.196892 kJ/mol
# GULP energy per Si atom -12393.131153 kJ/mol
# Density = 2.234217 g / cm^3
# Si number density = 22.393138 Si / 1000 Ang^3
#
#
#
# Elastic Constant Matrix: (Units=GPa)
#
#
# Indices 1 2 3 4 5 6 
#
# 1 80.1051 51.0615 27.1030 0.0000 0.0000 0.0000
# 2 51.0615 92.7206 36.7506 0.0000 0.0000 0.0000
# 3 27.1030 36.7506 79.0612 0.0000 0.0000 0.0000
# 4 0.0000 0.0000 0.0000 52.4440 0.0000 0.0000
# 5 0.0000 0.0000 0.0000 0.0000 40.0917 0.0000
# 6 0.0000 0.0000 0.0000 0.0000 0.0000 23.0064
#
#
#
# Elastic Compliance Matrix: (Units=1/GPa)
#
#
# Indices 1 2 3 4 5 6 
#
# 1 0.019510 -0.009921 -0.002077 0.000000 0.000000 0.000000
# 2 -0.009921 0.018266 -0.005090 0.000000 0.000000 0.000000
# 3 -0.002077 -0.005090 0.015726 0.000000 0.000000 0.000000
# 4 0.000000 0.000000 0.000000 0.019068 0.000000 0.000000
# 5 0.000000 0.000000 0.000000 0.000000 0.024943 0.000000
# 6 0.000000 0.000000 0.000000 0.000000 0.000000 0.043466
#
#
# Mechanical properties :
#
#
# Convention : Reuss Voigt Hill
#
# Bulk Modulus (GPa) = 51.73958 53.52414 52.63186
# Shear Modulus (GPa) = 27.53344 32.23985 29.88665
#
# Velocity S-wave (km/s) = 3.51030 3.79848 3.65723
# Velocity P-wave (km/s) = 6.29165 6.57205 6.43338
#
# Compressibility (1/GPa) = 0.01932756
#
# Stress axis : x y z
#
# Youngs Moduli (GPa) = 51.25472 54.74602 63.58840
#
# Poissons Ratio (x) = 0.54316 0.13204
# Poissons Ratio (y) = 0.50852 0.32364
# Poissons Ratio (z) = 0.10643 0.27864
#
# Static dielectric constant tensor:
#      x y z
#    x 3.963150 0.000000 0.000000 
#    y 0.000000 3.946060 0.000000 
#    z 0.000000 0.000000 4.313910 
# 
# 
# High freq. dielectric constant tensor:
#      x y z
#    x 1.864990 0.000000 0.000000 
#    y 0.000000 1.874720 0.000000 
#    z 0.000000 0.000000 1.903440 
# 
# From -- ./inp_files/9081.got.cif
#   From: 2010.03.12/outbox.cif.g09.slc.cpg/sg33_5_cif.got.tgz:9081.got - 2010.04.14 01:49:19.
