data_PCOD8171870
_publ_section_title
;
Structure prediction by ZEFSAII (Michael W. Deem and Ramdas Pophale) SiO2 
 PCOD8171870
Probable space group: P N N 2
;
_chemical_formula_sum "Si O2"
_cell_formula_units_Z 28
_cell_length_a 8.721926
_cell_length_b 17.328106
_cell_length_c 8.803743
_cell_angle_alpha 90.000000
_cell_angle_beta 90.000000
_cell_angle_gamma 90.000000
_cell_volume 1330.548929
_symmetry_space_group_name_H-M "P N N 2"
_symmetry_group_IT_number 34
_symmetry_cell_setting 'orthorhombic'
loop_
_space_group_symop_operation_xyz
x,y,z
-x,-y,z
1/2-x,1/2+y,1/2+z
1/2+x,1/2-y,1/2+z
loop_
_atom_site_type_symbol
_atom_site_label
_atom_site_fract_x
_atom_site_fract_y
_atom_site_fract_z
Si Si1 0.918047 0.690082 0.917410
Si Si2 0.631932 0.344834 0.583777
Si Si3 0.093898 0.798249 0.327416
Si Si4 0.401503 0.135506 0.678716
Si Si5 0.146376 0.038273 0.822780
Si Si6 0.895112 0.567794 0.437302
Si Si7 0.471400 0.197606 0.102051
O O1 0.751746 0.655342 0.866807
O O2 0.003160 0.726586 0.772262
O O3 0.891806 0.757116 0.036805
O O4 0.031571 0.630653 0.006123
O O5 0.527618 0.353009 0.737393
O O6 0.583504 0.405743 0.456102
O O7 0.814783 0.352687 0.603265
O O8 0.142768 0.722189 0.230737
O O9 0.021753 0.770105 0.487787
O O10 0.249853 0.082522 0.698338
O O11 0.534331 0.101615 0.782994
O O12 0.229162 0.965786 0.902752
O O13 0.000000 0.000000 0.738923
O O14 0.000000 0.500000 0.504539
O O15 0.891631 0.637593 0.558798
#
# Coordination Sequence:
#
# PCOD8171870 Si02
#       7
#     4   4   4   4   4   4   4
#     4  10  20  35  62  87 118 159 197 254 312 370
#     4  10  20  39  55  90 124 151 202 259 306 365
#     4   9  19  36  57  88 125 146 194 258 315 355
#     4   9  18  39  57  84 120 158 205 248 302 383
#     4  11  21  37  62  87 118 166 210 261 302 370
#     4   9  17  37  61  77 114 161 206 234 296 374
#     4  10  19  36  59  90 113 163 197 246 316 374
#
# _framework density 21.043946999999999
#
# number of rings (size 3 to 8) (size 9 to 14) (size 15 to 20)
#    0.000    2.286    5.714    0.000    2.000    2.286 
#    7.714    2.143    0.000    0.857    0.000    0.000 
#    0.000    0.000    0.000    0.000    0.000    0.000 
#
# Total GULP energy -346912.778986 kJ/mol
# GULP energy per Si atom -12389.742107 kJ/mol
# Density = 2.099605 g / cm^3
# Si number density = 21.043947 Si / 1000 Ang^3
#
#
#
# Elastic Constant Matrix: (Units=GPa)
#
#
# Indices 1 2 3 4 5 6 
#
# 1 99.5751 36.3108 35.1846 0.0000 0.0000 0.0000
# 2 36.3108 46.7723 19.2097 0.0000 0.0000 0.0000
# 3 35.1846 19.2097 111.8495 0.0000 0.0000 0.0000
# 4 0.0000 0.0000 0.0000 14.2005 0.0000 0.0000
# 5 0.0000 0.0000 0.0000 0.0000 27.8880 0.0000
# 6 0.0000 0.0000 0.0000 0.0000 0.0000 27.9174
#
#
#
# Elastic Compliance Matrix: (Units=1/GPa)
#
#
# Indices 1 2 3 4 5 6 
#
# 1 0.014830 -0.010325 -0.002892 0.000000 0.000000 0.000000
# 2 -0.010325 0.030192 -0.001937 0.000000 0.000000 0.000000
# 3 -0.002892 -0.001937 0.010183 0.000000 0.000000 0.000000
# 4 0.000000 0.000000 0.000000 0.070420 0.000000 0.000000
# 5 0.000000 0.000000 0.000000 0.000000 0.035858 0.000000
# 6 0.000000 0.000000 0.000000 0.000000 0.000000 0.035820
#
#
# Mechanical properties :
#
#
# Convention : Reuss Voigt Hill
#
# Bulk Modulus (GPa) = 40.16711 48.84524 44.50617
# Shear Modulus (GPa) = 21.19468 25.16729 23.18098
#
# Velocity S-wave (km/s) = 3.17703 3.46199 3.32256
# Velocity P-wave (km/s) = 5.70847 6.26434 5.99285
#
# Compressibility (1/GPa) = 0.02489599
#
# Stress axis : x y z
#
# Youngs Moduli (GPa) = 67.43303 33.12189 98.20340
#
# Poissons Ratio (x) = 0.34198 0.28397
# Poissons Ratio (y) = 0.69625 0.19025
# Poissons Ratio (z) = 0.19499 0.06417
#
# Static dielectric constant tensor:
#      x y z
#    x 4.000730 0.000000 0.000000 
#    y 0.000000 3.617560 0.000000 
#    z 0.000000 0.000000 3.806240 
# 
# 
# High freq. dielectric constant tensor:
#      x y z
#    x 1.829290 0.000000 0.000000 
#    y 0.000000 1.788910 0.000000 
#    z 0.000000 0.000000 1.806530 
# 
# From -- ./inp_files/2778.got.cif
#   From: 2010.03.12/outbox.cif.g09.slc.cpg/sg34_2_cif.got.tgz:2778.got - 2010.04.14 01:56:33.
