data_PCOD8171830
_publ_section_title
;
Structure prediction by ZEFSAII (Michael W. Deem and Ramdas Pophale) SiO2 
 PCOD8171830
Probable space group: P N N 2
;
_chemical_formula_sum "Si O2"
_cell_formula_units_Z 32
_cell_length_a 28.843399
_cell_length_b 5.227141
_cell_length_c 10.365472
_cell_angle_alpha 90.000000
_cell_angle_beta 90.000000
_cell_angle_gamma 90.000000
_cell_volume 1562.786805
_symmetry_space_group_name_H-M "P N N 2"
_symmetry_group_IT_number 34
_symmetry_cell_setting 'orthorhombic'
loop_
_space_group_symop_operation_xyz
x,y,z
-x,-y,z
1/2-x,1/2+y,1/2+z
1/2+x,1/2-y,1/2+z
loop_
_atom_site_type_symbol
_atom_site_label
_atom_site_fract_x
_atom_site_fract_y
_atom_site_fract_z
Si Si1 0.476263 0.250360 0.717210
Si Si2 0.163644 0.248198 0.003637
Si Si3 0.483965 0.749558 0.002087
Si Si4 0.627657 0.753495 0.619597
Si Si5 0.764080 0.258054 0.597628
Si Si6 0.876397 0.709710 0.488708
Si Si7 0.833929 0.208619 0.382347
Si Si8 0.190742 0.240643 0.709115
O O1 0.500000 0.500000 0.653754
O O2 0.421659 0.254432 0.690691
O O3 0.500000 0.000000 0.654001
O O4 0.485438 0.249568 0.870624
O O5 0.131568 0.491528 0.034650
O O6 0.208889 0.255006 0.093793
O O7 0.134268 0.991497 0.027963
O O8 0.179152 0.263819 0.857336
O O9 0.500000 0.500000 0.082401
O O10 0.430192 0.739037 0.975006
O O11 0.500000 0.000000 0.082036
O O12 0.667936 0.756985 0.729227
O O13 0.783858 0.239963 0.450580
O O14 0.777269 0.525663 0.663281
O O15 0.783376 0.026396 0.683436
O O16 0.867729 0.419195 0.445609
O O17 0.858246 0.751567 0.633802
O O18 0.851465 0.917426 0.398017
#
# Coordination Sequence:
#
# PCOD8171830 Si02
#       8
#     4   4   4   4   4   4   4   4
#     4  10  19  34  58  86 123 155 191 250 314 369
#     4  12  26  40  62  87 128 171 207 255 304 381
#     4  10  18  29  54  86 116 147 182 246 305 364
#     4  12  24  39  60  97 127 165 203 261 319 367
#     4  10  23  39  64  85 117 163 212 260 306 352
#     4  10  19  37  62  88 120 155 198 249 315 356
#     4  10  20  36  58  90 118 152 202 257 304 363
#     4  10  23  44  62  87 121 166 209 256 299 376
#
# _framework density 20.476241999999999
#
# number of rings (size 3 to 8) (size 9 to 14) (size 15 to 20)
#    0.000    1.500    0.000    6.750    3.500    0.000 
#    0.000    0.000    0.000    4.500    0.000    0.000 
#    0.000    0.000    0.000    0.000    0.000    0.000 
#
# Total GULP energy -396747.032125 kJ/mol
# GULP energy per Si atom -12398.344754 kJ/mol
# Density = 2.042964 g / cm^3
# Si number density = 20.476242 Si / 1000 Ang^3
#
#
#
# Elastic Constant Matrix: (Units=GPa)
#
#
# Indices 1 2 3 4 5 6 
#
# 1 89.8920 31.8650 11.4073 0.0000 0.0000 0.0000
# 2 31.8650 156.3220 13.2354 0.0000 0.0000 0.0000
# 3 11.4073 13.2354 69.4364 0.0000 0.0000 0.0000
# 4 0.0000 0.0000 0.0000 16.3846 0.0000 0.0000
# 5 0.0000 0.0000 0.0000 0.0000 18.2612 0.0000
# 6 0.0000 0.0000 0.0000 0.0000 0.0000 26.2108
#
#
#
# Elastic Compliance Matrix: (Units=1/GPa)
#
#
# Indices 1 2 3 4 5 6 
#
# 1 0.012153 -0.002346 -0.001549 0.000000 0.000000 0.000000
# 2 -0.002346 0.006955 -0.000940 0.000000 0.000000 0.000000
# 3 -0.001549 -0.000940 0.014835 0.000000 0.000000 0.000000
# 4 0.000000 0.000000 0.000000 0.061033 0.000000 0.000000
# 5 0.000000 0.000000 0.000000 0.000000 0.054761 0.000000
# 6 0.000000 0.000000 0.000000 0.000000 0.000000 0.038152
#
#
# Mechanical properties :
#
#
# Convention : Reuss Voigt Hill
#
# Bulk Modulus (GPa) = 41.20017 47.62953 44.41485
# Shear Modulus (GPa) = 24.31307 29.44750 26.88029
#
# Velocity S-wave (km/s) = 3.44958 3.79638 3.62713
# Velocity P-wave (km/s) = 6.00256 6.52135 6.26733
#
# Compressibility (1/GPa) = 0.02427175
#
# Stress axis : x y z
#
# Youngs Moduli (GPa) = 82.28624 143.78379 67.40624
#
# Poissons Ratio (x) = 0.33732 0.10443
# Poissons Ratio (y) = 0.19305 0.06338
# Poissons Ratio (z) = 0.12749 0.13520
#
# Static dielectric constant tensor:
#      x y z
#    x 3.643710 0.000000 0.000000 
#    y 0.000000 4.936900 0.000000 
#    z 0.000000 0.000000 3.391130 
# 
# 
# High freq. dielectric constant tensor:
#      x y z
#    x 1.799030 0.000000 0.000000 
#    y 0.000000 1.836740 0.000000 
#    z 0.000000 0.000000 1.757700 
# 
# From -- ./inp_files/4154.got.cif
#   From: 2010.03.12/outbox.cif.g09.slc.cpg/sg34_3_cif.got.tgz:4154.got - 2010.04.14 01:56:33.
