data_PCOD8171582
_publ_section_title
;
Structure prediction by ZEFSAII (Michael W. Deem and Ramdas Pophale) SiO2 
 PCOD8171582
Probable space group: P N A 21
;
_chemical_formula_sum "Si O2"
_cell_formula_units_Z 16
_cell_length_a 18.332490
_cell_length_b 4.906981
_cell_length_c 8.375940
_cell_angle_alpha 90.000000
_cell_angle_beta 90.000000
_cell_angle_gamma 90.000000
_cell_volume 753.475943
_symmetry_space_group_name_H-M "P N A 21"
_symmetry_group_IT_number 33
_symmetry_cell_setting 'orthorhombic'
loop_
_space_group_symop_operation_xyz
x,y,z
-x,-y,1/2+z
1/2-x,1/2+y,1/2+z
1/2+x,1/2-y,z
loop_
_atom_site_type_symbol
_atom_site_label
_atom_site_fract_x
_atom_site_fract_y
_atom_site_fract_z
Si Si1 0.970945 0.374787 0.758170
Si Si2 0.466559 0.372322 0.418926
Si Si3 0.803475 0.979407 0.487431
Si Si4 0.806254 0.469857 0.703499
O O1 0.991543 0.252196 0.586960
O O2 0.888192 0.477561 0.770000
O O3 0.021924 0.637258 0.786913
O O4 0.984063 0.137526 0.887694
O O5 0.382895 0.462388 0.415954
O O6 0.797814 0.674967 0.554800
O O7 0.786288 0.173582 0.636711
O O8 0.746426 0.039076 0.348438
#
# Coordination Sequence:
#
# PCOD8171582 Si02
#       4
#     4   4   4   4
#     4  11  23  41  63  91 123 159 203 253 302 360
#     4  11  23  41  63  91 123 159 203 253 302 360
#     4  11  24  43  63  91 125 161 204 253 302 362
#     4  11  24  43  63  91 125 161 204 253 302 362
#
# _framework density 21.234918
#
# number of rings (size 3 to 8) (size 9 to 14) (size 15 to 20)
#    0.000    1.000    0.000    9.000    0.000    6.000 
#    0.000    0.000    0.000    0.000    0.000    0.000 
#    0.000    0.000    0.000    0.000    0.000    0.000 
#
# Total GULP energy -198502.012667 kJ/mol
# GULP energy per Si atom -12406.375792 kJ/mol
# Density = 2.118659 g / cm^3
# Si number density = 21.234918 Si / 1000 Ang^3
#
#
#
# Elastic Constant Matrix: (Units=GPa)
#
#
# Indices 1 2 3 4 5 6 
#
# 1 85.2505 35.7513 61.3283 0.0000 0.0000 0.0000
# 2 35.7513 105.4112 17.4634 0.0000 0.0000 0.0000
# 3 61.3283 17.4634 70.6803 0.0000 0.0000 0.0000
# 4 0.0000 0.0000 0.0000 58.0856 0.0000 0.0000
# 5 0.0000 0.0000 0.0000 0.0000 45.1449 0.0000
# 6 0.0000 0.0000 0.0000 0.0000 0.0000 34.1859
#
#
#
# Elastic Compliance Matrix: (Units=1/GPa)
#
#
# Indices 1 2 3 4 5 6 
#
# 1 0.035920 -0.007319 -0.029359 0.000000 0.000000 0.000000
# 2 -0.007319 0.011383 0.003538 0.000000 0.000000 0.000000
# 3 -0.029359 0.003538 0.038748 0.000000 0.000000 0.000000
# 4 0.000000 0.000000 0.000000 0.017216 0.000000 0.000000
# 5 0.000000 0.000000 0.000000 0.000000 0.022151 0.000000
# 6 0.000000 0.000000 0.000000 0.000000 0.000000 0.029252
#
#
# Mechanical properties :
#
#
# Convention : Reuss Voigt Hill
#
# Bulk Modulus (GPa) = 50.57743 54.49200 52.53472
# Shear Modulus (GPa) = 21.97427 37.26988 29.62208
#
# Velocity S-wave (km/s) = 3.22035 4.19396 3.73898
# Velocity P-wave (km/s) = 6.13981 7.01211 6.59041
#
# Compressibility (1/GPa) = 0.01977167
#
# Stress axis : x y z
#
# Youngs Moduli (GPa) = 27.83988 87.85222 25.80766
#
# Poissons Ratio (x) = 0.64297 0.75768
# Poissons Ratio (y) = 0.20375 -0.09131
# Poissons Ratio (z) = 0.81734 -0.31082
#
# Static dielectric constant tensor:
#      x y z
#    x 3.750970 0.000000 0.000000 
#    y 0.000000 4.131790 0.000000 
#    z 0.000000 0.000000 3.820540 
# 
# 
# High freq. dielectric constant tensor:
#      x y z
#    x 1.827300 0.000000 0.000000 
#    y 0.000000 1.858270 0.000000 
#    z 0.000000 0.000000 1.835200 
# 
# From -- ./inp_files/1199.got.cif
#   From: 2010.03.12/outbox.cif.g09.slc.cpg/sg33_1_cif.got.tgz:1199.got - 2010.04.14 01:49:19.
