data_PCOD8171229
_publ_section_title
;
Structure prediction by ZEFSAII (Michael W. Deem and Ramdas Pophale) SiO2 
 PCOD8171229
Probable space group: P N A 21
;
_chemical_formula_sum "Si O2"
_cell_formula_units_Z 32
_cell_length_a 11.778149
_cell_length_b 14.560658
_cell_length_c 8.468075
_cell_angle_alpha 90.000000
_cell_angle_beta 90.000000
_cell_angle_gamma 90.000000
_cell_volume 1452.254535
_symmetry_space_group_name_H-M "P N A 21"
_symmetry_group_IT_number 33
_symmetry_cell_setting 'orthorhombic'
loop_
_space_group_symop_operation_xyz
x,y,z
-x,-y,1/2+z
1/2-x,1/2+y,1/2+z
1/2+x,1/2-y,z
loop_
_atom_site_type_symbol
_atom_site_label
_atom_site_fract_x
_atom_site_fract_y
_atom_site_fract_z
Si Si1 0.316807 0.938904 0.811380
Si Si2 0.847408 0.194380 0.846466
Si Si3 0.463199 0.582970 0.174764
Si Si4 0.937737 0.423136 0.381534
Si Si5 0.946190 0.277326 0.134354
Si Si6 0.292031 0.125559 0.683965
Si Si7 0.630138 0.114134 0.962762
Si Si8 0.071368 0.893543 0.838646
O O1 0.427557 0.898692 0.901379
O O2 0.317173 0.924751 0.623044
O O3 0.206198 0.887792 0.879806
O O4 0.313384 0.050194 0.822451
O O5 0.952104 0.128743 0.801506
O O6 0.848448 0.278959 0.728656
O O7 0.850764 0.230386 0.027225
O O8 0.727307 0.142985 0.839519
O O9 0.343394 0.635611 0.167264
O O10 0.448228 0.476180 0.216453
O O11 0.510556 0.586155 0.000362
O O12 0.900525 0.369929 0.220793
O O13 0.855353 0.394061 0.520304
O O14 0.933385 0.533546 0.364036
O O15 0.978489 0.201246 0.266784
O O16 0.047852 0.301732 0.011903
#
# Coordination Sequence:
#
# PCOD8171229 Si02
#       8
#     4   4   4   4   4   4   4   4
#     4   9  20  43  67  95 136 175 228 291 336 418
#     4  12  23  44  64 103 137 187 229 287 348 418
#     4  11  26  44  69  98 149 185 229 300 349 424
#     4  10  22  44  69 100 133 181 225 293 350 406
#     4  11  23  42  72 101 135 183 234 286 351 431
#     4  10  23  43  65  98 139 174 233 287 344 417
#     4  10  22  42  66  99 137 171 233 288 345 418
#     4  11  23  46  68 104 138 186 235 282 363 420
#
# _framework density 22.034704000000001
#
# number of rings (size 3 to 8) (size 9 to 14) (size 15 to 20)
#    0.000    1.500    1.250    3.000    3.500    2.000 
#   22.500    0.000    0.000    0.000    0.000    0.000 
#    0.000    0.000    0.000    0.000    0.000    0.000 
#
# Total GULP energy -396671.200043 kJ/mol
# GULP energy per Si atom -12395.975001 kJ/mol
# Density = 2.198455 g / cm^3
# Si number density = 22.034704 Si / 1000 Ang^3
#
#
#
# Elastic Constant Matrix: (Units=GPa)
#
#
# Indices 1 2 3 4 5 6 
#
# 1 114.7407 44.8722 35.2057 0.0000 0.0000 0.0000
# 2 44.8722 105.5763 24.6230 0.0000 0.0000 0.0000
# 3 35.2057 24.6230 77.3280 0.0000 0.0000 0.0000
# 4 0.0000 0.0000 0.0000 36.9236 0.0000 0.0000
# 5 0.0000 0.0000 0.0000 0.0000 44.1496 0.0000
# 6 0.0000 0.0000 0.0000 0.0000 0.0000 30.1153
#
#
#
# Elastic Compliance Matrix: (Units=1/GPa)
#
#
# Indices 1 2 3 4 5 6 
#
# 1 0.011479 -0.003953 -0.003967 0.000000 0.000000 0.000000
# 2 -0.003953 0.011593 -0.001892 0.000000 0.000000 0.000000
# 3 -0.003967 -0.001892 0.015340 0.000000 0.000000 0.000000
# 4 0.000000 0.000000 0.000000 0.027083 0.000000 0.000000
# 5 0.000000 0.000000 0.000000 0.000000 0.022650 0.000000
# 6 0.000000 0.000000 0.000000 0.000000 0.000000 0.033206
#
#
# Mechanical properties :
#
#
# Convention : Reuss Voigt Hill
#
# Bulk Modulus (GPa) = 53.22563 56.33853 54.78208
# Shear Modulus (GPa) = 33.95855 35.10063 34.52959
#
# Velocity S-wave (km/s) = 3.92999 3.99553 3.96290
# Velocity P-wave (km/s) = 6.69335 6.84904 6.77164
#
# Compressibility (1/GPa) = 0.01878794
#
# Stress axis : x y z
#
# Youngs Moduli (GPa) = 87.11858 86.25674 65.18729
#
# Poissons Ratio (x) = 0.34101 0.25860
# Poissons Ratio (y) = 0.34442 0.12331
# Poissons Ratio (z) = 0.34561 0.16317
#
# Static dielectric constant tensor:
#      x y z
#    x 4.011810 0.000000 0.000000 
#    y 0.000000 4.346390 0.000000 
#    z 0.000000 0.000000 3.697240 
# 
# 
# High freq. dielectric constant tensor:
#      x y z
#    x 1.869330 0.000000 0.000000 
#    y 0.000000 1.877280 0.000000 
#    z 0.000000 0.000000 1.853420 
# 
# From -- ./inp_files/3975.got.cif
#   From: 2010.03.12/outbox.cif.g09.slc.cpg/sg33_2_cif.got.tgz:3975.got - 2010.04.14 01:49:19.
