data_PCOD8171544
_publ_section_title
;
Structure prediction by ZEFSAII (Michael W. Deem and Ramdas Pophale) SiO2 
 PCOD8171544
Probable space group: P N A 21
;
_chemical_formula_sum "Si O2"
_cell_formula_units_Z 32
_cell_length_a 12.225357
_cell_length_b 5.315502
_cell_length_c 21.700378
_cell_angle_alpha 90.000000
_cell_angle_beta 90.000000
_cell_angle_gamma 90.000000
_cell_volume 1410.175402
_symmetry_space_group_name_H-M "P N A 21"
_symmetry_group_IT_number 33
_symmetry_cell_setting 'orthorhombic'
loop_
_space_group_symop_operation_xyz
x,y,z
-x,-y,1/2+z
1/2-x,1/2+y,1/2+z
1/2+x,1/2-y,z
loop_
_atom_site_type_symbol
_atom_site_label
_atom_site_fract_x
_atom_site_fract_y
_atom_site_fract_z
Si Si1 0.098020 0.656145 0.768300
Si Si2 0.782630 0.960173 0.680678
Si Si3 0.598021 0.843854 0.910947
Si Si4 0.717370 0.460173 0.498568
Si Si5 0.097082 0.309084 0.600102
Si Si6 0.495684 0.354732 0.962592
Si Si7 0.504316 0.645268 0.216655
Si Si8 0.597083 0.190916 0.079145
O O1 0.213063 0.684345 0.732415
O O2 0.124799 0.624136 0.839623
O O3 0.036365 0.407326 0.744865
O O4 0.027515 0.907519 0.758695
O O5 0.870808 0.782804 0.646824
O O6 0.706288 0.072264 0.628247
O O7 0.863058 0.165411 0.712709
O O8 0.527516 0.592480 0.920552
O O9 0.536366 0.092673 0.934382
O O10 0.713064 0.815653 0.946832
O O11 0.629190 0.282806 0.532423
O O12 0.636941 0.665412 0.466538
O O13 0.793712 0.572262 0.551000
O O14 0.051605 0.102447 0.648885
O O15 0.000000 0.500002 0.589624
O O16 0.551606 0.397554 0.030362
#
# Coordination Sequence:
#
# PCOD8171544 Si02
#       8
#     4   4   4   4   4   4   4   4
#     4  11  26  45  66  95 131 176 232 281 324 388
#     4  11  22  40  68  98 132 178 216 269 340 402
#     4  11  26  45  66  95 131 176 232 281 324 388
#     4  11  22  40  68  98 132 178 216 269 340 402
#     4  11  22  40  67 103 139 170 216 275 338 408
#     4  11  24  43  66  96 133 172 219 275 333 396
#     4  11  24  43  66  96 133 172 219 275 333 396
#     4  11  22  40  67 103 139 170 216 275 338 408
#
# _framework density 22.692212000000001
#
# number of rings (size 3 to 8) (size 9 to 14) (size 15 to 20)
#    0.000    1.000    0.000    7.500    0.000    8.000 
#    0.000    0.000    0.000    0.000    0.000    0.000 
#    0.000    0.000    0.000    0.000    0.000    0.000 
#
# Total GULP energy -396749.068833 kJ/mol
# GULP energy per Si atom -12398.408401 kJ/mol
# Density = 2.264056 g / cm^3
# Si number density = 22.692212 Si / 1000 Ang^3
#
#
#
# Elastic Constant Matrix: (Units=GPa)
#
#
# Indices 1 2 3 4 5 6 
#
# 1 158.5745 53.1776 42.9958 0.0000 0.0000 0.0000
# 2 53.1776 114.9969 30.4324 0.0000 0.0000 0.0000
# 3 42.9958 30.4324 125.2354 0.0000 0.0000 0.0000
# 4 0.0000 0.0000 0.0000 26.7683 0.0000 0.0000
# 5 0.0000 0.0000 0.0000 0.0000 25.3395 0.0000
# 6 0.0000 0.0000 0.0000 0.0000 0.0000 28.5795
#
#
#
# Elastic Compliance Matrix: (Units=1/GPa)
#
#
# Indices 1 2 3 4 5 6 
#
# 1 0.007884 -0.003131 -0.001946 0.000000 0.000000 0.000000
# 2 -0.003131 0.010537 -0.001486 0.000000 0.000000 0.000000
# 3 -0.001946 -0.001486 0.009014 0.000000 0.000000 0.000000
# 4 0.000000 0.000000 0.000000 0.037358 0.000000 0.000000
# 5 0.000000 0.000000 0.000000 0.000000 0.039464 0.000000
# 6 0.000000 0.000000 0.000000 0.000000 0.000000 0.034990
#
#
# Mechanical properties :
#
#
# Convention : Reuss Voigt Hill
#
# Bulk Modulus (GPa) = 69.88062 72.44649 71.16356
# Shear Modulus (GPa) = 31.81868 34.28422 33.05145
#
# Velocity S-wave (km/s) = 3.74864 3.89116 3.82057
# Velocity P-wave (km/s) = 7.04260 7.22380 7.13377
#
# Compressibility (1/GPa) = 0.01431012
#
# Stress axis : x y z
#
# Youngs Moduli (GPa) = 126.84498 94.90609 110.93823
#
# Poissons Ratio (x) = 0.29712 0.21587
# Poissons Ratio (y) = 0.39711 0.16481
# Poissons Ratio (z) = 0.24682 0.14100
#
# Static dielectric constant tensor:
#      x y z
#    x 4.348440 0.000000 0.000000 
#    y 0.000000 3.881620 0.000000 
#    z 0.000000 0.000000 4.556260 
# 
# 
# High freq. dielectric constant tensor:
#      x y z
#    x 1.917750 0.000000 0.000000 
#    y 0.000000 1.885160 0.000000 
#    z 0.000000 0.000000 1.893920 
# 
# From -- ./inp_files/9130.got.cif
#   From: 2010.03.12/outbox.cif.g09.slc.cpg/sg33_5_cif.got.tgz:9130.got - 2010.04.14 01:49:19.
