data_PCOD8171279
_publ_section_title
;
Structure prediction by ZEFSAII (Michael W. Deem and Ramdas Pophale) SiO2 
 PCOD8171279
Probable space group: P N A 21
;
_chemical_formula_sum "Si O2"
_cell_formula_units_Z 32
_cell_length_a 11.014498
_cell_length_b 15.113698
_cell_length_c 8.875742
_cell_angle_alpha 90.000000
_cell_angle_beta 90.000000
_cell_angle_gamma 90.000000
_cell_volume 1477.542964
_symmetry_space_group_name_H-M "P N A 21"
_symmetry_group_IT_number 33
_symmetry_cell_setting 'orthorhombic'
loop_
_space_group_symop_operation_xyz
x,y,z
-x,-y,1/2+z
1/2-x,1/2+y,1/2+z
1/2+x,1/2-y,z
loop_
_atom_site_type_symbol
_atom_site_label
_atom_site_fract_x
_atom_site_fract_y
_atom_site_fract_z
Si Si1 0.919020 0.187683 0.697090
Si Si2 0.663609 0.051649 0.282943
Si Si3 0.081345 0.657194 0.785741
Si Si4 0.599819 0.649244 0.847973
Si Si5 0.235742 0.572582 0.029004
Si Si6 0.748011 0.916250 0.524756
Si Si7 0.322845 0.704044 0.267506
Si Si8 0.407007 0.506364 0.771528
O O1 0.917171 0.166663 0.522588
O O2 0.790195 0.229396 0.746126
O O3 0.939588 0.096239 0.786420
O O4 0.040379 0.246061 0.743713
O O5 0.538660 0.101276 0.291350
O O6 0.762474 0.128492 0.303917
O O7 0.667084 0.003929 0.120927
O O8 0.671147 0.978868 0.414529
O O9 0.056174 0.761489 0.764116
O O10 0.160812 0.626432 0.646552
O O11 0.145031 0.641218 0.947811
O O12 0.526211 0.565053 0.789353
O O13 0.319792 0.627330 0.142072
O O14 0.314372 0.525608 0.903737
O O15 0.812206 0.837244 0.433438
O O16 0.849949 0.974883 0.607218
#
# Coordination Sequence:
#
# PCOD8171279 Si02
#       8
#     4   4   4   4   4   4   4   4
#     4  12  26  46  74 104 138 187 235 289 352 417
#     4  11  24  43  68 100 140 181 231 286 355 418
#     4  11  25  43  71 101 143 177 233 292 351 418
#     4  12  26  41  71 103 134 187 234 287 344 421
#     4  10  22  44  71  98 133 184 228 282 351 417
#     4  10  24  46  69 105 136 181 230 291 349 415
#     4  11  25  46  72 101 142 176 233 293 346 414
#     4  11  24  45  72  98 138 183 238 276 342 428
#
# _framework density 21.657575000000001
#
# number of rings (size 3 to 8) (size 9 to 14) (size 15 to 20)
#    0.000    1.000    3.750    2.250    5.250    2.000 
#   11.250    0.000    0.000    0.000    0.000    0.000 
#    0.000    0.000    0.000    0.000    0.000    0.000 
#
# Total GULP energy -396820.119512 kJ/mol
# GULP energy per Si atom -12400.628735 kJ/mol
# Density = 2.160828 g / cm^3
# Si number density = 21.657575 Si / 1000 Ang^3
#
#
#
# Elastic Constant Matrix: (Units=GPa)
#
#
# Indices 1 2 3 4 5 6 
#
# 1 107.1159 43.5377 42.9510 0.0000 0.0000 0.0000
# 2 43.5377 52.9219 4.3920 0.0000 0.0000 0.0000
# 3 42.9510 4.3920 93.5809 0.0000 0.0000 0.0000
# 4 0.0000 0.0000 0.0000 -17.6187 0.0000 0.0000
# 5 0.0000 0.0000 0.0000 0.0000 -95.6041 0.0000
# 6 0.0000 0.0000 0.0000 0.0000 0.0000 49.3038
#
#
#
# Elastic Compliance Matrix: (Units=1/GPa)
#
#
# Indices 1 2 3 4 5 6 
#
# 1 0.018282 -0.014400 -0.007715 0.000000 0.000000 0.000000
# 2 -0.014400 0.030312 0.005187 0.000000 0.000000 0.000000
# 3 -0.007715 0.005187 0.013984 0.000000 0.000000 0.000000
# 4 0.000000 0.000000 0.000000 -0.056758 0.000000 0.000000
# 5 0.000000 0.000000 0.000000 0.000000 -0.010460 0.000000
# 6 0.000000 0.000000 0.000000 0.000000 0.000000 0.020282
#
#
# Mechanical properties :
#
#
# Convention : Reuss Voigt Hill
#
# Bulk Modulus (GPa) = 34.81839 48.37559 41.59699
# Shear Modulus (GPa) = 84.63984 -1.93460 41.35262
#
# Velocity S-wave (km/s) = 6.25826 -0.94615 4.37439
# Velocity P-wave (km/s) = 8.26636 4.60342 6.69045
#
# Compressibility (1/GPa) = 0.02872045
#
# Stress axis : x y z
#
# Youngs Moduli (GPa) = 54.69757 32.99013 71.51235
#
# Poissons Ratio (x) = 0.47507 0.55174
# Poissons Ratio (y) = 0.78766 -0.37091
# Poissons Ratio (z) = 0.42201 -0.17111
#
# Static dielectric constant tensor:
#      x y z
#    x 4.521310 0.000000 0.000000 
#    y 0.000000 4.226540 0.000000 
#    z 0.000000 0.000000 4.166500 
# 
# 
# High freq. dielectric constant tensor:
#      x y z
#    x 1.858200 0.000000 0.000000 
#    y 0.000000 1.848460 0.000000 
#    z 0.000000 0.000000 1.864050 
# 
# From -- ./inp_files/3956.got.cif
#   From: 2010.03.12/outbox.cif.g09.slc.cpg/sg33_2_cif.got.tgz:3956.got - 2010.04.14 01:49:19.
