data_PCOD8171671
_publ_section_title
;
Structure prediction by ZEFSAII (Michael W. Deem and Ramdas Pophale) SiO2 
 PCOD8171671
Probable space group: P N A 21
;
_chemical_formula_sum "Si O2"
_cell_formula_units_Z 24
_cell_length_a 12.461309
_cell_length_b 5.016964
_cell_length_c 16.730591
_cell_angle_alpha 90.000000
_cell_angle_beta 90.000000
_cell_angle_gamma 90.000000
_cell_volume 1045.962062
_symmetry_space_group_name_H-M "P N A 21"
_symmetry_group_IT_number 33
_symmetry_cell_setting 'orthorhombic'
loop_
_space_group_symop_operation_xyz
x,y,z
-x,-y,1/2+z
1/2-x,1/2+y,1/2+z
1/2+x,1/2-y,z
loop_
_atom_site_type_symbol
_atom_site_label
_atom_site_fract_x
_atom_site_fract_y
_atom_site_fract_z
Si Si1 0.905133 0.095137 0.043720
Si Si2 0.901542 0.780325 0.645889
Si Si3 0.709264 0.785177 0.079207
Si Si4 0.240123 0.522562 0.440296
Si Si5 0.458910 0.582854 0.387107
Si Si6 0.437703 0.902970 0.820978
O O1 0.974630 0.191826 0.119509
O O2 0.838758 0.843161 0.080314
O O3 0.821604 0.307850 0.007621
O O4 0.987887 0.026919 0.973395
O O5 0.851059 0.563085 0.587289
O O6 0.893205 0.652663 0.733153
O O7 0.833365 0.057767 0.641038
O O8 0.687912 0.692997 0.988352
O O9 0.334306 0.678148 0.392296
O O10 0.161920 0.364734 0.381233
O O11 0.468101 0.305627 0.339515
O O12 0.521058 0.797086 0.332699
#
# Coordination Sequence:
#
# PCOD8171671 Si02
#       6
#     4   4   4   4   4   4
#     4  11  24  44  74 107 138 190 243 296 358 430
#     4  12  28  46  73 108 151 186 235 307 369 431
#     4  12  24  45  73 106 139 188 245 296 355 436
#     4  11  25  45  75 104 137 193 249 297 348 437
#     4  11  24  44  73  98 140 189 241 295 354 434
#     4  11  27  48  68 107 147 184 239 297 370 426
#
# _framework density 22.945384000000001
#
# number of rings (size 3 to 8) (size 9 to 14) (size 15 to 20)
#    0.000    0.667    5.000    1.000    9.333    1.333 
#    3.000    0.000    0.000    0.000    0.000    0.000 
#    0.000    0.000    0.000    0.000    0.000    0.000 
#
# Total GULP energy -297415.418034 kJ/mol
# GULP energy per Si atom -12392.309085 kJ/mol
# Density = 2.289316 g / cm^3
# Si number density = 22.945384 Si / 1000 Ang^3
#
#
#
# Elastic Constant Matrix: (Units=GPa)
#
#
# Indices 1 2 3 4 5 6 
#
# 1 121.6294 54.9269 48.5806 0.0000 0.0000 0.0000
# 2 54.9269 109.1771 30.1836 0.0000 0.0000 0.0000
# 3 48.5806 30.1836 101.3760 0.0000 0.0000 0.0000
# 4 0.0000 0.0000 0.0000 34.8528 0.0000 0.0000
# 5 0.0000 0.0000 0.0000 0.0000 27.0222 0.0000
# 6 0.0000 0.0000 0.0000 0.0000 0.0000 36.7792
#
#
#
# Elastic Compliance Matrix: (Units=1/GPa)
#
#
# Indices 1 2 3 4 5 6 
#
# 1 0.012194 -0.004925 -0.004377 0.000000 0.000000 0.000000
# 2 -0.004925 0.011970 -0.001204 0.000000 0.000000 0.000000
# 3 -0.004377 -0.001204 0.012320 0.000000 0.000000 0.000000
# 4 0.000000 0.000000 0.000000 0.028692 0.000000 0.000000
# 5 0.000000 0.000000 0.000000 0.000000 0.037007 0.000000
# 6 0.000000 0.000000 0.000000 0.000000 0.000000 0.027189
#
#
# Mechanical properties :
#
#
# Convention : Reuss Voigt Hill
#
# Bulk Modulus (GPa) = 64.63062 66.61829 65.62445
# Shear Modulus (GPa) = 32.14581 32.96360 32.55471
#
# Velocity S-wave (km/s) = 3.74701 3.79438 3.77077
# Velocity P-wave (km/s) = 6.85189 6.94931 6.90077
#
# Compressibility (1/GPa) = 0.01547254
#
# Stress axis : x y z
#
# Youngs Moduli (GPa) = 82.00790 83.54330 81.16642
#
# Poissons Ratio (x) = 0.41142 0.35529
# Poissons Ratio (y) = 0.40386 0.09772
# Poissons Ratio (z) = 0.35897 0.10058
#
# Static dielectric constant tensor:
#      x y z
#    x 4.348570 0.000000 0.000000 
#    y 0.000000 4.203100 0.000000 
#    z 0.000000 0.000000 4.002580 
# 
# 
# High freq. dielectric constant tensor:
#      x y z
#    x 1.917630 0.000000 0.000000 
#    y 0.000000 1.909890 0.000000 
#    z 0.000000 0.000000 1.888900 
# 
# From -- ./inp_files/7882.got.cif
#   From: 2010.03.12/outbox.cif.g09.slc.cpg/sg33_4_cif.got.tgz:7882.got - 2010.04.14 01:49:19.
