data_PCOD8171321
_publ_section_title
;
Structure prediction by ZEFSAII (Michael W. Deem and Ramdas Pophale) SiO2 
 PCOD8171321
Probable space group: P N A 21
;
_chemical_formula_sum "Si O2"
_cell_formula_units_Z 32
_cell_length_a 20.016516
_cell_length_b 8.726213
_cell_length_c 8.729712
_cell_angle_alpha 90.000000
_cell_angle_beta 90.000000
_cell_angle_gamma 90.000000
_cell_volume 1524.804672
_symmetry_space_group_name_H-M "P N A 21"
_symmetry_group_IT_number 33
_symmetry_cell_setting 'orthorhombic'
loop_
_space_group_symop_operation_xyz
x,y,z
-x,-y,1/2+z
1/2-x,1/2+y,1/2+z
1/2+x,1/2-y,z
loop_
_atom_site_type_symbol
_atom_site_label
_atom_site_fract_x
_atom_site_fract_y
_atom_site_fract_z
Si Si1 0.062996 0.409600 0.520750
Si Si2 0.553949 0.092634 0.877217
Si Si3 0.565219 0.413675 0.387412
Si Si4 0.443836 0.583557 0.527810
Si Si5 0.310585 0.074986 0.384534
Si Si6 0.179629 0.926300 0.882296
Si Si7 0.687015 0.572419 0.528104
Si Si8 0.197834 0.577502 0.532798
O O1 0.045151 0.384297 0.697177
O O2 0.088076 0.251036 0.448990
O O3 0.121490 0.533231 0.499496
O O4 0.998040 0.465216 0.431285
O O5 0.627798 0.036123 0.921071
O O6 0.538508 0.251204 0.960430
O O7 0.497064 0.460473 0.470258
O O8 0.551732 0.405785 0.208674
O O9 0.624116 0.532700 0.422208
O O10 0.370445 0.531390 0.477940
O O11 0.332625 0.248474 0.419134
O O12 0.249913 0.035172 0.495593
O O13 0.285246 0.052062 0.211057
O O14 0.166476 0.954275 0.703474
O O15 0.254423 0.973877 0.928456
O O16 0.707874 0.745613 0.489891
#
# Coordination Sequence:
#
# PCOD8171321 Si02
#       8
#     4   4   4   4   4   4   4   4
#     4  11  23  41  65  93 127 165 207 254 307 366
#     4  11  23  41  65  93 127 165 207 254 307 366
#     4  12  25  42  64  91 124 161 206 257 312 371
#     4  12  25  42  64  91 124 161 206 257 312 371
#     4  10  23  41  61  89 124 162 204 251 304 366
#     4  11  23  40  63  91 123 160 205 254 306 367
#     4  11  23  40  63  91 123 160 205 254 306 367
#     4  10  23  41  61  89 124 162 204 251 304 366
#
# _framework density 20.986294000000001
#
# number of rings (size 3 to 8) (size 9 to 14) (size 15 to 20)
#    0.000    1.000    0.000    6.750    0.000   10.000 
#    0.000    0.000    0.000    0.000    0.000    0.000 
#    0.000    0.000    0.000    0.000    0.000    0.000 
#
# Total GULP energy -397116.412763 kJ/mol
# GULP energy per Si atom -12409.887899 kJ/mol
# Density = 2.093853 g / cm^3
# Si number density = 20.986294 Si / 1000 Ang^3
#
#
#
# Elastic Constant Matrix: (Units=GPa)
#
#
# Indices 1 2 3 4 5 6 
#
# 1 84.1848 17.5044 33.1856 0.0000 0.0000 0.0000
# 2 17.5044 89.4260 39.2352 0.0000 0.0000 0.0000
# 3 33.1856 39.2352 111.3851 0.0000 0.0000 0.0000
# 4 0.0000 0.0000 0.0000 34.4773 0.0000 0.0000
# 5 0.0000 0.0000 0.0000 0.0000 45.0934 0.0000
# 6 0.0000 0.0000 0.0000 0.0000 0.0000 36.2606
#
#
#
# Elastic Compliance Matrix: (Units=1/GPa)
#
#
# Indices 1 2 3 4 5 6 
#
# 1 0.013541 -0.001041 -0.003667 0.000000 0.000000 0.000000
# 2 -0.001041 0.013307 -0.004377 0.000000 0.000000 0.000000
# 3 -0.003667 -0.004377 0.011612 0.000000 0.000000 0.000000
# 4 0.000000 0.000000 0.000000 0.029005 0.000000 0.000000
# 5 0.000000 0.000000 0.000000 0.000000 0.022176 0.000000
# 6 0.000000 0.000000 0.000000 0.000000 0.000000 0.027578
#
#
# Mechanical properties :
#
#
# Convention : Reuss Voigt Hill
#
# Bulk Modulus (GPa) = 49.28994 51.64958 50.46976
# Shear Modulus (GPa) = 35.17333 36.17098 35.67216
#
# Velocity S-wave (km/s) = 4.09836 4.15607 4.12732
# Velocity P-wave (km/s) = 6.77740 6.90617 6.84208
#
# Compressibility (1/GPa) = 0.02028812
#
# Stress axis : x y z
#
# Youngs Moduli (GPa) = 73.85038 75.15039 86.11551
#
# Poissons Ratio (x) = 0.07826 0.31583
# Poissons Ratio (y) = 0.07691 0.37692
# Poissons Ratio (z) = 0.27084 0.32893
#
# Static dielectric constant tensor:
#      x y z
#    x 3.701270 0.000000 0.000000 
#    y 0.000000 3.790580 0.000000 
#    z 0.000000 0.000000 3.819360 
# 
# 
# High freq. dielectric constant tensor:
#      x y z
#    x 1.831400 0.000000 0.000000 
#    y 0.000000 1.836020 0.000000 
#    z 0.000000 0.000000 1.829220 
# 
# From -- ./inp_files/4791.got.cif
#   From: 2010.03.12/outbox.cif.g09.slc.cpg/sg33_3_cif.got.tgz:4791.got - 2010.04.14 01:49:19.
