data_PCOD8171883
_publ_section_title
;
Structure prediction by ZEFSAII (Michael W. Deem and Ramdas Pophale) SiO2 
 PCOD8171883
Probable space group: P N N 2
;
_chemical_formula_sum "Si O2"
_cell_formula_units_Z 18
_cell_length_a 11.160757
_cell_length_b 8.815458
_cell_length_c 9.871969
_cell_angle_alpha 90.000000
_cell_angle_beta 90.000000
_cell_angle_gamma 90.000000
_cell_volume 971.275236
_symmetry_space_group_name_H-M "P N N 2"
_symmetry_group_IT_number 34
_symmetry_cell_setting 'orthorhombic'
loop_
_space_group_symop_operation_xyz
x,y,z
-x,-y,z
1/2-x,1/2+y,1/2+z
1/2+x,1/2-y,1/2+z
loop_
_atom_site_type_symbol
_atom_site_label
_atom_site_fract_x
_atom_site_fract_y
_atom_site_fract_z
Si Si1 0.129394 0.969853 0.257950
Si Si2 0.281526 0.806891 0.468368
Si Si3 0.370061 0.473319 0.453106
Si Si4 0.000000 0.500000 0.862474
Si Si5 0.188117 0.729214 0.747087
O O1 0.197349 0.845239 0.343539
O O2 0.194308 0.130046 0.261691
O O3 0.118167 0.907049 0.104946
O O4 0.000000 0.000000 0.322081
O O5 0.301616 0.630054 0.451075
O O6 0.403911 0.909565 0.458740
O O7 0.203088 0.824014 0.606518
O O8 0.500000 0.500000 0.387568
O O9 0.301058 0.349620 0.366667
O O10 0.069153 0.621877 0.764994
#
# Coordination Sequence:
#
# PCOD8171883 Si02
#       5
#     4   4   4   2   4
#     4   9  21  40  56  82 123 151 187 245 291 343
#     4  10  21  38  61  88 115 154 194 240 292 348
#     4  10  19  38  61  82 115 152 192 237 297 347
#     4  10  20  40  62  86 124 152 190 254 290 346
#     4  10  21  38  61  87 112 158 197 232 296 351
#
# _framework density 18.532336000000001
#
# number of rings (size 3 to 8) (size 9 to 14) (size 15 to 20)
#    0.000    2.222    2.222    0.000    0.000    4.444 
#   12.000    0.000    0.000    0.000    0.000    0.000 
#    0.000    0.000    0.000    0.000    0.000    0.000 
#
# Total GULP energy -223065.318141 kJ/mol
# GULP energy per Si atom -12392.517674 kJ/mol
# Density = 1.849016 g / cm^3
# Si number density = 18.532336 Si / 1000 Ang^3
#
#
#
# Elastic Constant Matrix: (Units=GPa)
#
#
# Indices 1 2 3 4 5 6 
#
# 1 98.9932 28.3499 48.3670 0.0000 0.0000 0.0000
# 2 28.3499 71.4778 48.4748 0.0000 0.0000 0.0000
# 3 48.3670 48.4748 101.6791 0.0000 0.0000 0.0000
# 4 0.0000 0.0000 0.0000 33.2286 0.0000 0.0000
# 5 0.0000 0.0000 0.0000 0.0000 50.7719 0.0000
# 6 0.0000 0.0000 0.0000 0.0000 0.0000 15.2864
#
#
#
# Elastic Compliance Matrix: (Units=1/GPa)
#
#
# Indices 1 2 3 4 5 6 
#
# 1 0.013261 -0.001451 -0.005617 0.000000 0.000000 0.000000
# 2 -0.001451 0.020834 -0.009242 0.000000 0.000000 0.000000
# 3 -0.005617 -0.009242 0.016913 0.000000 0.000000 0.000000
# 4 0.000000 0.000000 0.000000 0.030095 0.000000 0.000000
# 5 0.000000 0.000000 0.000000 0.000000 0.019696 0.000000
# 6 0.000000 0.000000 0.000000 0.000000 0.000000 0.065418
#
#
# Mechanical properties :
#
#
# Convention : Reuss Voigt Hill
#
# Bulk Modulus (GPa) = 54.38125 58.05928 56.22026
# Shear Modulus (GPa) = 24.39447 29.65461 27.02454
#
# Velocity S-wave (km/s) = 3.63205 4.00453 3.82283
# Velocity P-wave (km/s) = 6.85541 7.26487 7.06311
#
# Compressibility (1/GPa) = 0.01838869
#
# Stress axis : x y z
#
# Youngs Moduli (GPa) = 75.40704 47.99937 59.12718
#
# Poissons Ratio (x) = 0.06964 0.33209
# Poissons Ratio (y) = 0.10940 0.54646
# Poissons Ratio (z) = 0.42353 0.44362
#
# Static dielectric constant tensor:
#      x y z
#    x 2.993670 0.000000 0.000000 
#    y 0.000000 3.409570 0.000000 
#    z 0.000000 0.000000 3.725340 
# 
# 
# High freq. dielectric constant tensor:
#      x y z
#    x 1.724010 0.000000 0.000000 
#    y 0.000000 1.721830 0.000000 
#    z 0.000000 0.000000 1.711500 
# 
# From -- ./inp_files/2373.got.cif
#   From: 2010.03.12/outbox.cif.g09.slc.cpg/sg34_2_cif.got.tgz:2373.got - 2010.04.14 01:56:33.
