data_PCOD8171747
_publ_section_title
;
Structure prediction by ZEFSAII (Michael W. Deem and Ramdas Pophale) SiO2 
 PCOD8171747
Probable space group: P N A 21
;
_chemical_formula_sum "Si O2"
_cell_formula_units_Z 24
_cell_length_a 17.140376
_cell_length_b 13.342612
_cell_length_c 4.968413
_cell_angle_alpha 90.000000
_cell_angle_beta 90.000000
_cell_angle_gamma 90.000000
_cell_volume 1136.263068
_symmetry_space_group_name_H-M "P N A 21"
_symmetry_group_IT_number 33
_symmetry_cell_setting 'orthorhombic'
loop_
_space_group_symop_operation_xyz
x,y,z
-x,-y,1/2+z
1/2-x,1/2+y,1/2+z
1/2+x,1/2-y,z
loop_
_atom_site_type_symbol
_atom_site_label
_atom_site_fract_x
_atom_site_fract_y
_atom_site_fract_z
Si Si1 0.705454 0.965803 0.507390
Si Si2 0.294547 0.465802 0.007390
Si Si3 0.538400 0.455724 0.580655
Si Si4 0.538400 0.044276 0.580659
Si Si5 0.860770 0.250001 0.945916
Si Si6 0.468473 0.250000 0.445026
O O1 0.693389 0.846740 0.488599
O O2 0.774561 0.989446 0.715500
O O3 0.629249 0.022233 0.617798
O O4 0.725439 0.010556 0.215500
O O5 0.370751 0.522234 0.117798
O O6 0.395012 0.250000 0.645509
O O7 0.306612 0.346739 0.988603
O O8 0.496341 0.465506 0.867511
O O9 0.524768 0.344252 0.476732
O O10 0.524769 0.155749 0.476744
O O11 0.503657 0.965508 0.367516
O O12 0.933672 0.250002 0.146952
#
# Coordination Sequence:
#
# PCOD8171747 Si02
#       6
#     4   4   4   4   4   4
#     4  12  26  44  68 102 142 173 221 285 342 404
#     4  12  26  44  68 102 142 173 221 285 342 404
#     4  12  23  43  69 102 130 177 233 274 325 402
#     4  12  23  43  69 102 130 177 233 274 325 402
#     4  12  24  44  72  96 134 188 218 274 358 392
#     4  12  22  42  74 100 130 180 234 276 324 404
#
# _framework density 21.121869
#
# number of rings (size 3 to 8) (size 9 to 14) (size 15 to 20)
#    0.000    0.000    6.667    4.000    0.000    2.667 
#    0.000    0.000    0.000    0.000    0.000    0.000 
#    0.000    0.000    0.000    0.000    0.000    0.000 
#
# Total GULP energy -297842.130590 kJ/mol
# GULP energy per Si atom -12410.088775 kJ/mol
# Density = 2.107379 g / cm^3
# Si number density = 21.121869 Si / 1000 Ang^3
#
#
#
# Elastic Constant Matrix: (Units=GPa)
#
#
# Indices 1 2 3 4 5 6 
#
# 1 73.0346 29.7163 11.6782 0.0000 0.0000 0.0000
# 2 29.7163 149.6640 6.3894 0.0000 0.0000 0.0000
# 3 11.6782 6.3894 83.4901 0.0000 0.0000 0.0000
# 4 0.0000 0.0000 0.0000 30.7473 0.0000 0.0000
# 5 0.0000 0.0000 0.0000 0.0000 31.1323 0.0000
# 6 0.0000 0.0000 0.0000 0.0000 0.0000 18.5366
#
#
#
# Elastic Compliance Matrix: (Units=1/GPa)
#
#
# Indices 1 2 3 4 5 6 
#
# 1 0.015190 -0.002935 -0.001900 0.000000 0.000000 0.000000
# 2 -0.002935 0.007271 -0.000146 0.000000 0.000000 0.000000
# 3 -0.001900 -0.000146 0.012254 0.000000 0.000000 0.000000
# 4 0.000000 0.000000 0.000000 0.032523 0.000000 0.000000
# 5 0.000000 0.000000 0.000000 0.000000 0.032121 0.000000
# 6 0.000000 0.000000 0.000000 0.000000 0.000000 0.053947
#
#
# Mechanical properties :
#
#
# Convention : Reuss Voigt Hill
#
# Bulk Modulus (GPa) = 40.39870 44.63962 42.51916
# Shear Modulus (GPa) = 29.15118 33.31022 31.23070
#
# Velocity S-wave (km/s) = 3.71906 3.97552 3.84942
# Velocity P-wave (km/s) = 6.13269 6.50024 6.31914
#
# Compressibility (1/GPa) = 0.02475327
#
# Stress axis : x y z
#
# Youngs Moduli (GPa) = 65.83215 137.54018 81.60322
#
# Poissons Ratio (x) = 0.40367 0.15506
# Poissons Ratio (y) = 0.19321 0.01190
# Poissons Ratio (z) = 0.12509 0.02007
#
# Static dielectric constant tensor:
#      x y z
#    x 3.587710 0.000000 0.000000 
#    y 0.000000 3.954260 0.000000 
#    z 0.000000 0.000000 3.922410 
# 
# 
# High freq. dielectric constant tensor:
#      x y z
#    x 1.818810 0.000000 0.000000 
#    y 0.000000 1.841200 0.000000 
#    z 0.000000 0.000000 1.847220 
# 
# From -- ./inp_files/1313.got.cif
#   From: 2010.03.12/outbox.cif.g09.slc.cpg/sg33_1_cif.got.tgz:1313.got - 2010.04.14 01:49:19.
