data_PCOD8171954
_publ_section_title
;
Structure prediction by ZEFSAII (Michael W. Deem and Ramdas Pophale) SiO2 
 PCOD8171954
Probable space group: P N N 2
;
_chemical_formula_sum "Si O2"
_cell_formula_units_Z 20
_cell_length_a 11.116824
_cell_length_b 9.627526
_cell_length_c 7.253234
_cell_angle_alpha 90.000000
_cell_angle_beta 90.000000
_cell_angle_gamma 90.000000
_cell_volume 776.295590
_symmetry_space_group_name_H-M "P N N 2"
_symmetry_group_IT_number 34
_symmetry_cell_setting 'orthorhombic'
loop_
_space_group_symop_operation_xyz
x,y,z
-x,-y,z
1/2-x,1/2+y,1/2+z
1/2+x,1/2-y,1/2+z
loop_
_atom_site_type_symbol
_atom_site_label
_atom_site_fract_x
_atom_site_fract_y
_atom_site_fract_z
Si Si1 0.500000 0.000000 0.297940
Si Si2 0.000000 0.000000 0.970847
Si Si3 0.393018 0.329546 0.788193
Si Si4 0.893018 0.670454 0.480595
Si Si5 0.252018 0.591291 0.414748
Si Si6 0.252018 0.091291 0.354040
O O1 0.440793 0.875256 0.179486
O O2 0.611115 0.943083 0.419530
O O3 0.940792 0.124744 0.089302
O O4 0.111115 0.056918 0.849258
O O5 0.343259 0.467111 0.892827
O O6 0.500000 0.250000 0.884393
O O7 0.282060 0.222067 0.788080
O O8 0.843259 0.532889 0.375961
O O9 0.782060 0.777933 0.480709
O O10 0.250000 0.625143 0.634394
#
# Coordination Sequence:
#
# PCOD8171954 Si02
#       6
#     2   2   4   4   4   4
#     4  10  22  40  64  88 128 162 200 252 308 356
#     4  10  22  40  64  88 128 162 200 252 308 356
#     4  11  18  36  64  85 117 164 201 246 303 360
#     4  11  18  36  64  85 117 164 201 246 303 360
#     4  10  21  36  61  90 121 162 201 248 307 353
#     4  10  21  36  61  90 121 162 201 248 307 353
#
# _framework density 25.763380999999999
#
# number of rings (size 3 to 8) (size 9 to 14) (size 15 to 20)
#    0.000    1.600    8.000    0.000    0.000    1.600 
#    0.000    6.000    0.000    0.000    0.000    0.000 
#    0.000    0.000    0.000    0.000    0.000    0.000 
#
# Total GULP energy -247772.282890 kJ/mol
# GULP energy per Si atom -12388.614144 kJ/mol
# Density = 2.570474 g / cm^3
# Si number density = 25.763381 Si / 1000 Ang^3
#
#
#
# Elastic Constant Matrix: (Units=GPa)
#
#
# Indices 1 2 3 4 5 6 
#
# 1 152.7718 49.3839 32.0611 0.0000 0.0000 0.0000
# 2 49.3839 170.8945 32.9375 0.0000 0.0000 0.0000
# 3 32.0611 32.9375 44.7214 0.0000 0.0000 0.0000
# 4 0.0000 0.0000 0.0000 17.5835 0.0000 0.0000
# 5 0.0000 0.0000 0.0000 0.0000 32.2144 0.0000
# 6 0.0000 0.0000 0.0000 0.0000 0.0000 62.4358
#
#
#
# Elastic Compliance Matrix: (Units=1/GPa)
#
#
# Indices 1 2 3 4 5 6 
#
# 1 0.007984 -0.001403 -0.004690 0.000000 0.000000 0.000000
# 2 -0.001403 0.007066 -0.004198 0.000000 0.000000 0.000000
# 3 -0.004690 -0.004198 0.028815 0.000000 0.000000 0.000000
# 4 0.000000 0.000000 0.000000 0.056871 0.000000 0.000000
# 5 0.000000 0.000000 0.000000 0.000000 0.031042 0.000000
# 6 0.000000 0.000000 0.000000 0.000000 0.000000 0.016016
#
#
# Mechanical properties :
#
#
# Convention : Reuss Voigt Hill
#
# Bulk Modulus (GPa) = 42.95211 66.35032 54.65121
# Shear Modulus (GPa) = 28.38674 39.38040 33.88357
#
# Velocity S-wave (km/s) = 3.32298 3.91390 3.63048
# Velocity P-wave (km/s) = 5.60632 6.79959 6.23158
#
# Compressibility (1/GPa) = 0.02328174
#
# Stress axis : x y z
#
# Youngs Moduli (GPa) = 125.25783 141.51884 34.70399
#
# Poissons Ratio (x) = 0.19856 0.16276
# Poissons Ratio (y) = 0.17575 0.14570
# Poissons Ratio (z) = 0.58747 0.59415
#
# Static dielectric constant tensor:
#      x y z
#    x 5.411220 0.000000 0.000000 
#    y 0.000000 6.033710 0.000000 
#    z 0.000000 0.000000 5.150310 
# 
# 
# High freq. dielectric constant tensor:
#      x y z
#    x 2.071460 0.000000 0.000000 
#    y 0.000000 2.039060 0.000000 
#    z 0.000000 0.000000 1.968130 
# 
# From -- ./inp_files/3048.got.cif
#   From: 2010.03.12/outbox.cif.g09.slc.cpg/sg34_2_cif.got.tgz:3048.got - 2010.04.14 01:56:33.
