data_PCOD8171127
_publ_section_title
;
Structure prediction by ZEFSAII (Michael W. Deem and Ramdas Pophale) SiO2 
 PCOD8171127
Probable space group: P N A 21
;
_chemical_formula_sum "Si O2"
_cell_formula_units_Z 24
_cell_length_a 9.610522
_cell_length_b 17.582007
_cell_length_c 5.007769
_cell_angle_alpha 90.000000
_cell_angle_beta 90.000000
_cell_angle_gamma 90.000000
_cell_volume 846.174071
_symmetry_space_group_name_H-M "P N A 21"
_symmetry_group_IT_number 33
_symmetry_cell_setting 'orthorhombic'
loop_
_space_group_symop_operation_xyz
x,y,z
-x,-y,1/2+z
1/2-x,1/2+y,1/2+z
1/2+x,1/2-y,z
loop_
_atom_site_type_symbol
_atom_site_label
_atom_site_fract_x
_atom_site_fract_y
_atom_site_fract_z
Si Si1 0.566558 0.406943 0.937450
Si Si2 0.425239 0.180238 0.425668
Si Si3 0.171946 0.360339 0.093580
Si Si4 0.179375 0.240425 0.694327
Si Si5 0.114141 0.923583 0.942814
Si Si6 0.580359 0.985687 0.060659
O O1 0.666525 0.337186 0.865776
O O2 0.433459 0.407097 0.741850
O O3 0.650472 0.486616 0.899350
O O4 0.510887 0.399376 0.239877
O O5 0.509420 0.166121 0.148989
O O6 0.281575 0.229032 0.434982
O O7 0.530525 0.226205 0.614639
O O8 0.366645 0.100245 0.542993
O O9 0.253675 0.369448 0.376325
O O10 0.179663 0.444965 0.954374
O O11 0.247425 0.300763 0.900505
O O12 0.553562 0.009147 0.367111
#
# Coordination Sequence:
#
# PCOD8171127 Si02
#       6
#     4   4   4   4   4   4
#     4  10  24  45  74 109 149 197 252 312 376 463
#     4  11  27  45  74 108 149 199 248 317 381 458
#     4  11  25  44  75 107 151 200 252 317 381 462
#     4  12  26  47  70 109 150 192 251 318 386 443
#     4  10  23  46  75 106 147 202 249 305 383 459
#     4  10  21  45  70 103 140 194 248 297 365 453
#
# _framework density 28.362957999999999
#
# number of rings (size 3 to 8) (size 9 to 14) (size 15 to 20)
#    0.000    1.333    1.667    2.000    7.000    1.333 
#    0.000    5.000    0.000    0.000    0.000    0.000 
#    0.000    0.000    0.000    0.000    0.000    0.000 
#
# Total GULP energy -297363.089320 kJ/mol
# GULP energy per Si atom -12390.128722 kJ/mol
# Density = 2.829840 g / cm^3
# Si number density = 28.362958 Si / 1000 Ang^3
#
#
#
# Elastic Constant Matrix: (Units=GPa)
#
#
# Indices 1 2 3 4 5 6 
#
# 1 81.7093 49.9273 -1.0949 0.0000 0.0000 0.0000
# 2 49.9273 160.4705 7.0722 0.0000 0.0000 0.0000
# 3 -1.0949 7.0722 46.1128 0.0000 0.0000 0.0000
# 4 0.0000 0.0000 0.0000 33.9018 0.0000 0.0000
# 5 0.0000 0.0000 0.0000 0.0000 27.8388 0.0000
# 6 0.0000 0.0000 0.0000 0.0000 0.0000 12.8757
#
#
#
# Elastic Compliance Matrix: (Units=1/GPa)
#
#
# Indices 1 2 3 4 5 6 
#
# 1 0.015166 -0.004767 0.001091 0.000000 0.000000 0.000000
# 2 -0.004767 0.007772 -0.001305 0.000000 0.000000 0.000000
# 3 0.001091 -0.001305 0.021912 0.000000 0.000000 0.000000
# 4 0.000000 0.000000 0.000000 0.029497 0.000000 0.000000
# 5 0.000000 0.000000 0.000000 0.000000 0.035921 0.000000
# 6 0.000000 0.000000 0.000000 0.000000 0.000000 0.077666
#
#
# Mechanical properties :
#
#
# Convention : Reuss Voigt Hill
#
# Bulk Modulus (GPa) = 28.66262 44.45574 36.55918
# Shear Modulus (GPa) = 23.86355 30.41580 27.13967
#
# Velocity S-wave (km/s) = 2.90377 3.27827 3.09669
# Velocity P-wave (km/s) = 4.62278 5.48063 5.06988
#
# Compressibility (1/GPa) = 0.03488865
#
# Stress axis : x y z
#
# Youngs Moduli (GPa) = 65.93836 128.66319 45.63700
#
# Poissons Ratio (x) = 0.61329 -0.04980
# Poissons Ratio (y) = 0.31430 0.05956
# Poissons Ratio (z) = -0.07195 0.16793
#
# Static dielectric constant tensor:
#      x y z
#    x 4.587980 0.000000 0.000000 
#    y 0.000000 5.824450 0.000000 
#    z 0.000000 0.000000 4.845610 
# 
# 
# High freq. dielectric constant tensor:
#      x y z
#    x 2.119730 0.000000 0.000000 
#    y 0.000000 2.186700 0.000000 
#    z 0.000000 0.000000 2.133810 
# 
# From -- ./inp_files/888.got.cif
#   From: 2010.03.12/outbox.cif.g09.slc.cpg/sg33_1_cif.got.tgz:888.got - 2010.04.14 01:49:19.
