data_PCOD8171252
_publ_section_title
;
Structure prediction by ZEFSAII (Michael W. Deem and Ramdas Pophale) SiO2 
 PCOD8171252
Probable space group: P N A 21
;
_chemical_formula_sum "Si O2"
_cell_formula_units_Z 28
_cell_length_a 24.662445
_cell_length_b 10.131861
_cell_length_c 5.181028
_cell_angle_alpha 90.000000
_cell_angle_beta 90.000000
_cell_angle_gamma 90.000000
_cell_volume 1294.616960
_symmetry_space_group_name_H-M "P N A 21"
_symmetry_group_IT_number 33
_symmetry_cell_setting 'orthorhombic'
loop_
_space_group_symop_operation_xyz
x,y,z
-x,-y,1/2+z
1/2-x,1/2+y,1/2+z
1/2+x,1/2-y,z
loop_
_atom_site_type_symbol
_atom_site_label
_atom_site_fract_x
_atom_site_fract_y
_atom_site_fract_z
Si Si1 0.677514 0.407964 0.855180
Si Si2 0.463499 0.510484 0.773328
Si Si3 0.105337 0.257395 0.163567
Si Si4 0.668064 0.701513 0.783880
Si Si5 0.215066 0.200988 0.349359
Si Si6 0.466310 0.007783 0.689666
Si Si7 0.106603 0.750632 0.280732
O O1 0.651431 0.548687 0.793970
O O2 0.718400 0.366614 0.628118
O O3 0.626775 0.306207 0.891844
O O4 0.711890 0.411182 0.123778
O O5 0.493816 0.504791 0.501419
O O6 0.433536 0.651119 0.803503
O O7 0.419214 0.395317 0.785876
O O8 0.159177 0.286241 0.337400
O O9 0.076044 0.394615 0.111272
O O10 0.733030 0.708404 0.801260
O O11 0.646447 0.767120 0.523134
O O12 0.640855 0.776484 0.022939
O O13 0.439498 0.140548 0.796932
O O14 0.497724 0.044954 0.427480
#
# Coordination Sequence:
#
# PCOD8171252 Si02
#       7
#     4   4   4   4   4   4   4
#     4  10  22  43  66  97 133 175 227 283 334 403
#     4  12  24  40  69  98 127 178 232 285 348 401
#     4  10  25  44  68  98 137 180 228 284 346 420
#     4  12  23  45  70 101 139 176 232 289 345 414
#     4  10  24  39  68  97 136 177 218 277 348 417
#     4  12  27  47  67  99 143 187 235 290 353 424
#     4  12  25  44  68 104 137 181 226 302 340 409
#
# _framework density 21.628018000000001
#
# number of rings (size 3 to 8) (size 9 to 14) (size 15 to 20)
#    0.857    0.000    1.429    6.000    4.000    2.286 
#    2.571    0.000    0.000    0.000    0.000    0.000 
#    0.000    0.000    0.000    0.000    0.000    0.000 
#
# Total GULP energy -347165.167776 kJ/mol
# GULP energy per Si atom -12398.755992 kJ/mol
# Density = 2.157879 g / cm^3
# Si number density = 21.628018 Si / 1000 Ang^3
#
#
#
# Elastic Constant Matrix: (Units=GPa)
#
#
# Indices 1 2 3 4 5 6 
#
# 1 104.9308 23.4589 41.2144 0.0000 0.0000 0.0000
# 2 23.4589 66.7967 25.3073 0.0000 0.0000 0.0000
# 3 41.2144 25.3073 150.6321 0.0000 0.0000 0.0000
# 4 0.0000 0.0000 0.0000 22.2528 0.0000 0.0000
# 5 0.0000 0.0000 0.0000 0.0000 36.9603 0.0000
# 6 0.0000 0.0000 0.0000 0.0000 0.0000 27.8170
#
#
#
# Elastic Compliance Matrix: (Units=1/GPa)
#
#
# Indices 1 2 3 4 5 6 
#
# 1 0.011200 -0.002961 -0.002567 0.000000 0.000000 0.000000
# 2 -0.002961 0.016771 -0.002008 0.000000 0.000000 0.000000
# 3 -0.002567 -0.002008 0.007678 0.000000 0.000000 0.000000
# 4 0.000000 0.000000 0.000000 0.044938 0.000000 0.000000
# 5 0.000000 0.000000 0.000000 0.000000 0.027056 0.000000
# 6 0.000000 0.000000 0.000000 0.000000 0.000000 0.035949
#
#
# Mechanical properties :
#
#
# Convention : Reuss Voigt Hill
#
# Bulk Modulus (GPa) = 48.59363 55.81343 52.20353
# Shear Modulus (GPa) = 30.20708 32.89796 31.55252
#
# Velocity S-wave (km/s) = 3.74125 3.90433 3.82366
# Velocity P-wave (km/s) = 6.41711 6.79612 6.60933
#
# Compressibility (1/GPa) = 0.02057883
#
# Stress axis : x y z
#
# Youngs Moduli (GPa) = 89.28301 59.62571 130.23633
#
# Poissons Ratio (x) = 0.17655 0.33432
# Poissons Ratio (y) = 0.26436 0.26146
# Poissons Ratio (z) = 0.22919 0.11970
#
# Static dielectric constant tensor:
#      x y z
#    x 3.870640 0.000000 0.000000 
#    y 0.000000 3.579860 0.000000 
#    z 0.000000 0.000000 4.106630 
# 
# 
# High freq. dielectric constant tensor:
#      x y z
#    x 1.854010 0.000000 0.000000 
#    y 0.000000 1.829810 0.000000 
#    z 0.000000 0.000000 1.862960 
# 
# From -- ./inp_files/2254.got.cif
#   From: 2010.03.12/outbox.cif.g09.slc.cpg/sg33_2_cif.got.tgz:2254.got - 2010.04.14 01:49:19.
