data_PCOD8171540
_publ_section_title
;
Structure prediction by ZEFSAII (Michael W. Deem and Ramdas Pophale) SiO2 
 PCOD8171540
Probable space group: P N A 21
;
_chemical_formula_sum "Si O2"
_cell_formula_units_Z 32
_cell_length_a 11.013070
_cell_length_b 21.615593
_cell_length_c 6.584285
_cell_angle_alpha 90.000000
_cell_angle_beta 90.000000
_cell_angle_gamma 90.000000
_cell_volume 1567.415637
_symmetry_space_group_name_H-M "P N A 21"
_symmetry_group_IT_number 33
_symmetry_cell_setting 'orthorhombic'
loop_
_space_group_symop_operation_xyz
x,y,z
-x,-y,1/2+z
1/2-x,1/2+y,1/2+z
1/2+x,1/2-y,z
loop_
_atom_site_type_symbol
_atom_site_label
_atom_site_fract_x
_atom_site_fract_y
_atom_site_fract_z
Si Si1 0.904479 0.953308 0.318090
Si Si2 0.233589 0.335507 0.074801
Si Si3 0.049422 0.660211 0.606072
Si Si4 0.759300 0.432224 0.204600
Si Si5 0.692369 0.769295 0.276588
Si Si6 0.593205 0.722865 0.881654
Si Si7 0.873996 0.848549 0.017668
Si Si8 0.331822 0.466100 0.970039
O O1 0.823764 0.931035 0.505512
O O2 0.937782 0.896451 0.170229
O O3 0.032005 0.980253 0.393186
O O4 0.826778 0.005363 0.197196
O O5 0.298798 0.318326 0.286344
O O6 0.093567 0.351303 0.106244
O O7 0.243175 0.276693 0.931053
O O8 0.299781 0.394222 0.974320
O O9 0.106174 0.592364 0.650763
O O10 0.102855 0.683043 0.390464
O O11 0.082871 0.710768 0.775392
O O12 0.713802 0.382706 0.365225
O O13 0.760248 0.499446 0.313415
O O14 0.798804 0.801397 0.153129
O O15 0.612175 0.730190 0.121098
O O16 0.467616 0.685741 0.867632
#
# Coordination Sequence:
#
# PCOD8171540 Si02
#       8
#     4   4   4   4   4   4   4   4
#     4  11  22  40  69  93 124 158 221 278 317 377
#     4  11  26  42  63  99 135 168 217 267 324 394
#     4  11  24  43  62  93 138 172 210 264 323 400
#     4  11  23  43  65  89 128 170 213 268 319 383
#     4  11  22  41  66  99 129 169 212 259 331 390
#     4  11  23  39  67  98 129 166 208 269 324 383
#     4  11  22  38  69  96 122 167 212 263 327 380
#     4  11  24  42  65  95 121 168 219 266 327 373
#
# _framework density 20.415770999999999
#
# number of rings (size 3 to 8) (size 9 to 14) (size 15 to 20)
#    0.000    1.000    3.750    3.000    3.500    3.000 
#    2.250    0.000    0.000    0.000    0.000    0.000 
#    0.000    0.000    0.000    0.000    0.000    0.000 
#
# Total GULP energy -396854.825504 kJ/mol
# GULP energy per Si atom -12401.713297 kJ/mol
# Density = 2.036930 g / cm^3
# Si number density = 20.415771 Si / 1000 Ang^3
#
#
#
# Elastic Constant Matrix: (Units=GPa)
#
#
# Indices 1 2 3 4 5 6 
#
# 1 97.2374 17.7114 27.1226 0.0000 0.0000 0.0000
# 2 17.7114 74.0976 22.1293 0.0000 0.0000 0.0000
# 3 27.1226 22.1293 98.7259 0.0000 0.0000 0.0000
# 4 0.0000 0.0000 0.0000 18.4826 0.0000 0.0000
# 5 0.0000 0.0000 0.0000 0.0000 31.1253 0.0000
# 6 0.0000 0.0000 0.0000 0.0000 0.0000 34.1258
#
#
#
# Elastic Compliance Matrix: (Units=1/GPa)
#
#
# Indices 1 2 3 4 5 6 
#
# 1 0.011386 -0.001916 -0.002699 0.000000 0.000000 0.000000
# 2 -0.001916 0.014786 -0.002788 0.000000 0.000000 0.000000
# 3 -0.002699 -0.002788 0.011495 0.000000 0.000000 0.000000
# 4 0.000000 0.000000 0.000000 0.054105 0.000000 0.000000
# 5 0.000000 0.000000 0.000000 0.000000 0.032128 0.000000
# 6 0.000000 0.000000 0.000000 0.000000 0.000000 0.029303
#
#
# Mechanical properties :
#
#
# Convention : Reuss Voigt Hill
#
# Bulk Modulus (GPa) = 43.73898 44.88750 44.31324
# Shear Modulus (GPa) = 28.46907 30.28659 29.37783
#
# Velocity S-wave (km/s) = 3.73830 3.85579 3.79750
# Velocity P-wave (km/s) = 6.33276 6.46972 6.40160
#
# Compressibility (1/GPa) = 0.02286290
#
# Stress axis : x y z
#
# Youngs Moduli (GPa) = 87.82909 67.63046 86.99153
#
# Poissons Ratio (x) = 0.12955 0.23475
# Poissons Ratio (y) = 0.16824 0.24254
# Poissons Ratio (z) = 0.23701 0.18856
#
# Static dielectric constant tensor:
#      x y z
#    x 3.539180 0.000000 0.000000 
#    y 0.000000 3.779050 0.000000 
#    z 0.000000 0.000000 3.981160 
# 
# 
# High freq. dielectric constant tensor:
#      x y z
#    x 1.786190 0.000000 0.000000 
#    y 0.000000 1.801160 0.000000 
#    z 0.000000 0.000000 1.813530 
# 
# From -- ./inp_files/1019.got.cif
#   From: 2010.03.12/outbox.cif.g09.slc.cpg/sg33_1_cif.got.tgz:1019.got - 2010.04.14 01:49:19.
