data_PCOD8171383
_publ_section_title
;
Structure prediction by ZEFSAII (Michael W. Deem and Ramdas Pophale) SiO2 
 PCOD8171383
Probable space group: P N A 21
;
_chemical_formula_sum "Si O2"
_cell_formula_units_Z 32
_cell_length_a 10.578353
_cell_length_b 11.384176
_cell_length_c 12.698764
_cell_angle_alpha 90.000000
_cell_angle_beta 90.000000
_cell_angle_gamma 90.000000
_cell_volume 1529.259224
_symmetry_space_group_name_H-M "P N A 21"
_symmetry_group_IT_number 33
_symmetry_cell_setting 'orthorhombic'
loop_
_space_group_symop_operation_xyz
x,y,z
-x,-y,1/2+z
1/2-x,1/2+y,1/2+z
1/2+x,1/2-y,z
loop_
_atom_site_type_symbol
_atom_site_label
_atom_site_fract_x
_atom_site_fract_y
_atom_site_fract_z
Si Si1 0.931695 0.588112 0.805900
Si Si2 0.569006 0.842895 0.399798
Si Si3 0.811882 0.024721 0.726952
Si Si4 0.863184 0.355152 0.134155
Si Si5 0.169742 0.886456 0.727358
Si Si6 0.676122 0.245280 0.796281
Si Si7 0.949391 0.847392 0.879590
Si Si8 0.056904 0.099950 0.625260
O O1 0.968900 0.478305 0.878551
O O2 0.798872 0.550208 0.756185
O O3 0.914195 0.710028 0.869088
O O4 0.031530 0.601400 0.714177
O O5 0.571574 0.830888 0.524277
O O6 0.456867 0.755356 0.360989
O O7 0.707608 0.808488 0.355529
O O8 0.708990 0.109913 0.777960
O O9 0.918415 0.108492 0.677239
O O10 0.747792 0.952133 0.631145
O O11 0.853297 0.932313 0.817345
O O12 0.798757 0.236565 0.174245
O O13 0.088418 0.871124 0.833901
O O14 0.098564 0.965557 0.641506
O O15 0.650508 0.311000 0.685549
O O16 0.945611 0.874293 0.002512
#
# Coordination Sequence:
#
# PCOD8171383 Si02
#       8
#     4   4   4   4   4   4   4   4
#     4  11  23  47  65 102 135 171 238 285 333 419
#     4  12  28  44  77  99 145 185 229 288 353 414
#     4  11  24  46  65  99 148 172 236 286 336 418
#     4  11  26  43  71 100 135 185 224 288 350 406
#     4  10  23  44  65  99 138 171 236 279 331 422
#     4  12  26  48  64 108 144 178 234 287 342 422
#     4  10  25  42  71 100 135 186 224 286 349 401
#     4  11  25  42  74  99 138 186 225 285 350 410
#
# _framework density 20.925165
#
# number of rings (size 3 to 8) (size 9 to 14) (size 15 to 20)
#    0.000    1.000    5.000    0.000    7.000    0.000 
#    0.000    0.000    0.000    0.000    0.000    0.000 
#    0.000    0.000    0.000    0.000    0.000    0.000 
#
# Total GULP energy -396781.118725 kJ/mol
# GULP energy per Si atom -12399.409960 kJ/mol
# Density = 2.087754 g / cm^3
# Si number density = 20.925165 Si / 1000 Ang^3
#
#
#
# Elastic Constant Matrix: (Units=GPa)
#
#
# Indices 1 2 3 4 5 6 
#
# 1 90.4147 35.4536 27.4026 0.0000 0.0000 0.0000
# 2 35.4536 100.2216 42.0288 0.0000 0.0000 0.0000
# 3 27.4026 42.0288 128.7561 0.0000 0.0000 0.0000
# 4 0.0000 0.0000 0.0000 21.4617 0.0000 0.0000
# 5 0.0000 0.0000 0.0000 0.0000 3.7596 0.0000
# 6 0.0000 0.0000 0.0000 0.0000 0.0000 35.0150
#
#
#
# Elastic Compliance Matrix: (Units=1/GPa)
#
#
# Indices 1 2 3 4 5 6 
#
# 1 0.013079 -0.004008 -0.001475 0.000000 0.000000 0.000000
# 2 -0.004008 0.012789 -0.003321 0.000000 0.000000 0.000000
# 3 -0.001475 -0.003321 0.009165 0.000000 0.000000 0.000000
# 4 0.000000 0.000000 0.000000 0.046595 0.000000 0.000000
# 5 0.000000 0.000000 0.000000 0.000000 0.265988 0.000000
# 6 0.000000 0.000000 0.000000 0.000000 0.000000 0.028559
#
#
# Mechanical properties :
#
#
# Convention : Reuss Voigt Hill
#
# Bulk Modulus (GPa) = 57.39589 58.79584 58.09586
# Shear Modulus (GPa) = 12.51278 26.34776 19.43027
#
# Velocity S-wave (km/s) = 2.44801 3.55229 3.05053
# Velocity P-wave (km/s) = 5.95643 6.70702 6.34284
#
# Compressibility (1/GPa) = 0.01742285
#
# Stress axis : x y z
#
# Youngs Moduli (GPa) = 76.45914 78.19447 109.11330
#
# Poissons Ratio (x) = 0.31341 0.16096
# Poissons Ratio (y) = 0.30645 0.36242
# Poissons Ratio (z) = 0.11279 0.25972
#
# Static dielectric constant tensor:
#      x y z
#    x 3.925640 0.000000 0.000000 
#    y 0.000000 3.978150 0.000000 
#    z 0.000000 0.000000 3.525010 
# 
# 
# High freq. dielectric constant tensor:
#      x y z
#    x 1.832630 0.000000 0.000000 
#    y 0.000000 1.836740 0.000000 
#    z 0.000000 0.000000 1.803370 
# 
# From -- ./inp_files/6508.got.cif
#   From: 2010.03.12/outbox.cif.g09.slc.cpg/sg33_4_cif.got.tgz:6508.got - 2010.04.14 01:49:19.
