data_PCOD8171767
_publ_section_title
;
Structure prediction by ZEFSAII (Michael W. Deem and Ramdas Pophale) SiO2 
 PCOD8171767
Probable space group: P N A 21
;
_chemical_formula_sum "Si O2"
_cell_formula_units_Z 32
_cell_length_a 13.879009
_cell_length_b 8.491763
_cell_length_c 11.827592
_cell_angle_alpha 90.000000
_cell_angle_beta 90.000000
_cell_angle_gamma 90.000000
_cell_volume 1393.967528
_symmetry_space_group_name_H-M "P N A 21"
_symmetry_group_IT_number 33
_symmetry_cell_setting 'orthorhombic'
loop_
_space_group_symop_operation_xyz
x,y,z
-x,-y,1/2+z
1/2-x,1/2+y,1/2+z
1/2+x,1/2-y,z
loop_
_atom_site_type_symbol
_atom_site_label
_atom_site_fract_x
_atom_site_fract_y
_atom_site_fract_z
Si Si1 0.084519 0.340434 0.143190
Si Si2 0.711662 0.457939 0.106476
Si Si3 0.763782 0.995991 0.216261
Si Si4 0.701911 0.690344 0.317287
Si Si5 0.815192 0.934590 0.980949
Si Si6 0.406777 0.096873 0.986824
Si Si7 0.466655 0.777698 0.883731
Si Si8 0.671514 0.679919 0.922851
O O1 0.163369 0.208041 0.123929
O O2 0.152335 0.491789 0.172447
O O3 0.021381 0.288591 0.249718
O O4 0.011525 0.368856 0.040243
O O5 0.684133 0.582408 0.206131
O O6 0.825234 0.419030 0.084919
O O7 0.663716 0.518443 0.991040
O O8 0.774619 0.830440 0.283939
O O9 0.795360 0.142117 0.294588
O O10 0.835565 0.993837 0.108459
O O11 0.743101 0.567717 0.410002
O O12 0.612748 0.772747 0.387686
O O13 0.914776 0.885965 0.920024
O O14 0.749768 0.781451 0.988617
O O15 0.406957 0.926144 0.928632
O O16 0.573582 0.776457 0.931306
#
# Coordination Sequence:
#
# PCOD8171767 Si02
#       8
#     4   4   4   4   4   4   4   4
#     4  12  27  46  74 107 154 198 251 319 379 454
#     4  12  25  50  76 109 156 202 253 321 386 459
#     4  12  24  50  74 108 151 198 250 316 377 457
#     4  12  24  45  77 108 148 196 252 309 382 453
#     4  12  25  48  74 105 151 196 247 316 374 451
#     4  12  27  50  74 112 151 202 262 314 385 466
#     4  12  26  48  72 106 152 193 255 314 384 460
#     4  12  26  47  75 107 151 205 248 317 393 450
#
# _framework density 22.956057000000001
#
# number of rings (size 3 to 8) (size 9 to 14) (size 15 to 20)
#    0.000    0.000    7.500    1.500    7.000    0.000 
#    0.000    1.250    0.000    0.000    0.000    0.000 
#    0.000    0.000    0.000    0.000    0.000    0.000 
#
# Total GULP energy -396574.593421 kJ/mol
# GULP energy per Si atom -12392.956044 kJ/mol
# Density = 2.290381 g / cm^3
# Si number density = 22.956057 Si / 1000 Ang^3
#
#
#
# Elastic Constant Matrix: (Units=GPa)
#
#
# Indices 1 2 3 4 5 6 
#
# 1 81.8466 27.3612 25.7146 0.0000 0.0000 0.0000
# 2 27.3612 90.6634 38.4329 0.0000 0.0000 0.0000
# 3 25.7146 38.4329 127.1456 0.0000 0.0000 0.0000
# 4 0.0000 0.0000 0.0000 48.1486 0.0000 0.0000
# 5 0.0000 0.0000 0.0000 0.0000 42.5303 0.0000
# 6 0.0000 0.0000 0.0000 0.0000 0.0000 22.7964
#
#
#
# Elastic Compliance Matrix: (Units=1/GPa)
#
#
# Indices 1 2 3 4 5 6 
#
# 1 0.013929 -0.003452 -0.001774 0.000000 0.000000 0.000000
# 2 -0.003452 0.013506 -0.003384 0.000000 0.000000 0.000000
# 3 -0.001774 -0.003384 0.009247 0.000000 0.000000 0.000000
# 4 0.000000 0.000000 0.000000 0.020769 0.000000 0.000000
# 5 0.000000 0.000000 0.000000 0.000000 0.023513 0.000000
# 6 0.000000 0.000000 0.000000 0.000000 0.000000 0.043867
#
#
# Mechanical properties :
#
#
# Convention : Reuss Voigt Hill
#
# Bulk Modulus (GPa) = 51.38166 53.63034 52.50600
# Shear Modulus (GPa) = 33.66147 36.57153 35.11650
#
# Velocity S-wave (km/s) = 3.83344 3.99571 3.91542
# Velocity P-wave (km/s) = 6.48266 6.68584 6.58504
#
# Compressibility (1/GPa) = 0.01946220
#
# Stress axis : x y z
#
# Youngs Moduli (GPa) = 71.79180 74.03993 108.14583
#
# Poissons Ratio (x) = 0.25557 0.19182
# Poissons Ratio (y) = 0.24781 0.36602
# Poissons Ratio (z) = 0.12734 0.25059
#
# Static dielectric constant tensor:
#      x y z
#    x 3.755010 0.000000 0.000000 
#    y 0.000000 4.350050 0.000000 
#    z 0.000000 0.000000 4.438320 
# 
# 
# High freq. dielectric constant tensor:
#      x y z
#    x 1.873770 0.000000 0.000000 
#    y 0.000000 1.923880 0.000000 
#    z 0.000000 0.000000 1.925710 
# 
# From -- ./inp_files/6756.got.cif
#   From: 2010.03.12/outbox.cif.g09.slc.cpg/sg33_4_cif.got.tgz:6756.got - 2010.04.14 01:49:19.
