data_PCOD8171106
_publ_section_title
;
Structure prediction by ZEFSAII (Michael W. Deem and Ramdas Pophale) SiO2 
 PCOD8171106
Probable space group: P N A 21
;
_chemical_formula_sum "Si O2"
_cell_formula_units_Z 32
_cell_length_a 12.242892
_cell_length_b 16.345095
_cell_length_c 7.787109
_cell_angle_alpha 90.000000
_cell_angle_beta 90.000000
_cell_angle_gamma 90.000000
_cell_volume 1558.287982
_symmetry_space_group_name_H-M "P N A 21"
_symmetry_group_IT_number 33
_symmetry_cell_setting 'orthorhombic'
loop_
_space_group_symop_operation_xyz
x,y,z
-x,-y,1/2+z
1/2-x,1/2+y,1/2+z
1/2+x,1/2-y,z
loop_
_atom_site_type_symbol
_atom_site_label
_atom_site_fract_x
_atom_site_fract_y
_atom_site_fract_z
Si Si1 0.598335 0.555497 0.037880
Si Si2 0.484951 0.400606 0.885829
Si Si3 0.240548 0.384533 0.994004
Si Si4 0.324421 0.991942 0.201327
Si Si5 0.414684 0.171399 0.220260
Si Si6 0.274957 0.319883 0.338566
Si Si7 0.560858 0.229432 0.903537
Si Si8 0.068919 0.339947 0.547185
O O1 0.523310 0.595127 0.182187
O O2 0.707620 0.515967 0.111895
O O3 0.528316 0.486857 0.946537
O O4 0.621959 0.629999 0.909668
O O5 0.566451 0.326808 0.932704
O O6 0.369471 0.378540 0.969473
O O7 0.216789 0.379865 0.197625
O O8 0.188824 0.464488 0.902000
O O9 0.184034 0.304801 0.909418
O O10 0.411534 0.934456 0.102756
O O11 0.359521 0.084624 0.188561
O O12 0.318577 0.237705 0.247951
O O13 0.484733 0.166713 0.392719
O O14 0.485943 0.189805 0.051653
O O15 0.185273 0.301029 0.485435
O O16 0.518357 0.208588 0.710586
#
# Coordination Sequence:
#
# PCOD8171106 Si02
#       8
#     4   4   4   4   4   4   4   4
#     4  10  23  42  65  95 132 172 222 270 331 395
#     4  11  22  41  69  92 132 173 219 268 333 393
#     4  10  21  43  64  92 135 167 213 275 331 377
#     4   9  24  42  64  98 134 169 220 276 325 403
#     4  12  24  42  73  95 129 181 226 263 341 411
#     4  11  22  44  66  94 136 173 222 283 328 390
#     4  11  24  41  68  98 130 172 220 274 328 395
#     4  10  24  43  63  98 136 171 214 287 329 386
#
# _framework density 20.535357000000001
#
# number of rings (size 3 to 8) (size 9 to 14) (size 15 to 20)
#    0.000    1.500    2.500    2.250    5.250    0.000 
#   11.250    0.000    0.000    0.000    0.000    0.000 
#    0.000    0.000    0.000    0.000    0.000    0.000 
#
# Total GULP energy -396719.252810 kJ/mol
# GULP energy per Si atom -12397.476650 kJ/mol
# Density = 2.048862 g / cm^3
# Si number density = 20.535357 Si / 1000 Ang^3
#
#
#
# Elastic Constant Matrix: (Units=GPa)
#
#
# Indices 1 2 3 4 5 6 
#
# 1 40.2588 16.3567 13.6205 0.0000 0.0000 0.0000
# 2 16.3567 98.5991 26.8821 0.0000 0.0000 0.0000
# 3 13.6205 26.8821 132.7466 0.0000 0.0000 0.0000
# 4 0.0000 0.0000 0.0000 33.5802 0.0000 0.0000
# 5 0.0000 0.0000 0.0000 0.0000 32.0905 0.0000
# 6 0.0000 0.0000 0.0000 0.0000 0.0000 25.6606
#
#
#
# Elastic Compliance Matrix: (Units=1/GPa)
#
#
# Indices 1 2 3 4 5 6 
#
# 1 0.027118 -0.003959 -0.001981 0.000000 0.000000 0.000000
# 2 -0.003959 0.011313 -0.001885 0.000000 0.000000 0.000000
# 3 -0.001981 -0.001885 0.008118 0.000000 0.000000 0.000000
# 4 0.000000 0.000000 0.000000 0.029779 0.000000 0.000000
# 5 0.000000 0.000000 0.000000 0.000000 0.031162 0.000000
# 6 0.000000 0.000000 0.000000 0.000000 0.000000 0.038970
#
#
# Mechanical properties :
#
#
# Convention : Reuss Voigt Hill
#
# Bulk Modulus (GPa) = 32.36214 42.81368 37.58791
# Shear Modulus (GPa) = 29.00093 32.58259 30.79176
#
# Velocity S-wave (km/s) = 3.76206 3.98761 3.87648
# Velocity P-wave (km/s) = 5.88763 6.48810 6.19514
#
# Compressibility (1/GPa) = 0.03090031
#
# Stress axis : x y z
#
# Youngs Moduli (GPa) = 36.87627 88.39687 123.18215
#
# Poissons Ratio (x) = 0.34992 0.24400
# Poissons Ratio (y) = 0.14598 0.23216
# Poissons Ratio (z) = 0.07304 0.16660
#
# Static dielectric constant tensor:
#      x y z
#    x 3.544350 0.000000 0.000000 
#    y 0.000000 3.647140 0.000000 
#    z 0.000000 0.000000 4.087180 
# 
# 
# High freq. dielectric constant tensor:
#      x y z
#    x 1.793790 0.000000 0.000000 
#    y 0.000000 1.796910 0.000000 
#    z 0.000000 0.000000 1.823250 
# 
# From -- ./inp_files/3985.got.cif
#   From: 2010.03.12/outbox.cif.g09.slc.cpg/sg33_2_cif.got.tgz:3985.got - 2010.04.14 01:49:19.
