data_PCOD8171526
_publ_section_title
;
Structure prediction by ZEFSAII (Michael W. Deem and Ramdas Pophale) SiO2 
 PCOD8171526
Probable space group: P N A 21
;
_chemical_formula_sum "Si O2"
_cell_formula_units_Z 32
_cell_length_a 16.421704
_cell_length_b 11.087428
_cell_length_c 8.604551
_cell_angle_alpha 90.000000
_cell_angle_beta 90.000000
_cell_angle_gamma 90.000000
_cell_volume 1566.668983
_symmetry_space_group_name_H-M "P N A 21"
_symmetry_group_IT_number 33
_symmetry_cell_setting 'orthorhombic'
loop_
_space_group_symop_operation_xyz
x,y,z
-x,-y,1/2+z
1/2-x,1/2+y,1/2+z
1/2+x,1/2-y,z
loop_
_atom_site_type_symbol
_atom_site_label
_atom_site_fract_x
_atom_site_fract_y
_atom_site_fract_z
Si Si1 0.209200 0.934474 0.979570
Si Si2 0.354469 0.765682 0.993844
Si Si3 0.118081 0.499801 0.136817
Si Si4 0.239070 0.146448 0.761775
Si Si5 0.999996 0.393066 0.387068
Si Si6 0.709195 0.433753 0.294987
Si Si7 0.261274 0.353863 0.012364
Si Si8 0.645467 0.765015 0.780858
O O1 0.155916 0.816054 0.937790
O O2 0.202937 0.027408 0.839006
O O3 0.301848 0.888699 0.991900
O O4 0.179890 0.000407 0.137243
O O5 0.329585 0.687675 0.141847
O O6 0.447828 0.807939 0.002956
O O7 0.344081 0.684637 0.836882
O O8 0.175262 0.615495 0.176575
O O9 0.061398 0.472710 0.284818
O O10 0.061384 0.526841 0.988800
O O11 0.175328 0.384186 0.096975
O O12 0.250550 0.250138 0.886973
O O13 0.947865 0.307377 0.271831
O O14 0.702899 0.526751 0.435488
O O15 0.801840 0.387967 0.282655
O O16 0.329791 0.313097 0.132842
#
# Coordination Sequence:
#
# PCOD8171526 Si02
#       8
#     4   4   4   4   4   4   4   4
#     4  11  21  40  69  97 128 177 232 277 323 420
#     4  11  23  43  65  99 137 177 229 281 344 399
#     4  12  26  46  66 106 140 180 232 278 350 408
#     4  12  23  41  74  99 128 185 235 273 329 431
#     4  12  28  42  66 100 150 174 220 306 350 390
#     4  11  21  40  69  97 128 177 232 277 323 420
#     4  12  23  41  74  99 128 185 235 273 329 431
#     4  11  23  43  65  99 137 177 229 281 344 399
#
# _framework density 20.425501000000001
#
# number of rings (size 3 to 8) (size 9 to 14) (size 15 to 20)
#    0.000    0.500    7.500    1.500    5.250    0.000 
#    0.000    2.500    0.000    0.000    0.000    0.000 
#    0.000    0.000    0.000    0.000    0.000    0.000 
#
# Total GULP energy -396728.444834 kJ/mol
# GULP energy per Si atom -12397.763901 kJ/mol
# Density = 2.037901 g / cm^3
# Si number density = 20.425501 Si / 1000 Ang^3
#
#
#
# Elastic Constant Matrix: (Units=GPa)
#
#
# Indices 1 2 3 4 5 6 
#
# 1 79.6989 21.3945 35.6036 0.0000 0.0000 0.0000
# 2 21.3945 97.3730 43.8896 0.0000 0.0000 0.0000
# 3 35.6036 43.8896 116.8708 0.0000 0.0000 0.0000
# 4 0.0000 0.0000 0.0000 58.9022 0.0000 0.0000
# 5 0.0000 0.0000 0.0000 0.0000 23.6209 0.0000
# 6 0.0000 0.0000 0.0000 0.0000 0.0000 22.0226
#
#
#
# Elastic Compliance Matrix: (Units=1/GPa)
#
#
# Indices 1 2 3 4 5 6 
#
# 1 0.014694 -0.001458 -0.003929 0.000000 0.000000 0.000000
# 2 -0.001458 0.012507 -0.004253 0.000000 0.000000 0.000000
# 3 -0.003929 -0.004253 0.011350 0.000000 0.000000 0.000000
# 4 0.000000 0.000000 0.000000 0.016977 0.000000 0.000000
# 5 0.000000 0.000000 0.000000 0.000000 0.042335 0.000000
# 6 0.000000 0.000000 0.000000 0.000000 0.000000 0.045408
#
#
# Mechanical properties :
#
#
# Convention : Reuss Voigt Hill
#
# Bulk Modulus (GPa) = 51.88744 55.07981 53.48362
# Shear Modulus (GPa) = 29.59026 33.77944 31.68485
#
# Velocity S-wave (km/s) = 3.81030 4.07109 3.94285
# Velocity P-wave (km/s) = 6.69449 7.00879 6.85344
#
# Compressibility (1/GPa) = 0.01927249
#
# Stress axis : x y z
#
# Youngs Moduli (GPa) = 68.05666 79.95562 88.10202
#
# Poissons Ratio (x) = 0.11654 0.34615
# Poissons Ratio (y) = 0.09919 0.37468
# Poissons Ratio (z) = 0.26739 0.34004
#
# Static dielectric constant tensor:
#      x y z
#    x 3.523330 0.000000 0.000000 
#    y 0.000000 4.109700 0.000000 
#    z 0.000000 0.000000 3.938990 
# 
# 
# High freq. dielectric constant tensor:
#      x y z
#    x 1.761010 0.000000 0.000000 
#    y 0.000000 1.816570 0.000000 
#    z 0.000000 0.000000 1.813700 
# 
# From -- ./inp_files/4411.got.cif
#   From: 2010.03.12/outbox.cif.g09.slc.cpg/sg33_3_cif.got.tgz:4411.got - 2010.04.14 01:49:19.
