data_PCOD8171039
_publ_section_title
;
Structure prediction by ZEFSAII (Michael W. Deem and Ramdas Pophale) SiO2 
 PCOD8171039
Probable space group: P N A 21
;
_chemical_formula_sum "Si O2"
_cell_formula_units_Z 32
_cell_length_a 14.802038
_cell_length_b 11.792055
_cell_length_c 8.945612
_cell_angle_alpha 90.000000
_cell_angle_beta 90.000000
_cell_angle_gamma 90.000000
_cell_volume 1561.424784
_symmetry_space_group_name_H-M "P N A 21"
_symmetry_group_IT_number 33
_symmetry_cell_setting 'orthorhombic'
loop_
_space_group_symop_operation_xyz
x,y,z
-x,-y,1/2+z
1/2-x,1/2+y,1/2+z
1/2+x,1/2-y,z
loop_
_atom_site_type_symbol
_atom_site_label
_atom_site_fract_x
_atom_site_fract_y
_atom_site_fract_z
Si Si1 0.675996 0.747381 0.846030
Si Si2 0.514090 0.879021 0.995252
Si Si3 0.498692 0.878571 0.348372
Si Si4 0.878742 0.002933 0.392086
Si Si5 0.646942 0.278835 0.502119
Si Si6 0.819905 0.759373 0.337554
Si Si7 0.956325 0.003690 0.077264
Si Si8 0.857673 0.228549 0.004876
O O1 0.683891 0.613531 0.883601
O O2 0.657898 0.771451 0.672888
O O3 0.598681 0.803600 0.945736
O O4 0.773680 0.798601 0.883425
O O5 0.515840 0.891403 0.173120
O O6 0.421275 0.818507 0.944932
O O7 0.521556 0.999833 0.917773
O O8 0.413986 0.797822 0.387102
O O9 0.588554 0.826852 0.420109
O O10 0.949805 0.006852 0.255467
O O11 0.817039 0.891816 0.383107
O O12 0.937264 0.002158 0.543042
O O13 0.692014 0.244658 0.660126
O O14 0.592375 0.394249 0.512622
O O15 0.736762 0.701395 0.422696
O O16 0.913707 0.113310 0.000016
#
# Coordination Sequence:
#
# PCOD8171039 Si02
#       8
#     4   4   4   4   4   4   4   4
#     4  11  24  40  63  95 125 161 206 255 309 367
#     4  11  24  43  65  90 126 166 208 256 311 370
#     4  11  24  43  65  90 126 166 208 256 311 370
#     4  10  21  40  64  90 120 157 204 254 307 361
#     4  10  23  42  63  90 123 164 205 251 308 367
#     4  10  23  42  63  90 123 164 205 251 308 367
#     4  10  21  40  64  90 120 157 204 254 307 361
#     4  11  24  40  63  95 125 161 206 255 309 367
#
# _framework density 20.494102000000002
#
# number of rings (size 3 to 8) (size 9 to 14) (size 15 to 20)
#    0.000    1.500    2.500    1.500    3.500    4.000 
#    0.000    0.000    0.000    0.000    0.000    0.000 
#    0.000    0.000    0.000    0.000    0.000    0.000 
#
# Total GULP energy -396961.907095 kJ/mol
# GULP energy per Si atom -12405.059597 kJ/mol
# Density = 2.044746 g / cm^3
# Si number density = 20.494102 Si / 1000 Ang^3
#
#
#
# Elastic Constant Matrix: (Units=GPa)
#
#
# Indices 1 2 3 4 5 6 
#
# 1 87.2461 10.4651 32.6625 0.0000 0.0000 0.0000
# 2 10.4651 92.3374 27.5630 0.0000 0.0000 0.0000
# 3 32.6625 27.5630 68.1166 0.0000 0.0000 0.0000
# 4 0.0000 0.0000 0.0000 27.0304 0.0000 0.0000
# 5 0.0000 0.0000 0.0000 0.0000 36.5927 0.0000
# 6 0.0000 0.0000 0.0000 0.0000 0.0000 2.2549
#
#
#
# Elastic Compliance Matrix: (Units=1/GPa)
#
#
# Indices 1 2 3 4 5 6 
#
# 1 0.013988 0.000474 -0.006899 0.000000 0.000000 0.000000
# 2 0.000474 0.012334 -0.005218 0.000000 0.000000 0.000000
# 3 -0.006899 -0.005218 0.020100 0.000000 0.000000 0.000000
# 4 0.000000 0.000000 0.000000 0.036995 0.000000 0.000000
# 5 0.000000 0.000000 0.000000 0.000000 0.027328 0.000000
# 6 0.000000 0.000000 0.000000 0.000000 0.000000 0.443480
#
#
# Mechanical properties :
#
#
# Convention : Reuss Voigt Hill
#
# Bulk Modulus (GPa) = 43.22333 43.23125 43.22729
# Shear Modulus (GPa) = 8.54374 24.97623 16.75999
#
# Velocity S-wave (km/s) = 2.04400 3.49478 2.86281
# Velocity P-wave (km/s) = 5.16788 6.11759 5.66268
#
# Compressibility (1/GPa) = 0.02313566
#
# Stress axis : x y z
#
# Youngs Moduli (GPa) = 71.49085 81.07837 49.75031
#
# Poissons Ratio (x) = -0.03844 0.34323
# Poissons Ratio (y) = -0.03389 0.25960
# Poissons Ratio (z) = 0.49322 0.42308
#
# Static dielectric constant tensor:
#      x y z
#    x 3.540590 0.000000 0.000000 
#    y 0.000000 3.815200 0.000000 
#    z 0.000000 0.000000 3.772620 
# 
# 
# High freq. dielectric constant tensor:
#      x y z
#    x 1.799500 0.000000 0.000000 
#    y 0.000000 1.811340 0.000000 
#    z 0.000000 0.000000 1.804640 
# 
# From -- ./inp_files/4438.got.cif
#   From: 2010.03.12/outbox.cif.g09.slc.cpg/sg33_3_cif.got.tgz:4438.got - 2010.04.14 01:49:19.
