data_PCOD8171518
_publ_section_title
;
Structure prediction by ZEFSAII (Michael W. Deem and Ramdas Pophale) SiO2 
 PCOD8171518
Probable space group: P N A 21
;
_chemical_formula_sum "Si O2"
_cell_formula_units_Z 24
_cell_length_a 8.718077
_cell_length_b 8.863133
_cell_length_c 15.297041
_cell_angle_alpha 90.000000
_cell_angle_beta 90.000000
_cell_angle_gamma 90.000000
_cell_volume 1181.994342
_symmetry_space_group_name_H-M "P N A 21"
_symmetry_group_IT_number 33
_symmetry_cell_setting 'orthorhombic'
loop_
_space_group_symop_operation_xyz
x,y,z
-x,-y,1/2+z
1/2-x,1/2+y,1/2+z
1/2+x,1/2-y,z
loop_
_atom_site_type_symbol
_atom_site_label
_atom_site_fract_x
_atom_site_fract_y
_atom_site_fract_z
Si Si1 0.608640 0.853257 0.294370
Si Si2 0.158546 0.175431 0.200869
Si Si3 0.472386 0.048600 0.143979
Si Si4 0.541573 0.061260 0.452457
Si Si5 0.053866 0.047548 0.786573
Si Si6 0.306937 0.283988 0.380099
O O1 0.783859 0.875346 0.261162
O O2 0.568884 0.677689 0.308401
O O3 0.499569 0.928905 0.221699
O O4 0.585990 0.921404 0.390822
O O5 0.297468 0.103276 0.147694
O O6 0.214774 0.246501 0.291891
O O7 0.089107 0.312991 0.147074
O O8 0.023242 0.051315 0.209619
O O9 0.502609 0.976838 0.050357
O O10 0.394770 0.136475 0.408519
O O11 0.684820 0.175935 0.455174
O O12 0.080948 0.928586 0.865773
#
# Coordination Sequence:
#
# PCOD8171518 Si02
#       6
#     4   4   4   4   4   4
#     4  11  23  42  63 103 135 177 231 289 340 397
#     4  12  20  45  71  92 133 191 225 276 347 414
#     4  12  24  42  69 102 135 179 237 282 341 412
#     4  11  25  41  68 100 136 176 239 280 339 413
#     4  11  22  39  74  91 132 185 225 279 346 406
#     4  11  20  45  69  92 131 192 221 276 349 412
#
# _framework density 20.304666999999998
#
# number of rings (size 3 to 8) (size 9 to 14) (size 15 to 20)
#    0.000    0.667    8.333    1.000    0.000    5.333 
#    0.000    1.667    0.000    0.000    0.000    0.000 
#    0.000    0.000    0.000    0.000    0.000    0.000 
#
# Total GULP energy -297556.654878 kJ/mol
# GULP energy per Si atom -12398.193953 kJ/mol
# Density = 2.025845 g / cm^3
# Si number density = 20.304667 Si / 1000 Ang^3
#
#
#
# Elastic Constant Matrix: (Units=GPa)
#
#
# Indices 1 2 3 4 5 6 
#
# 1 109.4783 40.8554 26.2609 0.0000 0.0000 0.0000
# 2 40.8554 94.2320 19.0429 0.0000 0.0000 0.0000
# 3 26.2609 19.0429 76.5724 0.0000 0.0000 0.0000
# 4 0.0000 0.0000 0.0000 26.5632 0.0000 0.0000
# 5 0.0000 0.0000 0.0000 0.0000 26.2799 0.0000
# 6 0.0000 0.0000 0.0000 0.0000 0.0000 46.2924
#
#
#
# Elastic Compliance Matrix: (Units=1/GPa)
#
#
# Indices 1 2 3 4 5 6 
#
# 1 0.011454 -0.004393 -0.002836 0.000000 0.000000 0.000000
# 2 -0.004393 0.012858 -0.001691 0.000000 0.000000 0.000000
# 3 -0.002836 -0.001691 0.014453 0.000000 0.000000 0.000000
# 4 0.000000 0.000000 0.000000 0.037646 0.000000 0.000000
# 5 0.000000 0.000000 0.000000 0.000000 0.038052 0.000000
# 6 0.000000 0.000000 0.000000 0.000000 0.000000 0.021602
#
#
# Mechanical properties :
#
#
# Convention : Reuss Voigt Hill
#
# Bulk Modulus (GPa) = 47.78896 50.28902 49.03899
# Shear Modulus (GPa) = 31.07920 32.76866 31.92393
#
# Velocity S-wave (km/s) = 3.91659 4.02163 3.96946
# Velocity P-wave (km/s) = 6.63626 6.81070 6.72405
#
# Compressibility (1/GPa) = 0.02092534
#
# Stress axis : x y z
#
# Youngs Moduli (GPa) = 87.30742 77.76979 69.19152
#
# Poissons Ratio (x) = 0.34163 0.19620
# Poissons Ratio (y) = 0.38353 0.11702
# Poissons Ratio (z) = 0.24757 0.13153
#
# Static dielectric constant tensor:
#      x y z
#    x 4.046750 0.000000 0.000000 
#    y 0.000000 3.922530 0.000000 
#    z 0.000000 0.000000 3.301800 
# 
# 
# High freq. dielectric constant tensor:
#      x y z
#    x 1.814290 0.000000 0.000000 
#    y 0.000000 1.806470 0.000000 
#    z 0.000000 0.000000 1.755310 
# 
# From -- ./inp_files/7525.got.cif
#   From: 2010.03.12/outbox.cif.g09.slc.cpg/sg33_4_cif.got.tgz:7525.got - 2010.04.14 01:49:19.
