data_PCOD8171764
_publ_section_title
;
Structure prediction by ZEFSAII (Michael W. Deem and Ramdas Pophale) SiO2 
 PCOD8171764
Probable space group: P N A 21
;
_chemical_formula_sum "Si O2"
_cell_formula_units_Z 24
_cell_length_a 8.151996
_cell_length_b 15.872948
_cell_length_c 8.420508
_cell_angle_alpha 90.000000
_cell_angle_beta 90.000000
_cell_angle_gamma 90.000000
_cell_volume 1089.581810
_symmetry_space_group_name_H-M "P N A 21"
_symmetry_group_IT_number 33
_symmetry_cell_setting 'orthorhombic'
loop_
_space_group_symop_operation_xyz
x,y,z
-x,-y,1/2+z
1/2-x,1/2+y,1/2+z
1/2+x,1/2-y,z
loop_
_atom_site_type_symbol
_atom_site_label
_atom_site_fract_x
_atom_site_fract_y
_atom_site_fract_z
Si Si1 0.544707 0.846304 0.490940
Si Si2 0.546028 0.162075 0.351929
Si Si3 0.714383 0.309894 0.515730
Si Si4 0.995629 0.065542 0.700385
Si Si5 0.763138 0.007245 0.444652
Si Si6 0.222879 0.794859 0.329456
O O1 0.469817 0.849250 0.664784
O O2 0.632501 0.932775 0.447268
O O3 0.399199 0.834653 0.364230
O O4 0.672386 0.769308 0.470138
O O5 0.615679 0.254681 0.387797
O O6 0.371211 0.148437 0.433707
O O7 0.671952 0.095048 0.422277
O O8 0.599959 0.386536 0.567111
O O9 0.771831 0.253731 0.663332
O O10 0.111067 0.004057 0.799960
O O11 0.912736 0.132017 0.820551
O O12 0.858818 0.009586 0.612039
#
# Coordination Sequence:
#
# PCOD8171764 Si02
#       6
#     4   4   4   4   4   4
#     4  12  27  45  75 110 146 186 247 305 365 429
#     4  12  27  45  75 110 146 186 247 305 365 429
#     4  12  23  49  77 102 143 199 245 290 360 451
#     4  12  28  48  74 104 150 192 244 294 376 434
#     4  12  30  46  70 110 148 192 238 312 372 432
#     4  12  23  49  77 102 143 199 245 290 360 451
#
# _framework density 22.026797999999999
#
# number of rings (size 3 to 8) (size 9 to 14) (size 15 to 20)
#    0.000    0.000    6.667    1.000    9.333    0.000 
#    3.000    0.000    0.000    0.000    0.000    0.000 
#    0.000    0.000    0.000    0.000    0.000    0.000 
#
# Total GULP energy -297849.052221 kJ/mol
# GULP energy per Si atom -12410.377176 kJ/mol
# Density = 2.197666 g / cm^3
# Si number density = 22.026798 Si / 1000 Ang^3
#
#
#
# Elastic Constant Matrix: (Units=GPa)
#
#
# Indices 1 2 3 4 5 6 
#
# 1 79.6336 17.7609 14.5649 0.0000 0.0000 0.0000
# 2 17.7609 66.9949 8.7687 0.0000 0.0000 0.0000
# 3 14.5649 8.7687 79.1777 0.0000 0.0000 0.0000
# 4 0.0000 0.0000 0.0000 26.7190 0.0000 0.0000
# 5 0.0000 0.0000 0.0000 0.0000 54.3574 0.0000
# 6 0.0000 0.0000 0.0000 0.0000 0.0000 29.8213
#
#
#
# Elastic Compliance Matrix: (Units=1/GPa)
#
#
# Indices 1 2 3 4 5 6 
#
# 1 0.013698 -0.003350 -0.002149 0.000000 0.000000 0.000000
# 2 -0.003350 0.015965 -0.001152 0.000000 0.000000 0.000000
# 3 -0.002149 -0.001152 0.013153 0.000000 0.000000 0.000000
# 4 0.000000 0.000000 0.000000 0.037427 0.000000 0.000000
# 5 0.000000 0.000000 0.000000 0.000000 0.018397 0.000000
# 6 0.000000 0.000000 0.000000 0.000000 0.000000 0.033533
#
#
# Mechanical properties :
#
#
# Convention : Reuss Voigt Hill
#
# Bulk Modulus (GPa) = 33.88180 34.22168 34.05174
# Shear Modulus (GPa) = 32.19333 34.49365 33.34349
#
# Velocity S-wave (km/s) = 3.82717 3.96155 3.89494
# Velocity P-wave (km/s) = 5.91144 6.04113 5.97664
#
# Compressibility (1/GPa) = 0.02951437
#
# Stress axis : x y z
#
# Youngs Moduli (GPa) = 73.00498 62.63532 76.03037
#
# Poissons Ratio (x) = 0.20984 0.16337
# Poissons Ratio (y) = 0.24458 0.08758
# Poissons Ratio (z) = 0.15687 0.07215
#
# Static dielectric constant tensor:
#      x y z
#    x 4.226520 0.000000 0.000000 
#    y 0.000000 3.987050 0.000000 
#    z 0.000000 0.000000 3.900400 
# 
# 
# High freq. dielectric constant tensor:
#      x y z
#    x 1.890120 0.000000 0.000000 
#    y 0.000000 1.866660 0.000000 
#    z 0.000000 0.000000 1.867900 
# 
# From -- ./inp_files/3190.got.cif
#   From: 2010.03.12/outbox.cif.g09.slc.cpg/sg33_2_cif.got.tgz:3190.got - 2010.04.14 01:49:19.
