data_PCOD8171402
_publ_section_title
;
Structure prediction by ZEFSAII (Michael W. Deem and Ramdas Pophale) SiO2 
 PCOD8171402
Probable space group: P N A 21
;
_chemical_formula_sum "Si O2"
_cell_formula_units_Z 32
_cell_length_a 8.721905
_cell_length_b 14.042467
_cell_length_c 11.011021
_cell_angle_alpha 90.000000
_cell_angle_beta 90.000000
_cell_angle_gamma 90.000000
_cell_volume 1348.597514
_symmetry_space_group_name_H-M "P N A 21"
_symmetry_group_IT_number 33
_symmetry_cell_setting 'orthorhombic'
loop_
_space_group_symop_operation_xyz
x,y,z
-x,-y,1/2+z
1/2-x,1/2+y,1/2+z
1/2+x,1/2-y,z
loop_
_atom_site_type_symbol
_atom_site_label
_atom_site_fract_x
_atom_site_fract_y
_atom_site_fract_z
Si Si1 0.506166 0.811539 0.974880
Si Si2 0.535420 0.500167 0.917731
Si Si3 0.175158 0.860895 0.079277
Si Si4 0.219652 0.523815 0.989333
Si Si5 0.108799 0.812117 0.352099
Si Si6 0.441295 0.776674 0.705002
Si Si7 0.926181 0.654142 0.448632
Si Si8 0.852891 0.111582 0.199675
O O1 0.516637 0.817835 0.828793
O O2 0.343118 0.839857 0.029277
O O3 0.547973 0.705709 0.016041
O O4 0.637219 0.880371 0.032324
O O5 0.519389 0.385729 0.904581
O O6 0.644889 0.543419 0.815710
O O7 0.616747 0.531982 0.045261
O O8 0.363877 0.545878 0.902521
O O9 0.170878 0.846468 0.222838
O O10 0.297762 0.458711 0.093884
O O11 0.088282 0.459255 0.922072
O O12 0.251735 0.805245 0.443609
O O13 0.029993 0.707808 0.348129
O O14 0.497047 0.831593 0.583222
O O15 0.260261 0.797932 0.719891
O O16 0.482270 0.664668 0.682935
#
# Coordination Sequence:
#
# PCOD8171402 Si02
#       8
#     4   4   4   4   4   4   4   4
#     4  12  24  45  72 108 146 186 244 299 366 440
#     4  11  22  43  68 100 143 183 246 290 364 429
#     4  12  25  44  71 107 144 195 236 305 373 429
#     4  10  25  44  67 103 145 184 240 299 359 436
#     4  11  25  45  68  99 143 191 236 300 366 443
#     4  11  21  42  74  98 141 183 237 297 356 420
#     4  10  23  46  66  98 137 186 240 291 362 430
#     4  11  23  43  68 107 139 184 241 297 358 431
#
# _framework density 23.728355000000001
#
# number of rings (size 3 to 8) (size 9 to 14) (size 15 to 20)
#    0.000    1.000    2.500    4.500    1.750    2.000 
#   13.500    2.500    0.000    0.000    0.000    0.000 
#    0.000    0.000    0.000    0.000    0.000    0.000 
#
# Total GULP energy -396475.482823 kJ/mol
# GULP energy per Si atom -12389.858838 kJ/mol
# Density = 2.367435 g / cm^3
# Si number density = 23.728355 Si / 1000 Ang^3
#
#
#
# Elastic Constant Matrix: (Units=GPa)
#
#
# Indices 1 2 3 4 5 6 
#
# 1 65.5051 28.0776 33.6016 0.0000 0.0000 0.0000
# 2 28.0776 66.9676 33.9370 0.0000 0.0000 0.0000
# 3 33.6016 33.9370 117.5861 0.0000 0.0000 0.0000
# 4 0.0000 0.0000 0.0000 32.0877 0.0000 0.0000
# 5 0.0000 0.0000 0.0000 0.0000 34.8199 0.0000
# 6 0.0000 0.0000 0.0000 0.0000 0.0000 54.7351
#
#
#
# Elastic Compliance Matrix: (Units=1/GPa)
#
#
# Indices 1 2 3 4 5 6 
#
# 1 0.020002 -0.006430 -0.003860 0.000000 0.000000 0.000000
# 2 -0.006430 0.019558 -0.003807 0.000000 0.000000 0.000000
# 3 -0.003860 -0.003807 0.010706 0.000000 0.000000 0.000000
# 4 0.000000 0.000000 0.000000 0.031165 0.000000 0.000000
# 5 0.000000 0.000000 0.000000 0.000000 0.028719 0.000000
# 6 0.000000 0.000000 0.000000 0.000000 0.000000 0.018270
#
#
# Mechanical properties :
#
#
# Convention : Reuss Voigt Hill
#
# Bulk Modulus (GPa) = 45.30711 49.03234 47.16973
# Shear Modulus (GPa) = 30.49297 34.62469 32.55883
#
# Velocity S-wave (km/s) = 3.58870 3.82411 3.70827
# Velocity P-wave (km/s) = 6.02555 6.34092 6.18524
#
# Compressibility (1/GPa) = 0.02207159
#
# Stress axis : x y z
#
# Youngs Moduli (GPa) = 49.99439 51.13006 93.40329
#
# Poissons Ratio (x) = 0.32878 0.36054
# Poissons Ratio (y) = 0.32148 0.35560
# Poissons Ratio (z) = 0.19298 0.19466
#
# Static dielectric constant tensor:
#      x y z
#    x 4.284750 0.000000 0.000000 
#    y 0.000000 4.341950 0.000000 
#    z 0.000000 0.000000 4.266540 
# 
# 
# High freq. dielectric constant tensor:
#      x y z
#    x 1.935490 0.000000 0.000000 
#    y 0.000000 1.934150 0.000000 
#    z 0.000000 0.000000 1.940430 
# 
# From -- ./inp_files/5986.got.cif
#   From: 2010.03.12/outbox.cif.g09.slc.cpg/sg33_3_cif.got.tgz:5986.got - 2010.04.14 01:49:19.
