data_PCOD8171666
_publ_section_title
;
Structure prediction by ZEFSAII (Michael W. Deem and Ramdas Pophale) SiO2 
 PCOD8171666
Probable space group: P N A 21
;
_chemical_formula_sum "Si O2"
_cell_formula_units_Z 16
_cell_length_a 10.997509
_cell_length_b 10.688948
_cell_length_c 4.879674
_cell_angle_alpha 90.000000
_cell_angle_beta 90.000000
_cell_angle_gamma 90.000000
_cell_volume 573.614471
_symmetry_space_group_name_H-M "P N A 21"
_symmetry_group_IT_number 33
_symmetry_cell_setting 'orthorhombic'
loop_
_space_group_symop_operation_xyz
x,y,z
-x,-y,1/2+z
1/2-x,1/2+y,1/2+z
1/2+x,1/2-y,z
loop_
_atom_site_type_symbol
_atom_site_label
_atom_site_fract_x
_atom_site_fract_y
_atom_site_fract_z
Si Si1 0.417823 0.246254 0.558430
Si Si2 0.844057 0.830533 0.223389
Si Si3 0.341119 0.508145 0.710372
Si Si4 0.073944 0.536660 0.650892
O O1 0.299254 0.206153 0.732836
O O2 0.558681 0.218372 0.657350
O O3 0.421421 0.396654 0.582510
O O4 0.408892 0.180452 0.259855
O O5 0.874493 0.870109 0.532328
O O6 0.860892 0.951965 0.024343
O O7 0.201548 0.465722 0.665745
O O8 0.026594 0.537001 0.336978
#
# Coordination Sequence:
#
# PCOD8171666 Si02
#       4
#     4   4   4   4
#     4  11  25  45  71  98 139 183 224 286 348 399
#     4  11  26  43  68 101 135 180 232 282 341 414
#     4  11  25  44  67 101 138 179 232 282 341 415
#     4  11  24  44  70 104 140 180 234 286 342 416
#
# _framework density 27.893298000000001
#
# number of rings (size 3 to 8) (size 9 to 14) (size 15 to 20)
#    0.000    1.000    0.000    6.000    0.000   14.000 
#    0.000    0.000    0.000    0.000    0.000    0.000 
#    0.000    0.000    0.000    0.000    0.000    0.000 
#
# Total GULP energy -198214.671048 kJ/mol
# GULP energy per Si atom -12388.416940 kJ/mol
# Density = 2.782981 g / cm^3
# Si number density = 27.893298 Si / 1000 Ang^3
#
#
#
# Elastic Constant Matrix: (Units=GPa)
#
#
# Indices 1 2 3 4 5 6 
#
# 1 174.8162 37.7401 -0.5779 0.0000 0.0000 0.0000
# 2 37.7401 57.7845 1.4355 0.0000 0.0000 0.0000
# 3 -0.5779 1.4355 64.2679 0.0000 0.0000 0.0000
# 4 0.0000 0.0000 0.0000 45.4893 0.0000 0.0000
# 5 0.0000 0.0000 0.0000 0.0000 23.2363 0.0000
# 6 0.0000 0.0000 0.0000 0.0000 0.0000 56.1777
#
#
#
# Elastic Compliance Matrix: (Units=1/GPa)
#
#
# Indices 1 2 3 4 5 6 
#
# 1 0.006661 -0.004354 0.000157 0.000000 0.000000 0.000000
# 2 -0.004354 0.020162 -0.000489 0.000000 0.000000 0.000000
# 3 0.000157 -0.000489 0.015572 0.000000 0.000000 0.000000
# 4 0.000000 0.000000 0.000000 0.021983 0.000000 0.000000
# 5 0.000000 0.000000 0.000000 0.000000 0.043036 0.000000
# 6 0.000000 0.000000 0.000000 0.000000 0.000000 0.017801
#
#
# Mechanical properties :
#
#
# Convention : Reuss Voigt Hill
#
# Bulk Modulus (GPa) = 30.28322 41.56269 35.92295
# Shear Modulus (GPa) = 34.34184 42.19871 38.27027
#
# Velocity S-wave (km/s) = 3.51263 3.89377 3.70810
# Velocity P-wave (km/s) = 5.22798 5.92859 5.58928
#
# Compressibility (1/GPa) = 0.03302159
#
# Stress axis : x y z
#
# Youngs Moduli (GPa) = 150.13171 49.59910 64.21692
#
# Poissons Ratio (x) = 0.21596 -0.01009
# Poissons Ratio (y) = 0.65370 0.03143
# Poissons Ratio (z) = -0.02359 0.02428
#
# Static dielectric constant tensor:
#      x y z
#    x 5.689070 0.000000 0.000000 
#    y 0.000000 4.790320 0.000000 
#    z 0.000000 0.000000 4.528340 
# 
# 
# High freq. dielectric constant tensor:
#      x y z
#    x 2.175400 0.000000 0.000000 
#    y 0.000000 2.126440 0.000000 
#    z 0.000000 0.000000 2.101670 
# 
# From -- ./inp_files/667.got.cif
#   From: 2010.03.12/outbox.cif.g09.slc.cpg/sg33_1_cif.got.tgz:667.got - 2010.04.14 01:49:19.
