data_PCOD8171490
_publ_section_title
;
Structure prediction by ZEFSAII (Michael W. Deem and Ramdas Pophale) SiO2 
 PCOD8171490
Probable space group: P N A 21
;
_chemical_formula_sum "Si O2"
_cell_formula_units_Z 16
_cell_length_a 17.516711
_cell_length_b 7.654168
_cell_length_c 5.068395
_cell_angle_alpha 90.000000
_cell_angle_beta 90.000000
_cell_angle_gamma 90.000000
_cell_volume 679.549362
_symmetry_space_group_name_H-M "P N A 21"
_symmetry_group_IT_number 33
_symmetry_cell_setting 'orthorhombic'
loop_
_space_group_symop_operation_xyz
x,y,z
-x,-y,1/2+z
1/2-x,1/2+y,1/2+z
1/2+x,1/2-y,z
loop_
_atom_site_type_symbol
_atom_site_label
_atom_site_fract_x
_atom_site_fract_y
_atom_site_fract_z
Si Si1 0.654657 0.284661 0.380460
Si Si2 0.386760 0.373158 0.111284
Si Si3 0.982977 0.607897 0.623038
Si Si4 0.794669 0.111185 0.627618
O O1 0.603688 0.417255 0.560352
O O2 0.602191 0.152023 0.217849
O O3 0.708975 0.172601 0.571280
O O4 0.705336 0.401184 0.177174
O O5 0.329220 0.294404 0.888350
O O6 0.469411 0.285990 0.091477
O O7 0.350872 0.336139 0.393291
O O8 0.976424 0.515722 0.339045
#
# Coordination Sequence:
#
# PCOD8171490 Si02
#       4
#     4   4   4   4
#     4  10  28  47  81 104 154 194 256 309 379 447
#     4  10  26  46  73 107 150 196 246 306 377 447
#     4  12  29  46  77 111 153 196 253 313 380 453
#     4  10  25  43  79 106 149 192 253 304 380 439
#
# _framework density 23.545013999999998
#
# number of rings (size 3 to 8) (size 9 to 14) (size 15 to 20)
#    1.500    0.000    0.000    1.500   14.000    2.000 
#    0.000    0.000    0.000    0.000    0.000    0.000 
#    0.000    0.000    0.000    0.000    0.000    0.000 
#
# Total GULP energy -198356.286620 kJ/mol
# GULP energy per Si atom -12397.267914 kJ/mol
# Density = 2.349142 g / cm^3
# Si number density = 23.545014 Si / 1000 Ang^3
#
#
#
# Elastic Constant Matrix: (Units=GPa)
#
#
# Indices 1 2 3 4 5 6 
#
# 1 88.1417 31.2921 9.5864 0.0000 0.0000 0.0000
# 2 31.2921 76.1062 9.0221 0.0000 0.0000 0.0000
# 3 9.5864 9.0221 104.2920 0.0000 0.0000 0.0000
# 4 0.0000 0.0000 0.0000 32.8796 0.0000 0.0000
# 5 0.0000 0.0000 0.0000 0.0000 40.8784 0.0000
# 6 0.0000 0.0000 0.0000 0.0000 0.0000 47.0771
#
#
#
# Elastic Compliance Matrix: (Units=1/GPa)
#
#
# Indices 1 2 3 4 5 6 
#
# 1 0.013344 -0.005396 -0.000760 0.000000 0.000000 0.000000
# 2 -0.005396 0.015458 -0.000841 0.000000 0.000000 0.000000
# 3 -0.000760 -0.000841 0.009731 0.000000 0.000000 0.000000
# 4 0.000000 0.000000 0.000000 0.030414 0.000000 0.000000
# 5 0.000000 0.000000 0.000000 0.000000 0.024463 0.000000
# 6 0.000000 0.000000 0.000000 0.000000 0.000000 0.021242
#
#
# Mechanical properties :
#
#
# Convention : Reuss Voigt Hill
#
# Bulk Modulus (GPa) = 40.75271 40.92678 40.83974
# Shear Modulus (GPa) = 36.54286 38.74299 37.64293
#
# Velocity S-wave (km/s) = 3.94387 4.06086 4.00279
# Velocity P-wave (km/s) = 6.17129 6.27754 6.22464
#
# Compressibility (1/GPa) = 0.02453825
#
# Stress axis : x y z
#
# Youngs Moduli (GPa) = 74.94094 64.69110 102.76366
#
# Poissons Ratio (x) = 0.34910 0.07807
# Poissons Ratio (y) = 0.40441 0.08645
# Poissons Ratio (z) = 0.05693 0.05442
#
# Static dielectric constant tensor:
#      x y z
#    x 3.774710 0.000000 0.000000 
#    y 0.000000 4.089300 0.000000 
#    z 0.000000 0.000000 4.282020 
# 
# 
# High freq. dielectric constant tensor:
#      x y z
#    x 1.917610 0.000000 0.000000 
#    y 0.000000 1.922740 0.000000 
#    z 0.000000 0.000000 1.944510 
# 
# From -- ./inp_files/1193.got.cif
#   From: 2010.03.12/outbox.cif.g09.slc.cpg/sg33_1_cif.got.tgz:1193.got - 2010.04.14 01:49:19.
