data_PCOD8171341
_publ_section_title
;
Structure prediction by ZEFSAII (Michael W. Deem and Ramdas Pophale) SiO2 
 PCOD8171341
Probable space group: P N A 21
;
_chemical_formula_sum "Si O2"
_cell_formula_units_Z 32
_cell_length_a 18.503107
_cell_length_b 9.679312
_cell_length_c 9.055641
_cell_angle_alpha 90.000000
_cell_angle_beta 90.000000
_cell_angle_gamma 90.000000
_cell_volume 1621.841266
_symmetry_space_group_name_H-M "P N A 21"
_symmetry_group_IT_number 33
_symmetry_cell_setting 'orthorhombic'
loop_
_space_group_symop_operation_xyz
x,y,z
-x,-y,1/2+z
1/2-x,1/2+y,1/2+z
1/2+x,1/2-y,z
loop_
_atom_site_type_symbol
_atom_site_label
_atom_site_fract_x
_atom_site_fract_y
_atom_site_fract_z
Si Si1 0.810373 0.964929 0.373850
Si Si2 0.316102 0.042300 0.099972
Si Si3 0.820653 0.771552 0.105221
Si Si4 0.974895 0.882352 0.094835
Si Si5 0.699152 0.779590 0.863659
Si Si6 0.454138 0.146433 0.436363
Si Si7 0.035429 0.133865 0.941948
Si Si8 0.521066 0.896763 0.599124
O O1 0.736165 0.958446 0.461522
O O2 0.794002 0.870022 0.234424
O O3 0.880349 0.907897 0.461831
O O4 0.825314 0.123125 0.325597
O O5 0.276315 0.141074 0.216793
O O6 0.394100 0.105496 0.057154
O O7 0.326425 0.886445 0.161913
O O8 0.897634 0.822880 0.046814
O O9 0.765297 0.783847 0.973105
O O10 0.986825 0.873734 0.270342
O O11 0.033718 0.798466 0.001909
O O12 0.983109 0.039585 0.041649
O O13 0.632117 0.868451 0.927034
O O14 0.489898 0.126946 0.274434
O O15 0.487050 0.042917 0.555998
O O16 0.023141 0.286987 0.002461
#
# Coordination Sequence:
#
# PCOD8171341 Si02
#       8
#     4   4   4   4   4   4   4   4
#     4  10  23  43  63  90 125 162 208 253 308 370
#     4  10  23  43  63  90 125 162 208 253 308 370
#     4  10  23  42  63  90 125 164 204 258 308 364
#     4  11  22  42  63  92 128 159 207 258 306 372
#     4  10  23  42  63  90 125 164 204 258 308 364
#     4  11  22  42  63  92 128 159 207 258 306 372
#     4  11  24  40  65  95 124 166 207 257 313 368
#     4  11  24  40  65  95 124 166 207 257 313 368
#
# _framework density 19.730661000000001
#
# number of rings (size 3 to 8) (size 9 to 14) (size 15 to 20)
#    0.000    1.500    2.500    1.500   10.500    5.000 
#    0.000    0.000    0.000    0.000    0.000    0.000 
#    0.000    0.000    0.000    0.000    0.000    0.000 
#
# Total GULP energy -396846.939066 kJ/mol
# GULP energy per Si atom -12401.466846 kJ/mol
# Density = 1.968575 g / cm^3
# Si number density = 19.730661 Si / 1000 Ang^3
#
#
#
# Elastic Constant Matrix: (Units=GPa)
#
#
# Indices 1 2 3 4 5 6 
#
# 1 40.2625 22.5058 1.6120 0.0000 0.0000 0.0000
# 2 22.5058 88.1324 18.8446 0.0000 0.0000 0.0000
# 3 1.6120 18.8446 50.2954 0.0000 0.0000 0.0000
# 4 0.0000 0.0000 0.0000 43.0373 0.0000 0.0000
# 5 0.0000 0.0000 0.0000 0.0000 28.6238 0.0000
# 6 0.0000 0.0000 0.0000 0.0000 0.0000 32.5569
#
#
#
# Elastic Compliance Matrix: (Units=1/GPa)
#
#
# Indices 1 2 3 4 5 6 
#
# 1 0.029160 -0.007878 0.002017 0.000000 0.000000 0.000000
# 2 -0.007878 0.014463 -0.005166 0.000000 0.000000 0.000000
# 3 0.002017 -0.005166 0.021754 0.000000 0.000000 0.000000
# 4 0.000000 0.000000 0.000000 0.023236 0.000000 0.000000
# 5 0.000000 0.000000 0.000000 0.000000 0.034936 0.000000
# 6 0.000000 0.000000 0.000000 0.000000 0.000000 0.030715
#
#
# Mechanical properties :
#
#
# Convention : Reuss Voigt Hill
#
# Bulk Modulus (GPa) = 23.08291 29.40167 26.24229
# Shear Modulus (GPa) = 26.21121 29.89214 28.05168
#
# Velocity S-wave (km/s) = 3.64875 3.89654 3.77467
# Velocity P-wave (km/s) = 5.42914 5.93109 5.68566
#
# Compressibility (1/GPa) = 0.04332209
#
# Stress axis : x y z
#
# Youngs Moduli (GPa) = 34.29396 69.14237 45.96934
#
# Poissons Ratio (x) = 0.54468 -0.09272
# Poissons Ratio (y) = 0.27015 0.23750
# Poissons Ratio (z) = -0.06917 0.35722
#
# Static dielectric constant tensor:
#      x y z
#    x 3.539420 0.000000 0.000000 
#    y 0.000000 3.888820 0.000000 
#    z 0.000000 0.000000 3.501660 
# 
# 
# High freq. dielectric constant tensor:
#      x y z
#    x 1.772470 0.000000 0.000000 
#    y 0.000000 1.787310 0.000000 
#    z 0.000000 0.000000 1.763740 
# 
# From -- ./inp_files/5055.got.cif
#   From: 2010.03.12/outbox.cif.g09.slc.cpg/sg33_3_cif.got.tgz:5055.got - 2010.04.14 01:49:19.
