data_PCOD8171528
_publ_section_title
;
Structure prediction by ZEFSAII (Michael W. Deem and Ramdas Pophale) SiO2 
 PCOD8171528
Probable space group: P N A 21
;
_chemical_formula_sum "Si O2"
_cell_formula_units_Z 32
_cell_length_a 20.501214
_cell_length_b 5.630470
_cell_length_c 12.190523
_cell_angle_alpha 90.000000
_cell_angle_beta 90.000000
_cell_angle_gamma 90.000000
_cell_volume 1407.169995
_symmetry_space_group_name_H-M "P N A 21"
_symmetry_group_IT_number 33
_symmetry_cell_setting 'orthorhombic'
loop_
_space_group_symop_operation_xyz
x,y,z
-x,-y,1/2+z
1/2-x,1/2+y,1/2+z
1/2+x,1/2-y,z
loop_
_atom_site_type_symbol
_atom_site_label
_atom_site_fract_x
_atom_site_fract_y
_atom_site_fract_z
Si Si1 0.579345 0.278759 0.386400
Si Si2 0.467374 0.373259 0.552439
Si Si3 0.803910 0.481488 0.979714
Si Si4 0.664865 0.690929 0.932277
Si Si5 0.185203 0.499973 0.119027
Si Si6 0.825498 0.112226 0.797257
Si Si7 0.947175 0.641111 0.665976
Si Si8 0.289671 0.191660 0.209994
O O1 0.531051 0.365219 0.478197
O O2 0.646426 0.178958 0.437407
O O3 0.603499 0.494918 0.309772
O O4 0.542234 0.108618 0.298019
O O5 0.402883 0.413812 0.478313
O O6 0.481249 0.616412 0.621590
O O7 0.467038 0.113600 0.612525
O O8 0.727020 0.529372 0.963173
O O9 0.815182 0.245401 0.911653
O O10 0.820136 0.458959 0.110285
O O11 0.657021 0.724768 0.800079
O O12 0.680008 0.943238 0.990088
O O13 0.167247 0.733673 0.188162
O O14 0.130304 0.305671 0.146970
O O15 0.257407 0.419774 0.151227
O O16 0.765113 0.935888 0.782163
#
# Coordination Sequence:
#
# PCOD8171528 Si02
#       8
#     4   4   4   4   4   4   4   4
#     4  12  26  47  70 107 144 196 242 305 373 448
#     4  11  29  45  74 105 145 194 255 295 367 444
#     4  12  25  40  74 103 142 180 251 297 374 438
#     4  11  22  45  62 105 137 189 234 311 356 430
#     4  11  21  40  72  99 136 190 244 287 364 450
#     4  12  21  42  74 104 141 191 237 300 363 445
#     4  11  23  48  74 100 138 197 246 295 358 447
#     4  12  23  39  68 107 141 177 237 312 367 420
#
# _framework density 22.740680000000001
#
# number of rings (size 3 to 8) (size 9 to 14) (size 15 to 20)
#    0.000    0.500    6.250    3.000    1.750    2.000 
#    0.000    1.250    0.000    0.000    0.000    0.000 
#    0.000    0.000    0.000    0.000    0.000    0.000 
#
# Total GULP energy -396468.048250 kJ/mol
# GULP energy per Si atom -12389.626508 kJ/mol
# Density = 2.268892 g / cm^3
# Si number density = 22.740680 Si / 1000 Ang^3
#
#
#
# Elastic Constant Matrix: (Units=GPa)
#
#
# Indices 1 2 3 4 5 6 
#
# 1 65.9234 18.2237 12.3096 0.0000 0.0000 0.0000
# 2 18.2237 87.4737 14.0765 0.0000 0.0000 0.0000
# 3 12.3096 14.0765 108.2949 0.0000 0.0000 0.0000
# 4 0.0000 0.0000 0.0000 34.8471 0.0000 0.0000
# 5 0.0000 0.0000 0.0000 0.0000 39.5541 0.0000
# 6 0.0000 0.0000 0.0000 0.0000 0.0000 18.9981
#
#
#
# Elastic Compliance Matrix: (Units=1/GPa)
#
#
# Indices 1 2 3 4 5 6 
#
# 1 0.016314 -0.003167 -0.001443 0.000000 0.000000 0.000000
# 2 -0.003167 0.012291 -0.001238 0.000000 0.000000 0.000000
# 3 -0.001443 -0.001238 0.009559 0.000000 0.000000 0.000000
# 4 0.000000 0.000000 0.000000 0.028697 0.000000 0.000000
# 5 0.000000 0.000000 0.000000 0.000000 0.025282 0.000000
# 6 0.000000 0.000000 0.000000 0.000000 0.000000 0.052637
#
#
# Mechanical properties :
#
#
# Convention : Reuss Voigt Hill
#
# Bulk Modulus (GPa) = 37.77903 38.99017 38.38460
# Shear Modulus (GPa) = 30.24871 33.15201 31.70036
#
# Velocity S-wave (km/s) = 3.65109 3.82229 3.73767
# Velocity P-wave (km/s) = 5.86711 6.05497 5.96178
#
# Compressibility (1/GPa) = 0.02646971
#
# Stress axis : x y z
#
# Youngs Moduli (GPa) = 61.29748 81.36116 104.61442
#
# Poissons Ratio (x) = 0.25763 0.15093
# Poissons Ratio (y) = 0.19410 0.12948
# Poissons Ratio (z) = 0.08844 0.10070
#
# Static dielectric constant tensor:
#      x y z
#    x 3.998210 0.000000 0.000000 
#    y 0.000000 4.080190 0.000000 
#    z 0.000000 0.000000 4.589290 
# 
# 
# High freq. dielectric constant tensor:
#      x y z
#    x 1.870520 0.000000 0.000000 
#    y 0.000000 1.896100 0.000000 
#    z 0.000000 0.000000 1.917040 
# 
# From -- ./inp_files/7307.got.cif
#   From: 2010.03.12/outbox.cif.g09.slc.cpg/sg33_4_cif.got.tgz:7307.got - 2010.04.14 01:49:19.
