data_PCOD8171489
_publ_section_title
;
Structure prediction by ZEFSAII (Michael W. Deem and Ramdas Pophale) SiO2 
 PCOD8171489
Probable space group: P N A 21
;
_chemical_formula_sum "Si O2"
_cell_formula_units_Z 24
_cell_length_a 21.416115
_cell_length_b 8.336416
_cell_length_c 5.408901
_cell_angle_alpha 90.000000
_cell_angle_beta 90.000000
_cell_angle_gamma 90.000000
_cell_volume 965.670804
_symmetry_space_group_name_H-M "P N A 21"
_symmetry_group_IT_number 33
_symmetry_cell_setting 'orthorhombic'
loop_
_space_group_symop_operation_xyz
x,y,z
-x,-y,1/2+z
1/2-x,1/2+y,1/2+z
1/2+x,1/2-y,z
loop_
_atom_site_type_symbol
_atom_site_label
_atom_site_fract_x
_atom_site_fract_y
_atom_site_fract_z
Si Si1 0.075517 0.182877 0.823950
Si Si2 0.106662 0.584041 0.293248
Si Si3 0.602578 0.679330 0.686866
Si Si4 0.480480 0.811869 0.818328
Si Si5 0.211674 0.662839 0.909917
Si Si6 0.815194 0.633492 0.157332
O O1 0.042458 0.260284 0.587080
O O2 0.143510 0.267389 0.857070
O O3 0.083471 0.999042 0.746149
O O4 0.040398 0.194584 0.088539
O O5 0.092461 0.761935 0.402953
O O6 0.041287 0.491460 0.231329
O O7 0.157201 0.601886 0.085150
O O8 0.137145 0.460724 0.486286
O O9 0.556178 0.800144 0.841306
O O10 0.676338 0.706397 0.739864
O O11 0.273884 0.734827 0.019410
O O12 0.232011 0.498458 0.772648
#
# Coordination Sequence:
#
# PCOD8171489 Si02
#       6
#     4   4   4   4   4   4
#     4  11  25  47  71 107 141 195 234 300 364 430
#     4  10  25  43  66 102 135 187 238 294 364 421
#     4  11  27  41  72 106 138 191 243 295 369 435
#     4  11  25  47  74 101 154 181 243 299 362 434
#     4  11  25  44  67 100 136 190 241 295 366 425
#     4  10  25  44  66  96 142 182 241 299 353 439
#
# _framework density 24.853190000000001
#
# number of rings (size 3 to 8) (size 9 to 14) (size 15 to 20)
#    0.000    1.333    1.667    1.000   11.667    2.667 
#    0.000    0.000    0.000    0.000    0.000    0.000 
#    0.000    0.000    0.000    0.000    0.000    0.000 
#
# Total GULP energy -297325.819413 kJ/mol
# GULP energy per Si atom -12388.575809 kJ/mol
# Density = 2.479662 g / cm^3
# Si number density = 24.853190 Si / 1000 Ang^3
#
#
#
# Elastic Constant Matrix: (Units=GPa)
#
#
# Indices 1 2 3 4 5 6 
#
# 1 67.9730 8.6097 -7.9106 0.0000 0.0000 0.0000
# 2 8.6097 95.9641 6.2638 0.0000 0.0000 0.0000
# 3 -7.9106 6.2638 58.0591 0.0000 0.0000 0.0000
# 4 0.0000 0.0000 0.0000 11.6574 0.0000 0.0000
# 5 0.0000 0.0000 0.0000 0.0000 13.6638 0.0000
# 6 0.0000 0.0000 0.0000 0.0000 0.0000 21.0221
#
#
#
# Elastic Compliance Matrix: (Units=1/GPa)
#
#
# Indices 1 2 3 4 5 6 
#
# 1 0.015162 -0.001506 0.002228 0.000000 0.000000 0.000000
# 2 -0.001506 0.010644 -0.001354 0.000000 0.000000 0.000000
# 3 0.002228 -0.001354 0.017673 0.000000 0.000000 0.000000
# 4 0.000000 0.000000 0.000000 0.085782 0.000000 0.000000
# 5 0.000000 0.000000 0.000000 0.000000 0.073186 0.000000
# 6 0.000000 0.000000 0.000000 0.000000 0.000000 0.047569
#
#
# Mechanical properties :
#
#
# Convention : Reuss Voigt Hill
#
# Bulk Modulus (GPa) = 23.68701 26.21358 24.95029
# Shear Modulus (GPa) = 18.84297 23.60422 21.22359
#
# Velocity S-wave (km/s) = 2.75648 3.08514 2.92543
# Velocity P-wave (km/s) = 4.43648 4.82297 4.63376
#
# Compressibility (1/GPa) = 0.04221723
#
# Stress axis : x y z
#
# Youngs Moduli (GPa) = 65.95538 93.94958 56.58202
#
# Poissons Ratio (x) = 0.14146 -0.12608
# Poissons Ratio (y) = 0.09931 0.07658
# Poissons Ratio (z) = -0.14696 0.12716
#
# Static dielectric constant tensor:
#      x y z
#    x 4.549420 0.000000 0.000000 
#    y 0.000000 4.740800 0.000000 
#    z 0.000000 0.000000 4.790000 
# 
# 
# High freq. dielectric constant tensor:
#      x y z
#    x 1.994870 0.000000 0.000000 
#    y 0.000000 1.996840 0.000000 
#    z 0.000000 0.000000 1.989360 
# 
# From -- ./inp_files/2194.got.cif
#   From: 2010.03.12/outbox.cif.g09.slc.cpg/sg33_2_cif.got.tgz:2194.got - 2010.04.14 01:49:19.
