data_PCOD8171206
_publ_section_title
;
Structure prediction by ZEFSAII (Michael W. Deem and Ramdas Pophale) SiO2 
 PCOD8171206
Probable space group: P N A 21
;
_chemical_formula_sum "Si O2"
_cell_formula_units_Z 28
_cell_length_a 21.918862
_cell_length_b 5.094197
_cell_length_c 12.140135
_cell_angle_alpha 90.000000
_cell_angle_beta 90.000000
_cell_angle_gamma 90.000000
_cell_volume 1355.555347
_symmetry_space_group_name_H-M "P N A 21"
_symmetry_group_IT_number 33
_symmetry_cell_setting 'orthorhombic'
loop_
_space_group_symop_operation_xyz
x,y,z
-x,-y,1/2+z
1/2-x,1/2+y,1/2+z
1/2+x,1/2-y,z
loop_
_atom_site_type_symbol
_atom_site_label
_atom_site_fract_x
_atom_site_fract_y
_atom_site_fract_z
Si Si1 0.985958 0.168191 0.432960
Si Si2 0.981673 0.654434 0.284808
Si Si3 0.824377 0.180578 0.022942
Si Si4 0.809518 0.070573 0.770905
Si Si5 0.906454 0.291436 0.634468
Si Si6 0.787379 0.567727 0.659956
Si Si7 0.399439 0.803697 0.080936
O O1 0.966024 0.388559 0.347387
O O2 0.932750 0.158872 0.524298
O O3 0.050039 0.246982 0.487869
O O4 0.991476 0.888768 0.372329
O O5 0.925676 0.711492 0.203844
O O6 0.040189 0.591682 0.209997
O O7 0.754675 0.191975 0.065108
O O8 0.866933 0.420428 0.058173
O O9 0.849394 0.919446 0.077673
O O10 0.822852 0.160901 0.893047
O O11 0.873732 0.062780 0.704686
O O12 0.765311 0.290206 0.713362
O O13 0.784040 0.776933 0.761160
O O14 0.856102 0.521955 0.610977
#
# Coordination Sequence:
#
# PCOD8171206 Si02
#       7
#     4   4   4   4   4   4   4
#     4  11  23  40  66  96 129 172 215 269 332 397
#     4  11  24  40  64  98 131 170 212 273 337 385
#     4  12  23  45  65  93 130 171 224 261 341 389
#     4  10  22  41  66  91 120 174 210 267 320 384
#     4   9  24  41  65  93 131 163 228 260 326 401
#     4  10  24  42  63  96 121 170 219 271 309 394
#     4  11  24  41  65  97 132 170 214 277 321 406
#
# _framework density 20.655740000000002
#
# number of rings (size 3 to 8) (size 9 to 14) (size 15 to 20)
#    0.857    0.571    0.000    5.143    6.000    2.286 
#    7.714    0.000    0.000    0.000    0.000    0.000 
#    0.000    0.000    0.000    0.000    0.000    0.000 
#
# Total GULP energy -347011.074163 kJ/mol
# GULP energy per Si atom -12393.252649 kJ/mol
# Density = 2.060873 g / cm^3
# Si number density = 20.655740 Si / 1000 Ang^3
#
#
#
# Elastic Constant Matrix: (Units=GPa)
#
#
# Indices 1 2 3 4 5 6 
#
# 1 107.0582 38.4212 46.8780 0.0000 0.0000 0.0000
# 2 38.4212 103.9109 11.0430 0.0000 0.0000 0.0000
# 3 46.8780 11.0430 106.3547 0.0000 0.0000 0.0000
# 4 0.0000 0.0000 0.0000 36.2749 0.0000 0.0000
# 5 0.0000 0.0000 0.0000 0.0000 28.7361 0.0000
# 6 0.0000 0.0000 0.0000 0.0000 0.0000 30.1787
#
#
#
# Elastic Compliance Matrix: (Units=1/GPa)
#
#
# Indices 1 2 3 4 5 6 
#
# 1 0.013256 -0.004328 -0.005393 0.000000 0.000000 0.000000
# 2 -0.004328 0.011144 0.000751 0.000000 0.000000 0.000000
# 3 -0.005393 0.000751 0.011702 0.000000 0.000000 0.000000
# 4 0.000000 0.000000 0.000000 0.027567 0.000000 0.000000
# 5 0.000000 0.000000 0.000000 0.000000 0.034799 0.000000
# 6 0.000000 0.000000 0.000000 0.000000 0.000000 0.033136
#
#
# Mechanical properties :
#
#
# Convention : Reuss Voigt Hill
#
# Bulk Modulus (GPa) = 55.06631 56.66759 55.86695
# Shear Modulus (GPa) = 32.13387 33.77004 32.95195
#
# Velocity S-wave (km/s) = 3.94850 4.04777 3.99844
# Velocity P-wave (km/s) = 6.89235 7.02423 6.95860
#
# Compressibility (1/GPa) = 0.01815992
#
# Stress axis : x y z
#
# Youngs Moduli (GPa) = 75.43999 89.73288 85.45718
#
# Poissons Ratio (x) = 0.38837 0.46089
# Poissons Ratio (y) = 0.32651 -0.06414
# Poissons Ratio (z) = 0.40687 -0.06735
#
# Static dielectric constant tensor:
#      x y z
#    x 3.708950 0.000000 0.000000 
#    y 0.000000 3.735990 0.000000 
#    z 0.000000 0.000000 3.731180 
# 
# 
# High freq. dielectric constant tensor:
#      x y z
#    x 1.800650 0.000000 0.000000 
#    y 0.000000 1.815970 0.000000 
#    z 0.000000 0.000000 1.810660 
# 
# From -- ./inp_files/7151.got.cif
#   From: 2010.03.12/outbox.cif.g09.slc.cpg/sg33_4_cif.got.tgz:7151.got - 2010.04.14 01:49:19.
