data_PCOD8171308
_publ_section_title
;
Structure prediction by ZEFSAII (Michael W. Deem and Ramdas Pophale) SiO2 
 PCOD8171308
Probable space group: P N A 21
;
_chemical_formula_sum "Si O2"
_cell_formula_units_Z 32
_cell_length_a 8.494856
_cell_length_b 11.350847
_cell_length_c 13.832327
_cell_angle_alpha 90.000000
_cell_angle_beta 90.000000
_cell_angle_gamma 90.000000
_cell_volume 1333.765681
_symmetry_space_group_name_H-M "P N A 21"
_symmetry_group_IT_number 33
_symmetry_cell_setting 'orthorhombic'
loop_
_space_group_symop_operation_xyz
x,y,z
-x,-y,1/2+z
1/2-x,1/2+y,1/2+z
1/2+x,1/2-y,z
loop_
_atom_site_type_symbol
_atom_site_label
_atom_site_fract_x
_atom_site_fract_y
_atom_site_fract_z
Si Si1 0.301049 0.413529 0.303220
Si Si2 0.075164 0.275759 0.568420
Si Si3 0.668562 0.411907 0.970540
Si Si4 0.901898 0.403483 0.724138
Si Si5 0.130024 0.774155 0.393320
Si Si6 0.709433 0.018803 0.821588
Si Si7 0.109473 0.202231 0.353773
Si Si8 0.125346 0.916044 0.133221
O O1 0.293168 0.471144 0.409393
O O2 0.255278 0.514573 0.224683
O O3 0.176731 0.308603 0.291326
O O4 0.474000 0.359234 0.289757
O O5 0.045747 0.255004 0.454895
O O6 0.249921 0.319488 0.591944
O O7 0.953983 0.372626 0.614753
O O8 0.043180 0.149575 0.621134
O O9 0.822514 0.327593 0.970350
O O10 0.530372 0.336442 0.922749
O O11 0.629050 0.459241 0.076465
O O12 0.878705 0.283258 0.785467
O O13 0.035997 0.482868 0.777013
O O14 0.269224 0.872897 0.396281
O O15 0.844265 0.048308 0.742518
O O16 0.751135 0.893974 0.871346
#
# Coordination Sequence:
#
# PCOD8171308 Si02
#       8
#     4   4   4   4   4   4   4   4
#     4  11  23  39  66  95 133 173 222 275 342 408
#     4  11  21  40  64  97 133 173 229 281 332 408
#     4  11  22  41  62  94 128 168 223 274 331 401
#     4  10  23  38  64  96 131 170 228 278 333 406
#     4  11  20  38  65  90 125 172 220 269 333 403
#     4  11  22  39  66  95 134 175 218 275 344 408
#     4  12  22  41  67  98 137 180 221 279 349 415
#     4  11  23  40  62  97 135 171 221 287 334 405
#
# _framework density 23.99222
#
# number of rings (size 3 to 8) (size 9 to 14) (size 15 to 20)
#    0.000    1.000    6.250    0.750    0.000    1.000 
#    0.000    3.750    0.000    0.000    0.000    0.000 
#    0.000    0.000    0.000    0.000    0.000    0.000 
#
# Total GULP energy -396651.214861 kJ/mol
# GULP energy per Si atom -12395.350464 kJ/mol
# Density = 2.393761 g / cm^3
# Si number density = 23.992220 Si / 1000 Ang^3
#
#
#
# Elastic Constant Matrix: (Units=GPa)
#
#
# Indices 1 2 3 4 5 6 
#
# 1 62.9830 49.8465 9.9552 0.0000 0.0000 0.0000
# 2 49.8465 140.3128 25.3644 0.0000 0.0000 0.0000
# 3 9.9552 25.3644 43.2413 0.0000 0.0000 0.0000
# 4 0.0000 0.0000 0.0000 30.6089 0.0000 0.0000
# 5 0.0000 0.0000 0.0000 0.0000 20.6515 0.0000
# 6 0.0000 0.0000 0.0000 0.0000 0.0000 68.4010
#
#
#
# Elastic Compliance Matrix: (Units=1/GPa)
#
#
# Indices 1 2 3 4 5 6 
#
# 1 0.022099 -0.007753 -0.000540 0.000000 0.000000 0.000000
# 2 -0.007753 0.010692 -0.004487 0.000000 0.000000 0.000000
# 3 -0.000540 -0.004487 0.025882 0.000000 0.000000 0.000000
# 4 0.000000 0.000000 0.000000 0.032670 0.000000 0.000000
# 5 0.000000 0.000000 0.000000 0.000000 0.048423 0.000000
# 6 0.000000 0.000000 0.000000 0.000000 0.000000 0.014620
#
#
# Mechanical properties :
#
#
# Convention : Reuss Voigt Hill
#
# Bulk Modulus (GPa) = 30.19917 46.31881 38.25899
# Shear Modulus (GPa) = 26.18032 34.69035 30.43534
#
# Velocity S-wave (km/s) = 3.30692 3.80662 3.56554
# Velocity P-wave (km/s) = 5.21491 6.21838 5.73862
#
# Compressibility (1/GPa) = 0.03311350
#
# Stress axis : x y z
#
# Youngs Moduli (GPa) = 45.25182 93.52516 38.63652
#
# Poissons Ratio (x) = 0.72510 0.02086
# Poissons Ratio (y) = 0.35084 0.17336
# Poissons Ratio (z) = 0.02443 0.41964
#
# Static dielectric constant tensor:
#      x y z
#    x 4.361520 0.000000 0.000000 
#    y 0.000000 4.601000 0.000000 
#    z 0.000000 0.000000 3.810580 
# 
# 
# High freq. dielectric constant tensor:
#      x y z
#    x 1.955650 0.000000 0.000000 
#    y 0.000000 1.972200 0.000000 
#    z 0.000000 0.000000 1.903090 
# 
# From -- ./inp_files/7667.got.cif
#   From: 2010.03.12/outbox.cif.g09.slc.cpg/sg33_4_cif.got.tgz:7667.got - 2010.04.14 01:49:19.
