data_PCOD8171730
_publ_section_title
;
Structure prediction by ZEFSAII (Michael W. Deem and Ramdas Pophale) SiO2 
 PCOD8171730
Probable space group: P N A 21
;
_chemical_formula_sum "Si O2"
_cell_formula_units_Z 28
_cell_length_a 9.167485
_cell_length_b 15.526904
_cell_length_c 8.284522
_cell_angle_alpha 90.000000
_cell_angle_beta 90.000000
_cell_angle_gamma 90.000000
_cell_volume 1179.240894
_symmetry_space_group_name_H-M "P N A 21"
_symmetry_group_IT_number 33
_symmetry_cell_setting 'orthorhombic'
loop_
_space_group_symop_operation_xyz
x,y,z
-x,-y,1/2+z
1/2-x,1/2+y,1/2+z
1/2+x,1/2-y,z
loop_
_atom_site_type_symbol
_atom_site_label
_atom_site_fract_x
_atom_site_fract_y
_atom_site_fract_z
Si Si1 0.140471 0.160027 0.534130
Si Si2 0.722611 0.701807 0.477035
Si Si3 0.387167 0.460179 0.484988
Si Si4 0.909435 0.846804 0.386150
Si Si5 0.179682 0.441779 0.757647
Si Si6 0.836936 0.670247 0.825431
Si Si7 0.069848 0.575784 0.997979
O O1 0.065190 0.186496 0.702989
O O2 0.149120 0.235136 0.402600
O O3 0.304858 0.133258 0.577880
O O4 0.049854 0.077592 0.469942
O O5 0.763600 0.802562 0.458556
O O6 0.549354 0.685167 0.489270
O O7 0.790216 0.654673 0.320068
O O8 0.799264 0.669685 0.638971
O O9 0.386246 0.550500 0.390415
O O10 0.326773 0.475983 0.667615
O O11 0.282472 0.387739 0.412819
O O12 0.147549 0.493731 0.920085
O O13 0.042722 0.447841 0.638082
O O14 0.994280 0.626899 0.850710
#
# Coordination Sequence:
#
# PCOD8171730 Si02
#       7
#     4   4   4   4   4   4   4
#     4  12  27  48  76 109 153 205 251 316 385 466
#     4  12  29  48  74 113 152 201 261 322 390 464
#     4  11  27  50  78 111 150 199 258 312 394 459
#     4  12  30  46  79 109 155 204 256 324 388 471
#     4  11  25  49  73 111 148 199 255 319 395 464
#     4  11  28  48  76 110 153 201 260 318 387 467
#     4  11  26  43  78 105 151 195 255 319 385 467
#
# _framework density 23.744091000000001
#
# number of rings (size 3 to 8) (size 9 to 14) (size 15 to 20)
#    0.000    0.571    1.429    4.286   18.000    0.000 
#    0.000    0.000    0.000    0.000    0.000    0.000 
#    0.000    0.000    0.000    0.000    0.000    0.000 
#
# Total GULP energy -347183.405962 kJ/mol
# GULP energy per Si atom -12399.407356 kJ/mol
# Density = 2.369005 g / cm^3
# Si number density = 23.744091 Si / 1000 Ang^3
#
#
#
# Elastic Constant Matrix: (Units=GPa)
#
#
# Indices 1 2 3 4 5 6 
#
# 1 120.2471 40.8089 23.1307 0.0000 0.0000 0.0000
# 2 40.8089 95.2862 27.3992 0.0000 0.0000 0.0000
# 3 23.1307 27.3992 103.2176 0.0000 0.0000 0.0000
# 4 0.0000 0.0000 0.0000 38.1569 0.0000 0.0000
# 5 0.0000 0.0000 0.0000 0.0000 34.4339 0.0000
# 6 0.0000 0.0000 0.0000 0.0000 0.0000 40.9615
#
#
#
# Elastic Compliance Matrix: (Units=1/GPa)
#
#
# Indices 1 2 3 4 5 6 
#
# 1 0.009861 -0.003884 -0.001179 0.000000 0.000000 0.000000
# 2 -0.003884 0.012892 -0.002552 0.000000 0.000000 0.000000
# 3 -0.001179 -0.002552 0.010630 0.000000 0.000000 0.000000
# 4 0.000000 0.000000 0.000000 0.026208 0.000000 0.000000
# 5 0.000000 0.000000 0.000000 0.000000 0.029041 0.000000
# 6 0.000000 0.000000 0.000000 0.000000 0.000000 0.024413
#
#
# Mechanical properties :
#
#
# Convention : Reuss Voigt Hill
#
# Bulk Modulus (GPa) = 55.08640 55.71430 55.40035
# Shear Modulus (GPa) = 37.22295 37.87127 37.54711
#
# Velocity S-wave (km/s) = 3.96368 3.99805 3.98090
# Velocity P-wave (km/s) = 6.64816 6.69537 6.67181
#
# Compressibility (1/GPa) = 0.01815330
#
# Stress axis : x y z
#
# Youngs Moduli (GPa) = 101.40740 77.56731 94.07534
#
# Poissons Ratio (x) = 0.30130 0.11089
# Poissons Ratio (y) = 0.39391 0.24005
# Poissons Ratio (z) = 0.11953 0.19793
#
# Static dielectric constant tensor:
#      x y z
#    x 4.462880 0.000000 0.000000 
#    y 0.000000 4.265300 0.000000 
#    z 0.000000 0.000000 4.329320 
# 
# 
# High freq. dielectric constant tensor:
#      x y z
#    x 1.952150 0.000000 0.000000 
#    y 0.000000 1.942660 0.000000 
#    z 0.000000 0.000000 1.945110 
# 
# From -- ./inp_files/3210.got.cif
#   From: 2010.03.12/outbox.cif.g09.slc.cpg/sg33_2_cif.got.tgz:3210.got - 2010.04.14 01:49:19.
