data_PCOD8171416
_publ_section_title
;
Structure prediction by ZEFSAII (Michael W. Deem and Ramdas Pophale) SiO2 
 PCOD8171416
Probable space group: P N A 21
;
_chemical_formula_sum "Si O2"
_cell_formula_units_Z 28
_cell_length_a 28.656521
_cell_length_b 5.152675
_cell_length_c 7.509019
_cell_angle_alpha 90.000000
_cell_angle_beta 90.000000
_cell_angle_gamma 90.000000
_cell_volume 1108.764770
_symmetry_space_group_name_H-M "P N A 21"
_symmetry_group_IT_number 33
_symmetry_cell_setting 'orthorhombic'
loop_
_space_group_symop_operation_xyz
x,y,z
-x,-y,1/2+z
1/2-x,1/2+y,1/2+z
1/2+x,1/2-y,z
loop_
_atom_site_type_symbol
_atom_site_label
_atom_site_fract_x
_atom_site_fract_y
_atom_site_fract_z
Si Si1 0.497730 0.643189 0.888240
Si Si2 0.364074 0.626913 0.610834
Si Si3 0.101893 0.004675 0.480545
Si Si4 0.152949 0.518670 0.588541
Si Si5 0.194616 0.771198 0.905286
Si Si6 0.286710 0.989110 0.755473
Si Si7 0.042217 0.339098 0.021197
O O1 0.451855 0.581574 0.005864
O O2 0.483812 0.742637 0.696419
O O3 0.527999 0.376932 0.872950
O O4 0.527899 0.867893 0.981289
O O5 0.387436 0.461905 0.770490
O O6 0.350658 0.448574 0.443203
O O7 0.401594 0.841509 0.545238
O O8 0.316633 0.749373 0.684743
O O9 0.133995 0.230530 0.562953
O O10 0.111415 0.731917 0.579210
O O11 0.177328 0.530788 0.782972
O O12 0.189774 0.601170 0.434659
O O13 0.233510 0.919675 0.792987
O O14 0.215862 0.695560 0.096211
#
# Coordination Sequence:
#
# PCOD8171416 Si02
#       7
#     4   4   4   4   4   4   4
#     4  11  24  44  72 107 145 193 236 301 355 433
#     4  10  25  45  71 101 148 192 240 305 368 427
#     4  10  23  47  70 104 148 192 238 304 363 434
#     4  11  25  44  75 103 148 194 243 296 369 430
#     4  12  27  45  76 104 142 194 248 302 368 438
#     4  11  27  47  71 104 148 188 246 305 364 435
#     4  11  25  44  73 105 149 189 241 297 363 429
#
# _framework density 25.253326999999999
#
# number of rings (size 3 to 8) (size 9 to 14) (size 15 to 20)
#    0.000    1.143    1.429    2.571    8.000    8.000 
#    0.000    0.000    0.000    0.000    0.000    0.000 
#    0.000    0.000    0.000    0.000    0.000    0.000 
#
# Total GULP energy -347250.523696 kJ/mol
# GULP energy per Si atom -12401.804418 kJ/mol
# Density = 2.519585 g / cm^3
# Si number density = 25.253327 Si / 1000 Ang^3
#
#
#
# Elastic Constant Matrix: (Units=GPa)
#
#
# Indices 1 2 3 4 5 6 
#
# 1 94.9307 17.0065 32.3192 0.0000 0.0000 0.0000
# 2 17.0065 71.7553 7.6904 0.0000 0.0000 0.0000
# 3 32.3192 7.6904 97.4681 0.0000 0.0000 0.0000
# 4 0.0000 0.0000 0.0000 37.1886 0.0000 0.0000
# 5 0.0000 0.0000 0.0000 0.0000 32.8380 0.0000
# 6 0.0000 0.0000 0.0000 0.0000 0.0000 36.7472
#
#
#
# Elastic Compliance Matrix: (Units=1/GPa)
#
#
# Indices 1 2 3 4 5 6 
#
# 1 0.012304 -0.002500 -0.003882 0.000000 0.000000 0.000000
# 2 -0.002500 0.014563 -0.000320 0.000000 0.000000 0.000000
# 3 -0.003882 -0.000320 0.011572 0.000000 0.000000 0.000000
# 4 0.000000 0.000000 0.000000 0.026890 0.000000 0.000000
# 5 0.000000 0.000000 0.000000 0.000000 0.030453 0.000000
# 6 0.000000 0.000000 0.000000 0.000000 0.000000 0.027213
#
#
# Mechanical properties :
#
#
# Convention : Reuss Voigt Hill
#
# Bulk Modulus (GPa) = 39.94557 42.02069 40.98313
# Shear Modulus (GPa) = 34.54367 35.16396 34.85382
#
# Velocity S-wave (km/s) = 3.70251 3.73560 3.71909
# Velocity P-wave (km/s) = 5.84212 5.93987 5.89120
#
# Compressibility (1/GPa) = 0.02503407
#
# Stress axis : x y z
#
# Youngs Moduli (GPa) = 81.27670 68.66690 86.41243
#
# Poissons Ratio (x) = 0.17166 0.33550
# Poissons Ratio (y) = 0.20319 0.02766
# Poissons Ratio (z) = 0.31556 0.02198
#
# Static dielectric constant tensor:
#      x y z
#    x 4.645080 0.000000 0.000000 
#    y 0.000000 4.344270 0.000000 
#    z 0.000000 0.000000 4.819050 
# 
# 
# High freq. dielectric constant tensor:
#      x y z
#    x 2.013400 0.000000 0.000000 
#    y 0.000000 1.995730 0.000000 
#    z 0.000000 0.000000 2.020010 
# 
# From -- ./inp_files/5263.got.cif
#   From: 2010.03.12/outbox.cif.g09.slc.cpg/sg33_3_cif.got.tgz:5263.got - 2010.04.14 01:49:19.
