data_PCOD8171141
_publ_section_title
;
Structure prediction by ZEFSAII (Michael W. Deem and Ramdas Pophale) SiO2 
 PCOD8171141
Probable space group: P N A 21
;
_chemical_formula_sum "Si O2"
_cell_formula_units_Z 16
_cell_length_a 5.004305
_cell_length_b 16.586709
_cell_length_c 8.406445
_cell_angle_alpha 90.000000
_cell_angle_beta 90.000000
_cell_angle_gamma 90.000000
_cell_volume 697.776553
_symmetry_space_group_name_H-M "P N A 21"
_symmetry_group_IT_number 33
_symmetry_cell_setting 'orthorhombic'
loop_
_space_group_symop_operation_xyz
x,y,z
-x,-y,1/2+z
1/2-x,1/2+y,1/2+z
1/2+x,1/2-y,z
loop_
_atom_site_type_symbol
_atom_site_label
_atom_site_fract_x
_atom_site_fract_y
_atom_site_fract_z
Si Si1 0.986245 0.395361 0.907170
Si Si2 0.257466 0.057219 0.410779
Si Si3 0.023868 0.301736 0.588788
Si Si4 0.468446 0.424889 0.095747
O O1 0.998641 0.329865 0.769806
O O2 0.058694 0.484918 0.837138
O O3 0.692619 0.392068 0.977274
O O4 0.198905 0.375306 0.049740
O O5 0.452440 0.127573 0.466712
O O6 0.052044 0.088623 0.277124
O O7 0.085412 0.020696 0.558981
O O8 0.825999 0.226475 0.557399
#
# Coordination Sequence:
#
# PCOD8171141 Si02
#       4
#     4   4   4   4
#     4  10  23  42  67  98 130 186 233 278 335 425
#     4  10  24  41  72 102 132 181 242 281 339 413
#     4  12  27  44  67 101 146 179 220 291 367 404
#     4  10  22  37  74  95 130 168 247 280 323 400
#
# _framework density 22.929976
#
# number of rings (size 3 to 8) (size 9 to 14) (size 15 to 20)
#    1.500    0.000    0.000    4.500   10.500    0.000 
#    0.000    7.500    0.000    0.000    0.000    0.000 
#    0.000    0.000    0.000    0.000    0.000    0.000 
#
# Total GULP energy -198345.197126 kJ/mol
# GULP energy per Si atom -12396.574820 kJ/mol
# Density = 2.287779 g / cm^3
# Si number density = 22.929976 Si / 1000 Ang^3
#
#
#
# Elastic Constant Matrix: (Units=GPa)
#
#
# Indices 1 2 3 4 5 6 
#
# 1 74.9563 19.2127 -4.9512 0.0000 0.0000 0.0000
# 2 19.2127 44.9431 23.1318 0.0000 0.0000 0.0000
# 3 -4.9512 23.1318 73.1725 0.0000 0.0000 0.0000
# 4 0.0000 0.0000 0.0000 38.8967 0.0000 0.0000
# 5 0.0000 0.0000 0.0000 0.0000 41.6365 0.0000
# 6 0.0000 0.0000 0.0000 0.0000 0.0000 27.4328
#
#
#
# Elastic Compliance Matrix: (Units=1/GPa)
#
#
# Indices 1 2 3 4 5 6 
#
# 1 0.015836 -0.008744 0.003836 0.000000 0.000000 0.000000
# 2 -0.008744 0.031402 -0.010519 0.000000 0.000000 0.000000
# 3 0.003836 -0.010519 0.017251 0.000000 0.000000 0.000000
# 4 0.000000 0.000000 0.000000 0.025709 0.000000 0.000000
# 5 0.000000 0.000000 0.000000 0.000000 0.024017 0.000000
# 6 0.000000 0.000000 0.000000 0.000000 0.000000 0.036453
#
#
# Mechanical properties :
#
#
# Convention : Reuss Voigt Hill
#
# Bulk Modulus (GPa) = 29.73070 29.76207 29.74638
# Shear Modulus (GPa) = 25.94255 31.97178 28.95716
#
# Velocity S-wave (km/s) = 3.36725 3.73811 3.55752
# Velocity P-wave (km/s) = 5.30206 5.62486 5.46584
#
# Compressibility (1/GPa) = 0.03363527
#
# Stress axis : x y z
#
# Youngs Moduli (GPa) = 63.14867 31.84496 57.96721
#
# Poissons Ratio (x) = 0.27844 -0.22234
# Poissons Ratio (y) = 0.55216 0.60974
# Poissons Ratio (z) = -0.24222 0.33497
#
# Static dielectric constant tensor:
#      x y z
#    x 4.222870 0.000000 0.000000 
#    y 0.000000 3.734560 0.000000 
#    z 0.000000 0.000000 3.787370 
# 
# 
# High freq. dielectric constant tensor:
#      x y z
#    x 1.922150 0.000000 0.000000 
#    y 0.000000 1.870830 0.000000 
#    z 0.000000 0.000000 1.895100 
# 
# From -- ./inp_files/2601.got.cif
#   From: 2010.03.12/outbox.cif.g09.slc.cpg/sg33_2_cif.got.tgz:2601.got - 2010.04.14 01:49:19.
