data_PCOD8171312
_publ_section_title
;
Structure prediction by ZEFSAII (Michael W. Deem and Ramdas Pophale) SiO2 
 PCOD8171312
Probable space group: P N A 21
;
_chemical_formula_sum "Si O2"
_cell_formula_units_Z 20
_cell_length_a 8.914226
_cell_length_b 18.245589
_cell_length_c 5.312744
_cell_angle_alpha 90.000000
_cell_angle_beta 90.000000
_cell_angle_gamma 90.000000
_cell_volume 864.092862
_symmetry_space_group_name_H-M "P N A 21"
_symmetry_group_IT_number 33
_symmetry_cell_setting 'orthorhombic'
loop_
_space_group_symop_operation_xyz
x,y,z
-x,-y,1/2+z
1/2-x,1/2+y,1/2+z
1/2+x,1/2-y,z
loop_
_atom_site_type_symbol
_atom_site_label
_atom_site_fract_x
_atom_site_fract_y
_atom_site_fract_z
Si Si1 0.349755 0.437540 0.595140
Si Si2 0.806775 0.980141 0.097513
Si Si3 0.445735 0.750263 0.487333
Si Si4 0.691618 0.826784 0.176022
Si Si5 0.800597 0.202526 0.318114
O O1 0.526781 0.448063 0.593598
O O2 0.277025 0.472851 0.346477
O O3 0.312936 0.350978 0.561373
O O4 0.276892 0.469987 0.849687
O O5 0.691182 0.912739 0.110251
O O6 0.535846 0.804517 0.305411
O O7 0.334475 0.695556 0.343585
O O8 0.354646 0.806413 0.667047
O O9 0.555682 0.693879 0.635238
O O10 0.700394 0.786211 0.910193
#
# Coordination Sequence:
#
# PCOD8171312 Si02
#       5
#     4   4   4   4   4
#     4  10  23  39  66  99 133 173 225 283 341 401
#     4  10  23  39  66  99 133 173 225 283 341 401
#     4  10  24  38  72 100 136 174 234 280 346 400
#     4  11  23  42  69  99 134 178 229 282 338 411
#     4  11  23  42  69  99 134 178 229 282 338 411
#
# _framework density 23.145659999999999
#
# number of rings (size 3 to 8) (size 9 to 14) (size 15 to 20)
#    0.000    1.600    0.000    3.600   19.600    0.000 
#    0.000    0.000    8.800    0.000    0.000    0.000 
#    0.000    0.000    0.000    0.000    0.000    0.000 
#
# Total GULP energy -248037.508150 kJ/mol
# GULP energy per Si atom -12401.875408 kJ/mol
# Density = 2.309298 g / cm^3
# Si number density = 23.145660 Si / 1000 Ang^3
#
#
#
# Elastic Constant Matrix: (Units=GPa)
#
#
# Indices 1 2 3 4 5 6 
#
# 1 80.9217 11.4545 24.2985 0.0000 0.0000 0.0000
# 2 11.4545 59.5870 9.4670 0.0000 0.0000 0.0000
# 3 24.2985 9.4670 115.9242 0.0000 0.0000 0.0000
# 4 0.0000 0.0000 0.0000 48.0252 0.0000 0.0000
# 5 0.0000 0.0000 0.0000 0.0000 22.9477 0.0000
# 6 0.0000 0.0000 0.0000 0.0000 0.0000 23.3793
#
#
#
# Elastic Compliance Matrix: (Units=1/GPa)
#
#
# Indices 1 2 3 4 5 6 
#
# 1 0.013458 -0.002167 -0.002644 0.000000 0.000000 0.000000
# 2 -0.002167 0.017352 -0.000963 0.000000 0.000000 0.000000
# 3 -0.002644 -0.000963 0.009259 0.000000 0.000000 0.000000
# 4 0.000000 0.000000 0.000000 0.020822 0.000000 0.000000
# 5 0.000000 0.000000 0.000000 0.000000 0.043577 0.000000
# 6 0.000000 0.000000 0.000000 0.000000 0.000000 0.042773
#
#
# Mechanical properties :
#
#
# Convention : Reuss Voigt Hill
#
# Bulk Modulus (GPa) = 35.06124 38.54142 36.80133
# Shear Modulus (GPa) = 29.70945 32.95130 31.33038
#
# Velocity S-wave (km/s) = 3.58660 3.77722 3.68315
# Velocity P-wave (km/s) = 5.68618 5.97587 5.83282
#
# Compressibility (1/GPa) = 0.02852152
#
# Stress axis : x y z
#
# Youngs Moduli (GPa) = 74.30367 57.63113 108.00124
#
# Poissons Ratio (x) = 0.12489 0.28555
# Poissons Ratio (y) = 0.16102 0.10398
# Poissons Ratio (z) = 0.19646 0.05549
#
# Static dielectric constant tensor:
#      x y z
#    x 4.039410 0.000000 0.000000 
#    y 0.000000 3.979530 0.000000 
#    z 0.000000 0.000000 4.391890 
# 
# 
# High freq. dielectric constant tensor:
#      x y z
#    x 1.897670 0.000000 0.000000 
#    y 0.000000 1.902950 0.000000 
#    z 0.000000 0.000000 1.932480 
# 
# From -- ./inp_files/320.got.cif
#   From: 2010.03.12/outbox.cif.g09.slc.cpg/sg33_1_cif.got.tgz:320.got - 2010.04.14 01:49:19.
