data_PCOD8171027
_publ_section_title
;
Structure prediction by ZEFSAII (Michael W. Deem and Ramdas Pophale) SiO2 
 PCOD8171027
Probable space group: P N A 21
;
_chemical_formula_sum "Si O2"
_cell_formula_units_Z 28
_cell_length_a 27.350260
_cell_length_b 5.248669
_cell_length_c 9.197896
_cell_angle_alpha 90.000000
_cell_angle_beta 90.000000
_cell_angle_gamma 90.000000
_cell_volume 1320.380614
_symmetry_space_group_name_H-M "P N A 21"
_symmetry_group_IT_number 33
_symmetry_cell_setting 'orthorhombic'
loop_
_space_group_symop_operation_xyz
x,y,z
-x,-y,1/2+z
1/2-x,1/2+y,1/2+z
1/2+x,1/2-y,z
loop_
_atom_site_type_symbol
_atom_site_label
_atom_site_fract_x
_atom_site_fract_y
_atom_site_fract_z
Si Si1 0.278642 0.643466 0.904790
Si Si2 0.738201 0.854344 0.226238
Si Si3 0.510596 0.354316 0.453715
Si Si4 0.127938 0.637132 0.137061
Si Si5 0.449641 0.631711 0.249970
Si Si6 0.419846 0.134549 0.340384
Si Si7 0.111151 0.136091 0.300677
O O1 0.253574 0.395202 0.828543
O O2 0.337135 0.640393 0.883697
O O3 0.254970 0.893895 0.827206
O O4 0.271840 0.644177 0.080588
O O5 0.684847 0.844101 0.160606
O O6 0.483134 0.608506 0.395358
O O7 0.509617 0.361479 0.626283
O O8 0.476083 0.120650 0.401565
O O9 0.567321 0.325351 0.413128
O O10 0.107028 0.367112 0.187538
O O11 0.101827 0.871456 0.217629
O O12 0.120118 0.659637 0.965294
O O13 0.414721 0.380553 0.234716
O O14 0.413353 0.873435 0.251471
#
# Coordination Sequence:
#
# PCOD8171027 Si02
#       7
#     4   4   4   4   4   4   4
#     4  10  21  41  62  96 115 163 192 251 300 366
#     4  10  21  40  66  90 124 153 203 240 308 358
#     4  10  24  37  57  81 115 151 192 238 285 334
#     4  10  21  40  60  86 112 162 190 232 286 363
#     4  10  24  35  56  79 114 146 194 233 284 332
#     4  10  23  35  57  80 113 145 198 227 280 334
#     4  10  22  36  64  82 119 150 199 229 295 345
#
# _framework density 21.206008000000001
#
# number of rings (size 3 to 8) (size 9 to 14) (size 15 to 20)
#    0.857    1.143    0.000    2.571    8.000    0.000 
#    5.143    0.000    0.000    0.000    0.000    0.000 
#    0.000    0.000    0.000    0.000    0.000    0.000 
#
# Total GULP energy -346889.943645 kJ/mol
# GULP energy per Si atom -12388.926559 kJ/mol
# Density = 2.115774 g / cm^3
# Si number density = 21.206008 Si / 1000 Ang^3
#
#
#
# Elastic Constant Matrix: (Units=GPa)
#
#
# Indices 1 2 3 4 5 6 
#
# 1 23.6683 17.6720 -4.0565 0.0000 0.0000 0.0000
# 2 17.6720 133.5902 13.7003 0.0000 0.0000 0.0000
# 3 -4.0565 13.7003 43.8047 0.0000 0.0000 0.0000
# 4 0.0000 0.0000 0.0000 22.7930 0.0000 0.0000
# 5 0.0000 0.0000 0.0000 0.0000 38.1750 0.0000
# 6 0.0000 0.0000 0.0000 0.0000 0.0000 8.6213
#
#
#
# Elastic Compliance Matrix: (Units=1/GPa)
#
#
# Indices 1 2 3 4 5 6 
#
# 1 0.048737 -0.007139 0.006746 0.000000 0.000000 0.000000
# 2 -0.007139 0.008779 -0.003407 0.000000 0.000000 0.000000
# 3 0.006746 -0.003407 0.024519 0.000000 0.000000 0.000000
# 4 0.000000 0.000000 0.000000 0.043873 0.000000 0.000000
# 5 0.000000 0.000000 0.000000 0.000000 0.026195 0.000000
# 6 0.000000 0.000000 0.000000 0.000000 0.000000 0.115991
#
#
# Mechanical properties :
#
#
# Convention : Reuss Voigt Hill
#
# Bulk Modulus (GPa) = 13.43443 28.41052 20.92248
# Shear Modulus (GPa) = 16.63857 25.50104 21.06980
#
# Velocity S-wave (km/s) = 2.80414 3.47153 3.15553
# Velocity P-wave (km/s) = 4.10283 5.43094 4.81292
#
# Compressibility (1/GPa) = 0.07443560
#
# Stress axis : x y z
#
# Youngs Moduli (GPa) = 20.51825 113.90352 40.78494
#
# Poissons Ratio (x) = 0.81316 -0.27514
# Poissons Ratio (y) = 0.14648 0.13895
# Poissons Ratio (z) = -0.13842 0.38806
#
# Static dielectric constant tensor:
#      x y z
#    x 3.568290 0.000000 0.000000 
#    y 0.000000 4.260220 0.000000 
#    z 0.000000 0.000000 3.695690 
# 
# 
# High freq. dielectric constant tensor:
#      x y z
#    x 1.811060 0.000000 0.000000 
#    y 0.000000 1.844260 0.000000 
#    z 0.000000 0.000000 1.824340 
# 
# From -- ./inp_files/5296.got.cif
#   From: 2010.03.12/outbox.cif.g09.slc.cpg/sg33_3_cif.got.tgz:5296.got - 2010.04.14 01:49:19.
