data_PCOD8171756
_publ_section_title
;
Structure prediction by ZEFSAII (Michael W. Deem and Ramdas Pophale) SiO2 
 PCOD8171756
Probable space group: P N A 21
;
_chemical_formula_sum "Si O2"
_cell_formula_units_Z 24
_cell_length_a 9.351768
_cell_length_b 7.191608
_cell_length_c 16.386334
_cell_angle_alpha 90.000000
_cell_angle_beta 90.000000
_cell_angle_gamma 90.000000
_cell_volume 1102.050596
_symmetry_space_group_name_H-M "P N A 21"
_symmetry_group_IT_number 33
_symmetry_cell_setting 'orthorhombic'
loop_
_space_group_symop_operation_xyz
x,y,z
-x,-y,1/2+z
1/2-x,1/2+y,1/2+z
1/2+x,1/2-y,z
loop_
_atom_site_type_symbol
_atom_site_label
_atom_site_fract_x
_atom_site_fract_y
_atom_site_fract_z
Si Si1 0.243799 0.187381 0.774730
Si Si2 0.364404 0.818599 0.730298
Si Si3 0.381649 0.185030 0.118539
Si Si4 0.771861 0.180392 0.589492
Si Si5 0.438400 0.547670 0.019908
Si Si6 0.046298 0.971779 0.335240
O O1 0.249291 0.253874 0.681623
O O2 0.310223 0.347457 0.831865
O O3 0.080897 0.155084 0.800545
O O4 0.334009 0.997513 0.786618
O O5 0.467618 0.878576 0.656366
O O6 0.214352 0.755272 0.693195
O O7 0.436810 0.655714 0.781600
O O8 0.409719 0.342005 0.051976
O O9 0.308452 0.013493 0.072708
O O10 0.706804 0.333374 0.528353
O O11 0.939098 0.151388 0.571893
O O12 0.486491 0.535392 0.926611
#
# Coordination Sequence:
#
# PCOD8171756 Si02
#       6
#     4   4   4   4   4   4
#     4  12  25  49  75 102 142 193 243 286 357 443
#     4  12  23  44  74 103 139 187 244 287 347 432
#     4  12  23  44  74 103 139 187 244 287 347 432
#     4  12  25  49  75 102 142 193 243 286 357 443
#     4  12  29  45  69 110 145 184 237 301 365 412
#     4  12  29  45  69 110 145 184 237 301 365 412
#
# _framework density 21.777585999999999
#
# number of rings (size 3 to 8) (size 9 to 14) (size 15 to 20)
#    0.000    0.000    6.667    3.000    4.667    0.000 
#    0.000    0.000    0.000    0.000    0.000    0.000 
#    0.000    0.000    0.000    0.000    0.000    0.000 
#
# Total GULP energy -297795.328517 kJ/mol
# GULP energy per Si atom -12408.138688 kJ/mol
# Density = 2.172802 g / cm^3
# Si number density = 21.777586 Si / 1000 Ang^3
#
#
#
# Elastic Constant Matrix: (Units=GPa)
#
#
# Indices 1 2 3 4 5 6 
#
# 1 90.4729 27.6225 22.0716 0.0000 0.0000 0.0000
# 2 27.6225 61.9738 -0.2900 0.0000 0.0000 0.0000
# 3 22.0716 -0.2900 85.4721 0.0000 0.0000 0.0000
# 4 0.0000 0.0000 0.0000 34.5854 0.0000 0.0000
# 5 0.0000 0.0000 0.0000 0.0000 29.5067 0.0000
# 6 0.0000 0.0000 0.0000 0.0000 0.0000 49.3390
#
#
#
# Elastic Compliance Matrix: (Units=1/GPa)
#
#
# Indices 1 2 3 4 5 6 
#
# 1 0.013813 -0.006173 -0.003588 0.000000 0.000000 0.000000
# 2 -0.006173 0.018895 0.001658 0.000000 0.000000 0.000000
# 3 -0.003588 0.001658 0.012632 0.000000 0.000000 0.000000
# 4 0.000000 0.000000 0.000000 0.028914 0.000000 0.000000
# 5 0.000000 0.000000 0.000000 0.000000 0.033891 0.000000
# 6 0.000000 0.000000 0.000000 0.000000 0.000000 0.020268
#
#
# Mechanical properties :
#
#
# Convention : Reuss Voigt Hill
#
# Bulk Modulus (GPa) = 34.32418 37.41411 35.86915
# Shear Modulus (GPa) = 32.39802 35.25386 33.82594
#
# Velocity S-wave (km/s) = 3.86123 4.02781 3.94540
# Velocity P-wave (km/s) = 5.97279 6.23285 6.10421
#
# Compressibility (1/GPa) = 0.02913398
#
# Stress axis : x y z
#
# Youngs Moduli (GPa) = 72.39459 52.92345 79.16484
#
# Poissons Ratio (x) = 0.32672 0.28404
# Poissons Ratio (y) = 0.44693 -0.13128
# Poissons Ratio (z) = 0.25975 -0.08776
#
# Static dielectric constant tensor:
#      x y z
#    x 4.067920 0.000000 0.000000 
#    y 0.000000 4.336630 0.000000 
#    z 0.000000 0.000000 3.638350 
# 
# 
# High freq. dielectric constant tensor:
#      x y z
#    x 1.870890 0.000000 0.000000 
#    y 0.000000 1.876360 0.000000 
#    z 0.000000 0.000000 1.833330 
# 
# From -- ./inp_files/8424.got.cif
#   From: 2010.03.12/outbox.cif.g09.slc.cpg/sg33_5_cif.got.tgz:8424.got - 2010.04.14 01:49:19.
