data_PCOD8171863
_publ_section_title
;
Structure prediction by ZEFSAII (Michael W. Deem and Ramdas Pophale) SiO2 
 PCOD8171863
Probable space group: P N N 2
;
_chemical_formula_sum "Si O2"
_cell_formula_units_Z 30
_cell_length_a 18.365255
_cell_length_b 9.557340
_cell_length_c 8.914100
_cell_angle_alpha 90.000000
_cell_angle_beta 90.000000
_cell_angle_gamma 90.000000
_cell_volume 1564.629451
_symmetry_space_group_name_H-M "P N N 2"
_symmetry_group_IT_number 34
_symmetry_cell_setting 'orthorhombic'
loop_
_space_group_symop_operation_xyz
x,y,z
-x,-y,z
1/2-x,1/2+y,1/2+z
1/2+x,1/2-y,1/2+z
loop_
_atom_site_type_symbol
_atom_site_label
_atom_site_fract_x
_atom_site_fract_y
_atom_site_fract_z
Si Si1 0.000000 0.000000 0.962000
Si Si2 0.908570 0.098164 0.520226
Si Si3 0.538202 0.323148 0.187606
Si Si4 0.116805 0.902618 0.195295
Si Si5 0.829873 0.643186 0.710469
Si Si6 0.784134 0.328499 0.062514
Si Si7 0.738546 0.134375 0.538156
Si Si8 0.748072 0.390300 0.730055
O O1 0.024902 0.128754 0.858466
O O2 0.930344 0.033644 0.062701
O O3 0.931653 0.115181 0.344996
O O4 0.825581 0.143309 0.536530
O O5 0.959977 0.207356 0.610977
O O6 0.922150 0.943449 0.588188
O O7 0.584730 0.180054 0.197471
O O8 0.148058 0.755952 0.131378
O O9 0.181471 0.002844 0.254961
O O10 0.791229 0.761734 0.613606
O O11 0.811946 0.485352 0.651105
O O12 0.799184 0.650767 0.878667
O O13 0.787906 0.490311 0.116657
O O14 0.781367 0.326828 0.882041
O O15 0.713875 0.267369 0.632755
#
# Coordination Sequence:
#
# PCOD8171863 Si02
#       8
#     2   4   4   4   4   4   4   4
#     4  10  22  32  60  90 116 156 206 240 296 382
#     4  10  19  35  57  84 118 156 195 237 305 356
#     4  10  21  35  58  89 117 159 195 251 296 367
#     4  11  20  39  56  91 115 159 199 249 299 363
#     4  10  19  39  55  85 116 145 198 247 295 354
#     4  10  20  34  58  85 117 146 199 246 292 348
#     4  11  20  36  58  88 118 153 192 252 302 353
#     4  10  22  33  60  86 114 151 195 250 303 346
#
# _framework density 19.173867999999999
#
# number of rings (size 3 to 8) (size 9 to 14) (size 15 to 20)
#    0.000    1.867    5.333    1.600    3.733    2.133 
#    0.000    0.667    0.000    2.400   10.400    0.000 
#    0.000    0.000    0.000    0.000    0.000    0.000 
#
# Total GULP energy -371705.118343 kJ/mol
# GULP energy per Si atom -12390.170611 kJ/mol
# Density = 1.913023 g / cm^3
# Si number density = 19.173868 Si / 1000 Ang^3
#
#
#
# Elastic Constant Matrix: (Units=GPa)
#
#
# Indices 1 2 3 4 5 6 
#
# 1 84.3215 21.3577 38.6536 0.0000 0.0000 0.0000
# 2 21.3577 85.4344 38.6865 0.0000 0.0000 0.0000
# 3 38.6536 38.6865 102.6007 0.0000 0.0000 0.0000
# 4 0.0000 0.0000 0.0000 21.1445 0.0000 0.0000
# 5 0.0000 0.0000 0.0000 0.0000 53.2951 0.0000
# 6 0.0000 0.0000 0.0000 0.0000 0.0000 41.5009
#
#
#
# Elastic Compliance Matrix: (Units=1/GPa)
#
#
# Indices 1 2 3 4 5 6 
#
# 1 0.014470 -0.001385 -0.004929 0.000000 0.000000 0.000000
# 2 -0.001385 0.014247 -0.004850 0.000000 0.000000 0.000000
# 3 -0.004929 -0.004850 0.013432 0.000000 0.000000 0.000000
# 4 0.000000 0.000000 0.000000 0.047294 0.000000 0.000000
# 5 0.000000 0.000000 0.000000 0.000000 0.018763 0.000000
# 6 0.000000 0.000000 0.000000 0.000000 0.000000 0.024096
#
#
# Mechanical properties :
#
#
# Convention : Reuss Voigt Hill
#
# Bulk Modulus (GPa) = 50.45296 52.19470 51.32383
# Shear Modulus (GPa) = 31.01001 34.76536 32.88769
#
# Velocity S-wave (km/s) = 4.02594 4.26275 4.14603
# Velocity P-wave (km/s) = 6.92686 7.17697 7.05302
#
# Compressibility (1/GPa) = 0.01982044
#
# Stress axis : x y z
#
# Youngs Moduli (GPa) = 69.10980 70.18776 74.44763
#
# Poissons Ratio (x) = 0.09724 0.36695
# Poissons Ratio (y) = 0.09574 0.36109
# Poissons Ratio (z) = 0.34064 0.34043
#
# Static dielectric constant tensor:
#      x y z
#    x 3.270700 0.000000 0.000000 
#    y 0.000000 3.603480 0.000000 
#    z 0.000000 0.000000 3.561070 
# 
# 
# High freq. dielectric constant tensor:
#      x y z
#    x 1.737980 0.000000 0.000000 
#    y 0.000000 1.730790 0.000000 
#    z 0.000000 0.000000 1.750830 
# 
# From -- ./inp_files/4009.got.cif
#   From: 2010.03.12/outbox.cif.g09.slc.cpg/sg34_3_cif.got.tgz:4009.got - 2010.04.14 01:56:33.
