data_PCOD8171648
_publ_section_title
;
Structure prediction by ZEFSAII (Michael W. Deem and Ramdas Pophale) SiO2 
 PCOD8171648
Probable space group: P N A 21
;
_chemical_formula_sum "Si O2"
_cell_formula_units_Z 24
_cell_length_a 5.160336
_cell_length_b 22.153903
_cell_length_c 8.266870
_cell_angle_alpha 90.000000
_cell_angle_beta 90.000000
_cell_angle_gamma 90.000000
_cell_volume 945.081666
_symmetry_space_group_name_H-M "P N A 21"
_symmetry_group_IT_number 33
_symmetry_cell_setting 'orthorhombic'
loop_
_space_group_symop_operation_xyz
x,y,z
-x,-y,1/2+z
1/2-x,1/2+y,1/2+z
1/2+x,1/2-y,z
loop_
_atom_site_type_symbol
_atom_site_label
_atom_site_fract_x
_atom_site_fract_y
_atom_site_fract_z
Si Si1 0.856575 0.160180 0.783390
Si Si2 0.634472 0.865967 0.471059
Si Si3 0.572747 0.882590 0.831993
Si Si4 0.284594 0.285310 0.457304
Si Si5 0.552515 0.433806 0.556039
Si Si6 0.181347 0.505222 0.335275
O O1 0.629800 0.165433 0.914136
O O2 0.808573 0.212815 0.652404
O O3 0.128559 0.165514 0.877712
O O4 0.853814 0.096049 0.685551
O O5 0.669614 0.855540 0.662370
O O6 0.598958 0.936801 0.437837
O O7 0.301594 0.851081 0.887301
O O8 0.541883 0.955129 0.820523
O O9 0.794619 0.876492 0.971189
O O10 0.560453 0.260771 0.394050
O O11 0.426068 0.475344 0.421951
O O12 0.752630 0.476021 0.652392
#
# Coordination Sequence:
#
# PCOD8171648 Si02
#       6
#     4   4   4   4   4   4
#     4  11  25  49  67 104 139 186 238 295 352 426
#     4  11  27  42  73 107 151 185 228 285 363 438
#     4  12  26  44  70 106 148 187 240 300 351 426
#     4  12  26  49  78 101 132 189 249 304 362 418
#     4  11  24  40  68 103 149 193 235 278 351 435
#     4  11  24  38  68 105 149 198 228 280 351 441
#
# _framework density 25.394634
#
# number of rings (size 3 to 8) (size 9 to 14) (size 15 to 20)
#    0.000    0.667    1.667    6.000   14.000    0.000 
#    0.000    5.000    0.000    0.000    0.000    0.000 
#    0.000    0.000    0.000    0.000    0.000    0.000 
#
# Total GULP energy -297606.105894 kJ/mol
# GULP energy per Si atom -12400.254412 kJ/mol
# Density = 2.533683 g / cm^3
# Si number density = 25.394634 Si / 1000 Ang^3
#
#
#
# Elastic Constant Matrix: (Units=GPa)
#
#
# Indices 1 2 3 4 5 6 
#
# 1 99.7669 -6.8216 29.1630 0.0000 0.0000 0.0000
# 2 -6.8216 29.0593 -4.4251 0.0000 0.0000 0.0000
# 3 29.1630 -4.4251 145.2660 0.0000 0.0000 0.0000
# 4 0.0000 0.0000 0.0000 32.3959 0.0000 0.0000
# 5 0.0000 0.0000 0.0000 0.0000 38.7278 0.0000
# 6 0.0000 0.0000 0.0000 0.0000 0.0000 32.1229
#
#
#
# Elastic Compliance Matrix: (Units=1/GPa)
#
#
# Indices 1 2 3 4 5 6 
#
# 1 0.010788 0.002213 -0.002098 0.000000 0.000000 0.000000
# 2 0.002213 0.035027 0.000623 0.000000 0.000000 0.000000
# 3 -0.002098 0.000623 0.007324 0.000000 0.000000 0.000000
# 4 0.000000 0.000000 0.000000 0.030868 0.000000 0.000000
# 5 0.000000 0.000000 0.000000 0.000000 0.025821 0.000000
# 6 0.000000 0.000000 0.000000 0.000000 0.000000 0.031130
#
#
# Mechanical properties :
#
#
# Convention : Reuss Voigt Hill
#
# Bulk Modulus (GPa) = 18.31048 34.43608 26.37328
# Shear Modulus (GPa) = 31.70808 37.72773 34.71790
#
# Velocity S-wave (km/s) = 3.53741 3.85860 3.70149
# Velocity P-wave (km/s) = 4.88982 5.78287 5.35499
#
# Compressibility (1/GPa) = 0.05461354
#
# Stress axis : x y z
#
# Youngs Moduli (GPa) = 92.69518 28.54964 136.53464
#
# Poissons Ratio (x) = -0.06318 0.28650
# Poissons Ratio (y) = -0.20513 -0.08502
# Poissons Ratio (z) = 0.19451 -0.01778
#
# Static dielectric constant tensor:
#      x y z
#    x 4.389130 0.000000 0.000000 
#    y 0.000000 4.516540 0.000000 
#    z 0.000000 0.000000 4.655550 
# 
# 
# High freq. dielectric constant tensor:
#      x y z
#    x 2.017420 0.000000 0.000000 
#    y 0.000000 2.003830 0.000000 
#    z 0.000000 0.000000 2.014220 
# 
# From -- ./inp_files/2719.got.cif
#   From: 2010.03.12/outbox.cif.g09.slc.cpg/sg33_2_cif.got.tgz:2719.got - 2010.04.14 01:49:19.
