data_PCOD8171743
_publ_section_title
;
Structure prediction by ZEFSAII (Michael W. Deem and Ramdas Pophale) SiO2 
 PCOD8171743
Probable space group: P N A 21
;
_chemical_formula_sum "Si O2"
_cell_formula_units_Z 24
_cell_length_a 9.165945
_cell_length_b 4.865685
_cell_length_c 17.000614
_cell_angle_alpha 90.000000
_cell_angle_beta 90.000000
_cell_angle_gamma 90.000000
_cell_volume 758.203602
_symmetry_space_group_name_H-M "P N A 21"
_symmetry_group_IT_number 33
_symmetry_cell_setting 'orthorhombic'
loop_
_space_group_symop_operation_xyz
x,y,z
-x,-y,1/2+z
1/2-x,1/2+y,1/2+z
1/2+x,1/2-y,z
loop_
_atom_site_type_symbol
_atom_site_label
_atom_site_fract_x
_atom_site_fract_y
_atom_site_fract_z
Si Si1 0.920816 0.897721 0.065010
Si Si2 0.002132 0.512047 0.453559
Si Si3 0.298968 0.437011 0.866505
Si Si4 0.046654 0.328243 0.258825
Si Si5 0.139130 0.185589 0.732241
Si Si6 0.664747 0.236488 0.094772
O O1 0.828315 0.187584 0.062806
O O2 0.093524 0.960155 0.082885
O O3 0.849637 0.725213 0.139263
O O4 0.902607 0.762951 0.976913
O O5 0.860561 0.475086 0.398424
O O6 0.120246 0.222685 0.340443
O O7 0.943567 0.549654 0.542838
O O8 0.104040 0.762765 0.427037
O O9 0.282499 0.244512 0.786172
O O10 0.981389 0.626324 0.275456
O O11 0.163770 0.349209 0.187476
O O12 0.913539 0.128830 0.235457
#
# Coordination Sequence:
#
# PCOD8171743 Si02
#       6
#     4   4   4   4   4   4
#     4  11  28  56  93 130 182 245 317 383 473 566
#     4  12  28  58  84 136 185 246 305 392 478 556
#     4  12  29  53  91 133 186 244 305 390 476 554
#     4  11  27  55  88 131 176 241 307 380 460 561
#     4  11  27  55  88 132 178 239 311 381 458 563
#     4  11  27  53  88 130 173 243 309 378 461 562
#
# _framework density 31.653766999999998
#
# number of rings (size 3 to 8) (size 9 to 14) (size 15 to 20)
#    0.000    0.667    3.333    1.000    7.000    6.667 
#    9.000    1.667    0.000    0.000    0.000    0.000 
#    0.000    0.000    0.000    0.000    0.000    0.000 
#
# Total GULP energy -297486.187592 kJ/mol
# GULP energy per Si atom -12395.257816 kJ/mol
# Density = 3.158172 g / cm^3
# Si number density = 31.653767 Si / 1000 Ang^3
#
#
#
# Elastic Constant Matrix: (Units=GPa)
#
#
# Indices 1 2 3 4 5 6 
#
# 1 162.4560 47.6276 41.0389 0.0000 0.0000 0.0000
# 2 47.6276 75.3771 24.3167 0.0000 0.0000 0.0000
# 3 41.0389 24.3167 205.7819 0.0000 0.0000 0.0000
# 4 0.0000 0.0000 0.0000 48.9089 0.0000 0.0000
# 5 0.0000 0.0000 0.0000 0.0000 37.9000 0.0000
# 6 0.0000 0.0000 0.0000 0.0000 0.0000 13.8257
#
#
#
# Elastic Compliance Matrix: (Units=1/GPa)
#
#
# Indices 1 2 3 4 5 6 
#
# 1 0.007750 -0.004573 -0.001005 0.000000 0.000000 0.000000
# 2 -0.004573 0.016490 -0.001037 0.000000 0.000000 0.000000
# 3 -0.001005 -0.001037 0.005182 0.000000 0.000000 0.000000
# 4 0.000000 0.000000 0.000000 0.020446 0.000000 0.000000
# 5 0.000000 0.000000 0.000000 0.000000 0.026385 0.000000
# 6 0.000000 0.000000 0.000000 0.000000 0.000000 0.072329
#
#
# Mechanical properties :
#
#
# Convention : Reuss Voigt Hill
#
# Bulk Modulus (GPa) = 61.75242 74.39792 68.07517
# Shear Modulus (GPa) = 29.90243 42.16903 36.03573
#
# Velocity S-wave (km/s) = 3.07689 3.65389 3.37773
# Velocity P-wave (km/s) = 5.67222 6.43085 6.06341
#
# Compressibility (1/GPa) = 0.01619370
#
# Stress axis : x y z
#
# Youngs Moduli (GPa) = 129.03205 60.64165 192.95734
#
# Poissons Ratio (x) = 0.27729 0.19397
# Poissons Ratio (y) = 0.59001 0.20004
# Poissons Ratio (z) = 0.12971 0.06287
#
# Static dielectric constant tensor:
#      x y z
#    x 5.822060 0.000000 0.000000 
#    y 0.000000 5.783920 0.000000 
#    z 0.000000 0.000000 6.851830 
# 
# 
# High freq. dielectric constant tensor:
#      x y z
#    x 2.323630 0.000000 0.000000 
#    y 0.000000 2.302050 0.000000 
#    z 0.000000 0.000000 2.351300 
# 
# From -- ./inp_files/8600.got.cif
#   From: 2010.03.12/outbox.cif.g09.slc.cpg/sg33_5_cif.got.tgz:8600.got - 2010.04.14 01:49:19.
