data_PCOD8171768
_publ_section_title
;
Structure prediction by ZEFSAII (Michael W. Deem and Ramdas Pophale) SiO2 
 PCOD8171768
Probable space group: P N A 21
;
_chemical_formula_sum "Si O2"
_cell_formula_units_Z 32
_cell_length_a 13.178812
_cell_length_b 16.075071
_cell_length_c 6.863981
_cell_angle_alpha 90.000000
_cell_angle_beta 90.000000
_cell_angle_gamma 90.000000
_cell_volume 1454.136699
_symmetry_space_group_name_H-M "P N A 21"
_symmetry_group_IT_number 33
_symmetry_cell_setting 'orthorhombic'
loop_
_space_group_symop_operation_xyz
x,y,z
-x,-y,1/2+z
1/2-x,1/2+y,1/2+z
1/2+x,1/2-y,z
loop_
_atom_site_type_symbol
_atom_site_label
_atom_site_fract_x
_atom_site_fract_y
_atom_site_fract_z
Si Si1 0.859532 0.511756 0.586970
Si Si2 0.559597 0.908863 0.440499
Si Si3 0.620694 0.303769 0.329086
Si Si4 0.045079 0.101720 0.699001
Si Si5 0.368742 0.467665 0.464058
Si Si6 0.731978 0.940052 0.721297
Si Si7 0.269462 0.334892 0.229824
Si Si8 0.954149 0.224654 0.010414
O O1 0.878497 0.448956 0.763877
O O2 0.784364 0.462906 0.444924
O O3 0.806606 0.596691 0.646991
O O4 0.962265 0.533782 0.474081
O O5 0.627438 0.905703 0.634866
O O6 0.530653 0.812880 0.399810
O O7 0.595425 0.334825 0.546353
O O8 0.676035 0.375090 0.204921
O O9 0.700426 0.228592 0.352081
O O10 0.522313 0.276262 0.206514
O O11 0.971066 0.037199 0.589068
O O12 0.985210 0.153194 0.861155
O O13 0.126756 0.041694 0.803675
O O14 0.269935 0.480697 0.598575
O O15 0.353231 0.377986 0.366470
O O16 0.335117 0.288217 0.063406
#
# Coordination Sequence:
#
# PCOD8171768 Si02
#       8
#     4   4   4   4   4   4   4   4
#     4  12  26  46  74 107 143 195 242 302 363 442
#     4  12  26  44  74 104 147 191 243 299 368 437
#     4  12  26  46  72 105 147 192 237 306 362 434
#     4  12  26  47  76 102 149 191 244 306 367 425
#     4  12  24  46  74 108 136 193 245 300 360 433
#     4  12  25  46  71 102 149 184 240 301 360 433
#     4  12  25  46  74 106 146 188 245 294 363 435
#     4  12  26  49  71 108 149 192 242 308 369 437
#
# _framework density 22.006186
#
# number of rings (size 3 to 8) (size 9 to 14) (size 15 to 20)
#    0.000    0.000    7.500    3.000    0.000    4.000 
#    2.250    0.000    0.000    0.000    0.000    0.000 
#    0.000    0.000    0.000    0.000    0.000    0.000 
#
# Total GULP energy -396959.438557 kJ/mol
# GULP energy per Si atom -12404.982455 kJ/mol
# Density = 2.195610 g / cm^3
# Si number density = 22.006186 Si / 1000 Ang^3
#
#
#
# Elastic Constant Matrix: (Units=GPa)
#
#
# Indices 1 2 3 4 5 6 
#
# 1 95.1765 37.0546 40.5656 0.0000 0.0000 0.0000
# 2 37.0546 119.8471 50.8246 0.0000 0.0000 0.0000
# 3 40.5656 50.8246 114.8305 0.0000 0.0000 0.0000
# 4 0.0000 0.0000 0.0000 31.2599 0.0000 0.0000
# 5 0.0000 0.0000 0.0000 0.0000 44.4113 0.0000
# 6 0.0000 0.0000 0.0000 0.0000 0.0000 49.6427
#
#
#
# Elastic Compliance Matrix: (Units=1/GPa)
#
#
# Indices 1 2 3 4 5 6 
#
# 1 0.012970 -0.002545 -0.003456 0.000000 0.000000 0.000000
# 2 -0.002545 0.010771 -0.003868 0.000000 0.000000 0.000000
# 3 -0.003456 -0.003868 0.011641 0.000000 0.000000 0.000000
# 4 0.000000 0.000000 0.000000 0.031990 0.000000 0.000000
# 5 0.000000 0.000000 0.000000 0.000000 0.022517 0.000000
# 6 0.000000 0.000000 0.000000 0.000000 0.000000 0.020144
#
#
# Mechanical properties :
#
#
# Convention : Reuss Voigt Hill
#
# Bulk Modulus (GPa) = 63.91659 65.19374 64.55516
# Shear Modulus (GPa) = 37.04071 38.49007 37.76539
#
# Velocity S-wave (km/s) = 4.10713 4.18671 4.14711
# Velocity P-wave (km/s) = 7.18326 7.28429 7.23395
#
# Compressibility (1/GPa) = 0.01564539
#
# Stress axis : x y z
#
# Youngs Moduli (GPa) = 77.09874 92.83942 85.89994
#
# Poissons Ratio (x) = 0.23625 0.29684
# Poissons Ratio (y) = 0.19620 0.33230
# Poissons Ratio (z) = 0.26643 0.35915
#
# Static dielectric constant tensor:
#      x y z
#    x 4.017850 0.000000 0.000000 
#    y 0.000000 4.047460 0.000000 
#    z 0.000000 0.000000 3.851190 
# 
# 
# High freq. dielectric constant tensor:
#      x y z
#    x 1.880330 0.000000 0.000000 
#    y 0.000000 1.872730 0.000000 
#    z 0.000000 0.000000 1.862170 
# 
# From -- ./inp_files/1525.got.cif
#   From: 2010.03.12/outbox.cif.g09.slc.cpg/sg33_1_cif.got.tgz:1525.got - 2010.04.14 01:49:19.
