data_PCOD8171114
_publ_section_title
;
Structure prediction by ZEFSAII (Michael W. Deem and Ramdas Pophale) SiO2 
 PCOD8171114
Probable space group: P N A 21
;
_chemical_formula_sum "Si O2"
_cell_formula_units_Z 28
_cell_length_a 19.275098
_cell_length_b 5.117944
_cell_length_c 11.286723
_cell_angle_alpha 90.000000
_cell_angle_beta 90.000000
_cell_angle_gamma 90.000000
_cell_volume 1113.422494
_symmetry_space_group_name_H-M "P N A 21"
_symmetry_group_IT_number 33
_symmetry_cell_setting 'orthorhombic'
loop_
_space_group_symop_operation_xyz
x,y,z
-x,-y,1/2+z
1/2-x,1/2+y,1/2+z
1/2+x,1/2-y,z
loop_
_atom_site_type_symbol
_atom_site_label
_atom_site_fract_x
_atom_site_fract_y
_atom_site_fract_z
Si Si1 0.646504 0.186921 0.215180
Si Si2 0.919509 0.762653 0.194411
Si Si3 0.672829 0.211476 0.490413
Si Si4 0.209956 0.949468 0.769278
Si Si5 0.572118 0.691599 0.128687
Si Si6 0.374517 0.068105 0.410282
Si Si7 0.244812 0.273043 0.979028
O O1 0.651372 0.170650 0.356244
O O2 0.728899 0.137650 0.174184
O O3 0.623912 0.470297 0.171881
O O4 0.590927 0.968531 0.184455
O O5 0.919761 0.566621 0.307174
O O6 0.995213 0.882251 0.172104
O O7 0.865282 0.999012 0.213384
O O8 0.893505 0.634674 0.071866
O O9 0.698255 0.507432 0.509635
O O10 0.731841 0.005385 0.533985
O O11 0.194967 0.712555 0.860916
O O12 0.238548 0.208706 0.835782
O O13 0.576984 0.732546 0.985066
O O14 0.337438 0.859567 0.503780
#
# Coordination Sequence:
#
# PCOD8171114 Si02
#       7
#     4   4   4   4   4   4   4
#     4  11  26  49  76 112 146 200 254 323 378 445
#     4  11  30  47  76 113 155 211 246 315 380 470
#     4  11  24  45  75 109 148 187 257 303 381 443
#     4  10  24  47  79 112 150 195 262 317 381 446
#     4  12  31  48  75 109 160 204 246 314 385 459
#     4  11  26  49  74 110 155 196 263 311 390 442
#     4  10  21  43  71 111 144 189 242 325 363 437
#
# _framework density 25.147684000000002
#
# number of rings (size 3 to 8) (size 9 to 14) (size 15 to 20)
#    0.000    1.143    2.857    1.714   14.000    0.000 
#    0.000    0.000    0.000    0.000    0.000    0.000 
#    0.000    0.000    0.000    0.000    0.000    0.000 
#
# Total GULP energy -347009.200504 kJ/mol
# GULP energy per Si atom -12393.185732 kJ/mol
# Density = 2.509045 g / cm^3
# Si number density = 25.147684 Si / 1000 Ang^3
#
#
#
# Elastic Constant Matrix: (Units=GPa)
#
#
# Indices 1 2 3 4 5 6 
#
# 1 160.7348 40.2221 61.0485 0.0000 0.0000 0.0000
# 2 40.2221 116.5539 31.2121 0.0000 0.0000 0.0000
# 3 61.0485 31.2121 97.4766 0.0000 0.0000 0.0000
# 4 0.0000 0.0000 0.0000 27.1103 0.0000 0.0000
# 5 0.0000 0.0000 0.0000 0.0000 38.3274 0.0000
# 6 0.0000 0.0000 0.0000 0.0000 0.0000 40.8965
#
#
#
# Elastic Compliance Matrix: (Units=1/GPa)
#
#
# Indices 1 2 3 4 5 6 
#
# 1 0.008440 -0.001637 -0.004761 0.000000 0.000000 0.000000
# 2 -0.001637 0.009702 -0.002081 0.000000 0.000000 0.000000
# 3 -0.004761 -0.002081 0.013907 0.000000 0.000000 0.000000
# 4 0.000000 0.000000 0.000000 0.036886 0.000000 0.000000
# 5 0.000000 0.000000 0.000000 0.000000 0.026091 0.000000
# 6 0.000000 0.000000 0.000000 0.000000 0.000000 0.024452
#
#
# Mechanical properties :
#
#
# Convention : Reuss Voigt Hill
#
# Bulk Modulus (GPa) = 66.27268 71.08119 68.67694
# Shear Modulus (GPa) = 35.34379 37.41902 36.38140
#
# Velocity S-wave (km/s) = 3.75300 3.86161 3.80769
# Velocity P-wave (km/s) = 6.72240 6.94331 6.83375
#
# Compressibility (1/GPa) = 0.01508917
#
# Stress axis : x y z
#
# Youngs Moduli (GPa) = 118.48969 103.07060 71.90522
#
# Poissons Ratio (x) = 0.16877 0.34236
# Poissons Ratio (y) = 0.19402 0.14964
# Poissons Ratio (z) = 0.56416 0.21450
#
# Static dielectric constant tensor:
#      x y z
#    x 4.468990 0.000000 0.000000 
#    y 0.000000 4.538780 0.000000 
#    z 0.000000 0.000000 5.312820 
# 
# 
# High freq. dielectric constant tensor:
#      x y z
#    x 1.980510 0.000000 0.000000 
#    y 0.000000 2.005280 0.000000 
#    z 0.000000 0.000000 2.047210 
# 
# From -- ./inp_files/6932.got.cif
#   From: 2010.03.12/outbox.cif.g09.slc.cpg/sg33_4_cif.got.tgz:6932.got - 2010.04.14 01:49:19.
