data_PCOD8171539
_publ_section_title
;
Structure prediction by ZEFSAII (Michael W. Deem and Ramdas Pophale) SiO2 
 PCOD8171539
Probable space group: P N A 21
;
_chemical_formula_sum "Si O2"
_cell_formula_units_Z 28
_cell_length_a 10.003793
_cell_length_b 21.087196
_cell_length_c 6.649740
_cell_angle_alpha 90.000000
_cell_angle_beta 90.000000
_cell_angle_gamma 90.000000
_cell_volume 1402.775578
_symmetry_space_group_name_H-M "P N A 21"
_symmetry_group_IT_number 33
_symmetry_cell_setting 'orthorhombic'
loop_
_space_group_symop_operation_xyz
x,y,z
-x,-y,1/2+z
1/2-x,1/2+y,1/2+z
1/2+x,1/2-y,z
loop_
_atom_site_type_symbol
_atom_site_label
_atom_site_fract_x
_atom_site_fract_y
_atom_site_fract_z
Si Si1 0.343097 0.653857 0.627400
Si Si2 0.142899 0.843223 0.586299
Si Si3 0.513449 0.853047 0.071820
Si Si4 0.619852 0.075082 0.923573
Si Si5 0.311567 0.774089 0.894353
Si Si6 0.384421 0.059255 0.249010
Si Si7 0.214189 0.735661 0.293014
O O1 0.494766 0.627744 0.611898
O O2 0.334508 0.704265 0.807714
O O3 0.244813 0.594828 0.659161
O O4 0.305391 0.689274 0.423044
O O5 0.245026 0.899166 0.527909
O O6 0.186963 0.809978 0.794128
O O7 0.134577 0.786564 0.424854
O O8 0.426726 0.872765 0.264237
O O9 0.619358 0.803387 0.149065
O O10 0.440181 0.820114 0.878163
O O11 0.581539 0.913628 0.969183
O O12 0.655324 0.012940 0.794197
O O13 0.505771 0.062597 0.090085
O O14 0.305703 0.773098 0.136331
#
# Coordination Sequence:
#
# PCOD8171539 Si02
#       7
#     4   4   4   4   4   4   4
#     4  11  25  41  63 101 139 168 213 272 338 395
#     4  11  25  41  63 101 139 168 213 272 338 395
#     4  12  22  40  66  98 126 170 224 268 322 388
#     4  12  25  45  68  94 128 178 231 271 317 395
#     4  11  22  38  66  97 135 172 208 264 333 396
#     4  12  25  45  68  94 128 178 231 271 317 395
#     4  11  22  38  66  97 135 172 208 264 333 396
#
# _framework density 19.960429999999999
#
# number of rings (size 3 to 8) (size 9 to 14) (size 15 to 20)
#    0.000    0.571    7.143    1.714    4.000    0.000 
#    0.000    4.286    0.000    0.000    0.000    0.000 
#    0.000    0.000    0.000    0.000    0.000    0.000 
#
# Total GULP energy -347135.534763 kJ/mol
# GULP energy per Si atom -12397.697670 kJ/mol
# Density = 1.991500 g / cm^3
# Si number density = 19.960430 Si / 1000 Ang^3
#
#
#
# Elastic Constant Matrix: (Units=GPa)
#
#
# Indices 1 2 3 4 5 6 
#
# 1 137.7890 44.5758 36.6099 0.0000 0.0000 0.0000
# 2 44.5758 92.9024 27.7060 0.0000 0.0000 0.0000
# 3 36.6099 27.7060 102.8700 0.0000 0.0000 0.0000
# 4 0.0000 0.0000 0.0000 12.1682 0.0000 0.0000
# 5 0.0000 0.0000 0.0000 0.0000 30.4923 0.0000
# 6 0.0000 0.0000 0.0000 0.0000 0.0000 12.5657
#
#
#
# Elastic Compliance Matrix: (Units=1/GPa)
#
#
# Indices 1 2 3 4 5 6 
#
# 1 0.009037 -0.003672 -0.002227 0.000000 0.000000 0.000000
# 2 -0.003672 0.013196 -0.002247 0.000000 0.000000 0.000000
# 3 -0.002227 -0.002247 0.011119 0.000000 0.000000 0.000000
# 4 0.000000 0.000000 0.000000 0.082182 0.000000 0.000000
# 5 0.000000 0.000000 0.000000 0.000000 0.032795 0.000000
# 6 0.000000 0.000000 0.000000 0.000000 0.000000 0.079582
#
#
# Mechanical properties :
#
#
# Convention : Reuss Voigt Hill
#
# Bulk Modulus (GPa) = 58.61949 61.26054 59.94002
# Shear Modulus (GPa) = 20.00884 26.02323 23.01604
#
# Velocity S-wave (km/s) = 3.16955 3.61465 3.39939
# Velocity P-wave (km/s) = 6.54418 6.94108 6.74555
#
# Compressibility (1/GPa) = 0.01705917
#
# Stress axis : x y z
#
# Youngs Moduli (GPa) = 110.65454 75.78040 89.93686
#
# Poissons Ratio (x) = 0.27826 0.20031
# Poissons Ratio (y) = 0.40631 0.20212
# Poissons Ratio (z) = 0.24645 0.17030
#
# Static dielectric constant tensor:
#      x y z
#    x 3.597440 0.000000 0.000000 
#    y 0.000000 3.601360 0.000000 
#    z 0.000000 0.000000 3.979840 
# 
# 
# High freq. dielectric constant tensor:
#      x y z
#    x 1.774970 0.000000 0.000000 
#    y 0.000000 1.774840 0.000000 
#    z 0.000000 0.000000 1.794300 
# 
# From -- ./inp_files/486.got.cif
#   From: 2010.03.12/outbox.cif.g09.slc.cpg/sg33_1_cif.got.tgz:486.got - 2010.04.14 01:49:19.
