data_PCOD8171536
_publ_section_title
;
Structure prediction by ZEFSAII (Michael W. Deem and Ramdas Pophale) SiO2 
 PCOD8171536
Probable space group: P N A 21
;
_chemical_formula_sum "Si O2"
_cell_formula_units_Z 28
_cell_length_a 8.481531
_cell_length_b 8.286879
_cell_length_c 15.658780
_cell_angle_alpha 90.000000
_cell_angle_beta 90.000000
_cell_angle_gamma 90.000000
_cell_volume 1100.583947
_symmetry_space_group_name_H-M "P N A 21"
_symmetry_group_IT_number 33
_symmetry_cell_setting 'orthorhombic'
loop_
_space_group_symop_operation_xyz
x,y,z
-x,-y,1/2+z
1/2-x,1/2+y,1/2+z
1/2+x,1/2-y,z
loop_
_atom_site_type_symbol
_atom_site_label
_atom_site_fract_x
_atom_site_fract_y
_atom_site_fract_z
Si Si1 0.545377 0.415998 0.031700
Si Si2 0.085869 0.589757 0.527516
Si Si3 0.268843 0.694848 0.249807
Si Si4 0.121867 0.235795 0.568075
Si Si5 0.739852 0.795163 0.884490
Si Si6 0.530349 0.071274 0.842134
Si Si7 0.968846 0.023519 0.347827
O O1 0.730055 0.407172 0.038464
O O2 0.479293 0.250566 0.076994
O O3 0.494653 0.582540 0.078459
O O4 0.488491 0.423196 0.932849
O O5 0.030124 0.410151 0.558969
O O6 0.028762 0.632751 0.432786
O O7 0.265412 0.742366 0.150827
O O8 0.302040 0.848898 0.311483
O O9 0.430207 0.590511 0.267768
O O10 0.105190 0.604458 0.271539
O O11 0.229622 0.198602 0.485765
O O12 0.887193 0.855902 0.828213
O O13 0.700873 0.610338 0.863921
O O14 0.577667 0.885410 0.857643
#
# Coordination Sequence:
#
# PCOD8171536 Si02
#       7
#     4   4   4   4   4   4   4
#     4  11  25  44  74 110 142 207 261 305 380 483
#     4  12  24  47  77 107 149 204 259 316 370 491
#     4  12  26  45  72 113 156 193 254 338 399 449
#     4  11  28  47  78 113 158 198 265 328 404 455
#     4  11  24  45  77 106 145 204 261 315 381 491
#     4  12  24  44  74 107 145 204 255 314 392 470
#     4  11  21  44  72 108 147 196 263 314 384 477
#
# _framework density 25.441041999999999
#
# number of rings (size 3 to 8) (size 9 to 14) (size 15 to 20)
#    0.000    0.571    4.286    3.429    8.000    0.000 
#    2.571    0.000    0.000    0.000    0.000    0.000 
#    0.000    0.000    0.000    0.000    0.000    0.000 
#
# Total GULP energy -346868.928189 kJ/mol
# GULP energy per Si atom -12388.176007 kJ/mol
# Density = 2.538314 g / cm^3
# Si number density = 25.441042 Si / 1000 Ang^3
#
#
#
# Elastic Constant Matrix: (Units=GPa)
#
#
# Indices 1 2 3 4 5 6 
#
# 1 34.1835 34.9688 -5.9646 0.0000 0.0000 0.0000
# 2 34.9688 192.7300 25.2570 0.0000 0.0000 0.0000
# 3 -5.9646 25.2570 69.5157 0.0000 0.0000 0.0000
# 4 0.0000 0.0000 0.0000 -9.8271 0.0000 0.0000
# 5 0.0000 0.0000 0.0000 0.0000 25.5472 0.0000
# 6 0.0000 0.0000 0.0000 0.0000 0.0000 39.8400
#
#
#
# Elastic Compliance Matrix: (Units=1/GPa)
#
#
# Indices 1 2 3 4 5 6 
#
# 1 0.038228 -0.007734 0.006090 0.000000 0.000000 0.000000
# 2 -0.007734 0.007013 -0.003212 0.000000 0.000000 0.000000
# 3 0.006090 -0.003212 0.016075 0.000000 0.000000 0.000000
# 4 0.000000 0.000000 0.000000 -0.101759 0.000000 0.000000
# 5 0.000000 0.000000 0.000000 0.000000 0.039143 0.000000
# 6 0.000000 0.000000 0.000000 0.000000 0.000000 0.025100
#
#
# Mechanical properties :
#
#
# Convention : Reuss Voigt Hill
#
# Bulk Modulus (GPa) = 19.37812 44.99460 32.18636
# Shear Modulus (GPa) = 98.59427 27.25656 62.92542
#
# Velocity S-wave (km/s) = 6.23203 3.27672 4.97871
# Velocity P-wave (km/s) = 7.70828 5.66039 6.76231
#
# Compressibility (1/GPa) = 0.05160458
#
# Stress axis : x y z
#
# Youngs Moduli (GPa) = 26.15854 142.59693 62.20979
#
# Poissons Ratio (x) = 1.10288 -0.37887
# Poissons Ratio (y) = 0.20232 0.19979
# Poissons Ratio (z) = -0.15931 0.45796
#
# Static dielectric constant tensor:
#      x y z
#    x 4.594180 0.000000 0.000000 
#    y 0.000000 5.763820 0.000000 
#    z 0.000000 0.000000 4.083720 
# 
# 
# High freq. dielectric constant tensor:
#      x y z
#    x 2.023070 0.000000 0.000000 
#    y 0.000000 2.044590 0.000000 
#    z 0.000000 0.000000 1.963790 
# 
# From -- ./inp_files/8477.got.cif
#   From: 2010.03.12/outbox.cif.g09.slc.cpg/sg33_5_cif.got.tgz:8477.got - 2010.04.14 01:49:19.
