data_PCOD8171355
_publ_section_title
;
Structure prediction by ZEFSAII (Michael W. Deem and Ramdas Pophale) SiO2 
 PCOD8171355
Probable space group: P N A 21
;
_chemical_formula_sum "Si O2"
_cell_formula_units_Z 32
_cell_length_a 10.639114
_cell_length_b 16.746916
_cell_length_c 8.443399
_cell_angle_alpha 90.000000
_cell_angle_beta 90.000000
_cell_angle_gamma 90.000000
_cell_volume 1504.380229
_symmetry_space_group_name_H-M "P N A 21"
_symmetry_group_IT_number 33
_symmetry_cell_setting 'orthorhombic'
loop_
_space_group_symop_operation_xyz
x,y,z
-x,-y,1/2+z
1/2-x,1/2+y,1/2+z
1/2+x,1/2-y,z
loop_
_atom_site_type_symbol
_atom_site_label
_atom_site_fract_x
_atom_site_fract_y
_atom_site_fract_z
Si Si1 0.199425 0.678551 0.554670
Si Si2 0.681362 0.117564 0.333334
Si Si3 0.951260 0.109151 0.263695
Si Si4 0.440325 0.760444 0.622322
Si Si5 0.705624 0.930468 0.266645
Si Si6 0.340715 0.048956 0.298096
Si Si7 0.385028 0.522731 0.011171
Si Si8 0.473753 0.928622 0.083155
O O1 0.309003 0.744897 0.531470
O O2 0.238005 0.611263 0.429264
O O3 0.195808 0.637107 0.729785
O O4 0.065614 0.722666 0.518151
O O5 0.820370 0.152550 0.310865
O O6 0.578779 0.159875 0.223580
O O7 0.632519 0.131710 0.514328
O O8 0.687195 0.024689 0.285961
O O9 0.045286 0.180885 0.227954
O O10 0.996772 0.060985 0.419179
O O11 0.935244 0.054849 0.105559
O O12 0.573622 0.891567 0.205566
O O13 0.818432 0.917431 0.138822
O O14 0.218628 0.004895 0.374196
O O15 0.449324 0.044662 0.428052
O O16 0.393899 0.002058 0.148153
#
# Coordination Sequence:
#
# PCOD8171355 Si02
#       8
#     4   4   4   4   4   4   4   4
#     4  12  23  45  71  98 142 186 231 285 352 424
#     4  11  22  39  67 103 130 175 234 282 335 415
#     4  11  25  44  66 101 139 180 232 285 345 426
#     4  12  25  43  71 100 141 186 224 287 365 412
#     4  10  23  42  72 100 133 174 240 291 339 411
#     4  11  20  37  68 100 132 173 229 286 338 403
#     4  10  25  40  69  99 135 179 238 282 347 417
#     4  11  19  36  66 103 128 167 226 296 331 394
#
# _framework density 21.271218000000001
#
# number of rings (size 3 to 8) (size 9 to 14) (size 15 to 20)
#    0.000    1.000    6.250    0.000    5.250    1.000 
#    0.000    1.250    0.000    0.000    0.000    0.000 
#    0.000    0.000    0.000    0.000    0.000    0.000 
#
# Total GULP energy -396446.311328 kJ/mol
# GULP energy per Si atom -12388.947229 kJ/mol
# Density = 2.122280 g / cm^3
# Si number density = 21.271218 Si / 1000 Ang^3
#
#
#
# Elastic Constant Matrix: (Units=GPa)
#
#
# Indices 1 2 3 4 5 6 
#
# 1 122.4362 26.7365 32.1278 0.0000 0.0000 0.0000
# 2 26.7365 73.3314 32.5789 0.0000 0.0000 0.0000
# 3 32.1278 32.5789 81.3829 0.0000 0.0000 0.0000
# 4 0.0000 0.0000 0.0000 20.1038 0.0000 0.0000
# 5 0.0000 0.0000 0.0000 0.0000 36.8107 0.0000
# 6 0.0000 0.0000 0.0000 0.0000 0.0000 31.2189
#
#
#
# Elastic Compliance Matrix: (Units=1/GPa)
#
#
# Indices 1 2 3 4 5 6 
#
# 1 0.009384 -0.002160 -0.002840 0.000000 0.000000 0.000000
# 2 -0.002160 0.017084 -0.005986 0.000000 0.000000 0.000000
# 3 -0.002840 -0.005986 0.015805 0.000000 0.000000 0.000000
# 4 0.000000 0.000000 0.000000 0.049742 0.000000 0.000000
# 5 0.000000 0.000000 0.000000 0.000000 0.027166 0.000000
# 6 0.000000 0.000000 0.000000 0.000000 0.000000 0.032032
#
#
# Mechanical properties :
#
#
# Convention : Reuss Voigt Hill
#
# Bulk Modulus (GPa) = 49.25868 51.11522 50.18695
# Shear Modulus (GPa) = 27.78515 30.00717 28.89616
#
# Velocity S-wave (km/s) = 3.61810 3.75999 3.68973
# Velocity P-wave (km/s) = 6.37667 6.55229 6.46508
#
# Compressibility (1/GPa) = 0.02030099
#
# Stress axis : x y z
#
# Youngs Moduli (GPa) = 106.55972 58.53538 63.27028
#
# Poissons Ratio (x) = 0.12642 0.17970
# Poissons Ratio (y) = 0.23014 0.37875
# Poissons Ratio (z) = 0.30264 0.35041
#
# Static dielectric constant tensor:
#      x y z
#    x 4.558560 0.000000 0.000000 
#    y 0.000000 3.446520 0.000000 
#    z 0.000000 0.000000 3.915020 
# 
# 
# High freq. dielectric constant tensor:
#      x y z
#    x 1.867330 0.000000 0.000000 
#    y 0.000000 1.794290 0.000000 
#    z 0.000000 0.000000 1.822430 
# 
# From -- ./inp_files/4090.got.cif
#   From: 2010.03.12/outbox.cif.g09.slc.cpg/sg33_3_cif.got.tgz:4090.got - 2010.04.14 01:49:19.
