data_PCOD8171278
_publ_section_title
;
Structure prediction by ZEFSAII (Michael W. Deem and Ramdas Pophale) SiO2 
 PCOD8171278
Probable space group: P N A 21
;
_chemical_formula_sum "Si O2"
_cell_formula_units_Z 32
_cell_length_a 14.494637
_cell_length_b 6.489369
_cell_length_c 14.839936
_cell_angle_alpha 90.000000
_cell_angle_beta 90.000000
_cell_angle_gamma 90.000000
_cell_volume 1395.859933
_symmetry_space_group_name_H-M "P N A 21"
_symmetry_group_IT_number 33
_symmetry_cell_setting 'orthorhombic'
loop_
_space_group_symop_operation_xyz
x,y,z
-x,-y,1/2+z
1/2-x,1/2+y,1/2+z
1/2+x,1/2-y,z
loop_
_atom_site_type_symbol
_atom_site_label
_atom_site_fract_x
_atom_site_fract_y
_atom_site_fract_z
Si Si1 0.746511 0.982678 0.765200
Si Si2 0.190457 0.634435 0.187765
Si Si3 0.270675 0.244882 0.933299
Si Si4 0.356503 0.889113 0.847388
Si Si5 0.612151 0.033256 0.010656
Si Si6 0.039593 0.852594 0.521983
Si Si7 0.957513 0.190614 0.399283
Si Si8 0.874620 0.131277 0.212096
O O1 0.814112 0.809517 0.801544
O O2 0.656551 0.871411 0.723040
O O3 0.793210 0.118576 0.686001
O O4 0.728810 0.150174 0.843360
O O5 0.127373 0.567930 0.273065
O O6 0.288454 0.516924 0.194694
O O7 0.129656 0.584472 0.102543
O O8 0.190214 0.288449 0.004989
O O9 0.364625 0.351262 0.967340
O O10 0.287104 0.998471 0.920328
O O11 0.451426 0.827364 0.890925
O O12 0.618777 0.858492 0.931991
O O13 0.511111 0.133932 0.012707
O O14 0.056053 0.895059 0.628214
O O15 0.974247 0.024736 0.477733
O O16 0.926486 0.077644 0.306635
#
# Coordination Sequence:
#
# PCOD8171278 Si02
#       8
#     4   4   4   4   4   4   4   4
#     4  10  22  44  74 100 139 200 242 304 375 443
#     4  10  24  44  73 104 143 196 250 306 375 450
#     4  11  22  46  75 103 149 188 246 305 380 451
#     4  10  22  44  71 102 141 190 240 307 371 447
#     4  12  26  46  71 113 145 197 250 308 381 456
#     4  12  27  47  73 113 151 194 252 319 374 461
#     4  12  26  43  72 107 151 195 247 309 380 450
#     4  11  25  46  69 108 149 196 251 312 374 452
#
# _framework density 22.924937
#
# number of rings (size 3 to 8) (size 9 to 14) (size 15 to 20)
#    0.000    1.000    5.000    0.750    5.250    4.000 
#    2.250    0.000    0.000    0.000    0.000    0.000 
#    0.000    0.000    0.000    0.000    0.000    0.000 
#
# Total GULP energy -396652.106477 kJ/mol
# GULP energy per Si atom -12395.378327 kJ/mol
# Density = 2.287276 g / cm^3
# Si number density = 22.924937 Si / 1000 Ang^3
#
#
#
# Elastic Constant Matrix: (Units=GPa)
#
#
# Indices 1 2 3 4 5 6 
#
# 1 68.8496 38.0775 27.6796 0.0000 0.0000 0.0000
# 2 38.0775 119.2943 40.9043 0.0000 0.0000 0.0000
# 3 27.6796 40.9043 117.2782 0.0000 0.0000 0.0000
# 4 0.0000 0.0000 0.0000 40.3528 0.0000 0.0000
# 5 0.0000 0.0000 0.0000 0.0000 41.3794 0.0000
# 6 0.0000 0.0000 0.0000 0.0000 0.0000 33.8062
#
#
#
# Elastic Compliance Matrix: (Units=1/GPa)
#
#
# Indices 1 2 3 4 5 6 
#
# 1 0.018307 -0.004954 -0.002593 0.000000 0.000000 0.000000
# 2 -0.004954 0.010862 -0.002619 0.000000 0.000000 0.000000
# 3 -0.002593 -0.002619 0.010052 0.000000 0.000000 0.000000
# 4 0.000000 0.000000 0.000000 0.024781 0.000000 0.000000
# 5 0.000000 0.000000 0.000000 0.000000 0.024167 0.000000
# 6 0.000000 0.000000 0.000000 0.000000 0.000000 0.029580
#
#
# Mechanical properties :
#
#
# Convention : Reuss Voigt Hill
#
# Bulk Modulus (GPa) = 52.94208 57.63833 55.29020
# Shear Modulus (GPa) = 34.63128 36.35839 35.49484
#
# Velocity S-wave (km/s) = 3.89091 3.98675 3.93912
# Velocity P-wave (km/s) = 6.58250 6.81095 6.69770
#
# Compressibility (1/GPa) = 0.01888857
#
# Stress axis : x y z
#
# Youngs Moduli (GPa) = 54.62452 92.06338 99.48095
#
# Poissons Ratio (x) = 0.45611 0.25793
# Poissons Ratio (y) = 0.27063 0.26056
# Poissons Ratio (z) = 0.14163 0.24113
#
# Static dielectric constant tensor:
#      x y z
#    x 4.025630 0.000000 0.000000 
#    y 0.000000 4.336230 0.000000 
#    z 0.000000 0.000000 4.247360 
# 
# 
# High freq. dielectric constant tensor:
#      x y z
#    x 1.895150 0.000000 0.000000 
#    y 0.000000 1.909900 0.000000 
#    z 0.000000 0.000000 1.907480 
# 
# From -- ./inp_files/8809.got.cif
#   From: 2010.03.12/outbox.cif.g09.slc.cpg/sg33_5_cif.got.tgz:8809.got - 2010.04.14 01:49:19.
