data_PCOD8171841
_publ_section_title
;
Structure prediction by ZEFSAII (Michael W. Deem and Ramdas Pophale) SiO2 
 PCOD8171841
Probable space group: P N N 2
;
_chemical_formula_sum "Si O2"
_cell_formula_units_Z 32
_cell_length_a 11.439133
_cell_length_b 9.145826
_cell_length_c 15.876966
_cell_angle_alpha 90.000000
_cell_angle_beta 90.000000
_cell_angle_gamma 90.000000
_cell_volume 1661.053264
_symmetry_space_group_name_H-M "P N N 2"
_symmetry_group_IT_number 34
_symmetry_cell_setting 'orthorhombic'
loop_
_space_group_symop_operation_xyz
x,y,z
-x,-y,z
1/2-x,1/2+y,1/2+z
1/2+x,1/2-y,1/2+z
loop_
_atom_site_type_symbol
_atom_site_label
_atom_site_fract_x
_atom_site_fract_y
_atom_site_fract_z
Si Si1 0.773444 0.147481 0.879920
Si Si2 0.169902 0.142464 0.780795
Si Si3 0.863182 0.833617 0.254345
Si Si4 0.455460 0.648236 0.106742
Si Si5 0.722683 0.128635 0.065207
Si Si6 0.363345 0.138328 0.164380
Si Si7 0.375686 0.336932 0.717874
Si Si8 0.520508 0.843310 0.343980
O O1 0.668565 0.244326 0.839498
O O2 0.884589 0.251336 0.895653
O O3 0.807229 0.015131 0.819615
O O4 0.743303 0.076434 0.970152
O O5 0.088641 0.113596 0.700637
O O6 0.293745 0.215900 0.760013
O O7 0.099473 0.251063 0.842496
O O8 0.766667 0.797508 0.182463
O O9 0.990617 0.782772 0.222845
O O10 0.860261 0.009635 0.267972
O O11 0.500000 0.500000 0.062379
O O12 0.347955 0.719243 0.056414
O O13 0.568966 0.750916 0.104637
O O14 0.842276 0.146412 0.118827
O O15 0.640557 0.017085 0.116877
O O16 0.430153 0.117168 0.251802
O O17 0.500000 0.000000 0.389530
#
# Coordination Sequence:
#
# PCOD8171841 Si02
#       8
#     4   4   4   4   4   4   4   4
#     4  11  22  36  55  88 123 140 190 253 294 322
#     4  10  19  34  58  89 111 144 187 236 289 333
#     4   9  18  36  58  81 109 160 196 224 273 359
#     4  10  18  34  59  80 108 144 191 235 282 342
#     4  10  21  37  55  84 119 148 189 245 289 334
#     4   9  17  34  59  84 106 147 190 226 281 347
#     4   9  19  38  60  79 109 162 203 217 277 366
#     4  10  18  35  63  82 107 147 193 231 277 349
#
# _framework density 19.264883000000001
#
# number of rings (size 3 to 8) (size 9 to 14) (size 15 to 20)
#    0.000    2.250    0.000    6.750    0.000    0.500 
#   15.750    1.250    5.500    0.000    0.000    0.000 
#    0.000    0.000    0.000    0.000    0.000    0.000 
#
# Total GULP energy -396688.114038 kJ/mol
# GULP energy per Si atom -12396.503564 kJ/mol
# Density = 1.922104 g / cm^3
# Si number density = 19.264883 Si / 1000 Ang^3
#
#
#
# Elastic Constant Matrix: (Units=GPa)
#
#
# Indices 1 2 3 4 5 6 
#
# 1 129.7717 42.0412 18.7700 0.0000 0.0000 0.0000
# 2 42.0412 95.2050 20.4664 0.0000 0.0000 0.0000
# 3 18.7700 20.4664 64.5028 0.0000 0.0000 0.0000
# 4 0.0000 0.0000 0.0000 14.1824 0.0000 0.0000
# 5 0.0000 0.0000 0.0000 0.0000 8.4501 0.0000
# 6 0.0000 0.0000 0.0000 0.0000 0.0000 29.5545
#
#
#
# Elastic Compliance Matrix: (Units=1/GPa)
#
#
# Indices 1 2 3 4 5 6 
#
# 1 0.009122 -0.003710 -0.001477 0.000000 0.000000 0.000000
# 2 -0.003710 0.012782 -0.002976 0.000000 0.000000 0.000000
# 3 -0.001477 -0.002976 0.016877 0.000000 0.000000 0.000000
# 4 0.000000 0.000000 0.000000 0.070510 0.000000 0.000000
# 5 0.000000 0.000000 0.000000 0.000000 0.118342 0.000000
# 6 0.000000 0.000000 0.000000 0.000000 0.000000 0.033836
#
#
# Mechanical properties :
#
#
# Convention : Reuss Voigt Hill
#
# Bulk Modulus (GPa) = 44.53563 50.22609 47.38086
# Shear Modulus (GPa) = 17.52665 24.31752 20.92208
#
# Velocity S-wave (km/s) = 3.01952 3.55670 3.29906
# Velocity P-wave (km/s) = 5.94343 6.55704 6.25776
#
# Compressibility (1/GPa) = 0.02245393
#
# Stress axis : x y z
#
# Youngs Moduli (GPa) = 109.63100 78.23591 59.25141
#
# Poissons Ratio (x) = 0.29029 0.08752
# Poissons Ratio (y) = 0.40678 0.17633
# Poissons Ratio (z) = 0.16193 0.23282
#
# Static dielectric constant tensor:
#      x y z
#    x 3.735740 0.000000 0.000000 
#    y 0.000000 3.615460 0.000000 
#    z 0.000000 0.000000 3.043620 
# 
# 
# High freq. dielectric constant tensor:
#      x y z
#    x 1.760910 0.000000 0.000000 
#    y 0.000000 1.756980 0.000000 
#    z 0.000000 0.000000 1.697000 
# 
# From -- ./inp_files/7749.got.cif
#   From: 2010.03.12/outbox.cif.g09.slc.cpg/sg34_4_cif.got.tgz:7749.got - 2010.04.14 01:56:33.
