data_PCOD8171458
_publ_section_title
;
Structure prediction by ZEFSAII (Michael W. Deem and Ramdas Pophale) SiO2 
 PCOD8171458
Probable space group: P N A 21
;
_chemical_formula_sum "Si O2"
_cell_formula_units_Z 28
_cell_length_a 7.665258
_cell_length_b 9.039657
_cell_length_c 15.589074
_cell_angle_alpha 90.000000
_cell_angle_beta 90.000000
_cell_angle_gamma 90.000000
_cell_volume 1080.187252
_symmetry_space_group_name_H-M "P N A 21"
_symmetry_group_IT_number 33
_symmetry_cell_setting 'orthorhombic'
loop_
_space_group_symop_operation_xyz
x,y,z
-x,-y,1/2+z
1/2-x,1/2+y,1/2+z
1/2+x,1/2-y,z
loop_
_atom_site_type_symbol
_atom_site_label
_atom_site_fract_x
_atom_site_fract_y
_atom_site_fract_z
Si Si1 0.585573 0.422808 0.039200
Si Si2 0.015877 0.602411 0.534202
Si Si3 0.243586 0.714465 0.249952
Si Si4 0.218138 0.128156 0.568830
Si Si5 0.760897 0.786093 0.877151
Si Si6 0.559075 0.059489 0.841690
Si Si7 0.933671 0.011778 0.347585
O O1 0.789364 0.448416 0.059593
O O2 0.526330 0.262664 0.074408
O O3 0.466157 0.545909 0.085103
O O4 0.541911 0.432240 0.938345
O O5 0.997296 0.624788 0.432496
O O6 0.877949 0.486042 0.570039
O O7 0.253439 0.741782 0.147830
O O8 0.257421 0.865015 0.307085
O O9 0.080122 0.609895 0.271081
O O10 0.415103 0.614304 0.275505
O O11 0.212467 0.219055 0.480380
O O12 0.742445 0.615344 0.849108
O O13 0.915569 0.869877 0.828612
O O14 0.587462 0.882887 0.853052
#
# Coordination Sequence:
#
# PCOD8171458 Si02
#       7
#     4   4   4   4   4   4   4
#     4  11  21  40  74  98 134 183 237 282 336 432
#     4  11  19  42  72  98 127 190 234 272 332 432
#     4  12  24  44  68 105 137 171 228 301 353 397
#     4  10  26  43  64 101 140 177 228 285 353 408
#     4  10  24  44  68  95 132 187 227 274 339 431
#     4  11  22  42  72  96 134 181 234 277 339 428
#     4  11  22  41  68  97 134 175 230 283 342 410
#
# _framework density 25.921434000000001
#
# number of rings (size 3 to 8) (size 9 to 14) (size 15 to 20)
#    0.000    1.143    4.286    1.714    4.000    2.286 
#   10.286    0.000    0.000    0.000    0.000    0.000 
#    0.000    0.000    0.000    0.000    0.000    0.000 
#
# Total GULP energy -347152.998816 kJ/mol
# GULP energy per Si atom -12398.321386 kJ/mol
# Density = 2.586244 g / cm^3
# Si number density = 25.921434 Si / 1000 Ang^3
#
#
#
# Elastic Constant Matrix: (Units=GPa)
#
#
# Indices 1 2 3 4 5 6 
#
# 1 94.0539 -33.2541 -2.8592 0.0000 0.0000 0.0000
# 2 -33.2541 77.5806 13.7591 0.0000 0.0000 0.0000
# 3 -2.8592 13.7591 76.2576 0.0000 0.0000 0.0000
# 4 0.0000 0.0000 0.0000 18.4113 0.0000 0.0000
# 5 0.0000 0.0000 0.0000 0.0000 21.5492 0.0000
# 6 0.0000 0.0000 0.0000 0.0000 0.0000 25.9043
#
#
#
# Elastic Compliance Matrix: (Units=1/GPa)
#
#
# Indices 1 2 3 4 5 6 
#
# 1 0.012551 0.005471 -0.000517 0.000000 0.000000 0.000000
# 2 0.005471 0.015701 -0.002628 0.000000 0.000000 0.000000
# 3 -0.000517 -0.002628 0.013568 0.000000 0.000000 0.000000
# 4 0.000000 0.000000 0.000000 0.054314 0.000000 0.000000
# 5 0.000000 0.000000 0.000000 0.000000 0.046406 0.000000
# 6 0.000000 0.000000 0.000000 0.000000 0.000000 0.038604
#
#
# Mechanical properties :
#
#
# Convention : Reuss Voigt Hill
#
# Bulk Modulus (GPa) = 21.51716 22.57595 22.04656
# Shear Modulus (GPa) = 26.04420 31.18938 28.61679
#
# Velocity S-wave (km/s) = 3.17320 3.47252 3.32623
# Velocity P-wave (km/s) = 4.66310 4.98058 4.82445
#
# Compressibility (1/GPa) = 0.04647453
#
# Stress axis : x y z
#
# Youngs Moduli (GPa) = 79.67480 63.68955 73.70171
#
# Poissons Ratio (x) = -0.34848 0.03808
# Poissons Ratio (y) = -0.43594 0.19367
# Poissons Ratio (z) = 0.04116 0.16736
#
# Static dielectric constant tensor:
#      x y z
#    x 5.156190 0.000000 0.000000 
#    y 0.000000 4.712900 0.000000 
#    z 0.000000 0.000000 4.144160 
# 
# 
# High freq. dielectric constant tensor:
#      x y z
#    x 2.063740 0.000000 0.000000 
#    y 0.000000 2.047940 0.000000 
#    z 0.000000 0.000000 1.985190 
# 
# From -- ./inp_files/8476.got.cif
#   From: 2010.03.12/outbox.cif.g09.slc.cpg/sg33_5_cif.got.tgz:8476.got - 2010.04.14 01:49:19.
