data_PCOD8171207
_publ_section_title
;
Structure prediction by ZEFSAII (Michael W. Deem and Ramdas Pophale) SiO2 
 PCOD8171207
Probable space group: P N A 21
;
_chemical_formula_sum "Si O2"
_cell_formula_units_Z 32
_cell_length_a 9.281454
_cell_length_b 10.122841
_cell_length_c 15.030236
_cell_angle_alpha 90.000000
_cell_angle_beta 90.000000
_cell_angle_gamma 90.000000
_cell_volume 1412.161060
_symmetry_space_group_name_H-M "P N A 21"
_symmetry_group_IT_number 33
_symmetry_cell_setting 'orthorhombic'
loop_
_space_group_symop_operation_xyz
x,y,z
-x,-y,1/2+z
1/2-x,1/2+y,1/2+z
1/2+x,1/2-y,z
loop_
_atom_site_type_symbol
_atom_site_label
_atom_site_fract_x
_atom_site_fract_y
_atom_site_fract_z
Si Si1 0.792278 0.139512 0.621550
Si Si2 0.456325 0.725687 0.022760
Si Si3 0.852935 0.462976 0.501513
Si Si4 0.949484 0.712889 0.425287
Si Si5 0.670669 0.690852 0.315896
Si Si6 0.837976 0.894636 0.852238
Si Si7 0.110705 0.863299 0.570383
Si Si8 0.185205 0.149634 0.157500
O O1 0.703688 0.232748 0.553287
O O2 0.778943 0.215313 0.715563
O O3 0.956249 0.119408 0.582966
O O4 0.736048 0.989446 0.634194
O O5 0.552999 0.853170 0.048494
O O6 0.449604 0.681287 0.918936
O O7 0.813479 0.411900 0.402882
O O8 0.699503 0.498561 0.552214
O O9 0.958735 0.587756 0.490484
O O10 0.042587 0.704288 0.334589
O O11 0.022340 0.833623 0.479439
O O12 0.785549 0.727473 0.393156
O O13 0.608584 0.541055 0.323907
O O14 0.803549 0.812694 0.762208
O O15 0.238486 0.759827 0.596280
O O16 0.988482 0.863264 0.645412
#
# Coordination Sequence:
#
# PCOD8171207 Si02
#       8
#     4   4   4   4   4   4   4   4
#     4  11  25  42  67  96 130 172 223 274 328 395
#     4  12  24  44  69  92 134 180 218 262 342 397
#     4  11  23  41  67  96 131 173 215 268 322 403
#     4  11  19  39  67  91 132 167 209 265 332 378
#     4  10  22  41  66  97 130 168 216 278 324 388
#     4  10  23  45  64  92 139 172 216 274 329 391
#     4  12  22  43  67  99 128 170 222 274 327 395
#     4  11  26  41  69  99 132 170 225 279 326 387
#
# _framework density 22.660304
#
# number of rings (size 3 to 8) (size 9 to 14) (size 15 to 20)
#    0.000    1.000    5.000    2.250    1.750    0.000 
#    0.000    1.250    0.000    0.000    0.000    0.000 
#    0.000    0.000    0.000    0.000    0.000    0.000 
#
# Total GULP energy -396454.142505 kJ/mol
# GULP energy per Si atom -12389.191953 kJ/mol
# Density = 2.260873 g / cm^3
# Si number density = 22.660304 Si / 1000 Ang^3
#
#
#
# Elastic Constant Matrix: (Units=GPa)
#
#
# Indices 1 2 3 4 5 6 
#
# 1 89.8949 26.5888 19.1008 0.0000 0.0000 0.0000
# 2 26.5888 23.0083 23.4935 0.0000 0.0000 0.0000
# 3 19.1008 23.4935 122.0356 0.0000 0.0000 0.0000
# 4 0.0000 0.0000 0.0000 28.7171 0.0000 0.0000
# 5 0.0000 0.0000 0.0000 0.0000 36.5963 0.0000
# 6 0.0000 0.0000 0.0000 0.0000 0.0000 34.3453
#
#
#
# Elastic Compliance Matrix: (Units=1/GPa)
#
#
# Indices 1 2 3 4 5 6 
#
# 1 0.017092 -0.021184 0.001403 0.000000 0.000000 0.000000
# 2 -0.021184 0.080353 -0.012153 0.000000 0.000000 0.000000
# 3 0.001403 -0.012153 0.010314 0.000000 0.000000 0.000000
# 4 0.000000 0.000000 0.000000 0.034822 0.000000 0.000000
# 5 0.000000 0.000000 0.000000 0.000000 0.027325 0.000000
# 6 0.000000 0.000000 0.000000 0.000000 0.000000 0.029116
#
#
# Mechanical properties :
#
#
# Convention : Reuss Voigt Hill
#
# Bulk Modulus (GPa) = 22.78408 41.47834 32.13121
# Shear Modulus (GPa) = 18.01658 30.98213 24.49936
#
# Velocity S-wave (km/s) = 2.82276 3.70164 3.29166
# Velocity P-wave (km/s) = 4.54977 6.05092 5.35323
#
# Compressibility (1/GPa) = 0.04389030
#
# Stress axis : x y z
#
# Youngs Moduli (GPa) = 58.50764 12.44506 96.95179
#
# Poissons Ratio (x) = 0.26364 -0.13603
# Poissons Ratio (y) = 1.23944 1.17829
# Poissons Ratio (z) = -0.08209 0.15125
#
# Static dielectric constant tensor:
#      x y z
#    x 4.078720 0.000000 0.000000 
#    y 0.000000 4.110100 0.000000 
#    z 0.000000 0.000000 4.065110 
# 
# 
# High freq. dielectric constant tensor:
#      x y z
#    x 1.893310 0.000000 0.000000 
#    y 0.000000 1.888380 0.000000 
#    z 0.000000 0.000000 1.893470 
# 
# From -- ./inp_files/7669.got.cif
#   From: 2010.03.12/outbox.cif.g09.slc.cpg/sg33_4_cif.got.tgz:7669.got - 2010.04.14 01:49:19.
