data_PCOD8171578
_publ_section_title
;
Structure prediction by ZEFSAII (Michael W. Deem and Ramdas Pophale) SiO2 
 PCOD8171578
Probable space group: P N A 21
;
_chemical_formula_sum "Si O2"
_cell_formula_units_Z 32
_cell_length_a 10.213171
_cell_length_b 6.574532
_cell_length_c 21.535348
_cell_angle_alpha 90.000000
_cell_angle_beta 90.000000
_cell_angle_gamma 90.000000
_cell_volume 1446.030126
_symmetry_space_group_name_H-M "P N A 21"
_symmetry_group_IT_number 33
_symmetry_cell_setting 'orthorhombic'
loop_
_space_group_symop_operation_xyz
x,y,z
-x,-y,1/2+z
1/2-x,1/2+y,1/2+z
1/2+x,1/2-y,z
loop_
_atom_site_type_symbol
_atom_site_label
_atom_site_fract_x
_atom_site_fract_y
_atom_site_fract_z
Si Si1 0.536077 0.802958 0.449820
Si Si2 0.089554 0.597182 0.859729
Si Si3 0.544287 0.945738 0.719372
Si Si4 0.595430 0.317924 0.635562
Si Si5 0.688684 0.147543 0.512364
Si Si6 0.594196 0.415817 0.063951
Si Si7 0.630710 0.401677 0.401473
Si Si8 0.226451 0.328714 0.163948
O O1 0.483121 0.711942 0.513553
O O2 0.599346 0.640225 0.402897
O O3 0.424800 0.918796 0.410652
O O4 0.647193 0.960059 0.469443
O O5 0.046769 0.518902 0.792699
O O6 0.244036 0.654578 0.858686
O O7 0.999272 0.788663 0.877767
O O8 0.666827 0.805676 0.700068
O O9 0.409272 0.834743 0.701654
O O10 0.550088 0.172228 0.690875
O O11 0.610089 0.171164 0.576248
O O12 0.493439 0.496937 0.619825
O O13 0.727626 0.437378 0.654553
O O14 0.669621 0.350325 0.472654
O O15 0.840199 0.107592 0.528861
O O16 0.702640 0.271218 0.096151
#
# Coordination Sequence:
#
# PCOD8171578 Si02
#       8
#     4   4   4   4   4   4   4   4
#     4  11  24  42  68 104 141 183 228 295 357 425
#     4  11  27  46  72 102 142 190 247 289 356 429
#     4  12  27  48  70 106 144 196 244 299 359 435
#     4  12  25  43  71 106 140 188 232 298 368 427
#     4  11  23  38  65 104 138 172 230 288 357 421
#     4  12  22  43  69 103 141 178 232 293 367 426
#     4  11  24  46  71 102 139 191 236 299 354 418
#     4  12  26  46  72 103 145 188 243 299 362 433
#
# _framework density 22.129552
#
# number of rings (size 3 to 8) (size 9 to 14) (size 15 to 20)
#    0.000    0.500    3.750    4.500    3.500    3.000 
#    0.000    0.000    0.000    0.000    0.000    0.000 
#    0.000    0.000    0.000    0.000    0.000    0.000 
#
# Total GULP energy -396869.922975 kJ/mol
# GULP energy per Si atom -12402.185093 kJ/mol
# Density = 2.207918 g / cm^3
# Si number density = 22.129552 Si / 1000 Ang^3
#
#
#
# Elastic Constant Matrix: (Units=GPa)
#
#
# Indices 1 2 3 4 5 6 
#
# 1 118.6681 43.0893 22.5835 0.0000 0.0000 0.0000
# 2 43.0893 111.7234 38.3260 0.0000 0.0000 0.0000
# 3 22.5835 38.3260 104.8086 0.0000 0.0000 0.0000
# 4 0.0000 0.0000 0.0000 30.5909 0.0000 0.0000
# 5 0.0000 0.0000 0.0000 0.0000 29.7734 0.0000
# 6 0.0000 0.0000 0.0000 0.0000 0.0000 33.4758
#
#
#
# Elastic Compliance Matrix: (Units=1/GPa)
#
#
# Indices 1 2 3 4 5 6 
#
# 1 0.009863 -0.003516 -0.000840 0.000000 0.000000 0.000000
# 2 -0.003516 0.011488 -0.003443 0.000000 0.000000 0.000000
# 3 -0.000840 -0.003443 0.010981 0.000000 0.000000 0.000000
# 4 0.000000 0.000000 0.000000 0.032689 0.000000 0.000000
# 5 0.000000 0.000000 0.000000 0.000000 0.033587 0.000000
# 6 0.000000 0.000000 0.000000 0.000000 0.000000 0.029872
#
#
# Mechanical properties :
#
#
# Convention : Reuss Voigt Hill
#
# Bulk Modulus (GPa) = 59.75585 60.35530 60.05557
# Shear Modulus (GPa) = 33.40966 34.18144 33.79555
#
# Velocity S-wave (km/s) = 3.88974 3.93441 3.91214
# Velocity P-wave (km/s) = 6.87276 6.92620 6.89953
#
# Compressibility (1/GPa) = 0.01673476
#
# Stress axis : x y z
#
# Youngs Moduli (GPa) = 101.38545 87.04795 91.06469
#
# Poissons Ratio (x) = 0.30607 0.07645
# Poissons Ratio (y) = 0.35648 0.31356
# Poissons Ratio (z) = 0.08512 0.29973
#
# Static dielectric constant tensor:
#      x y z
#    x 4.040300 0.000000 0.000000 
#    y 0.000000 4.079020 0.000000 
#    z 0.000000 0.000000 3.922520 
# 
# 
# High freq. dielectric constant tensor:
#      x y z
#    x 1.879960 0.000000 0.000000 
#    y 0.000000 1.876030 0.000000 
#    z 0.000000 0.000000 1.864810 
# 
# From -- ./inp_files/9104.got.cif
#   From: 2010.03.12/outbox.cif.g09.slc.cpg/sg33_5_cif.got.tgz:9104.got - 2010.04.14 01:49:19.
