data_PCOD8171418
_publ_section_title
;
Structure prediction by ZEFSAII (Michael W. Deem and Ramdas Pophale) SiO2 
 PCOD8171418
Probable space group: P N A 21
;
_chemical_formula_sum "Si O2"
_cell_formula_units_Z 24
_cell_length_a 20.865945
_cell_length_b 5.175694
_cell_length_c 8.607746
_cell_angle_alpha 90.000000
_cell_angle_beta 90.000000
_cell_angle_gamma 90.000000
_cell_volume 929.599954
_symmetry_space_group_name_H-M "P N A 21"
_symmetry_group_IT_number 33
_symmetry_cell_setting 'orthorhombic'
loop_
_space_group_symop_operation_xyz
x,y,z
-x,-y,1/2+z
1/2-x,1/2+y,1/2+z
1/2+x,1/2-y,z
loop_
_atom_site_type_symbol
_atom_site_label
_atom_site_fract_x
_atom_site_fract_y
_atom_site_fract_z
Si Si1 0.943694 0.500832 0.911270
Si Si2 0.291474 0.958496 0.552586
Si Si3 0.685572 0.296673 0.359211
Si Si4 0.560768 0.847580 0.751636
Si Si5 0.108212 0.835292 0.168091
Si Si6 0.117959 0.137196 0.885088
O O1 0.873444 0.627248 0.922646
O O2 0.948248 0.294161 0.768133
O O3 0.998739 0.708720 0.863467
O O4 0.958444 0.353898 0.070834
O O5 0.275275 0.850773 0.723675
O O6 0.308719 0.724558 0.430897
O O7 0.232490 0.135870 0.500563
O O8 0.357124 0.124995 0.557424
O O9 0.659940 0.565530 0.292605
O O10 0.584543 0.131501 0.796413
O O11 0.612996 0.618562 0.776324
O O12 0.084430 0.065342 0.053431
#
# Coordination Sequence:
#
# PCOD8171418 Si02
#       6
#     4   4   4   4   4   4
#     4  11  28  47  75 119 157 210 260 327 394 475
#     4  10  23  47  76 110 151 203 254 330 383 472
#     4  10  25  44  76 110 156 200 265 319 400 465
#     4  12  28  46  81 111 159 203 261 322 388 477
#     4  10  23  48  73 110 153 199 259 319 392 461
#     4  11  25  48  77 110 146 205 255 315 395 460
#
# _framework density 25.817554999999999
#
# number of rings (size 3 to 8) (size 9 to 14) (size 15 to 20)
#    0.000    1.333    1.667    1.000    9.333    9.333 
#    0.000    0.000    0.000    0.000    0.000    0.000 
#    0.000    0.000    0.000    0.000    0.000    0.000 
#
# Total GULP energy -297461.500211 kJ/mol
# GULP energy per Si atom -12394.229175 kJ/mol
# Density = 2.575879 g / cm^3
# Si number density = 25.817555 Si / 1000 Ang^3
#
#
#
# Elastic Constant Matrix: (Units=GPa)
#
#
# Indices 1 2 3 4 5 6 
#
# 1 51.9319 15.6669 12.8948 0.0000 0.0000 0.0000
# 2 15.6669 116.8003 23.4601 0.0000 0.0000 0.0000
# 3 12.8948 23.4601 82.0135 0.0000 0.0000 0.0000
# 4 0.0000 0.0000 0.0000 25.5365 0.0000 0.0000
# 5 0.0000 0.0000 0.0000 0.0000 41.1697 0.0000
# 6 0.0000 0.0000 0.0000 0.0000 0.0000 34.4081
#
#
#
# Elastic Compliance Matrix: (Units=1/GPa)
#
#
# Indices 1 2 3 4 5 6 
#
# 1 0.020576 -0.002239 -0.002595 0.000000 0.000000 0.000000
# 2 -0.002239 0.009327 -0.002316 0.000000 0.000000 0.000000
# 3 -0.002595 -0.002316 0.013264 0.000000 0.000000 0.000000
# 4 0.000000 0.000000 0.000000 0.039160 0.000000 0.000000
# 5 0.000000 0.000000 0.000000 0.000000 0.024290 0.000000
# 6 0.000000 0.000000 0.000000 0.000000 0.000000 0.029063
#
#
# Mechanical properties :
#
#
# Convention : Reuss Voigt Hill
#
# Bulk Modulus (GPa) = 34.64114 39.42104 37.03109
# Shear Modulus (GPa) = 31.32833 33.47112 32.39972
#
# Velocity S-wave (km/s) = 3.48724 3.60453 3.54637
# Velocity P-wave (km/s) = 5.44622 5.71189 5.58064
#
# Compressibility (1/GPa) = 0.02886741
#
# Stress axis : x y z
#
# Youngs Moduli (GPa) = 48.60122 107.21443 75.39447
#
# Poissons Ratio (x) = 0.24003 0.19562
# Poissons Ratio (y) = 0.10881 0.17462
# Poissons Ratio (z) = 0.12610 0.24831
#
# Static dielectric constant tensor:
#      x y z
#    x 4.238890 0.000000 0.000000 
#    y 0.000000 4.763700 0.000000 
#    z 0.000000 0.000000 4.708730 
# 
# 
# High freq. dielectric constant tensor:
#      x y z
#    x 2.001440 0.000000 0.000000 
#    y 0.000000 2.040790 0.000000 
#    z 0.000000 0.000000 2.042250 
# 
# From -- ./inp_files/5100.got.cif
#   From: 2010.03.12/outbox.cif.g09.slc.cpg/sg33_3_cif.got.tgz:5100.got - 2010.04.14 01:49:19.
