data_PCOD8171436
_publ_section_title
;
Structure prediction by ZEFSAII (Michael W. Deem and Ramdas Pophale) SiO2 
 PCOD8171436
Probable space group: P N A 21
;
_chemical_formula_sum "Si O2"
_cell_formula_units_Z 28
_cell_length_a 22.217564
_cell_length_b 6.582231
_cell_length_c 8.301266
_cell_angle_alpha 90.000000
_cell_angle_beta 90.000000
_cell_angle_gamma 90.000000
_cell_volume 1213.986591
_symmetry_space_group_name_H-M "P N A 21"
_symmetry_group_IT_number 33
_symmetry_cell_setting 'orthorhombic'
loop_
_space_group_symop_operation_xyz
x,y,z
-x,-y,1/2+z
1/2-x,1/2+y,1/2+z
1/2+x,1/2-y,z
loop_
_atom_site_type_symbol
_atom_site_label
_atom_site_fract_x
_atom_site_fract_y
_atom_site_fract_z
Si Si1 0.584008 0.385076 0.426640
Si Si2 0.789479 0.687629 0.444721
Si Si3 0.369201 0.520590 0.272663
Si Si4 0.193536 0.019337 0.226803
Si Si5 0.365619 0.190813 0.506124
Si Si6 0.499086 0.079058 0.574780
Si Si7 0.015535 0.204659 0.893486
O O1 0.609355 0.481750 0.591015
O O2 0.638136 0.352387 0.302019
O O3 0.550797 0.171706 0.457469
O O4 0.536969 0.546663 0.355762
O O5 0.812810 0.828370 0.297787
O O6 0.772475 0.832159 0.598523
O O7 0.734672 0.553616 0.376362
O O8 0.841637 0.537445 0.503838
O O9 0.352721 0.293596 0.331200
O O10 0.420867 0.591060 0.399765
O O11 0.168923 0.817517 0.142635
O O12 0.436247 0.188246 0.541233
O O13 0.519258 0.122811 0.756071
O O14 0.496010 0.834114 0.556199
#
# Coordination Sequence:
#
# PCOD8171436 Si02
#       7
#     4   4   4   4   4   4   4
#     4  11  25  42  68 102 142 176 227 288 352 421
#     4  11  27  48  70  99 136 182 244 284 346 413
#     4  10  24  42  67 100 136 179 231 283 350 412
#     4  11  28  48  72  99 137 187 236 292 346 412
#     4  11  23  45  72  96 139 183 225 288 346 413
#     4  11  24  39  67 101 138 179 224 278 355 420
#     4  11  23  40  64 103 138 180 223 281 347 421
#
# _framework density 23.064506999999999
#
# number of rings (size 3 to 8) (size 9 to 14) (size 15 to 20)
#    0.000    1.143    4.286    0.000    8.000    1.143 
#    0.000    0.000    0.000    0.000    0.000    0.000 
#    0.000    0.000    0.000    0.000    0.000    0.000 
#
# Total GULP energy -347223.710990 kJ/mol
# GULP energy per Si atom -12400.846821 kJ/mol
# Density = 2.301201 g / cm^3
# Si number density = 23.064507 Si / 1000 Ang^3
#
#
#
# Elastic Constant Matrix: (Units=GPa)
#
#
# Indices 1 2 3 4 5 6 
#
# 1 80.3058 7.6533 14.1214 0.0000 0.0000 0.0000
# 2 7.6533 71.6195 10.4061 0.0000 0.0000 0.0000
# 3 14.1214 10.4061 55.8676 0.0000 0.0000 0.0000
# 4 0.0000 0.0000 0.0000 29.5039 0.0000 0.0000
# 5 0.0000 0.0000 0.0000 0.0000 37.3835 0.0000
# 6 0.0000 0.0000 0.0000 0.0000 0.0000 26.1553
#
#
#
# Elastic Compliance Matrix: (Units=1/GPa)
#
#
# Indices 1 2 3 4 5 6 
#
# 1 0.013093 -0.000944 -0.003134 0.000000 0.000000 0.000000
# 2 -0.000944 0.014419 -0.002447 0.000000 0.000000 0.000000
# 3 -0.003134 -0.002447 0.019147 0.000000 0.000000 0.000000
# 4 0.000000 0.000000 0.000000 0.033894 0.000000 0.000000
# 5 0.000000 0.000000 0.000000 0.000000 0.026750 0.000000
# 6 0.000000 0.000000 0.000000 0.000000 0.000000 0.038233
#
#
# Mechanical properties :
#
#
# Convention : Reuss Voigt Hill
#
# Bulk Modulus (GPa) = 29.75276 30.23939 29.99607
# Shear Modulus (GPa) = 29.44821 30.31602 29.88212
#
# Velocity S-wave (km/s) = 3.57708 3.62940 3.60333
# Velocity P-wave (km/s) = 5.47617 5.54100 5.50868
#
# Compressibility (1/GPa) = 0.03361033
#
# Stress axis : x y z
#
# Youngs Moduli (GPa) = 76.37430 69.35242 52.22644
#
# Poissons Ratio (x) = 0.06546 0.16366
# Poissons Ratio (y) = 0.07209 0.12781
# Poissons Ratio (z) = 0.23934 0.16972
#
# Static dielectric constant tensor:
#      x y z
#    x 4.067280 0.000000 0.000000 
#    y 0.000000 4.065210 0.000000 
#    z 0.000000 0.000000 3.990700 
# 
# 
# High freq. dielectric constant tensor:
#      x y z
#    x 1.906380 0.000000 0.000000 
#    y 0.000000 1.914730 0.000000 
#    z 0.000000 0.000000 1.908540 
# 
# From -- ./inp_files/5146.got.cif
#   From: 2010.03.12/outbox.cif.g09.slc.cpg/sg33_3_cif.got.tgz:5146.got - 2010.04.14 01:49:19.
