data_PCOD8171433
_publ_section_title
;
Structure prediction by ZEFSAII (Michael W. Deem and Ramdas Pophale) SiO2 
 PCOD8171433
Probable space group: P N A 21
;
_chemical_formula_sum "Si O2"
_cell_formula_units_Z 28
_cell_length_a 8.809272
_cell_length_b 5.182446
_cell_length_c 26.625311
_cell_angle_alpha 90.000000
_cell_angle_beta 90.000000
_cell_angle_gamma 90.000000
_cell_volume 1215.540671
_symmetry_space_group_name_H-M "P N A 21"
_symmetry_group_IT_number 33
_symmetry_cell_setting 'orthorhombic'
loop_
_space_group_symop_operation_xyz
x,y,z
-x,-y,1/2+z
1/2-x,1/2+y,1/2+z
1/2+x,1/2-y,z
loop_
_atom_site_type_symbol
_atom_site_label
_atom_site_fract_x
_atom_site_fract_y
_atom_site_fract_z
Si Si1 0.091771 0.559505 0.292730
Si Si2 0.829605 0.246499 0.248869
Si Si3 0.288676 0.963801 0.556617
Si Si4 0.908176 0.059832 0.705795
Si Si5 0.542694 0.557038 0.092411
Si Si6 0.032863 0.554582 0.406019
Si Si7 0.201506 0.033949 0.441847
O O1 0.223587 0.344841 0.295017
O O2 0.152708 0.754256 0.250020
O O3 0.071921 0.648562 0.349490
O O4 0.931085 0.466675 0.272529
O O5 0.718133 0.336132 0.204152
O O6 0.926472 0.024999 0.223283
O O7 0.413166 0.188690 0.562029
O O8 0.245626 0.998230 0.499159
O O9 0.136610 0.003337 0.589212
O O10 0.363055 0.689711 0.572004
O O11 0.919278 0.153011 0.648950
O O12 0.126071 0.307545 0.426716
O O13 0.853226 0.503390 0.408922
O O14 0.077229 0.808958 0.436309
#
# Coordination Sequence:
#
# PCOD8171433 Si02
#       7
#     4   4   4   4   4   4   4
#     4  11  25  41  67  97 140 181 232 283 347 423
#     4  10  24  42  64  92 142 174 232 278 340 402
#     4  12  26  49  74 107 143 186 242 305 361 427
#     4  11  25  41  67  97 140 181 232 283 347 423
#     4  12  27  44  76 104 143 188 240 290 370 427
#     4  12  27  44  76 104 143 188 240 290 370 427
#     4  12  26  49  74 107 143 186 242 305 361 427
#
# _framework density 23.035018000000001
#
# number of rings (size 3 to 8) (size 9 to 14) (size 15 to 20)
#    0.000    0.571    0.000    6.857   16.000    0.000 
#    0.000    0.000    0.000    0.000    0.000    0.000 
#    0.000    0.000    0.000    0.000    0.000    0.000 
#
# Total GULP energy -346953.956682 kJ/mol
# GULP energy per Si atom -12391.212739 kJ/mol
# Density = 2.298259 g / cm^3
# Si number density = 23.035018 Si / 1000 Ang^3
#
#
#
# Elastic Constant Matrix: (Units=GPa)
#
#
# Indices 1 2 3 4 5 6 
#
# 1 105.4280 13.9805 -10.6644 0.0000 0.0000 0.0000
# 2 13.9805 104.7205 17.5818 0.0000 0.0000 0.0000
# 3 -10.6644 17.5818 112.4433 0.0000 0.0000 0.0000
# 4 0.0000 0.0000 0.0000 38.6415 0.0000 0.0000
# 5 0.0000 0.0000 0.0000 0.0000 4.8362 0.0000
# 6 0.0000 0.0000 0.0000 0.0000 0.0000 44.9979
#
#
#
# Elastic Compliance Matrix: (Units=1/GPa)
#
#
# Indices 1 2 3 4 5 6 
#
# 1 0.009802 -0.001504 0.001165 0.000000 0.000000 0.000000
# 2 -0.001504 0.010038 -0.001712 0.000000 0.000000 0.000000
# 3 0.001165 -0.001712 0.009272 0.000000 0.000000 0.000000
# 4 0.000000 0.000000 0.000000 0.025879 0.000000 0.000000
# 5 0.000000 0.000000 0.000000 0.000000 0.206776 0.000000
# 6 0.000000 0.000000 0.000000 0.000000 0.000000 0.022223
#
#
# Mechanical properties :
#
#
# Convention : Reuss Voigt Hill
#
# Bulk Modulus (GPa) = 39.98630 40.48749 40.23689
# Shear Modulus (GPa) = 16.86746 37.80805 27.33775
#
# Velocity S-wave (km/s) = 2.70895 4.05573 3.44872
# Velocity P-wave (km/s) = 5.21356 6.28860 5.77615
#
# Compressibility (1/GPa) = 0.02500857
#
# Stress axis : x y z
#
# Youngs Moduli (GPa) = 102.01533 99.62635 107.85663
#
# Poissons Ratio (x) = 0.14986 -0.12564
# Poissons Ratio (y) = 0.15345 0.18467
# Poissons Ratio (z) = -0.11884 0.17057
#
# Static dielectric constant tensor:
#      x y z
#    x 4.512760 0.000000 0.000000 
#    y 0.000000 4.287370 0.000000 
#    z 0.000000 0.000000 6.621540 
# 
# 
# High freq. dielectric constant tensor:
#      x y z
#    x 1.938180 0.000000 0.000000 
#    y 0.000000 1.912380 0.000000 
#    z 0.000000 0.000000 1.915760 
# 
# From -- ./inp_files/9246.got.cif
#   From: 2010.03.12/outbox.cif.g09.slc.cpg/sg33_5_cif.got.tgz:9246.got - 2010.04.14 01:49:19.
