data_PCOD8171092
_publ_section_title
;
Structure prediction by ZEFSAII (Michael W. Deem and Ramdas Pophale) SiO2 
 PCOD8171092
Probable space group: P N A 21
;
_chemical_formula_sum "Si O2"
_cell_formula_units_Z 32
_cell_length_a 15.332385
_cell_length_b 6.694001
_cell_length_c 14.554694
_cell_angle_alpha 90.000000
_cell_angle_beta 90.000000
_cell_angle_gamma 90.000000
_cell_volume 1493.821026
_symmetry_space_group_name_H-M "P N A 21"
_symmetry_group_IT_number 33
_symmetry_cell_setting 'orthorhombic'
loop_
_space_group_symop_operation_xyz
x,y,z
-x,-y,1/2+z
1/2-x,1/2+y,1/2+z
1/2+x,1/2-y,z
loop_
_atom_site_type_symbol
_atom_site_label
_atom_site_fract_x
_atom_site_fract_y
_atom_site_fract_z
Si Si1 0.196547 0.109845 0.861490
Si Si2 0.462963 0.220335 0.226392
Si Si3 0.498544 0.462812 0.864583
Si Si4 0.675411 0.259286 0.059750
Si Si5 0.921709 0.407889 0.624016
Si Si6 0.010628 0.992255 0.073809
Si Si7 0.230301 0.734614 0.738354
Si Si8 0.167288 0.853112 0.263157
O O1 0.093127 0.135310 0.846292
O O2 0.245847 0.288251 0.814001
O O3 0.233402 0.903398 0.818113
O O4 0.218593 0.144105 0.969139
O O5 0.499284 0.314294 0.321481
O O6 0.451912 0.400671 0.151153
O O7 0.365423 0.134274 0.240330
O O8 0.527609 0.046040 0.196870
O O9 0.423766 0.329880 0.817814
O O10 0.476685 0.460901 0.972278
O O11 0.608581 0.430309 0.094373
O O12 0.749259 0.194826 0.133675
O O13 0.619468 0.052194 0.044966
O O14 0.844070 0.284493 0.673366
O O15 0.989800 0.248804 0.582203
O O16 0.311585 0.585878 0.751307
#
# Coordination Sequence:
#
# PCOD8171092 Si02
#       8
#     4   4   4   4   4   4   4   4
#     4  10  25  42  65  96 134 171 226 281 339 407
#     4  10  23  40  64  95 133 170 222 273 339 406
#     4  10  23  44  65  92 137 170 219 285 330 409
#     4  10  21  42  65  94 131 169 220 285 335 404
#     4  11  21  42  71  90 129 180 221 275 346 404
#     4  10  21  43  64  95 126 174 220 277 339 402
#     4  11  23  42  62  95 135 177 221 281 340 414
#     4  12  23  41  68  95 129 179 227 271 348 410
#
# _framework density 21.421576000000002
#
# number of rings (size 3 to 8) (size 9 to 14) (size 15 to 20)
#    0.000    1.500    3.750    0.750    3.500    3.000 
#    6.750    0.000    0.000    0.000    0.000    0.000 
#    0.000    0.000    0.000    0.000    0.000    0.000 
#
# Total GULP energy -396434.268693 kJ/mol
# GULP energy per Si atom -12388.570897 kJ/mol
# Density = 2.137282 g / cm^3
# Si number density = 21.421576 Si / 1000 Ang^3
#
#
#
# Elastic Constant Matrix: (Units=GPa)
#
#
# Indices 1 2 3 4 5 6 
#
# 1 64.3965 31.1000 31.2084 0.0000 0.0000 0.0000
# 2 31.1000 105.5521 39.8457 0.0000 0.0000 0.0000
# 3 31.2084 39.8457 110.1093 0.0000 0.0000 0.0000
# 4 0.0000 0.0000 0.0000 35.8117 0.0000 0.0000
# 5 0.0000 0.0000 0.0000 0.0000 32.7783 0.0000
# 6 0.0000 0.0000 0.0000 0.0000 0.0000 31.6215
#
#
#
# Elastic Compliance Matrix: (Units=1/GPa)
#
#
# Indices 1 2 3 4 5 6 
#
# 1 0.019514 -0.004241 -0.003996 0.000000 0.000000 0.000000
# 2 -0.004241 0.011895 -0.003102 0.000000 0.000000 0.000000
# 3 -0.003996 -0.003102 0.011337 0.000000 0.000000 0.000000
# 4 0.000000 0.000000 0.000000 0.027924 0.000000 0.000000
# 5 0.000000 0.000000 0.000000 0.000000 0.030508 0.000000
# 6 0.000000 0.000000 0.000000 0.000000 0.000000 0.031624
#
#
# Mechanical properties :
#
#
# Convention : Reuss Voigt Hill
#
# Bulk Modulus (GPa) = 49.83397 53.81843 51.82620
# Shear Modulus (GPa) = 30.83204 31.90256 31.36730
#
# Velocity S-wave (km/s) = 3.79792 3.86330 3.83075
# Velocity P-wave (km/s) = 6.52275 6.71402 6.61908
#
# Compressibility (1/GPa) = 0.02006663
#
# Stress axis : x y z
#
# Youngs Moduli (GPa) = 51.24638 84.07103 88.20565
#
# Poissons Ratio (x) = 0.35655 0.35247
# Poissons Ratio (y) = 0.21734 0.27364
# Poissons Ratio (z) = 0.20478 0.26082
#
# Static dielectric constant tensor:
#      x y z
#    x 3.758920 0.000000 0.000000 
#    y 0.000000 3.848770 0.000000 
#    z 0.000000 0.000000 3.920250 
# 
# 
# High freq. dielectric constant tensor:
#      x y z
#    x 1.833980 0.000000 0.000000 
#    y 0.000000 1.837220 0.000000 
#    z 0.000000 0.000000 1.834400 
# 
# From -- ./inp_files/8272.got.cif
#   From: 2010.03.12/outbox.cif.g09.slc.cpg/sg33_5_cif.got.tgz:8272.got - 2010.04.14 01:49:19.
