data_PCOD8171277
_publ_section_title
;
Structure prediction by ZEFSAII (Michael W. Deem and Ramdas Pophale) SiO2 
 PCOD8171277
Probable space group: P N A 21
;
_chemical_formula_sum "Si O2"
_cell_formula_units_Z 24
_cell_length_a 9.269537
_cell_length_b 13.306922
_cell_length_c 8.371423
_cell_angle_alpha 90.000000
_cell_angle_beta 90.000000
_cell_angle_gamma 90.000000
_cell_volume 1032.606704
_symmetry_space_group_name_H-M "P N A 21"
_symmetry_group_IT_number 33
_symmetry_cell_setting 'orthorhombic'
loop_
_space_group_symop_operation_xyz
x,y,z
-x,-y,1/2+z
1/2-x,1/2+y,1/2+z
1/2+x,1/2-y,z
loop_
_atom_site_type_symbol
_atom_site_label
_atom_site_fract_x
_atom_site_fract_y
_atom_site_fract_z
Si Si1 0.733870 0.794029 0.200950
Si Si2 0.014972 0.826901 0.006179
Si Si3 0.830009 0.986071 0.626415
Si Si4 0.542585 0.688036 0.639634
Si Si5 0.924524 0.398195 0.967448
Si Si6 0.764337 0.603291 0.410997
O O1 0.593870 0.755562 0.110641
O O2 0.676719 0.885141 0.311096
O O3 0.796263 0.704385 0.309882
O O4 0.851392 0.833435 0.072754
O O5 0.088673 0.935690 0.013272
O O6 0.035939 0.789257 0.826383
O O7 0.661845 0.974608 0.580946
O O8 0.900513 0.877186 0.602039
O O9 0.835884 0.026250 0.809216
O O10 0.535598 0.791569 0.546119
O O11 0.683911 0.627016 0.578585
O O12 0.080238 0.448997 0.937893
#
# Coordination Sequence:
#
# PCOD8171277 Si02
#       6
#     4   4   4   4   4   4
#     4  10  22  44  70  97 140 183 225 284 363 426
#     4  11  25  42  70 104 136 181 238 288 355 429
#     4  11  26  45  67 103 135 186 240 286 363 421
#     4  11  24  44  71 102 136 185 235 293 357 431
#     4  11  24  45  71  98 143 188 229 296 363 426
#     4  10  23  46  67 100 138 185 233 291 355 427
#
# _framework density 23.242152000000001
#
# number of rings (size 3 to 8) (size 9 to 14) (size 15 to 20)
#    0.000    1.333    1.667    3.000   11.667    1.333 
#    6.000    0.000    0.000    0.000    0.000    0.000 
#    0.000    0.000    0.000    0.000    0.000    0.000 
#
# Total GULP energy -297600.140955 kJ/mol
# GULP energy per Si atom -12400.005873 kJ/mol
# Density = 2.318925 g / cm^3
# Si number density = 23.242152 Si / 1000 Ang^3
#
#
#
# Elastic Constant Matrix: (Units=GPa)
#
#
# Indices 1 2 3 4 5 6 
#
# 1 108.3398 0.0729 29.1437 0.0000 0.0000 0.0000
# 2 0.0729 50.3006 3.1157 0.0000 0.0000 0.0000
# 3 29.1437 3.1157 120.3127 0.0000 0.0000 0.0000
# 4 0.0000 0.0000 0.0000 23.4833 0.0000 0.0000
# 5 0.0000 0.0000 0.0000 0.0000 43.2734 0.0000
# 6 0.0000 0.0000 0.0000 0.0000 0.0000 39.7687
#
#
#
# Elastic Compliance Matrix: (Units=1/GPa)
#
#
# Indices 1 2 3 4 5 6 
#
# 1 0.009874 0.000134 -0.002395 0.000000 0.000000 0.000000
# 2 0.000134 0.019914 -0.000548 0.000000 0.000000 0.000000
# 3 -0.002395 -0.000548 0.008906 0.000000 0.000000 0.000000
# 4 0.000000 0.000000 0.000000 0.042584 0.000000 0.000000
# 5 0.000000 0.000000 0.000000 0.000000 0.023109 0.000000
# 6 0.000000 0.000000 0.000000 0.000000 0.000000 0.025145
#
#
# Mechanical properties :
#
#
# Convention : Reuss Voigt Hill
#
# Bulk Modulus (GPa) = 30.23358 38.17974 34.20666
# Shear Modulus (GPa) = 34.20511 37.74645 35.97578
#
# Velocity S-wave (km/s) = 3.84042 4.03432 3.93856
# Velocity P-wave (km/s) = 5.71851 6.17767 5.95252
#
# Compressibility (1/GPa) = 0.03307581
#
# Stress axis : x y z
#
# Youngs Moduli (GPa) = 101.27095 50.21530 112.28242
#
# Poissons Ratio (x) = -0.00673 0.26896
# Poissons Ratio (y) = -0.01358 0.06155
# Poissons Ratio (z) = 0.24258 0.02753
#
# Static dielectric constant tensor:
#      x y z
#    x 4.187890 0.000000 0.000000 
#    y 0.000000 3.856440 0.000000 
#    z 0.000000 0.000000 4.615630 
# 
# 
# High freq. dielectric constant tensor:
#      x y z
#    x 1.930160 0.000000 0.000000 
#    y 0.000000 1.899650 0.000000 
#    z 0.000000 0.000000 1.921240 
# 
# From -- ./inp_files/3140.got.cif
#   From: 2010.03.12/outbox.cif.g09.slc.cpg/sg33_2_cif.got.tgz:3140.got - 2010.04.14 01:49:19.
