data_PCOD8171780
_publ_section_title
;
Structure prediction by ZEFSAII (Michael W. Deem and Ramdas Pophale) SiO2 
 PCOD8171780
Probable space group: P N A 21
;
_chemical_formula_sum "Si O2"
_cell_formula_units_Z 28
_cell_length_a 8.049660
_cell_length_b 13.233931
_cell_length_c 11.099805
_cell_angle_alpha 90.000000
_cell_angle_beta 90.000000
_cell_angle_gamma 90.000000
_cell_volume 1182.447187
_symmetry_space_group_name_H-M "P N A 21"
_symmetry_group_IT_number 33
_symmetry_cell_setting 'orthorhombic'
loop_
_space_group_symop_operation_xyz
x,y,z
-x,-y,1/2+z
1/2-x,1/2+y,1/2+z
1/2+x,1/2-y,z
loop_
_atom_site_type_symbol
_atom_site_label
_atom_site_fract_x
_atom_site_fract_y
_atom_site_fract_z
Si Si1 0.180949 0.204064 0.415430
Si Si2 0.688433 0.792693 0.456640
Si Si3 0.470520 0.170608 0.579707
Si Si4 0.068936 0.054838 0.238269
Si Si5 0.751407 0.673777 0.686881
Si Si6 0.567465 0.944055 0.626898
Si Si7 0.521753 0.329814 0.791203
O O1 0.281444 0.167090 0.533747
O O2 0.078691 0.105126 0.371293
O O3 0.278745 0.254474 0.302899
O O4 0.062712 0.292429 0.460613
O O5 0.784856 0.746650 0.572206
O O6 0.573076 0.887465 0.497269
O O7 0.584393 0.698892 0.407540
O O8 0.792718 0.834700 0.343147
O O9 0.498909 0.245824 0.689608
O O10 0.534024 0.061602 0.616236
O O11 0.249708 0.071972 0.181224
O O12 0.916900 0.108528 0.166930
O O13 0.032586 0.936894 0.240560
O O14 0.916938 0.605230 0.704382
#
# Coordination Sequence:
#
# PCOD8171780 Si02
#       7
#     4   4   4   4   4   4   4
#     4  12  25  51  76 107 156 196 257 317 375 454
#     4  12  25  51  76 107 156 196 257 317 375 454
#     4  12  29  48  74 115 157 198 250 316 384 456
#     4  12  27  48  81 113 152 202 258 314 385 447
#     4  12  26  52  82 112 144 202 264 318 372 456
#     4  12  27  48  81 113 152 202 258 314 385 447
#     4  12  29  48  74 115 157 198 250 316 384 456
#
# _framework density 23.679701999999999
#
# number of rings (size 3 to 8) (size 9 to 14) (size 15 to 20)
#    0.000    0.000    4.286    5.143    8.000    2.286 
#    0.000    0.000    0.000    0.000    0.000    0.000 
#    0.000    0.000    0.000    0.000    0.000    0.000 
#
# Total GULP energy -347068.327647 kJ/mol
# GULP energy per Si atom -12395.297416 kJ/mol
# Density = 2.362581 g / cm^3
# Si number density = 23.679702 Si / 1000 Ang^3
#
#
#
# Elastic Constant Matrix: (Units=GPa)
#
#
# Indices 1 2 3 4 5 6 
#
# 1 130.6292 38.7515 19.7591 0.0000 0.0000 0.0000
# 2 38.7515 97.3448 13.9432 0.0000 0.0000 0.0000
# 3 19.7591 13.9432 90.1259 0.0000 0.0000 0.0000
# 4 0.0000 0.0000 0.0000 34.8360 0.0000 0.0000
# 5 0.0000 0.0000 0.0000 0.0000 49.6091 0.0000
# 6 0.0000 0.0000 0.0000 0.0000 0.0000 33.8477
#
#
#
# Elastic Compliance Matrix: (Units=1/GPa)
#
#
# Indices 1 2 3 4 5 6 
#
# 1 0.008856 -0.003321 -0.001428 0.000000 0.000000 0.000000
# 2 -0.003321 0.011751 -0.001090 0.000000 0.000000 0.000000
# 3 -0.001428 -0.001090 0.011577 0.000000 0.000000 0.000000
# 4 0.000000 0.000000 0.000000 0.028706 0.000000 0.000000
# 5 0.000000 0.000000 0.000000 0.000000 0.020158 0.000000
# 6 0.000000 0.000000 0.000000 0.000000 0.000000 0.029544
#
#
# Mechanical properties :
#
#
# Convention : Reuss Voigt Hill
#
# Bulk Modulus (GPa) = 48.76388 51.44528 50.10458
# Shear Modulus (GPa) = 38.72798 40.03496 39.38147
#
# Velocity S-wave (km/s) = 4.04851 4.11626 4.08252
# Velocity P-wave (km/s) = 6.51857 6.66064 6.58998
#
# Compressibility (1/GPa) = 0.02050698
#
# Stress axis : x y z
#
# Youngs Moduli (GPa) = 112.91200 85.09949 86.37630
#
# Poissons Ratio (x) = 0.28262 0.12333
# Poissons Ratio (y) = 0.37499 0.09414
# Poissons Ratio (z) = 0.16122 0.09275
#
# Static dielectric constant tensor:
#      x y z
#    x 4.757360 0.000000 0.000000 
#    y 0.000000 4.272760 0.000000 
#    z 0.000000 0.000000 5.146390 
# 
# 
# High freq. dielectric constant tensor:
#      x y z
#    x 1.947950 0.000000 0.000000 
#    y 0.000000 1.946090 0.000000 
#    z 0.000000 0.000000 1.939040 
# 
# From -- ./inp_files/5863.got.cif
#   From: 2010.03.12/outbox.cif.g09.slc.cpg/sg33_3_cif.got.tgz:5863.got - 2010.04.14 01:49:19.
