data_PCOD8171754
_publ_section_title
;
Structure prediction by ZEFSAII (Michael W. Deem and Ramdas Pophale) SiO2 
 PCOD8171754
Probable space group: P N A 21
;
_chemical_formula_sum "Si O2"
_cell_formula_units_Z 32
_cell_length_a 9.403787
_cell_length_b 7.456239
_cell_length_c 20.849571
_cell_angle_alpha 90.000000
_cell_angle_beta 90.000000
_cell_angle_gamma 90.000000
_cell_volume 1461.906938
_symmetry_space_group_name_H-M "P N A 21"
_symmetry_group_IT_number 33
_symmetry_cell_setting 'orthorhombic'
loop_
_space_group_symop_operation_xyz
x,y,z
-x,-y,1/2+z
1/2-x,1/2+y,1/2+z
1/2+x,1/2-y,z
loop_
_atom_site_type_symbol
_atom_site_label
_atom_site_fract_x
_atom_site_fract_y
_atom_site_fract_z
Si Si1 0.768723 0.462638 0.953390
Si Si2 0.704660 0.826453 0.881241
Si Si3 0.051096 0.340990 0.156293
Si Si4 0.907964 0.814737 0.266367
Si Si5 0.031586 0.190329 0.296126
Si Si6 0.751294 0.449280 0.103156
Si Si7 0.067671 0.331156 0.903271
Si Si8 0.346261 0.212420 0.680000
O O1 0.752511 0.662716 0.925724
O O2 0.628609 0.351054 0.934091
O O3 0.908499 0.364087 0.927413
O O4 0.782064 0.477460 0.029038
O O5 0.817544 0.866209 0.825410
O O6 0.550745 0.805707 0.848569
O O7 0.676333 0.007058 0.922792
O O8 0.059499 0.299122 0.231543
O O9 0.118369 0.182691 0.114133
O O10 0.142070 0.521798 0.143647
O O11 0.887588 0.363286 0.137125
O O12 0.937398 0.685875 0.326199
O O13 0.745013 0.796814 0.245130
O O14 0.997068 0.763613 0.203509
O O15 0.934215 0.019307 0.284062
O O16 0.715047 0.643519 0.130949
#
# Coordination Sequence:
#
# PCOD8171754 Si02
#       8
#     4   4   4   4   4   4   4   4
#     4  12  28  48  69 100 141 192 242 282 343 421
#     4  12  25  45  69 107 140 183 227 296 355 422
#     4  12  26  47  73 105 141 184 234 296 355 417
#     4  12  23  43  72 107 142 174 230 290 364 416
#     4  12  23  43  72 107 142 174 230 290 364 416
#     4  12  28  48  69 100 141 192 242 282 343 421
#     4  12  26  47  73 105 141 184 234 296 355 417
#     4  12  25  45  69 107 140 183 227 296 355 422
#
# _framework density 21.889219000000001
#
# number of rings (size 3 to 8) (size 9 to 14) (size 15 to 20)
#    0.000    0.000    5.000    6.000    0.000    2.000 
#    0.000    0.000    0.000    0.000    0.000    0.000 
#    0.000    0.000    0.000    0.000    0.000    0.000 
#
# Total GULP energy -396991.681759 kJ/mol
# GULP energy per Si atom -12405.990055 kJ/mol
# Density = 2.183940 g / cm^3
# Si number density = 21.889219 Si / 1000 Ang^3
#
#
#
# Elastic Constant Matrix: (Units=GPa)
#
#
# Indices 1 2 3 4 5 6 
#
# 1 71.5044 3.7589 -3.8065 0.0000 0.0000 0.0000
# 2 3.7589 106.2193 4.0339 0.0000 0.0000 0.0000
# 3 -3.8065 4.0339 62.8230 0.0000 0.0000 0.0000
# 4 0.0000 0.0000 0.0000 19.4826 0.0000 0.0000
# 5 0.0000 0.0000 0.0000 0.0000 13.8390 0.0000
# 6 0.0000 0.0000 0.0000 0.0000 0.0000 42.3185
#
#
#
# Elastic Compliance Matrix: (Units=1/GPa)
#
#
# Indices 1 2 3 4 5 6 
#
# 1 0.014060 -0.000531 0.000886 0.000000 0.000000 0.000000
# 2 -0.000531 0.009458 -0.000639 0.000000 0.000000 0.000000
# 3 0.000886 -0.000639 0.016012 0.000000 0.000000 0.000000
# 4 0.000000 0.000000 0.000000 0.051328 0.000000 0.000000
# 5 0.000000 0.000000 0.000000 0.000000 0.072259 0.000000
# 6 0.000000 0.000000 0.000000 0.000000 0.000000 0.023630
#
#
# Mechanical properties :
#
#
# Convention : Reuss Voigt Hill
#
# Bulk Modulus (GPa) = 25.66667 27.61324 26.63995
# Shear Modulus (GPa) = 24.96203 30.89872 27.93038
#
# Velocity S-wave (km/s) = 3.38061 3.76120 3.57597
# Velocity P-wave (km/s) = 5.19512 5.61289 5.40804
#
# Compressibility (1/GPa) = 0.03896104
#
# Stress axis : x y z
#
# Youngs Moduli (GPa) = 71.12248 105.73546 62.45125
#
# Poissons Ratio (x) = 0.05617 -0.05533
# Poissons Ratio (y) = 0.03778 0.03993
# Poissons Ratio (z) = -0.06302 0.06761
#
# Static dielectric constant tensor:
#      x y z
#    x 3.989640 0.000000 0.000000 
#    y 0.000000 4.218060 0.000000 
#    z 0.000000 0.000000 3.782070 
# 
# 
# High freq. dielectric constant tensor:
#      x y z
#    x 1.875280 0.000000 0.000000 
#    y 0.000000 1.881580 0.000000 
#    z 0.000000 0.000000 1.844510 
# 
# From -- ./inp_files/8977.got.cif
#   From: 2010.03.12/outbox.cif.g09.slc.cpg/sg33_5_cif.got.tgz:8977.got - 2010.04.14 01:49:19.
