data_PCOD8171412
_publ_section_title
;
Structure prediction by ZEFSAII (Michael W. Deem and Ramdas Pophale) SiO2 
 PCOD8171412
Probable space group: P N A 21
;
_chemical_formula_sum "Si O2"
_cell_formula_units_Z 28
_cell_length_a 12.321366
_cell_length_b 6.883472
_cell_length_c 15.528861
_cell_angle_alpha 90.000000
_cell_angle_beta 90.000000
_cell_angle_gamma 90.000000
_cell_volume 1317.061367
_symmetry_space_group_name_H-M "P N A 21"
_symmetry_group_IT_number 33
_symmetry_cell_setting 'orthorhombic'
loop_
_space_group_symop_operation_xyz
x,y,z
-x,-y,1/2+z
1/2-x,1/2+y,1/2+z
1/2+x,1/2-y,z
loop_
_atom_site_type_symbol
_atom_site_label
_atom_site_fract_x
_atom_site_fract_y
_atom_site_fract_z
Si Si1 0.940096 0.978012 0.370360
Si Si2 0.525527 0.116833 0.322753
Si Si3 0.572217 0.683005 0.523013
Si Si4 0.422762 0.798720 0.224848
Si Si5 0.286841 0.652011 0.085389
Si Si6 0.710307 0.005287 0.453808
Si Si7 0.422001 0.938677 0.639472
O O1 0.952786 0.900500 0.272924
O O2 0.024245 0.863510 0.429590
O O3 0.817630 0.946762 0.402437
O O4 0.968794 0.203124 0.367748
O O5 0.610115 0.029405 0.389474
O O6 0.591924 0.161275 0.234045
O O7 0.425929 0.968026 0.298616
O O8 0.608113 0.481239 0.566689
O O9 0.479097 0.781700 0.579372
O O10 0.675555 0.827191 0.515485
O O11 0.308462 0.770034 0.174741
O O12 0.508656 0.861283 0.150544
O O13 0.188846 0.502579 0.095746
O O14 0.264774 0.800791 0.008040
#
# Coordination Sequence:
#
# PCOD8171412 Si02
#       7
#     4   4   4   4   4   4   4
#     4  12  25  42  73  97 137 188 222 290 354 401
#     4  10  23  47  64 100 141 173 232 286 337 422
#     4  12  24  46  67 105 142 180 234 291 344 416
#     4  10  24  46  67  94 142 174 232 284 340 412
#     4  12  25  44  73 102 137 191 229 288 352 409
#     4  12  25  43  69 106 136 183 237 281 350 421
#     4  10  24  46  69  98 143 177 234 286 343 417
#
# _framework density 21.259450000000001
#
# number of rings (size 3 to 8) (size 9 to 14) (size 15 to 20)
#    0.857    0.000    4.286    2.571    4.000    1.143 
#    5.143    0.000    0.000    0.000    0.000    0.000 
#    0.000    0.000    0.000    0.000    0.000    0.000 
#
# Total GULP energy -347061.725913 kJ/mol
# GULP energy per Si atom -12395.061640 kJ/mol
# Density = 2.121106 g / cm^3
# Si number density = 21.259450 Si / 1000 Ang^3
#
#
#
# Elastic Constant Matrix: (Units=GPa)
#
#
# Indices 1 2 3 4 5 6 
#
# 1 61.2843 35.5386 10.8471 0.0000 0.0000 0.0000
# 2 35.5386 86.5304 28.7219 0.0000 0.0000 0.0000
# 3 10.8471 28.7219 74.1269 0.0000 0.0000 0.0000
# 4 0.0000 0.0000 0.0000 44.1682 0.0000 0.0000
# 5 0.0000 0.0000 0.0000 0.0000 31.3180 0.0000
# 6 0.0000 0.0000 0.0000 0.0000 0.0000 27.1418
#
#
#
# Elastic Compliance Matrix: (Units=1/GPa)
#
#
# Indices 1 2 3 4 5 6 
#
# 1 0.021425 -0.008904 0.000315 0.000000 0.000000 0.000000
# 2 -0.008904 0.016963 -0.005270 0.000000 0.000000 0.000000
# 3 0.000315 -0.005270 0.015486 0.000000 0.000000 0.000000
# 4 0.000000 0.000000 0.000000 0.022641 0.000000 0.000000
# 5 0.000000 0.000000 0.000000 0.000000 0.031931 0.000000
# 6 0.000000 0.000000 0.000000 0.000000 0.000000 0.036844
#
#
# Mechanical properties :
#
#
# Convention : Reuss Voigt Hill
#
# Bulk Modulus (GPa) = 38.23147 41.35076 39.79111
# Shear Modulus (GPa) = 27.51415 30.31452 28.91433
#
# Velocity S-wave (km/s) = 3.60141 3.78025 3.69191
# Velocity P-wave (km/s) = 5.94272 6.20858 6.07710
#
# Compressibility (1/GPa) = 0.02615647
#
# Stress axis : x y z
#
# Youngs Moduli (GPa) = 46.67446 58.95305 64.57396
#
# Poissons Ratio (x) = 0.52491 -0.02033
# Poissons Ratio (y) = 0.41558 0.34028
# Poissons Ratio (z) = -0.01469 0.31066
#
# Static dielectric constant tensor:
#      x y z
#    x 3.573870 0.000000 0.000000 
#    y 0.000000 3.808860 0.000000 
#    z 0.000000 0.000000 3.863670 
# 
# 
# High freq. dielectric constant tensor:
#      x y z
#    x 1.815190 0.000000 0.000000 
#    y 0.000000 1.840470 0.000000 
#    z 0.000000 0.000000 1.844990 
# 
# From -- ./inp_files/8620.got.cif
#   From: 2010.03.12/outbox.cif.g09.slc.cpg/sg33_5_cif.got.tgz:8620.got - 2010.04.14 01:49:19.
