data_PCOD8171814
_publ_section_title
;
Structure prediction by ZEFSAII (Michael W. Deem and Ramdas Pophale) SiO2 
 PCOD8171814
Probable space group: P N A 21
;
_chemical_formula_sum "Si O2"
_cell_formula_units_Z 12
_cell_length_a 9.636640
_cell_length_b 9.046346
_cell_length_c 4.846035
_cell_angle_alpha 90.000000
_cell_angle_beta 90.000000
_cell_angle_gamma 90.000000
_cell_volume 422.459787
_symmetry_space_group_name_H-M "P N A 21"
_symmetry_group_IT_number 33
_symmetry_cell_setting 'orthorhombic'
loop_
_space_group_symop_operation_xyz
x,y,z
-x,-y,1/2+z
1/2-x,1/2+y,1/2+z
1/2+x,1/2-y,z
loop_
_atom_site_type_symbol
_atom_site_label
_atom_site_fract_x
_atom_site_fract_y
_atom_site_fract_z
Si Si1 0.286814 0.751309 0.260120
Si Si2 0.532340 0.593284 0.100466
Si Si3 0.404480 0.980323 0.654731
O O1 0.425357 0.730439 0.072719
O O2 0.325288 0.829330 0.553154
O O3 0.204985 0.596238 0.292402
O O4 0.191948 0.860247 0.074690
O O5 0.503082 0.545469 0.415666
O O6 0.476750 0.050896 0.381313
#
# Coordination Sequence:
#
# PCOD8171814 Si02
#       3
#     4   4   4
#     4  12  28  54  80 122 164 220 276 346 416 500
#     4  12  30  48  80 118 162 214 276 342 410 494
#     4  12  30  52  86 124 170 218 282 348 422 498
#
# _framework density 28.405071
#
# number of rings (size 3 to 8) (size 9 to 14) (size 15 to 20)
#    0.000    0.000    6.667    0.000    9.333    5.333 
#    0.000    0.000    0.000    0.000    0.000    0.000 
#    0.000    0.000    0.000    0.000    0.000    0.000 
#
# Total GULP energy -148720.472918 kJ/mol
# GULP energy per Si atom -12393.372743 kJ/mol
# Density = 2.834042 g / cm^3
# Si number density = 28.405071 Si / 1000 Ang^3
#
#
#
# Elastic Constant Matrix: (Units=GPa)
#
#
# Indices 1 2 3 4 5 6 
#
# 1 161.7606 60.0759 63.3613 0.0000 0.0000 0.0000
# 2 60.0759 143.5384 57.0207 0.0000 0.0000 0.0000
# 3 63.3613 57.0207 109.2609 0.0000 0.0000 0.0000
# 4 0.0000 0.0000 0.0000 43.7949 0.0000 0.0000
# 5 0.0000 0.0000 0.0000 0.0000 24.3259 0.0000
# 6 0.0000 0.0000 0.0000 0.0000 0.0000 40.6230
#
#
#
# Elastic Compliance Matrix: (Units=1/GPa)
#
#
# Indices 1 2 3 4 5 6 
#
# 1 0.008431 -0.002001 -0.003845 0.000000 0.000000 0.000000
# 2 -0.002001 0.009264 -0.003674 0.000000 0.000000 0.000000
# 3 -0.003845 -0.003674 0.013299 0.000000 0.000000 0.000000
# 4 0.000000 0.000000 0.000000 0.022834 0.000000 0.000000
# 5 0.000000 0.000000 0.000000 0.000000 0.041108 0.000000
# 6 0.000000 0.000000 0.000000 0.000000 0.000000 0.024617
#
#
# Mechanical properties :
#
#
# Convention : Reuss Voigt Hill
#
# Bulk Modulus (GPa) = 83.65332 86.16399 84.90865
# Shear Modulus (GPa) = 35.06833 37.35555 36.21194
#
# Velocity S-wave (km/s) = 3.51747 3.63037 3.57436
# Velocity P-wave (km/s) = 6.78313 6.92623 6.85505
#
# Compressibility (1/GPa) = 0.01195410
#
# Stress axis : x y z
#
# Youngs Moduli (GPa) = 118.60537 107.94550 75.19100
#
# Poissons Ratio (x) = 0.21604 0.28910
# Poissons Ratio (y) = 0.23738 0.27625
# Poissons Ratio (z) = 0.45603 0.39659
#
# Static dielectric constant tensor:
#      x y z
#    x 5.690170 0.000000 0.000000 
#    y 0.000000 5.079500 0.000000 
#    z 0.000000 0.000000 4.768500 
# 
# 
# High freq. dielectric constant tensor:
#      x y z
#    x 2.174390 0.000000 0.000000 
#    y 0.000000 2.164020 0.000000 
#    z 0.000000 0.000000 2.135090 
# 
# From -- ./inp_files/240.got.cif
#   From: 2010.03.12/outbox.cif.g09.slc.cpg/sg33_1_cif.got.tgz:240.got - 2010.04.14 01:49:19.
