data_PCOD8171170
_publ_section_title
;
Structure prediction by ZEFSAII (Michael W. Deem and Ramdas Pophale) SiO2 
 PCOD8171170
Probable space group: P N A 21
;
_chemical_formula_sum "Si O2"
_cell_formula_units_Z 32
_cell_length_a 5.307268
_cell_length_b 13.105835
_cell_length_c 15.974919
_cell_angle_alpha 90.000000
_cell_angle_beta 90.000000
_cell_angle_gamma 90.000000
_cell_volume 1111.154321
_symmetry_space_group_name_H-M "P N A 21"
_symmetry_group_IT_number 33
_symmetry_cell_setting 'orthorhombic'
loop_
_space_group_symop_operation_xyz
x,y,z
-x,-y,1/2+z
1/2-x,1/2+y,1/2+z
1/2+x,1/2-y,z
loop_
_atom_site_type_symbol
_atom_site_label
_atom_site_fract_x
_atom_site_fract_y
_atom_site_fract_z
Si Si1 0.578275 0.692401 0.065980
Si Si2 0.187919 0.879040 0.883991
Si Si3 0.191817 0.496386 0.107515
Si Si4 0.455332 0.791790 0.566606
Si Si5 0.277554 0.310793 0.864500
Si Si6 0.759802 0.555710 0.202962
Si Si7 0.471478 0.647775 0.715253
Si Si8 0.788904 0.480257 0.427169
O O1 0.334766 0.753530 0.095705
O O2 0.572566 0.585855 0.122642
O O3 0.612082 0.686749 0.964895
O O4 0.140014 0.815674 0.796685
O O5 0.468946 0.923692 0.887511
O O6 0.971824 0.965282 0.876562
O O7 0.983579 0.412009 0.073175
O O8 0.390628 0.422103 0.147413
O O9 0.048824 0.568766 0.172453
O O10 0.258321 0.561824 0.022750
O O11 0.689095 0.735568 0.519191
O O12 0.371769 0.744377 0.660916
O O13 0.564549 0.275010 0.876574
O O14 0.273187 0.360512 0.773015
O O15 0.179994 0.397819 0.929751
O O16 0.737318 0.439211 0.239536
#
# Coordination Sequence:
#
# PCOD8171170 Si02
#       8
#     4   4   4   4   4   4   4   4
#     4  12  28  48  74 111 151 198 250 309 370 434
#     4  12  26  49  76 106 149 194 251 300 373 445
#     4  11  25  43  78 107 145 194 247 308 373 448
#     4  10  22  40  62 106 138 174 236 298 362 422
#     4  12  28  48  74 111 151 198 250 309 370 434
#     4  12  24  48  76 104 148 198 256 302 368 448
#     4  11  25  43  78 107 145 194 247 308 373 448
#     4  12  26  49  76 106 149 194 251 300 373 445
#
# _framework density 28.798881000000002
#
# number of rings (size 3 to 8) (size 9 to 14) (size 15 to 20)
#    0.000    0.500    3.750    3.750    3.500    4.000 
#    0.000    0.000    0.000    0.000    0.000    0.000 
#    0.000    0.000    0.000    0.000    0.000    0.000 
#
# Total GULP energy -396526.655437 kJ/mol
# GULP energy per Si atom -12391.457982 kJ/mol
# Density = 2.873333 g / cm^3
# Si number density = 28.798881 Si / 1000 Ang^3
#
#
#
# Elastic Constant Matrix: (Units=GPa)
#
#
# Indices 1 2 3 4 5 6 
#
# 1 128.7399 -3.7605 18.2317 0.0000 0.0000 0.0000
# 2 -3.7605 50.4720 -4.9683 0.0000 0.0000 0.0000
# 3 18.2317 -4.9683 121.9112 0.0000 0.0000 0.0000
# 4 0.0000 0.0000 0.0000 47.8730 0.0000 0.0000
# 5 0.0000 0.0000 0.0000 0.0000 45.3377 0.0000
# 6 0.0000 0.0000 0.0000 0.0000 0.0000 36.6979
#
#
#
# Elastic Compliance Matrix: (Units=1/GPa)
#
#
# Indices 1 2 3 4 5 6 
#
# 1 0.007947 0.000477 -0.001169 0.000000 0.000000 0.000000
# 2 0.000477 0.019921 0.000741 0.000000 0.000000 0.000000
# 3 -0.001169 0.000741 0.008408 0.000000 0.000000 0.000000
# 4 0.000000 0.000000 0.000000 0.020889 0.000000 0.000000
# 5 0.000000 0.000000 0.000000 0.000000 0.022057 0.000000
# 6 0.000000 0.000000 0.000000 0.000000 0.000000 0.027250
#
#
# Mechanical properties :
#
#
# Convention : Reuss Voigt Hill
#
# Bulk Modulus (GPa) = 27.49272 35.56985 31.53129
# Shear Modulus (GPa) = 42.19466 45.42305 43.80886
#
# Velocity S-wave (km/s) = 3.83188 3.97577 3.90449
# Velocity P-wave (km/s) = 5.39860 5.78391 5.59457
#
# Compressibility (1/GPa) = 0.03637327
#
# Stress axis : x y z
#
# Youngs Moduli (GPa) = 125.83220 50.19724 118.93859
#
# Poissons Ratio (x) = -0.02395 0.13904
# Poissons Ratio (y) = -0.06003 -0.08808
# Poissons Ratio (z) = 0.14710 -0.03717
#
# Static dielectric constant tensor:
#      x y z
#    x 5.492270 0.000000 0.000000 
#    y 0.000000 7.025460 0.000000 
#    z 0.000000 0.000000 5.629140 
# 
# 
# High freq. dielectric constant tensor:
#      x y z
#    x 2.186220 0.000000 0.000000 
#    y 0.000000 2.171360 0.000000 
#    z 0.000000 0.000000 2.197550 
# 
# From -- ./inp_files/8362.got.cif
#   From: 2010.03.12/outbox.cif.g09.slc.cpg/sg33_5_cif.got.tgz:8362.got - 2010.04.14 01:49:19.
