data_PCOD8171455
_publ_section_title
;
Structure prediction by ZEFSAII (Michael W. Deem and Ramdas Pophale) SiO2 
 PCOD8171455
Probable space group: P N A 21
;
_chemical_formula_sum "Si O2"
_cell_formula_units_Z 32
_cell_length_a 15.565383
_cell_length_b 11.402316
_cell_length_c 8.377313
_cell_angle_alpha 90.000000
_cell_angle_beta 90.000000
_cell_angle_gamma 90.000000
_cell_volume 1486.817370
_symmetry_space_group_name_H-M "P N A 21"
_symmetry_group_IT_number 33
_symmetry_cell_setting 'orthorhombic'
loop_
_space_group_symop_operation_xyz
x,y,z
-x,-y,1/2+z
1/2-x,1/2+y,1/2+z
1/2+x,1/2-y,z
loop_
_atom_site_type_symbol
_atom_site_label
_atom_site_fract_x
_atom_site_fract_y
_atom_site_fract_z
Si Si1 0.206554 0.513523 0.616690
Si Si2 0.904325 0.180456 0.892521
Si Si3 0.860064 0.935350 0.824932
Si Si4 0.963790 0.432496 0.298633
Si Si5 0.474682 0.160367 0.647759
Si Si6 0.938830 0.752804 0.607454
Si Si7 0.771532 0.777625 0.424109
Si Si8 0.156792 0.255557 0.585598
O O1 0.275907 0.499038 0.756841
O O2 0.250282 0.590971 0.480105
O O3 0.185178 0.387752 0.538473
O O4 0.121908 0.574904 0.691154
O O5 0.811067 0.200085 0.970245
O O6 0.904172 0.249869 0.721129
O O7 0.919318 0.040396 0.890633
O O8 0.981128 0.235189 0.991758
O O9 0.919469 0.875464 0.692524
O O10 0.825295 0.838020 0.947489
O O11 0.943195 0.402590 0.484069
O O12 0.037556 0.343913 0.239132
O O13 0.002895 0.562824 0.282587
O O14 0.555696 0.244153 0.618162
O O15 0.852912 0.716697 0.511043
O O16 0.790134 0.787090 0.237680
#
# Coordination Sequence:
#
# PCOD8171455 Si02
#       8
#     4   4   4   4   4   4   4   4
#     4  10  24  44  67 102 134 179 237 282 348 418
#     4  12  25  45  67 100 140 186 230 279 354 417
#     4  11  26  43  67 101 139 184 228 287 347 423
#     4  11  23  43  71 101 136 182 235 294 341 404
#     4  11  25  41  70 100 138 180 233 285 345 412
#     4  11  24  44  69  98 141 180 235 282 349 416
#     4  11  24  45  68  99 139 180 228 292 341 415
#     4  11  23  47  65  99 139 177 228 293 343 409
#
# _framework density 21.522483000000001
#
# number of rings (size 3 to 8) (size 9 to 14) (size 15 to 20)
#    0.000    1.000    5.000    0.750    7.000    0.000 
#    4.500    2.500    0.000    0.000    0.000    0.000 
#    0.000    0.000    0.000    0.000    0.000    0.000 
#
# Total GULP energy -396768.241883 kJ/mol
# GULP energy per Si atom -12399.007559 kJ/mol
# Density = 2.147350 g / cm^3
# Si number density = 21.522483 Si / 1000 Ang^3
#
#
#
# Elastic Constant Matrix: (Units=GPa)
#
#
# Indices 1 2 3 4 5 6 
#
# 1 108.5481 33.9486 29.6886 0.0000 0.0000 0.0000
# 2 33.9486 109.5938 42.2122 0.0000 0.0000 0.0000
# 3 29.6886 42.2122 93.0770 0.0000 0.0000 0.0000
# 4 0.0000 0.0000 0.0000 38.3306 0.0000 0.0000
# 5 0.0000 0.0000 0.0000 0.0000 24.1153 0.0000
# 6 0.0000 0.0000 0.0000 0.0000 0.0000 29.9510
#
#
#
# Elastic Compliance Matrix: (Units=1/GPa)
#
#
# Indices 1 2 3 4 5 6 
#
# 1 0.010589 -0.002398 -0.002290 0.000000 0.000000 0.000000
# 2 -0.002398 0.011599 -0.004495 0.000000 0.000000 0.000000
# 3 -0.002290 -0.004495 0.013513 0.000000 0.000000 0.000000
# 4 0.000000 0.000000 0.000000 0.026089 0.000000 0.000000
# 5 0.000000 0.000000 0.000000 0.000000 0.041468 0.000000
# 6 0.000000 0.000000 0.000000 0.000000 0.000000 0.033388
#
#
# Mechanical properties :
#
#
# Convention : Reuss Voigt Hill
#
# Bulk Modulus (GPa) = 57.69049 58.10197 57.89623
# Shear Modulus (GPa) = 31.09651 32.17067 31.63359
#
# Velocity S-wave (km/s) = 3.80523 3.87039 3.83795
# Velocity P-wave (km/s) = 6.79480 6.85768 6.82631
#
# Compressibility (1/GPa) = 0.01733388
#
# Stress axis : x y z
#
# Youngs Moduli (GPa) = 94.43934 86.21466 74.00289
#
# Poissons Ratio (x) = 0.20675 0.16946
# Poissons Ratio (y) = 0.22647 0.33268
# Poissons Ratio (z) = 0.21626 0.38757
#
# Static dielectric constant tensor:
#      x y z
#    x 3.980230 0.000000 0.000000 
#    y 0.000000 3.822160 0.000000 
#    z 0.000000 0.000000 3.875490 
# 
# 
# High freq. dielectric constant tensor:
#      x y z
#    x 1.850610 0.000000 0.000000 
#    y 0.000000 1.848040 0.000000 
#    z 0.000000 0.000000 1.838860 
# 
# From -- ./inp_files/4456.got.cif
#   From: 2010.03.12/outbox.cif.g09.slc.cpg/sg33_3_cif.got.tgz:4456.got - 2010.04.14 01:49:19.
