data_PCOD8171928
_publ_section_title
;
Structure prediction by ZEFSAII (Michael W. Deem and Ramdas Pophale) SiO2 
 PCOD8171928
Probable space group: P N N 2
;
_chemical_formula_sum "Si O2"
_cell_formula_units_Z 24
_cell_length_a 8.372624
_cell_length_b 5.483528
_cell_length_c 24.093458
_cell_angle_alpha 90.000000
_cell_angle_beta 90.000000
_cell_angle_gamma 90.000000
_cell_volume 1106.167234
_symmetry_space_group_name_H-M "P N N 2"
_symmetry_group_IT_number 34
_symmetry_cell_setting 'orthorhombic'
loop_
_space_group_symop_operation_xyz
x,y,z
-x,-y,z
1/2-x,1/2+y,1/2+z
1/2+x,1/2-y,1/2+z
loop_
_atom_site_type_symbol
_atom_site_label
_atom_site_fract_x
_atom_site_fract_y
_atom_site_fract_z
Si Si1 0.000000 0.500000 0.168211
Si Si2 0.315347 0.453883 0.934544
Si Si3 0.172522 0.880226 0.108624
Si Si4 0.500000 0.500000 0.258382
Si Si5 0.812529 0.047701 0.985401
Si Si6 0.672593 0.116653 0.316995
Si Si7 0.253534 0.159419 0.211251
O O1 0.141016 0.603534 0.128545
O O2 0.087083 0.306123 0.207653
O O3 0.500000 0.500000 0.945119
O O4 0.223578 0.704265 0.951064
O O5 0.283035 0.398147 0.870393
O O6 0.270328 0.204532 0.966707
O O7 0.282668 0.006847 0.154960
O O8 0.249897 0.895860 0.047818
O O9 0.000000 0.000000 0.106707
O O10 0.638026 0.394482 0.298692
O O11 0.417733 0.307370 0.217733
O O12 0.000000 0.000000 0.981649
O O13 0.500000 0.000000 0.328929
O O14 0.768995 0.001603 0.265968
#
# Coordination Sequence:
#
# PCOD8171928 Si02
#       7
#     2   4   4   2   4   4   4
#     4  10  20  38  66  98 132 170 220 284 336 408
#     4  12  28  47  69 106 144 179 233 300 357 404
#     4   9  21  38  66  98 128 174 230 275 332 409
#     4  10  22  40  64  96 132 174 224 278 334 424
#     4  11  25  47  76 101 136 191 241 281 340 424
#     4  10  23  42  65  95 128 182 234 274 338 422
#     4  10  21  39  63 101 130 169 218 278 338 407
#
# _framework density 21.696539999999999
#
# number of rings (size 3 to 8) (size 9 to 14) (size 15 to 20)
#    0.000    1.667    0.000    3.000   12.833    3.333 
#    1.500    5.000    0.000    0.000    0.000    0.000 
#    0.000    0.000    0.000    0.000    0.000    0.000 
#
# Total GULP energy -297434.604248 kJ/mol
# GULP energy per Si atom -12393.108510 kJ/mol
# Density = 2.164716 g / cm^3
# Si number density = 21.696540 Si / 1000 Ang^3
#
#
#
# Elastic Constant Matrix: (Units=GPa)
#
#
# Indices 1 2 3 4 5 6 
#
# 1 77.2878 45.4380 54.5359 0.0000 0.0000 0.0000
# 2 45.4380 156.5729 75.7451 0.0000 0.0000 0.0000
# 3 54.5359 75.7451 175.6462 0.0000 0.0000 0.0000
# 4 0.0000 0.0000 0.0000 102.2959 0.0000 0.0000
# 5 0.0000 0.0000 0.0000 0.0000 32.5058 0.0000
# 6 0.0000 0.0000 0.0000 0.0000 0.0000 36.4224
#
#
#
# Elastic Compliance Matrix: (Units=1/GPa)
#
#
# Indices 1 2 3 4 5 6 
#
# 1 0.017706 -0.003132 -0.004147 0.000000 0.000000 0.000000
# 2 -0.003132 0.008625 -0.002747 0.000000 0.000000 0.000000
# 3 -0.004147 -0.002747 0.008165 0.000000 0.000000 0.000000
# 4 0.000000 0.000000 0.000000 0.009776 0.000000 0.000000
# 5 0.000000 0.000000 0.000000 0.000000 0.030764 0.000000
# 6 0.000000 0.000000 0.000000 0.000000 0.000000 0.027456
#
#
# Mechanical properties :
#
#
# Convention : Reuss Voigt Hill
#
# Bulk Modulus (GPa) = 69.23066 84.54944 76.89005
# Shear Modulus (GPa) = 39.25960 49.83068 44.54514
#
# Velocity S-wave (km/s) = 4.25842 4.79760 4.53603
# Velocity P-wave (km/s) = 7.49378 8.35123 7.93410
#
# Compressibility (1/GPa) = 0.01444447
#
# Stress axis : x y z
#
# Youngs Moduli (GPa) = 56.47733 115.94779 122.47013
#
# Poissons Ratio (x) = 0.36319 0.50786
# Poissons Ratio (y) = 0.17691 0.33639
# Poissons Ratio (z) = 0.23420 0.31847
#
# Static dielectric constant tensor:
#      x y z
#    x 3.679040 0.000000 0.000000 
#    y 0.000000 -6.399150 0.000000 
#    z 0.000000 0.000000 4.195560 
# 
# 
# High freq. dielectric constant tensor:
#      x y z
#    x 1.835520 0.000000 0.000000 
#    y 0.000000 1.869590 0.000000 
#    z 0.000000 0.000000 1.856610 
# 
# From -- ./inp_files/8398.got.cif
#   From: 2010.03.12/outbox.cif.g09.slc.cpg/sg34_5_cif.got.tgz:8398.got - 2010.04.14 01:56:33.
