data_PCOD8171991
_publ_section_title
;
Structure prediction by ZEFSAII (Michael W. Deem and Ramdas Pophale) SiO2 
 PCOD8171991
Probable space group: P N N 2
;
_chemical_formula_sum "Si O2"
_cell_formula_units_Z 32
_cell_length_a 12.392772
_cell_length_b 8.653997
_cell_length_c 14.027371
_cell_angle_alpha 90.000000
_cell_angle_beta 90.000000
_cell_angle_gamma 90.000000
_cell_volume 1504.393622
_symmetry_space_group_name_H-M "P N N 2"
_symmetry_group_IT_number 34
_symmetry_cell_setting 'orthorhombic'
loop_
_space_group_symop_operation_xyz
x,y,z
-x,-y,z
1/2-x,1/2+y,1/2+z
1/2+x,1/2-y,1/2+z
loop_
_atom_site_type_symbol
_atom_site_label
_atom_site_fract_x
_atom_site_fract_y
_atom_site_fract_z
Si Si1 0.476585 0.336286 0.438210
Si Si2 0.414944 0.325443 0.227820
Si Si3 0.818248 0.681421 0.008259
Si Si4 0.493983 0.177970 0.744459
Si Si5 0.797623 0.165755 0.317434
Si Si6 0.645452 0.339088 0.185342
Si Si7 0.291550 0.648365 0.699592
Si Si8 0.657077 0.843540 0.569989
O O1 0.500000 0.500000 0.491622
O O2 0.456617 0.377721 0.329771
O O3 0.576782 0.223373 0.448523
O O4 0.369269 0.248289 0.473967
O O5 0.524725 0.268562 0.173296
O O6 0.361645 0.474653 0.179020
O O7 0.327328 0.192346 0.235984
O O8 0.727498 0.634458 0.929410
O O9 0.789474 0.820076 0.083912
O O10 0.846651 0.528381 0.067020
O O11 0.416996 0.260813 0.821462
O O12 0.613011 0.250857 0.745880
O O13 0.437563 0.206399 0.642468
O O14 0.500000 0.000000 0.773214
O O15 0.706248 0.286693 0.282123
O O16 0.802660 0.024381 0.240748
O O17 0.723499 0.286276 0.099417
#
# Coordination Sequence:
#
# PCOD8171991 Si02
#       8
#     4   4   4   4   4   4   4   4
#     4  12  23  36  67 102 127 167 236 294 334 411
#     4  11  21  43  65  91 130 180 224 269 354 417
#     4  12  23  43  63 101 137 179 232 292 349 433
#     4  11  21  43  70  93 132 181 226 281 365 417
#     4  11  25  41  66 100 141 172 230 298 352 412
#     4  10  21  42  62  89 127 180 215 270 344 410
#     4  12  24  40  70 101 135 184 231 288 360 422
#     4  11  22  39  67  93 132 170 222 285 349 411
#
# _framework density 21.271028999999999
#
# number of rings (size 3 to 8) (size 9 to 14) (size 15 to 20)
#    0.000    0.750    6.250    2.250    3.500    0.500 
#    0.000    3.750    2.750    0.000    0.000    0.000 
#    0.000    0.000    0.000    0.000    0.000    0.000 
#
# Total GULP energy -396537.266455 kJ/mol
# GULP energy per Si atom -12391.789577 kJ/mol
# Density = 2.122262 g / cm^3
# Si number density = 21.271029 Si / 1000 Ang^3
#
#
#
# Elastic Constant Matrix: (Units=GPa)
#
#
# Indices 1 2 3 4 5 6 
#
# 1 159.0586 48.2636 28.0913 0.0000 0.0000 0.0000
# 2 48.2636 82.2854 24.3139 0.0000 0.0000 0.0000
# 3 28.0913 24.3139 83.7600 0.0000 0.0000 0.0000
# 4 0.0000 0.0000 0.0000 23.7663 0.0000 0.0000
# 5 0.0000 0.0000 0.0000 0.0000 30.9282 0.0000
# 6 0.0000 0.0000 0.0000 0.0000 0.0000 33.0546
#
#
#
# Elastic Compliance Matrix: (Units=1/GPa)
#
#
# Indices 1 2 3 4 5 6 
#
# 1 0.007797 -0.004157 -0.001408 0.000000 0.000000 0.000000
# 2 -0.004157 0.015510 -0.003108 0.000000 0.000000 0.000000
# 3 -0.001408 -0.003108 0.013313 0.000000 0.000000 0.000000
# 4 0.000000 0.000000 0.000000 0.042076 0.000000 0.000000
# 5 0.000000 0.000000 0.000000 0.000000 0.032333 0.000000
# 6 0.000000 0.000000 0.000000 0.000000 0.000000 0.030253
#
#
# Mechanical properties :
#
#
# Convention : Reuss Voigt Hill
#
# Bulk Modulus (GPa) = 51.88517 58.49351 55.18934
# Shear Modulus (GPa) = 30.29324 32.51217 31.40271
#
# Velocity S-wave (km/s) = 3.77789 3.91381 3.84645
# Velocity P-wave (km/s) = 6.59358 6.92696 6.76232
#
# Compressibility (1/GPa) = 0.01927333
#
# Stress axis : x y z
#
# Youngs Moduli (GPa) = 128.25229 64.47660 75.11274
#
# Poissons Ratio (x) = 0.26804 0.10578
# Poissons Ratio (y) = 0.53317 0.23344
# Poissons Ratio (z) = 0.18061 0.20038
#
# Static dielectric constant tensor:
#      x y z
#    x 4.091080 0.000000 0.000000 
#    y 0.000000 3.767930 0.000000 
#    z 0.000000 0.000000 3.725890 
# 
# 
# High freq. dielectric constant tensor:
#      x y z
#    x 1.848730 0.000000 0.000000 
#    y 0.000000 1.830440 0.000000 
#    z 0.000000 0.000000 1.809280 
# 
# From -- ./inp_files/6842.got.cif
#   From: 2010.03.12/outbox.cif.g09.slc.cpg/sg34_4_cif.got.tgz:6842.got - 2010.04.14 01:56:33.
