data_PCOD8171204
_publ_section_title
;
Structure prediction by ZEFSAII (Michael W. Deem and Ramdas Pophale) SiO2 
 PCOD8171204
Probable space group: P N A 21
;
_chemical_formula_sum "Si O2"
_cell_formula_units_Z 28
_cell_length_a 10.403678
_cell_length_b 12.163968
_cell_length_c 10.240365
_cell_angle_alpha 90.000000
_cell_angle_beta 90.000000
_cell_angle_gamma 90.000000
_cell_volume 1295.918255
_symmetry_space_group_name_H-M "P N A 21"
_symmetry_group_IT_number 33
_symmetry_cell_setting 'orthorhombic'
loop_
_space_group_symop_operation_xyz
x,y,z
-x,-y,1/2+z
1/2-x,1/2+y,1/2+z
1/2+x,1/2-y,z
loop_
_atom_site_type_symbol
_atom_site_label
_atom_site_fract_x
_atom_site_fract_y
_atom_site_fract_z
Si Si1 0.131480 0.231648 0.114740
Si Si2 0.625180 0.756710 0.454236
Si Si3 0.070050 0.425702 0.271457
Si Si4 0.567640 0.075280 0.573462
Si Si5 0.781057 0.926467 0.319393
Si Si6 0.647356 0.514368 0.068983
Si Si7 0.499112 0.696670 0.200127
O O1 0.099408 0.296614 0.247779
O O2 0.146297 0.102074 0.148101
O O3 0.258395 0.286613 0.046192
O O4 0.012621 0.254079 0.019822
O O5 0.669200 0.880307 0.417473
O O6 0.604452 0.693666 0.316502
O O7 0.968766 0.472136 0.166172
O O8 0.203943 0.487185 0.232062
O O9 0.023834 0.438903 0.421737
O O10 0.721097 0.082944 0.583133
O O11 0.501079 0.186107 0.628442
O O12 0.852528 0.828683 0.244416
O O13 0.880781 0.987414 0.416345
O O14 0.532169 0.593957 0.108462
#
# Coordination Sequence:
#
# PCOD8171204 Si02
#       7
#     4   4   4   4   4   4   4
#     4  11  24  43  70 101 138 188 230 294 351 432
#     4  11  21  43  69  97 135 187 238 279 355 420
#     4  11  24  44  70 100 140 183 237 288 367 417
#     4  11  26  46  69 104 140 183 236 302 349 431
#     4  10  22  41  64  98 137 179 233 293 339 426
#     4  10  24  42  63 100 141 175 231 293 344 421
#     4  12  23  41  71  98 137 189 235 289 357 421
#
# _framework density 21.606300000000001
#
# number of rings (size 3 to 8) (size 9 to 14) (size 15 to 20)
#    0.000    1.143    4.286    3.429    2.000    1.143 
#    7.714    0.000    0.000    0.000    0.000    0.000 
#    0.000    0.000    0.000    0.000    0.000    0.000 
#
# Total GULP energy -346888.730364 kJ/mol
# GULP energy per Si atom -12388.883227 kJ/mol
# Density = 2.155712 g / cm^3
# Si number density = 21.606300 Si / 1000 Ang^3
#
#
#
# Elastic Constant Matrix: (Units=GPa)
#
#
# Indices 1 2 3 4 5 6 
#
# 1 75.5979 10.8628 25.4353 0.0000 0.0000 0.0000
# 2 10.8628 93.2020 23.4529 0.0000 0.0000 0.0000
# 3 25.4353 23.4529 94.2807 0.0000 0.0000 0.0000
# 4 0.0000 0.0000 0.0000 37.0898 0.0000 0.0000
# 5 0.0000 0.0000 0.0000 0.0000 27.0077 0.0000
# 6 0.0000 0.0000 0.0000 0.0000 0.0000 35.8511
#
#
#
# Elastic Compliance Matrix: (Units=1/GPa)
#
#
# Indices 1 2 3 4 5 6 
#
# 1 0.014598 -0.000758 -0.003750 0.000000 0.000000 0.000000
# 2 -0.000758 0.011485 -0.002653 0.000000 0.000000 0.000000
# 3 -0.003750 -0.002653 0.012278 0.000000 0.000000 0.000000
# 4 0.000000 0.000000 0.000000 0.026962 0.000000 0.000000
# 5 0.000000 0.000000 0.000000 0.000000 0.037026 0.000000
# 6 0.000000 0.000000 0.000000 0.000000 0.000000 0.027893
#
#
# Mechanical properties :
#
#
# Convention : Reuss Voigt Hill
#
# Bulk Modulus (GPa) = 41.59533 42.50917 42.05225
# Shear Modulus (GPa) = 32.77028 33.54503 33.15765
#
# Velocity S-wave (km/s) = 3.89871 3.94453 3.92168
# Velocity P-wave (km/s) = 6.28966 6.36104 6.32545
#
# Compressibility (1/GPa) = 0.02404116
#
# Stress axis : x y z
#
# Youngs Moduli (GPa) = 68.50038 87.06868 81.44565
#
# Poissons Ratio (x) = 0.06599 0.30541
# Poissons Ratio (y) = 0.05191 0.21604
# Poissons Ratio (z) = 0.25687 0.23095
#
# Static dielectric constant tensor:
#      x y z
#    x 3.860600 0.000000 0.000000 
#    y 0.000000 3.930490 0.000000 
#    z 0.000000 0.000000 3.972740 
# 
# 
# High freq. dielectric constant tensor:
#      x y z
#    x 1.845880 0.000000 0.000000 
#    y 0.000000 1.849570 0.000000 
#    z 0.000000 0.000000 1.836430 
# 
# From -- ./inp_files/5833.got.cif
#   From: 2010.03.12/outbox.cif.g09.slc.cpg/sg33_3_cif.got.tgz:5833.got - 2010.04.14 01:49:19.
