data_PCOD8171426
_publ_section_title
;
Structure prediction by ZEFSAII (Michael W. Deem and Ramdas Pophale) SiO2 
 PCOD8171426
Probable space group: P N A 21
;
_chemical_formula_sum "Si O2"
_cell_formula_units_Z 32
_cell_length_a 8.091213
_cell_length_b 4.690803
_cell_length_c 27.157747
_cell_angle_alpha 90.000000
_cell_angle_beta 90.000000
_cell_angle_gamma 90.000000
_cell_volume 1030.752903
_symmetry_space_group_name_H-M "P N A 21"
_symmetry_group_IT_number 33
_symmetry_cell_setting 'orthorhombic'
loop_
_space_group_symop_operation_xyz
x,y,z
-x,-y,1/2+z
1/2-x,1/2+y,1/2+z
1/2+x,1/2-y,z
loop_
_atom_site_type_symbol
_atom_site_label
_atom_site_fract_x
_atom_site_fract_y
_atom_site_fract_z
Si Si1 0.630753 0.000000 0.868600
Si Si2 0.779593 0.454739 0.181208
Si Si3 0.923088 0.881497 0.807148
Si Si4 0.276902 0.552921 0.247871
Si Si5 0.776902 0.052921 0.489329
Si Si6 0.576912 0.618503 0.430052
Si Si7 0.720407 0.045261 0.055993
Si Si8 0.500000 0.680743 0.118600
O O1 0.514093 0.269208 0.879741
O O2 0.755687 0.942431 0.915347
O O3 0.755687 0.057570 0.821853
O O4 0.514093 0.730791 0.857459
O O5 0.814518 0.130777 0.197511
O O6 0.644323 0.470160 0.137645
O O7 0.946122 0.610399 0.163117
O O8 0.720718 0.630105 0.230548
O O9 0.873519 0.597091 0.776714
O O10 0.053523 0.075674 0.778522
O O11 0.626482 0.902909 0.460486
O O12 0.814519 0.869223 0.539689
O O13 0.946477 0.075674 0.458678
O O14 0.720719 0.369895 0.506653
O O15 0.553878 0.889601 0.074084
O O16 0.855676 0.029840 0.099555
#
# Coordination Sequence:
#
# PCOD8171426 Si02
#       8
#     4   4   4   4   4   4   4   4
#     4  10  24  44  64 102 140 182 240 294 362 428
#     4  11  24  42  65  98 135 180 233 286 352 422
#     4  10  24  42  69 101 140 186 236 299 359 428
#     4  11  24  43  69  99 137 184 235 290 355 425
#     4  11  24  43  69  99 137 184 235 290 355 425
#     4  10  24  42  69 101 140 186 236 299 359 428
#     4  11  24  42  65  98 135 180 233 286 352 422
#     4  10  24  40  66  96 136 180 228 292 350 416
#
# _framework density 31.045266000000002
#
# number of rings (size 3 to 8) (size 9 to 14) (size 15 to 20)
#    0.000    1.500    0.000    3.000    0.000   18.000 
#    0.000    0.000    0.000    0.000    0.000    0.000 
#    0.000    0.000    0.000    0.000    0.000    0.000 
#
# Total GULP energy -397117.676396 kJ/mol
# GULP energy per Si atom -12409.927387 kJ/mol
# Density = 3.097461 g / cm^3
# Si number density = 31.045266 Si / 1000 Ang^3
#
#
#
# Elastic Constant Matrix: (Units=GPa)
#
#
# Indices 1 2 3 4 5 6 
#
# 1 127.8905 26.2308 9.1251 0.0000 0.0000 0.0000
# 2 26.2308 108.7326 0.8268 0.0000 0.0000 0.0000
# 3 9.1251 0.8268 96.6619 0.0000 0.0000 0.0000
# 4 0.0000 0.0000 0.0000 22.2555 0.0000 0.0000
# 5 0.0000 0.0000 0.0000 0.0000 46.6277 0.0000
# 6 0.0000 0.0000 0.0000 0.0000 0.0000 47.6123
#
#
#
# Elastic Compliance Matrix: (Units=1/GPa)
#
#
# Indices 1 2 3 4 5 6 
#
# 1 0.008282 -0.001992 -0.000765 0.000000 0.000000 0.000000
# 2 -0.001992 0.009677 0.000105 0.000000 0.000000 0.000000
# 3 -0.000765 0.000105 0.010417 0.000000 0.000000 0.000000
# 4 0.000000 0.000000 0.000000 0.044933 0.000000 0.000000
# 5 0.000000 0.000000 0.000000 0.000000 0.021446 0.000000
# 6 0.000000 0.000000 0.000000 0.000000 0.000000 0.021003
#
#
# Mechanical properties :
#
#
# Convention : Reuss Voigt Hill
#
# Bulk Modulus (GPa) = 43.34226 45.07224 44.20725
# Shear Modulus (GPa) = 38.83433 43.10593 40.97013
#
# Velocity S-wave (km/s) = 3.54063 3.73028 3.63669
# Velocity P-wave (km/s) = 5.54131 5.75353 5.64841
#
# Compressibility (1/GPa) = 0.02307217
#
# Stress axis : x y z
#
# Youngs Moduli (GPa) = 120.73833 103.34117 96.00023
#
# Poissons Ratio (x) = 0.20588 0.07342
# Poissons Ratio (y) = 0.24054 -0.01011
# Poissons Ratio (z) = 0.09234 -0.01088
#
# Static dielectric constant tensor:
#      x y z
#    x 5.641660 0.000000 0.000000 
#    y 0.000000 5.239540 0.000000 
#    z 0.000000 0.000000 6.180370 
# 
# 
# High freq. dielectric constant tensor:
#      x y z
#    x 2.278050 0.000000 0.000000 
#    y 0.000000 2.267540 0.000000 
#    z 0.000000 0.000000 2.311350 
# 
# From -- ./inp_files/9393.got.cif
#   From: 2010.03.12/outbox.cif.g09.slc.cpg/sg33_5_cif.got.tgz:9393.got - 2010.04.14 01:49:19.
