data_PCOD8172111
_publ_section_title
;
Structure prediction by ZEFSAII (Michael W. Deem and Ramdas Pophale) SiO2 
 PCOD8172111
Probable space group: P N N 2
;
_chemical_formula_sum "Si O2"
_cell_formula_units_Z 32
_cell_length_a 12.369408
_cell_length_b 14.243818
_cell_length_c 8.366318
_cell_angle_alpha 90.000000
_cell_angle_beta 90.000000
_cell_angle_gamma 90.000000
_cell_volume 1474.041458
_symmetry_space_group_name_H-M "P N N 2"
_symmetry_group_IT_number 34
_symmetry_cell_setting 'orthorhombic'
loop_
_space_group_symop_operation_xyz
x,y,z
-x,-y,z
1/2-x,1/2+y,1/2+z
1/2+x,1/2-y,1/2+z
loop_
_atom_site_type_symbol
_atom_site_label
_atom_site_fract_x
_atom_site_fract_y
_atom_site_fract_z
Si Si1 0.284666 0.981381 0.529320
Si Si2 0.448369 0.247387 0.661616
Si Si3 0.724232 0.805635 0.426224
Si Si4 0.439624 0.729152 0.100227
Si Si5 0.332766 0.185918 0.064589
Si Si6 0.361260 0.791397 0.442906
Si Si7 0.557853 0.589277 0.920471
Si Si8 0.891623 0.447516 0.330182
O O1 0.365724 0.905868 0.443927
O O2 0.167301 0.938846 0.507386
O O3 0.292723 0.083931 0.455432
O O4 0.317193 0.987746 0.716568
O O5 0.367479 0.256429 0.511104
O O6 0.569716 0.248734 0.591375
O O7 0.430828 0.333576 0.781591
O O8 0.421640 0.149559 0.744785
O O9 0.837412 0.760133 0.481826
O O10 0.713740 0.797211 0.238119
O O11 0.538782 0.795437 0.048597
O O12 0.408008 0.748995 0.280592
O O13 0.482659 0.623736 0.068801
O O14 0.262914 0.257020 0.955172
O O15 0.322795 0.080277 0.990607
O O16 0.500000 0.500000 0.839589
O O17 0.000000 0.500000 0.381160
#
# Coordination Sequence:
#
# PCOD8172111 Si02
#       8
#     4   4   4   4   4   4   4   4
#     4  11  23  43  70 102 142 191 233 297 363 433
#     4  11  23  46  72 102 143 193 238 297 367 430
#     4  11  25  45  72 103 147 187 245 304 364 427
#     4  12  24  46  73 102 143 194 238 301 363 435
#     4  12  26  44  68 107 144 190 243 301 359 439
#     4  12  24  44  75 102 144 194 239 292 373 432
#     4  12  24  45  74 102 143 190 248 300 365 426
#     4  11  23  42  70 104 143 187 236 292 359 438
#
# _framework density 21.709021
#
# number of rings (size 3 to 8) (size 9 to 14) (size 15 to 20)
#    0.000    0.500    6.250    3.000    0.000    1.000 
#    0.000    3.125    2.750    0.000    0.000    0.000 
#    0.000    0.000    0.000    0.000    0.000    0.000 
#
# Total GULP energy -396529.694696 kJ/mol
# GULP energy per Si atom -12391.552959 kJ/mol
# Density = 2.165961 g / cm^3
# Si number density = 21.709021 Si / 1000 Ang^3
#
#
#
# Elastic Constant Matrix: (Units=GPa)
#
#
# Indices 1 2 3 4 5 6 
#
# 1 129.8854 48.4241 57.9523 0.0000 0.0000 0.0000
# 2 48.4241 106.9551 53.0472 0.0000 0.0000 0.0000
# 3 57.9523 53.0472 128.7440 0.0000 0.0000 0.0000
# 4 0.0000 0.0000 0.0000 29.0571 0.0000 0.0000
# 5 0.0000 0.0000 0.0000 0.0000 35.1709 0.0000
# 6 0.0000 0.0000 0.0000 0.0000 0.0000 34.2291
#
#
#
# Elastic Compliance Matrix: (Units=1/GPa)
#
#
# Indices 1 2 3 4 5 6 
#
# 1 0.010339 -0.002982 -0.003425 0.000000 0.000000 0.000000
# 2 -0.002982 0.012611 -0.003854 0.000000 0.000000 0.000000
# 3 -0.003425 -0.003854 0.010897 0.000000 0.000000 0.000000
# 4 0.000000 0.000000 0.000000 0.034415 0.000000 0.000000
# 5 0.000000 0.000000 0.000000 0.000000 0.028433 0.000000
# 6 0.000000 0.000000 0.000000 0.000000 0.000000 0.029215
#
#
# Mechanical properties :
#
#
# Convention : Reuss Voigt Hill
#
# Bulk Modulus (GPa) = 75.04760 76.04795 75.54778
# Shear Modulus (GPa) = 33.14006 33.43548 33.28777
#
# Velocity S-wave (km/s) = 3.91136 3.92875 3.92006
# Velocity P-wave (km/s) = 7.41910 7.46236 7.44076
#
# Compressibility (1/GPa) = 0.01332488
#
# Stress axis : x y z
#
# Youngs Moduli (GPa) = 96.71904 79.29332 91.76719
#
# Poissons Ratio (x) = 0.23647 0.31433
# Poissons Ratio (y) = 0.28844 0.35366
# Poissons Ratio (z) = 0.33129 0.30559
#
# Static dielectric constant tensor:
#      x y z
#    x 4.224440 0.000000 0.000000 
#    y 0.000000 4.224170 0.000000 
#    z 0.000000 0.000000 4.172670 
# 
# 
# High freq. dielectric constant tensor:
#      x y z
#    x 1.870860 0.000000 0.000000 
#    y 0.000000 1.847360 0.000000 
#    z 0.000000 0.000000 1.851610 
# 
# From -- ./inp_files/3351.got.cif
#   From: 2010.03.12/outbox.cif.g09.slc.cpg/sg34_2_cif.got.tgz:3351.got - 2010.04.14 01:56:33.
