data_PCOD8172432
_publ_section_title
;
Structure prediction by ZEFSAII (Michael W. Deem and Ramdas Pophale) SiO2 
 PCOD8172432
Probable space group: C M M 2
;
_chemical_formula_sum "Si O2"
_cell_formula_units_Z 56
_cell_length_a 13.227333
_cell_length_b 23.191722
_cell_length_c 9.584727
_cell_angle_alpha 90.000000
_cell_angle_beta 90.000000
_cell_angle_gamma 90.000000
_cell_volume 2940.255229
_symmetry_space_group_name_H-M "C M M 2"
_symmetry_group_IT_number 35
_symmetry_cell_setting 'orthorhombic'
loop_
_space_group_symop_operation_xyz
x,y,z
-x,-y,z
-x,y,z
x,-y,z
1/2+x,1/2+y,z
1/2-x,1/2-y,z
1/2-x,1/2+y,z
1/2+x,1/2-y,z
loop_
_atom_site_type_symbol
_atom_site_label
_atom_site_fract_x
_atom_site_fract_y
_atom_site_fract_z
Si Si1 0.884828 0.369463 0.127940
Si Si2 0.887229 0.792067 0.762577
Si Si3 0.382848 0.218717 0.353828
Si Si4 0.316589 0.166177 0.829481
Si Si5 0.116781 0.836789 0.448962
Si Si6 0.760208 0.435266 0.345295
Si Si7 0.881239 0.619600 0.557203
O O1 0.870420 0.306921 0.199351
O O2 0.807467 0.414668 0.197466
O O3 0.000000 0.391350 0.150960
O O4 0.865347 0.361182 0.965515
O O5 0.801998 0.821377 0.860158
O O6 0.874061 0.722968 0.771344
O O7 0.869271 0.817763 0.609223
O O8 0.000000 0.807622 0.815995
O O9 0.500000 0.226241 0.396093
O O10 0.334969 0.283013 0.359664
O O11 0.337371 0.174537 0.468750
O O12 0.329499 0.118491 0.708557
O O13 0.169672 0.895533 0.402290
O O14 0.000000 0.846906 0.413421
O O15 0.719364 0.500000 0.324601
O O16 0.846808 0.435334 0.465616
O O17 0.000000 0.619750 0.573791
#
# Coordination Sequence:
#
# PCOD8172432 Si02
#       7
#     8   8   8   8   8   8   8
#     4  10  22  37  56  85 123 156 186 237 300 356
#     4  10  20  33  55  89 126 156 183 232 302 363
#     4   8  16  31  53  83 114 146 180 228 296 358
#     4  11  20  33  56  89 122 155 189 231 289 364
#     4  10  19  35  60  87 116 149 192 248 303 348
#     4  11  24  40  57  80 110 157 211 245 284 341
#     4  10  18  32  57  85 113 143 189 246 295 349
#
# _framework density 19.045966
#
# number of rings (size 3 to 8) (size 9 to 14) (size 15 to 20)
#    0.000    2.000    2.857    2.571    0.000    6.000 
#    0.000    2.857    0.000    1.714    0.000    0.000 
#    0.000    0.000    0.000    0.000    0.000    0.000 
#
# Total GULP energy -347054.274749 kJ/mol
# GULP energy per Si atom -12394.795527 kJ/mol
# Density = 1.900262 g / cm^3
# Si number density = 19.045966 Si / 1000 Ang^3
#
#
#
# Elastic Constant Matrix: (Units=GPa)
#
#
# Indices 1 2 3 4 5 6 
#
# 1 80.0648 30.5493 20.0518 0.0000 0.0000 0.0000
# 2 30.5493 108.3829 32.3079 0.0000 0.0000 0.0000
# 3 20.0518 32.3079 108.1487 0.0000 0.0000 0.0000
# 4 0.0000 0.0000 0.0000 13.2992 0.0000 0.0000
# 5 0.0000 0.0000 0.0000 0.0000 27.8868 0.0000
# 6 0.0000 0.0000 0.0000 0.0000 0.0000 18.1196
#
#
#
# Elastic Compliance Matrix: (Units=1/GPa)
#
#
# Indices 1 2 3 4 5 6 
#
# 1 0.014237 -0.003541 -0.001582 0.000000 0.000000 0.000000
# 2 -0.003541 0.011009 -0.002632 0.000000 0.000000 0.000000
# 3 -0.001582 -0.002632 0.010326 0.000000 0.000000 0.000000
# 4 0.000000 0.000000 0.000000 0.075193 0.000000 0.000000
# 5 0.000000 0.000000 0.000000 0.000000 0.035859 0.000000
# 6 0.000000 0.000000 0.000000 0.000000 0.000000 0.055189
#
#
# Mechanical properties :
#
#
# Convention : Reuss Voigt Hill
#
# Bulk Modulus (GPa) = 49.84590 51.37937 50.61264
# Shear Modulus (GPa) = 22.32023 26.10694 24.21359
#
# Velocity S-wave (km/s) = 3.42704 3.70636 3.56943
# Velocity P-wave (km/s) = 6.47207 6.73433 6.60450
#
# Compressibility (1/GPa) = 0.02006183
#
# Stress axis : x y z
#
# Youngs Moduli (GPa) = 70.23799 90.83126 96.84142
#
# Poissons Ratio (x) = 0.32168 0.15318
# Poissons Ratio (y) = 0.24875 0.25491
# Poissons Ratio (z) = 0.11110 0.23909
#
# Static dielectric constant tensor:
#      x y z
#    x 3.683500 0.000000 0.000000 
#    y 0.000000 3.205170 0.000000 
#    z 0.000000 0.000000 3.296680 
# 
# 
# High freq. dielectric constant tensor:
#      x y z
#    x 1.759400 0.000000 0.000000 
#    y 0.000000 1.696880 0.000000 
#    z 0.000000 0.000000 1.725400 
# 
# From -- ./inp_files/7661.got.cif
#   From: 2010.03.12/outbox.cif.g09.slc.cpg/sg35_4_cif.got.tgz:7661.got - 2010.04.14 02:02:04.
