data_PCOD8172641
_publ_section_title
;
Structure prediction by ZEFSAII (Michael W. Deem and Ramdas Pophale) SiO2 
 PCOD8172641
Probable space group: C M M 2
;
_chemical_formula_sum "Si O2"
_cell_formula_units_Z 64
_cell_length_a 8.647639
_cell_length_b 28.378773
_cell_length_c 15.623891
_cell_angle_alpha 90.000000
_cell_angle_beta 90.000000
_cell_angle_gamma 90.000000
_cell_volume 3834.249469
_symmetry_space_group_name_H-M "C M M 2"
_symmetry_group_IT_number 35
_symmetry_cell_setting 'orthorhombic'
loop_
_space_group_symop_operation_xyz
x,y,z
-x,-y,z
-x,y,z
x,-y,z
1/2+x,1/2+y,z
1/2-x,1/2-y,z
1/2-x,1/2+y,z
1/2+x,1/2-y,z
loop_
_atom_site_type_symbol
_atom_site_label
_atom_site_fract_x
_atom_site_fract_y
_atom_site_fract_z
Si Si1 0.817895 0.801774 0.039440
Si Si2 0.178709 0.446790 0.423678
Si Si3 0.181501 0.698127 0.209566
Si Si4 0.818686 0.198794 0.852688
Si Si5 0.182654 0.301698 0.524554
Si Si6 0.180450 0.856298 0.366443
Si Si7 0.823158 0.052154 0.604181
Si Si8 0.319503 0.648139 0.684319
O O1 0.750000 0.750000 0.040721
O O2 0.741851 0.827374 0.121790
O O3 0.000000 0.801002 0.053220
O O4 0.772052 0.823002 0.946073
O O5 0.218230 0.500000 0.395099
O O6 0.283404 0.412054 0.366971
O O7 0.212394 0.439930 0.523921
O O8 0.000000 0.434641 0.408366
O O9 0.250000 0.750000 0.222266
O O10 0.228305 0.666337 0.288736
O O11 0.000000 0.702818 0.205452
O O12 0.750000 0.250000 0.835098
O O13 0.764527 0.162440 0.779553
O O14 0.000000 0.206265 0.850301
O O15 0.250000 0.250000 0.512380
O O16 0.261752 0.335543 0.455926
O O17 0.220983 0.321114 0.618338
O O18 0.000000 0.300675 0.509986
O O19 0.000000 0.846898 0.354829
O O20 0.785929 0.092287 0.674251
O O21 0.000000 0.057011 0.571979
O O22 0.795330 0.000000 0.644563
O O23 0.500000 0.659641 0.669620
#
# Coordination Sequence:
#
# PCOD8172641 Si02
#       8
#     8   8   8   8   8   8   8   8
#     4   9  16  29  47  68  93 124 161 202 247 291
#     4  10  20  34  52  74  99 126 161 205 249 290
#     4  11  21  34  51  73 100 129 163 203 247 296
#     4   9  18  30  46  68  96 128 163 202 244 289
#     4  12  24  36  48  66  96 133 169 202 240 286
#     4  12  23  36  52  72  98 130 166 202 242 292
#     4   9  17  30  49  70  94 127 166 206 247 290
#     4  10  19  32  48  70  98 130 166 204 245 291
#
# _framework density 16.691662999999998
#
# number of rings (size 3 to 8) (size 9 to 14) (size 15 to 20)
#    0.000    1.750    1.250    5.625    0.000    2.750 
#    0.000    0.000    0.000    0.000    0.000    0.875 
#    0.000    3.000    0.000    0.000    0.000    0.000 
#
# Total GULP energy -396698.588064 kJ/mol
# GULP energy per Si atom -12396.830877 kJ/mol
# Density = 1.665367 g / cm^3
# Si number density = 16.691663 Si / 1000 Ang^3
#
#
#
# Elastic Constant Matrix: (Units=GPa)
#
#
# Indices 1 2 3 4 5 6 
#
# 1 68.9534 22.8853 20.4746 0.0000 0.0000 0.0000
# 2 22.8853 85.4331 35.4519 0.0000 0.0000 0.0000
# 3 20.4746 35.4519 103.0401 0.0000 0.0000 0.0000
# 4 0.0000 0.0000 0.0000 9.6855 0.0000 0.0000
# 5 0.0000 0.0000 0.0000 0.0000 20.8296 0.0000
# 6 0.0000 0.0000 0.0000 0.0000 0.0000 18.9932
#
#
#
# Elastic Compliance Matrix: (Units=1/GPa)
#
#
# Indices 1 2 3 4 5 6 
#
# 1 0.016271 -0.003519 -0.002022 0.000000 0.000000 0.000000
# 2 -0.003519 0.014416 -0.004261 0.000000 0.000000 0.000000
# 3 -0.002022 -0.004261 0.011573 0.000000 0.000000 0.000000
# 4 0.000000 0.000000 0.000000 0.103247 0.000000 0.000000
# 5 0.000000 0.000000 0.000000 0.000000 0.048009 0.000000
# 6 0.000000 0.000000 0.000000 0.000000 0.000000 0.052650
#
#
# Mechanical properties :
#
#
# Convention : Reuss Voigt Hill
#
# Bulk Modulus (GPa) = 44.14019 46.11669 45.12844
# Shear Modulus (GPa) = 18.29344 21.80932 20.05138
#
# Velocity S-wave (km/s) = 3.31412 3.61861 3.46971
# Velocity P-wave (km/s) = 6.41455 6.71920 6.56864
#
# Compressibility (1/GPa) = 0.02265509
#
# Stress axis : x y z
#
# Youngs Moduli (GPa) = 61.45867 69.36827 86.41040
#
# Poissons Ratio (x) = 0.24414 0.17474
# Poissons Ratio (y) = 0.21630 0.36816
# Poissons Ratio (z) = 0.12429 0.29555
#
# Static dielectric constant tensor:
#      x y z
#    x 3.259880 0.000000 0.000000 
#    y 0.000000 3.130870 0.000000 
#    z 0.000000 0.000000 3.633190 
# 
# 
# High freq. dielectric constant tensor:
#      x y z
#    x 1.655390 0.000000 0.000000 
#    y 0.000000 1.622000 0.000000 
#    z 0.000000 0.000000 1.634670 
# 
# From -- ./inp_files/16149.got.cif
#   From: 2010.03.12/outbox.cif.g09.slc.cpg/sg35_9_cif.got.tgz:16149.got - 2010.04.14 02:02:04.
