data_PCOD8172536
_publ_section_title
;
Structure prediction by ZEFSAII (Michael W. Deem and Ramdas Pophale) SiO2 
 PCOD8172536
Probable space group: C M M 2
;
_chemical_formula_sum "Si O2"
_cell_formula_units_Z 64
_cell_length_a 9.256042
_cell_length_b 28.841234
_cell_length_c 13.304527
_cell_angle_alpha 90.000000
_cell_angle_beta 90.000000
_cell_angle_gamma 90.000000
_cell_volume 3551.718962
_symmetry_space_group_name_H-M "C M M 2"
_symmetry_group_IT_number 35
_symmetry_cell_setting 'orthorhombic'
loop_
_space_group_symop_operation_xyz
x,y,z
-x,-y,z
-x,y,z
x,-y,z
1/2+x,1/2+y,z
1/2-x,1/2-y,z
1/2-x,1/2+y,z
1/2+x,1/2-y,z
loop_
_atom_site_type_symbol
_atom_site_label
_atom_site_fract_x
_atom_site_fract_y
_atom_site_fract_z
Si Si1 0.834175 0.138281 0.182410
Si Si2 0.659497 0.208511 0.853938
Si Si3 0.333780 0.447924 0.062393
Si Si4 0.843589 0.290238 0.084662
Si Si5 0.171336 0.867783 0.759710
Si Si6 0.668514 0.703365 0.360171
Si Si7 0.668187 0.296640 0.587762
Si Si8 0.668712 0.054100 0.859202
O O1 0.806502 0.083564 0.162475
O O2 0.739091 0.161699 0.096161
O O3 0.786770 0.158774 0.291237
O O4 0.000000 0.151002 0.163137
O O5 0.500000 0.203508 0.803121
O O6 0.750000 0.250000 0.800719
O O7 0.754956 0.162196 0.847875
O O8 0.635325 0.221361 0.968863
O O9 0.500000 0.443439 0.026753
O O10 0.296503 0.500000 0.096718
O O11 0.234900 0.433207 0.968137
O O12 0.750000 0.250000 0.138338
O O13 0.000000 0.292170 0.137850
O O14 0.211073 0.841209 0.655819
O O15 0.246794 0.918177 0.770313
O O16 0.000000 0.872381 0.775026
O O17 0.500000 0.713956 0.351236
O O18 0.750000 0.750000 0.325856
O O19 0.710987 0.689818 0.473942
O O20 0.500000 0.285853 0.599060
O O21 0.750000 0.250000 0.621678
O O22 0.500000 0.067888 0.859727
O O23 0.690559 0.000000 0.835334
#
# Coordination Sequence:
#
# PCOD8172536 Si02
#       8
#     8   8   8   8   8   8   8   8
#     4  10  19  30  48  71  95 125 160 199 241 285
#     4  10  20  32  45  65  96 131 163 196 237 287
#     4   9  18  33  52  74 100 130 164 201 242 290
#     4  10  20  31  43  62  92 126 157 190 230 281
#     4  11  21  32  50  73  96 126 163 203 247 294
#     4   9  18  33  50  70  98 129 162 201 243 288
#     4   9  19  34  51  72  99 130 164 202 244 290
#     4  10  21  36  53  74 100 130 164 203 247 294
#
# _framework density 18.019444
#
# number of rings (size 3 to 8) (size 9 to 14) (size 15 to 20)
#    0.000    2.250    0.000    3.000    0.000    8.250 
#    0.000    0.000    0.000    0.750    0.000    3.500 
#    0.000    2.000    0.000    0.000    0.000    0.000 
#
# Total GULP energy -396568.470548 kJ/mol
# GULP energy per Si atom -12392.764705 kJ/mol
# Density = 1.797843 g / cm^3
# Si number density = 18.019444 Si / 1000 Ang^3
#
#
#
# Elastic Constant Matrix: (Units=GPa)
#
#
# Indices 1 2 3 4 5 6 
#
# 1 102.9574 57.3323 43.2598 0.0000 0.0000 0.0000
# 2 57.3323 120.6606 57.3724 0.0000 0.0000 0.0000
# 3 43.2598 57.3724 88.2050 0.0000 0.0000 0.0000
# 4 0.0000 0.0000 0.0000 28.7508 0.0000 0.0000
# 5 0.0000 0.0000 0.0000 0.0000 16.8630 0.0000
# 6 0.0000 0.0000 0.0000 0.0000 0.0000 29.3942
#
#
#
# Elastic Compliance Matrix: (Units=1/GPa)
#
#
# Indices 1 2 3 4 5 6 
#
# 1 0.013983 -0.004898 -0.003672 0.000000 0.000000 0.000000
# 2 -0.004898 0.013714 -0.006518 0.000000 0.000000 0.000000
# 3 -0.003672 -0.006518 0.017378 0.000000 0.000000 0.000000
# 4 0.000000 0.000000 0.000000 0.034782 0.000000 0.000000
# 5 0.000000 0.000000 0.000000 0.000000 0.059301 0.000000
# 6 0.000000 0.000000 0.000000 0.000000 0.000000 0.034020
#
#
# Mechanical properties :
#
#
# Convention : Reuss Voigt Hill
#
# Bulk Modulus (GPa) = 67.11975 69.75023 68.43499
# Shear Modulus (GPa) = 24.00134 25.25884 24.63009
#
# Velocity S-wave (km/s) = 3.65357 3.74806 3.70112
# Velocity P-wave (km/s) = 7.42479 7.58439 7.50501
#
# Compressibility (1/GPa) = 0.01489874
#
# Stress axis : x y z
#
# Youngs Moduli (GPa) = 71.51435 72.91616 57.54455
#
# Poissons Ratio (x) = 0.35716 0.21131
# Poissons Ratio (y) = 0.35029 0.37508
# Poissons Ratio (z) = 0.26260 0.47528
#
# Static dielectric constant tensor:
#      x y z
#    x 3.618570 0.000000 0.000000 
#    y 0.000000 3.392900 0.000000 
#    z 0.000000 0.000000 3.241020 
# 
# 
# High freq. dielectric constant tensor:
#      x y z
#    x 1.710390 0.000000 0.000000 
#    y 0.000000 1.685860 0.000000 
#    z 0.000000 0.000000 1.675320 
# 
# From -- ./inp_files/16153.got.cif
#   From: 2010.03.12/outbox.cif.g09.slc.cpg/sg35_9_cif.got.tgz:16153.got - 2010.04.14 02:02:04.
