data_PCOD8172305
_publ_section_title
;
Structure prediction by ZEFSAII (Michael W. Deem and Ramdas Pophale) SiO2 
 PCOD8172305
Probable space group: C M M 2
;
_chemical_formula_sum "Si O2"
_cell_formula_units_Z 64
_cell_length_a 14.075471
_cell_length_b 18.848020
_cell_length_c 15.351013
_cell_angle_alpha 90.000000
_cell_angle_beta 90.000000
_cell_angle_gamma 90.000000
_cell_volume 4072.543293
_symmetry_space_group_name_H-M "C M M 2"
_symmetry_group_IT_number 35
_symmetry_cell_setting 'orthorhombic'
loop_
_space_group_symop_operation_xyz
x,y,z
-x,-y,z
-x,y,z
x,-y,z
1/2+x,1/2+y,z
1/2-x,1/2-y,z
1/2-x,1/2+y,z
1/2+x,1/2-y,z
loop_
_atom_site_type_symbol
_atom_site_label
_atom_site_fract_x
_atom_site_fract_y
_atom_site_fract_z
Si Si1 0.387972 0.577332 0.057570
Si Si2 0.106566 0.420343 0.674628
Si Si3 0.109914 0.084657 0.246847
Si Si4 0.223747 0.171539 0.728905
Si Si5 0.276685 0.669943 0.389102
Si Si6 0.893814 0.641972 0.497900
Si Si7 0.110157 0.201157 0.556456
Si Si8 0.611666 0.417288 0.868823
O O1 0.500000 0.567309 0.055981
O O2 0.339921 0.500000 0.059072
O O3 0.361759 0.614309 0.149783
O O4 0.357545 0.612822 0.965466
O O5 0.125289 0.500000 0.706164
O O6 0.177828 0.369911 0.724483
O O7 0.118910 0.419056 0.569629
O O8 0.000000 0.395188 0.698628
O O9 0.179594 0.126522 0.310140
O O10 0.000000 0.102724 0.268257
O O11 0.125945 0.000000 0.254201
O O12 0.250000 0.250000 0.760580
O O13 0.168920 0.170369 0.637070
O O14 0.159598 0.133201 0.799378
O O15 0.250000 0.750000 0.360528
O O16 0.179515 0.631150 0.419081
O O17 0.351974 0.666477 0.467684
O O18 0.872340 0.714718 0.550810
O O19 0.000000 0.643201 0.457842
O O20 0.000000 0.181492 0.568247
O O21 0.500000 0.410146 0.855110
O O22 0.641766 0.500000 0.857612
#
# Coordination Sequence:
#
# PCOD8172305 Si02
#       8
#     8   8   8   8   8   8   8   8
#     4   7  12  27  49  69  91 120 150 181 223 281
#     4  10  20  33  47  62  85 122 165 201 225 255
#     4   9  17  30  50  74  97 120 148 186 234 284
#     4  12  20  31  46  70  95 125 155 192 235 277
#     4  10  18  30  44  69  95 126 154 187 228 277
#     4   9  17  31  46  60  84 124 166 193 216 254
#     4  10  18  30  46  65  94 126 156 184 225 282
#     4   9  18  32  50  72  95 119 151 190 234 283
#
# _framework density 15.714995999999999
#
# number of rings (size 3 to 8) (size 9 to 14) (size 15 to 20)
#    0.000    2.500    2.500    3.000    0.000    1.500 
#    0.000    0.625    0.000    2.250    0.000    0.875 
#    0.000    3.000    0.000    0.000    0.000    0.000 
#
# Total GULP energy -396510.059531 kJ/mol
# GULP energy per Si atom -12390.939360 kJ/mol
# Density = 1.567923 g / cm^3
# Si number density = 15.714996 Si / 1000 Ang^3
#
#
#
# Elastic Constant Matrix: (Units=GPa)
#
#
# Indices 1 2 3 4 5 6 
#
# 1 80.9635 39.5794 45.7692 0.0000 0.0000 0.0000
# 2 39.5794 61.1982 46.6186 0.0000 0.0000 0.0000
# 3 45.7692 46.6186 114.9142 0.0000 0.0000 0.0000
# 4 0.0000 0.0000 0.0000 15.1644 0.0000 0.0000
# 5 0.0000 0.0000 0.0000 0.0000 18.8952 0.0000
# 6 0.0000 0.0000 0.0000 0.0000 0.0000 24.4085
#
#
#
# Elastic Compliance Matrix: (Units=1/GPa)
#
#
# Indices 1 2 3 4 5 6 
#
# 1 0.019123 -0.009502 -0.003762 0.000000 0.000000 0.000000
# 2 -0.009502 0.028370 -0.007725 0.000000 0.000000 0.000000
# 3 -0.003762 -0.007725 0.013334 0.000000 0.000000 0.000000
# 4 0.000000 0.000000 0.000000 0.065944 0.000000 0.000000
# 5 0.000000 0.000000 0.000000 0.000000 0.052923 0.000000
# 6 0.000000 0.000000 0.000000 0.000000 0.000000 0.040969
#
#
# Mechanical properties :
#
#
# Convention : Reuss Voigt Hill
#
# Bulk Modulus (GPa) = 53.04937 57.89006 55.46971
# Shear Modulus (GPa) = 18.59262 20.03421 19.31342
#
# Velocity S-wave (km/s) = 3.44337 3.57437 3.50948
# Velocity P-wave (km/s) = 7.04553 7.34522 7.19694
#
# Compressibility (1/GPa) = 0.01885037
#
# Stress axis : x y z
#
# Youngs Moduli (GPa) = 52.29343 35.24832 74.99555
#
# Poissons Ratio (x) = 0.33493 0.28211
# Poissons Ratio (y) = 0.49690 0.57932
# Poissons Ratio (z) = 0.19671 0.27228
#
# Static dielectric constant tensor:
#      x y z
#    x 3.010660 0.000000 0.000000 
#    y 0.000000 2.951240 0.000000 
#    z 0.000000 0.000000 3.056040 
# 
# 
# High freq. dielectric constant tensor:
#      x y z
#    x 1.599640 0.000000 0.000000 
#    y 0.000000 1.581790 0.000000 
#    z 0.000000 0.000000 1.592080 
# 
# From -- ./inp_files/16884.got.cif
#   From: 2010.03.12/outbox.cif.g09.slc.cpg/sg35_9_cif.got.tgz:16884.got - 2010.04.14 02:02:04.
