data_PCOD8172192
_publ_section_title
;
Structure prediction by ZEFSAII (Michael W. Deem and Ramdas Pophale) SiO2 
 PCOD8172192
Probable space group: C M M 2
;
_chemical_formula_sum "Si O2"
_cell_formula_units_Z 48
_cell_length_a 8.579527
_cell_length_b 19.481371
_cell_length_c 15.611829
_cell_angle_alpha 90.000000
_cell_angle_beta 90.000000
_cell_angle_gamma 90.000000
_cell_volume 2609.375907
_symmetry_space_group_name_H-M "C M M 2"
_symmetry_group_IT_number 35
_symmetry_cell_setting 'orthorhombic'
loop_
_space_group_symop_operation_xyz
x,y,z
-x,-y,z
-x,y,z
x,-y,z
1/2+x,1/2+y,z
1/2-x,1/2-y,z
1/2-x,1/2+y,z
1/2+x,1/2-y,z
loop_
_atom_site_type_symbol
_atom_site_label
_atom_site_fract_x
_atom_site_fract_y
_atom_site_fract_z
Si Si1 0.181915 0.824916 0.937200
Si Si2 0.180182 0.580208 0.797303
Si Si3 0.315885 0.173545 0.110614
Si Si4 0.314868 0.825945 0.456649
Si Si5 0.684803 0.924243 0.604812
Si Si6 0.315500 0.673381 0.282003
O O1 0.250000 0.750000 0.916171
O O2 0.211294 0.875206 0.858316
O O3 0.000000 0.816863 0.954407
O O4 0.260780 0.860387 0.021350
O O5 0.207680 0.500000 0.815377
O O6 0.232175 0.598728 0.700463
O O7 0.000000 0.599597 0.812729
O O8 0.500000 0.172931 0.118329
O O9 0.250000 0.250000 0.106382
O O10 0.244441 0.135640 0.195028
O O11 0.500000 0.823585 0.454095
O O12 0.250000 0.750000 0.468845
O O13 0.249193 0.870902 0.535350
O O14 0.252383 0.860830 0.368495
O O15 0.500000 0.927636 0.599024
O O16 0.753194 0.000000 0.585066
O O17 0.500000 0.673304 0.285144
O O18 0.250000 0.750000 0.279188
#
# Coordination Sequence:
#
# PCOD8172192 Si02
#       6
#     8   8   8   8   8   8
#     4  11  21  33  50  75 105 133 166 207 251 295
#     4   9  18  35  56  75  98 131 169 206 249 302
#     4  10  17  28  46  69  97 128 163 200 243 292
#     4  10  18  29  47  72 100 127 160 201 243 286
#     4   8  16  32  53  73  94 126 166 203 240 288
#     4  10  17  27  43  66  97 129 161 196 239 289
#
# _framework density 18.395202999999999
#
# number of rings (size 3 to 8) (size 9 to 14) (size 15 to 20)
#    0.000    2.333    0.000    9.000    0.000    1.000 
#    0.000    3.333    0.000    5.000    0.000    2.333 
#    0.000    0.000    0.000    0.000    0.000    0.000 
#
# Total GULP energy -297469.304026 kJ/mol
# GULP energy per Si atom -12394.554334 kJ/mol
# Density = 1.835333 g / cm^3
# Si number density = 18.395203 Si / 1000 Ang^3
#
#
#
# Elastic Constant Matrix: (Units=GPa)
#
#
# Indices 1 2 3 4 5 6 
#
# 1 110.6748 21.8380 44.5629 0.0000 0.0000 0.0000
# 2 21.8380 49.1612 58.6396 0.0000 0.0000 0.0000
# 3 44.5629 58.6396 176.0507 0.0000 0.0000 0.0000
# 4 0.0000 0.0000 0.0000 3.1720 0.0000 0.0000
# 5 0.0000 0.0000 0.0000 0.0000 29.8386 0.0000
# 6 0.0000 0.0000 0.0000 0.0000 0.0000 16.5765
#
#
#
# Elastic Compliance Matrix: (Units=1/GPa)
#
#
# Indices 1 2 3 4 5 6 
#
# 1 0.010231 -0.002415 -0.001785 0.000000 0.000000 0.000000
# 2 -0.002415 0.034321 -0.010820 0.000000 0.000000 0.000000
# 3 -0.001785 -0.010820 0.009736 0.000000 0.000000 0.000000
# 4 0.000000 0.000000 0.000000 0.315263 0.000000 0.000000
# 5 0.000000 0.000000 0.000000 0.000000 0.033514 0.000000
# 6 0.000000 0.000000 0.000000 0.000000 0.000000 0.060326
#
#
# Mechanical properties :
#
#
# Convention : Reuss Voigt Hill
#
# Bulk Modulus (GPa) = 41.24380 65.10751 53.17565
# Shear Modulus (GPa) = 9.96981 23.97382 16.97182
#
# Velocity S-wave (km/s) = 2.33057 3.61399 3.04076
# Velocity P-wave (km/s) = 5.45084 7.27222 6.42639
#
# Compressibility (1/GPa) = 0.02424607
#
# Stress axis : x y z
#
# Youngs Moduli (GPa) = 97.74351 29.13705 102.71053
#
# Poissons Ratio (x) = 0.07037 0.18336
# Poissons Ratio (y) = 0.23608 1.11135
# Poissons Ratio (z) = 0.17449 0.31527
#
# Static dielectric constant tensor:
#      x y z
#    x 3.259130 0.000000 0.000000 
#    y 0.000000 3.084730 0.000000 
#    z 0.000000 0.000000 4.438850 
# 
# 
# High freq. dielectric constant tensor:
#      x y z
#    x 1.711770 0.000000 0.000000 
#    y 0.000000 1.657870 0.000000 
#    z 0.000000 0.000000 1.741590 
# 
# From -- ./inp_files/14071.got.cif
#   From: 2010.03.12/outbox.cif.g09.slc.cpg/sg35_8_cif.got.tgz:14071.got - 2010.04.14 02:02:04.
