data_PCOD8172863
_publ_section_title
;
Structure prediction by ZEFSAII (Michael W. Deem and Ramdas Pophale) SiO2 
 PCOD8172863
Probable space group: C M M 2
;
_chemical_formula_sum "Si O2"
_cell_formula_units_Z 36
_cell_length_a 9.270727
_cell_length_b 14.995056
_cell_length_c 13.071347
_cell_angle_alpha 90.000000
_cell_angle_beta 90.000000
_cell_angle_gamma 90.000000
_cell_volume 1817.114225
_symmetry_space_group_name_H-M "C M M 2"
_symmetry_group_IT_number 35
_symmetry_cell_setting 'orthorhombic'
loop_
_space_group_symop_operation_xyz
x,y,z
-x,-y,z
-x,y,z
x,-y,z
1/2+x,1/2+y,z
1/2-x,1/2-y,z
1/2-x,1/2+y,z
1/2+x,1/2-y,z
loop_
_atom_site_type_symbol
_atom_site_label
_atom_site_fract_x
_atom_site_fract_y
_atom_site_fract_z
Si Si1 0.840418 0.328328 0.829100
Si Si2 0.173154 0.000000 0.770594
Si Si3 0.829915 0.000000 0.536951
Si Si4 0.666442 0.598201 0.179241
Si Si5 0.671990 0.339327 0.397627
Si Si6 0.250000 0.750000 0.023895
O O1 0.750000 0.250000 0.770169
O O2 0.741807 0.415497 0.826345
O O3 0.000000 0.342707 0.780608
O O4 0.864742 0.297701 0.947725
O O5 0.225036 0.000000 0.653189
O O6 0.000000 0.000000 0.784066
O O7 0.774371 0.087393 0.478782
O O8 0.000000 0.000000 0.535222
O O9 0.500000 0.584005 0.200208
O O10 0.732522 0.500000 0.150137
O O11 0.733234 0.632766 0.285947
O O12 0.684650 0.671450 0.091865
O O13 0.500000 0.326238 0.398030
O O14 0.750000 0.250000 0.432943
#
# Coordination Sequence:
#
# PCOD8172863 Si02
#       6
#     8   4   4   8   8   4
#     4  10  23  41  61  88 122 156 201 255 304 356
#     4  11  23  41  66  89 116 158 207 255 308 361
#     4   9  20  39  62  87 114 152 199 243 290 355
#     4  10  19  33  57  86 116 159 199 234 283 354
#     4  10  19  36  59  86 120 153 194 238 286 347
#     4  10  22  34  60  88 120 154 202 246 290 356
#
# _framework density 19.811631999999999
#
# number of rings (size 3 to 8) (size 9 to 14) (size 15 to 20)
#    0.667    1.333    2.222    1.667    1.556    0.889 
#    0.000    5.000    0.000    2.667    0.000    0.000 
#    0.000    0.000    0.000    0.000    0.000    0.000 
#
# Total GULP energy -223004.292309 kJ/mol
# GULP energy per Si atom -12389.127351 kJ/mol
# Density = 1.976654 g / cm^3
# Si number density = 19.811632 Si / 1000 Ang^3
#
#
#
# Elastic Constant Matrix: (Units=GPa)
#
#
# Indices 1 2 3 4 5 6 
#
# 1 87.7906 48.3836 15.3094 0.0000 0.0000 0.0000
# 2 48.3836 191.6664 53.0846 0.0000 0.0000 0.0000
# 3 15.3094 53.0846 94.5489 0.0000 0.0000 0.0000
# 4 0.0000 0.0000 0.0000 8.8217 0.0000 0.0000
# 5 0.0000 0.0000 0.0000 0.0000 18.7442 0.0000
# 6 0.0000 0.0000 0.0000 0.0000 0.0000 31.6447
#
#
#
# Elastic Compliance Matrix: (Units=1/GPa)
#
#
# Indices 1 2 3 4 5 6 
#
# 1 0.013240 -0.003254 -0.000317 0.000000 0.000000 0.000000
# 2 -0.003254 0.006978 -0.003391 0.000000 0.000000 0.000000
# 3 -0.000317 -0.003391 0.012532 0.000000 0.000000 0.000000
# 4 0.000000 0.000000 0.000000 0.113356 0.000000 0.000000
# 5 0.000000 0.000000 0.000000 0.000000 0.053350 0.000000
# 6 0.000000 0.000000 0.000000 0.000000 0.000000 0.031601
#
#
# Mechanical properties :
#
#
# Convention : Reuss Voigt Hill
#
# Bulk Modulus (GPa) = 53.11948 67.50677 60.31313
# Shear Modulus (GPa) = 19.90008 28.99067 24.44537
#
# Velocity S-wave (km/s) = 3.17277 3.82948 3.51649
# Velocity P-wave (km/s) = 6.34763 7.32813 6.85543
#
# Compressibility (1/GPa) = 0.01882549
#
# Stress axis : x y z
#
# Youngs Moduli (GPa) = 75.53116 143.30538 79.79813
#
# Poissons Ratio (x) = 0.46638 0.02526
# Poissons Ratio (y) = 0.24581 0.27059
# Poissons Ratio (z) = 0.02391 0.48593
#
# Static dielectric constant tensor:
#      x y z
#    x 3.216620 0.000000 0.000000 
#    y 0.000000 3.998290 0.000000 
#    z 0.000000 0.000000 3.614890 
# 
# 
# High freq. dielectric constant tensor:
#      x y z
#    x 1.740290 0.000000 0.000000 
#    y 0.000000 1.793780 0.000000 
#    z 0.000000 0.000000 1.762040 
# 
# From -- ./inp_files/14668.got.cif
#   From: 2010.03.12/outbox.cif.g09.slc.cpg/sg35_8_cif.got.tgz:14668.got - 2010.04.14 02:02:04.
