data_PCOD8172865
_publ_section_title
;
Structure prediction by ZEFSAII (Michael W. Deem and Ramdas Pophale) SiO2 
 PCOD8172865
Probable space group: C M M 2
;
_chemical_formula_sum "Si O2"
_cell_formula_units_Z 64
_cell_length_a 24.230488
_cell_length_b 14.272250
_cell_length_c 9.183046
_cell_angle_alpha 90.000000
_cell_angle_beta 90.000000
_cell_angle_gamma 90.000000
_cell_volume 3175.713865
_symmetry_space_group_name_H-M "C M M 2"
_symmetry_group_IT_number 35
_symmetry_cell_setting 'orthorhombic'
loop_
_space_group_symop_operation_xyz
x,y,z
-x,-y,z
-x,y,z
x,-y,z
1/2+x,1/2+y,z
1/2-x,1/2-y,z
1/2-x,1/2+y,z
1/2+x,1/2-y,z
loop_
_atom_site_type_symbol
_atom_site_label
_atom_site_fract_x
_atom_site_fract_y
_atom_site_fract_z
Si Si1 0.934558 0.211861 0.113810
Si Si2 0.851198 0.892773 0.913332
Si Si3 0.128204 0.603884 0.161315
Si Si4 0.648552 0.104122 0.499231
Si Si5 0.637343 0.704037 0.612857
Si Si6 0.751289 0.141010 0.124482
Si Si7 0.435701 0.603948 0.403268
Si Si8 0.226244 0.100967 0.447080
O O1 0.912126 0.317730 0.093999
O O2 0.919218 0.174119 0.273731
O O3 0.000000 0.209360 0.083011
O O4 0.903742 0.143237 0.003069
O O5 0.845874 0.826154 0.773655
O O6 0.862360 0.000000 0.868160
O O7 0.793029 0.887364 0.996960
O O8 0.103930 0.500000 0.129088
O O9 0.130937 0.621401 0.333487
O O10 0.189064 0.607970 0.088583
O O11 0.622909 0.184755 0.603287
O O12 0.713830 0.113893 0.514741
O O13 0.629072 0.000000 0.550187
O O14 0.585517 0.644418 0.556404
O O15 0.687840 0.684491 0.502143
O O16 0.750000 0.250000 0.149090
O O17 0.772650 0.095739 0.272805
O O18 0.500000 0.595879 0.419176
O O19 0.410950 0.500000 0.372660
O O20 0.202652 0.000000 0.499990
#
# Coordination Sequence:
#
# PCOD8172865 Si02
#       8
#     8   8   8   8   8   8   8   8
#     4  11  23  42  64  89 120 160 208 261 308 358
#     4  12  26  40  57  89 130 169 204 247 305 372
#     4  10  19  38  66  96 122 156 203 255 308 358
#     4   9  19  36  60  89 121 154 195 246 297 352
#     4  12  22  38  59  87 124 162 201 243 296 366
#     4  11  20  37  62  88 125 165 202 251 304 363
#     4  10  21  38  62  89 115 149 199 254 305 357
#     4  10  19  33  57  88 118 156 200 247 297 354
#
# _framework density 20.152947999999999
#
# number of rings (size 3 to 8) (size 9 to 14) (size 15 to 20)
#    0.000    1.375    2.500    6.000    0.000    2.500 
#    0.000    0.625    0.000    0.375    0.000    0.000 
#    0.000    0.000    0.000    0.000    0.000    0.000 
#
# Total GULP energy -396740.165785 kJ/mol
# GULP energy per Si atom -12398.130181 kJ/mol
# Density = 2.010708 g / cm^3
# Si number density = 20.152948 Si / 1000 Ang^3
#
#
#
# Elastic Constant Matrix: (Units=GPa)
#
#
# Indices 1 2 3 4 5 6 
#
# 1 74.8078 37.6914 34.3703 0.0000 0.0000 0.0000
# 2 37.6914 163.3761 32.0775 0.0000 0.0000 0.0000
# 3 34.3703 32.0775 79.7951 0.0000 0.0000 0.0000
# 4 0.0000 0.0000 0.0000 33.5642 0.0000 0.0000
# 5 0.0000 0.0000 0.0000 0.0000 10.2162 0.0000
# 6 0.0000 0.0000 0.0000 0.0000 0.0000 -32.0471
#
#
#
# Elastic Compliance Matrix: (Units=1/GPa)
#
#
# Indices 1 2 3 4 5 6 
#
# 1 0.017789 -0.002822 -0.006528 0.000000 0.000000 0.000000
# 2 -0.002822 0.007093 -0.001636 0.000000 0.000000 0.000000
# 3 -0.006528 -0.001636 0.016001 0.000000 0.000000 0.000000
# 4 0.000000 0.000000 0.000000 0.029794 0.000000 0.000000
# 5 0.000000 0.000000 0.000000 0.000000 0.097884 0.000000
# 6 0.000000 0.000000 0.000000 0.000000 0.000000 -0.031204
#
#
# Mechanical properties :
#
#
# Convention : Reuss Voigt Hill
#
# Bulk Modulus (GPa) = 52.87698 58.47305 55.67501
# Shear Modulus (GPa) = 30.18741 16.60263 23.39502
#
# Velocity S-wave (km/s) = 3.87449 2.87336 3.41086
# Velocity P-wave (km/s) = 6.80517 6.33134 6.57253
#
# Compressibility (1/GPa) = 0.01891182
#
# Stress axis : x y z
#
# Youngs Moduli (GPa) = 56.21556 140.98157 62.49486
#
# Poissons Ratio (x) = 0.39789 0.40794
# Poissons Ratio (y) = 0.15866 0.10223
# Poissons Ratio (z) = 0.36695 0.23062
#
# Static dielectric constant tensor:
#      x y z
#    x 3.522120 0.000000 0.000000 
#    y 0.000000 4.029580 0.000000 
#    z 0.000000 0.000000 3.422640 
# 
# 
# High freq. dielectric constant tensor:
#      x y z
#    x 1.770420 0.000000 0.000000 
#    y 0.000000 1.814170 0.000000 
#    z 0.000000 0.000000 1.753820 
# 
# From -- ./inp_files/9899.got.cif
#   From: 2010.03.12/outbox.cif.g09.slc.cpg/sg35_5_cif.got.tgz:9899.got - 2010.04.14 02:02:04.
