data_PCOD8172130
_publ_section_title
;
Structure prediction by ZEFSAII (Michael W. Deem and Ramdas Pophale) SiO2 
 PCOD8172130
Probable space group: P N N 2
;
_chemical_formula_sum "Si O2"
_cell_formula_units_Z 26
_cell_length_a 24.581152
_cell_length_b 8.664829
_cell_length_c 5.209770
_cell_angle_alpha 90.000000
_cell_angle_beta 90.000000
_cell_angle_gamma 90.000000
_cell_volume 1109.636616
_symmetry_space_group_name_H-M "P N N 2"
_symmetry_group_IT_number 34
_symmetry_cell_setting 'orthorhombic'
loop_
_space_group_symop_operation_xyz
x,y,z
-x,-y,z
1/2-x,1/2+y,1/2+z
1/2+x,1/2-y,1/2+z
loop_
_atom_site_type_symbol
_atom_site_label
_atom_site_fract_x
_atom_site_fract_y
_atom_site_fract_z
Si Si1 0.000000 0.000000 0.310791
Si Si2 0.525061 0.243462 0.137534
Si Si3 0.713799 0.145340 0.952716
Si Si4 0.899640 0.499868 0.420593
Si Si5 0.597616 0.461286 0.443729
Si Si6 0.579655 0.811619 0.404570
Si Si7 0.216115 0.160179 0.973129
O O1 0.983044 0.150191 0.475419
O O2 0.052536 0.055596 0.160788
O O3 0.575505 0.353889 0.213384
O O4 0.486526 0.186875 0.372031
O O5 0.546262 0.101446 0.968587
O O6 0.651158 0.112133 0.885441
O O7 0.737301 0.248527 0.721836
O O8 0.745881 0.986482 0.946105
O O9 0.720837 0.233381 0.221591
O O10 0.890014 0.401435 0.677286
O O11 0.906909 0.392229 0.173590
O O12 0.604674 0.641008 0.382399
O O13 0.654823 0.393544 0.530015
#
# Coordination Sequence:
#
# PCOD8172130 Si02
#       7
#     2   4   4   4   4   4   4
#     4  12  22  44  76 106 150 196 264 294 362 468
#     4  12  25  47  70 108 153 206 248 304 373 454
#     4  12  28  55  79 115 146 200 255 317 383 450
#     4  12  29  47  75 106 163 191 251 309 386 434
#     4  12  26  45  76 107 152 199 256 303 374 448
#     4  12  27  45  73 113 146 206 247 306 361 462
#     4  12  29  51  84 110 150 196 253 320 382 442
#
# _framework density 23.431096
#
# number of rings (size 3 to 8) (size 9 to 14) (size 15 to 20)
#    0.000    0.000    4.615    4.154    6.462    2.462 
#    0.000    0.000    0.000    0.000    0.000    0.000 
#    0.000    0.000    0.000    0.000    0.000    0.000 
#
# Total GULP energy -322386.929503 kJ/mol
# GULP energy per Si atom -12399.497289 kJ/mol
# Density = 2.337777 g / cm^3
# Si number density = 23.431096 Si / 1000 Ang^3
#
#
#
# Elastic Constant Matrix: (Units=GPa)
#
#
# Indices 1 2 3 4 5 6 
#
# 1 79.7589 33.2569 27.8750 0.0000 0.0000 0.0000
# 2 33.2569 129.7137 57.5927 0.0000 0.0000 0.0000
# 3 27.8750 57.5927 142.8125 0.0000 0.0000 0.0000
# 4 0.0000 0.0000 0.0000 55.2546 0.0000 0.0000
# 5 0.0000 0.0000 0.0000 0.0000 19.1042 0.0000
# 6 0.0000 0.0000 0.0000 0.0000 0.0000 42.3866
#
#
#
# Elastic Compliance Matrix: (Units=1/GPa)
#
#
# Indices 1 2 3 4 5 6 
#
# 1 0.014334 -0.002963 -0.001603 0.000000 0.000000 0.000000
# 2 -0.002963 0.010003 -0.003456 0.000000 0.000000 0.000000
# 3 -0.001603 -0.003456 0.008709 0.000000 0.000000 0.000000
# 4 0.000000 0.000000 0.000000 0.018098 0.000000 0.000000
# 5 0.000000 0.000000 0.000000 0.000000 0.052345 0.000000
# 6 0.000000 0.000000 0.000000 0.000000 0.000000 0.023592
#
#
# Mechanical properties :
#
#
# Convention : Reuss Voigt Hill
#
# Bulk Modulus (GPa) = 58.81633 65.52601 62.17117
# Shear Modulus (GPa) = 33.60413 38.91980 36.26196
#
# Velocity S-wave (km/s) = 3.79115 4.08000 3.93822
# Velocity P-wave (km/s) = 6.65733 7.08670 6.87537
#
# Compressibility (1/GPa) = 0.01700208
#
# Stress axis : x y z
#
# Youngs Moduli (GPa) = 69.76655 99.96627 114.82900
#
# Poissons Ratio (x) = 0.29623 0.18403
# Poissons Ratio (y) = 0.20674 0.39682
# Poissons Ratio (z) = 0.11181 0.34545
#
# Static dielectric constant tensor:
#      x y z
#    x 4.173640 0.000000 0.000000 
#    y 0.000000 4.599000 0.000000 
#    z 0.000000 0.000000 4.361550 
# 
# 
# High freq. dielectric constant tensor:
#      x y z
#    x 1.915430 0.000000 0.000000 
#    y 0.000000 1.957400 0.000000 
#    z 0.000000 0.000000 1.936490 
# 
# From -- ./inp_files/1673.got.cif
#   From: 2010.03.12/outbox.cif.g09.slc.cpg/sg34_1_cif.got.tgz:1673.got - 2010.04.14 01:56:33.
