data_PCOD8172482
_publ_section_title
;
Structure prediction by ZEFSAII (Michael W. Deem and Ramdas Pophale) SiO2 
 PCOD8172482
Probable space group: C M M 2
;
_chemical_formula_sum "Si O2"
_cell_formula_units_Z 40
_cell_length_a 23.016563
_cell_length_b 8.661999
_cell_length_c 10.081479
_cell_angle_alpha 90.000000
_cell_angle_beta 90.000000
_cell_angle_gamma 90.000000
_cell_volume 2009.938880
_symmetry_space_group_name_H-M "C M M 2"
_symmetry_group_IT_number 35
_symmetry_cell_setting 'orthorhombic'
loop_
_space_group_symop_operation_xyz
x,y,z
-x,-y,z
-x,y,z
x,-y,z
1/2+x,1/2+y,z
1/2-x,1/2-y,z
1/2-x,1/2+y,z
1/2+x,1/2-y,z
loop_
_atom_site_type_symbol
_atom_site_label
_atom_site_fract_x
_atom_site_fract_y
_atom_site_fract_z
Si Si1 0.880490 0.680177 0.290320
Si Si2 0.000000 0.176939 0.694364
Si Si3 0.687358 0.180631 0.550890
Si Si4 0.123442 0.178516 0.789591
Si Si5 0.000000 0.683487 0.406253
Si Si6 0.685924 0.818254 0.036664
O O1 0.890499 0.500000 0.270962
O O2 0.832564 0.713671 0.401772
O O3 0.854829 0.751295 0.154130
O O4 0.942847 0.752890 0.332445
O O5 0.054684 0.212080 0.789517
O O6 0.000000 0.277732 0.561630
O O7 0.000000 0.000000 0.646614
O O8 0.750000 0.250000 0.574002
O O9 0.643968 0.271853 0.644918
O O10 0.686727 0.000000 0.585637
O O11 0.137974 0.000000 0.816337
O O12 0.155691 0.280383 0.898303
O O13 0.000000 0.500000 0.398727
O O14 0.750000 0.750000 0.044307
O O15 0.692195 0.000000 0.052475
#
# Coordination Sequence:
#
# PCOD8172482 Si02
#       6
#     8   4   8   8   4   8
#     4   9  20  36  60  89 118 152 194 243 295 349
#     4  10  22  39  60  88 122 154 194 245 298 350
#     4  11  21  36  58  87 116 153 198 246 297 351
#     4  11  23  40  60  86 119 157 197 245 296 352
#     4  10  18  37  64  90 120 152 194 247 294 350
#     4  11  23  41  61  87 121 160 201 245 297 353
#
# _framework density 19.901102000000002
#
# number of rings (size 3 to 8) (size 9 to 14) (size 15 to 20)
#    0.000    1.600    2.000    3.000    0.000    1.600 
#    0.000    6.000    0.000    0.000    0.000    0.000 
#    0.000    0.000    0.000    0.000    0.000    0.000 
#
# Total GULP energy -248018.798696 kJ/mol
# GULP energy per Si atom -12400.939935 kJ/mol
# Density = 1.985581 g / cm^3
# Si number density = 19.901102 Si / 1000 Ang^3
#
#
#
# Elastic Constant Matrix: (Units=GPa)
#
#
# Indices 1 2 3 4 5 6 
#
# 1 134.8393 37.2977 32.5290 0.0000 0.0000 0.0000
# 2 37.2977 45.5680 19.2349 0.0000 0.0000 0.0000
# 3 32.5290 19.2349 89.2433 0.0000 0.0000 0.0000
# 4 0.0000 0.0000 0.0000 19.8788 0.0000 0.0000
# 5 0.0000 0.0000 0.0000 0.0000 37.2707 0.0000
# 6 0.0000 0.0000 0.0000 0.0000 0.0000 8.6451
#
#
#
# Elastic Compliance Matrix: (Units=1/GPa)
#
#
# Indices 1 2 3 4 5 6 
#
# 1 0.009917 -0.007251 -0.002052 0.000000 0.000000 0.000000
# 2 -0.007251 0.029443 -0.003703 0.000000 0.000000 0.000000
# 3 -0.002052 -0.003703 0.012751 0.000000 0.000000 0.000000
# 4 0.000000 0.000000 0.000000 0.050305 0.000000 0.000000
# 5 0.000000 0.000000 0.000000 0.000000 0.026831 0.000000
# 6 0.000000 0.000000 0.000000 0.000000 0.000000 0.115673
#
#
# Mechanical properties :
#
#
# Convention : Reuss Voigt Hill
#
# Bulk Modulus (GPa) = 38.31448 49.75268 44.03358
# Shear Modulus (GPa) = 17.88067 25.19817 21.53942
#
# Velocity S-wave (km/s) = 3.00071 3.56219 3.29344
# Velocity P-wave (km/s) = 5.59463 6.47867 6.05281
#
# Compressibility (1/GPa) = 0.02609979
#
# Stress axis : x y z
#
# Youngs Moduli (GPa) = 100.83794 33.96363 78.42300
#
# Poissons Ratio (x) = 0.24627 0.16091
# Poissons Ratio (y) = 0.73117 0.29041
# Poissons Ratio (z) = 0.20691 0.12577
#
# Static dielectric constant tensor:
#      x y z
#    x 3.989440 0.000000 0.000000 
#    y 0.000000 3.480350 0.000000 
#    z 0.000000 0.000000 3.620060 
# 
# 
# High freq. dielectric constant tensor:
#      x y z
#    x 1.797450 0.000000 0.000000 
#    y 0.000000 1.760050 0.000000 
#    z 0.000000 0.000000 1.777170 
# 
# From -- ./inp_files/13805.got.cif
#   From: 2010.03.12/outbox.cif.g09.slc.cpg/sg35_7_cif.got.tgz:13805.got - 2010.04.14 02:02:04.
