data_PCOD8172349
_publ_section_title
;
Structure prediction by ZEFSAII (Michael W. Deem and Ramdas Pophale) SiO2 
 PCOD8172349
Probable space group: C M M 2
;
_chemical_formula_sum "Si O2"
_cell_formula_units_Z 34
_cell_length_a 15.634142
_cell_length_b 8.179729
_cell_length_c 13.428227
_cell_angle_alpha 90.000000
_cell_angle_beta 90.000000
_cell_angle_gamma 90.000000
_cell_volume 1717.242554
_symmetry_space_group_name_H-M "C M M 2"
_symmetry_group_IT_number 35
_symmetry_cell_setting 'orthorhombic'
loop_
_space_group_symop_operation_xyz
x,y,z
-x,-y,z
-x,y,z
x,-y,z
1/2+x,1/2+y,z
1/2-x,1/2-y,z
1/2-x,1/2+y,z
1/2+x,1/2-y,z
loop_
_atom_site_type_symbol
_atom_site_label
_atom_site_fract_x
_atom_site_fract_y
_atom_site_fract_z
Si Si1 0.597000 0.186867 0.622730
Si Si2 0.398281 0.320265 0.830854
Si Si3 0.338572 0.689228 0.421349
Si Si4 0.000000 0.500000 0.123126
Si Si5 0.404877 0.000000 0.932723
Si Si6 0.000000 0.680639 0.314149
O O1 0.500000 0.233009 0.593114
O O2 0.628223 0.295425 0.715681
O O3 0.653828 0.217864 0.526123
O O4 0.604573 0.000000 0.657020
O O5 0.500000 0.320310 0.842656
O O6 0.362895 0.500000 0.864735
O O7 0.359057 0.169323 0.896546
O O8 0.336014 0.500000 0.444481
O O9 0.250000 0.750000 0.371373
O O10 0.415295 0.724445 0.345672
O O11 0.000000 0.661188 0.193635
O O12 0.914954 0.500000 0.053311
O O13 0.500000 0.000000 0.882877
O O14 0.000000 0.500000 0.365415
#
# Coordination Sequence:
#
# PCOD8172349 Si02
#       6
#     8   8   8   2   4   4
#     4  10  18  30  51  81 118 159 193 233 288 346
#     4   9  15  24  44  75 115 150 189 229 280 351
#     4  12  24  38  58  86 121 163 207 248 303 371
#     4   8  20  34  60  76 118 144 190 262 320 356
#     4   8  14  30  45  78 109 144 187 235 303 348
#     4  10  21  41  59  83 115 156 193 264 313 353
#
# _framework density 19.799182999999999
#
# number of rings (size 3 to 8) (size 9 to 14) (size 15 to 20)
#    0.706    1.412    2.353    3.176    0.000    0.941 
#    0.000    2.353    0.000    0.000    0.000    1.647 
#    0.000    0.000    0.000    0.000    0.000    0.000 
#
# Total GULP energy -210680.913209 kJ/mol
# GULP energy per Si atom -12392.994895 kJ/mol
# Density = 1.975412 g / cm^3
# Si number density = 19.799183 Si / 1000 Ang^3
#
#
#
# Elastic Constant Matrix: (Units=GPa)
#
#
# Indices 1 2 3 4 5 6 
#
# 1 72.6435 20.3218 27.1458 0.0000 0.0000 0.0000
# 2 20.3218 141.6891 48.9892 0.0000 0.0000 0.0000
# 3 27.1458 48.9892 108.7121 0.0000 0.0000 0.0000
# 4 0.0000 0.0000 0.0000 25.3260 0.0000 0.0000
# 5 0.0000 0.0000 0.0000 0.0000 -4.9592 0.0000
# 6 0.0000 0.0000 0.0000 0.0000 0.0000 19.9260
#
#
#
# Elastic Compliance Matrix: (Units=1/GPa)
#
#
# Indices 1 2 3 4 5 6 
#
# 1 0.015310 -0.001035 -0.003356 0.000000 0.000000 0.000000
# 2 -0.001035 0.008430 -0.003540 0.000000 0.000000 0.000000
# 3 -0.003356 -0.003540 0.011632 0.000000 0.000000 0.000000
# 4 0.000000 0.000000 0.000000 0.039485 0.000000 0.000000
# 5 0.000000 0.000000 0.000000 0.000000 -0.201644 0.000000
# 6 0.000000 0.000000 0.000000 0.000000 0.000000 0.050186
#
#
# Mechanical properties :
#
#
# Convention : Reuss Voigt Hill
#
# Bulk Modulus (GPa) = 51.26125 57.32871 54.29498
# Shear Modulus (GPa) = -92.19230 23.16440 -34.51395
#
# Velocity S-wave (km/s) = -6.83116 3.42419 -4.17969
# Velocity P-wave (km/s) = 6.02270 6.68217 2.04676
#
# Compressibility (1/GPa) = 0.01950791
#
# Stress axis : x y z
#
# Youngs Moduli (GPa) = 65.31801 118.61957 85.96876
#
# Poissons Ratio (x) = 0.12281 0.28854
# Poissons Ratio (y) = 0.06763 0.30437
# Poissons Ratio (z) = 0.21923 0.41997
#
# Static dielectric constant tensor:
#      x y z
#    x 3.345280 0.000000 0.000000 
#    y 0.000000 3.858550 0.000000 
#    z 0.000000 0.000000 3.238150 
# 
# 
# High freq. dielectric constant tensor:
#      x y z
#    x 1.730740 0.000000 0.000000 
#    y 0.000000 1.787830 0.000000 
#    z 0.000000 0.000000 1.739300 
# 
# From -- ./inp_files/16924.got.cif
#   From: 2010.03.12/outbox.cif.g09.slc.cpg/sg35_9_cif.got.tgz:16924.got - 2010.04.14 02:02:04.
