data_PCOD8172391
_publ_section_title
;
Structure prediction by ZEFSAII (Michael W. Deem and Ramdas Pophale) SiO2 
 PCOD8172391
Probable space group: C M M 2
;
_chemical_formula_sum "Si O2"
_cell_formula_units_Z 56
_cell_length_a 8.859644
_cell_length_b 25.675152
_cell_length_c 14.203092
_cell_angle_alpha 90.000000
_cell_angle_beta 90.000000
_cell_angle_gamma 90.000000
_cell_volume 3230.815776
_symmetry_space_group_name_H-M "C M M 2"
_symmetry_group_IT_number 35
_symmetry_cell_setting 'orthorhombic'
loop_
_space_group_symop_operation_xyz
x,y,z
-x,-y,z
-x,y,z
x,-y,z
1/2+x,1/2+y,z
1/2-x,1/2-y,z
1/2-x,1/2+y,z
1/2+x,1/2-y,z
loop_
_atom_site_type_symbol
_atom_site_label
_atom_site_fract_x
_atom_site_fract_y
_atom_site_fract_z
Si Si1 0.324115 0.560376 0.945490
Si Si2 0.178058 0.804581 0.655836
Si Si3 0.678870 0.898794 0.765420
Si Si4 0.179243 0.500000 0.655237
Si Si5 0.327352 0.059797 0.135973
Si Si6 0.322985 0.695889 0.440817
Si Si7 0.679731 0.000000 0.443310
Si Si8 0.823217 0.601671 0.336475
O O1 0.500000 0.570374 0.929674
O O2 0.280376 0.500000 0.930796
O O3 0.229443 0.595263 0.873249
O O4 0.279430 0.577790 0.050721
O O5 0.250000 0.750000 0.686419
O O6 0.245509 0.847976 0.723207
O O7 0.222391 0.817918 0.548148
O O8 0.000000 0.801352 0.669676
O O9 0.500000 0.893348 0.759254
O O10 0.739707 0.948786 0.707923
O O11 0.243053 0.500000 0.549430
O O12 0.000000 0.500000 0.655043
O O13 0.500000 0.066925 0.103810
O O14 0.290227 0.095368 0.225792
O O15 0.296982 0.000000 0.164758
O O16 0.500000 0.701599 0.429741
O O17 0.250000 0.750000 0.409163
O O18 0.264462 0.651839 0.371412
O O19 0.740848 0.948630 0.391416
O O20 0.500000 0.000000 0.440167
O O21 0.000000 0.608699 0.356740
#
# Coordination Sequence:
#
# PCOD8172391 Si02
#       8
#     8   8   8   4   8   8   4   8
#     4  10  20  33  50  74 105 141 176 217 264 312
#     4  10  21  37  55  77 104 138 180 222 263 310
#     4  11  20  33  53  78 106 139 176 218 262 312
#     4   9  18  28  44  73 106 138 171 205 250 307
#     4   9  17  31  51  76 104 137 176 215 256 311
#     4  10  21  36  54  76 104 139 180 221 261 306
#     4   9  16  28  46  73 106 138 169 203 250 309
#     4  10  18  31  53  78 106 138 174 216 261 308
#
# _framework density 17.333083999999999
#
# number of rings (size 3 to 8) (size 9 to 14) (size 15 to 20)
#    0.000    2.143    1.429    2.571    0.000    4.000 
#    0.000    0.357    0.000    3.429    0.000    2.000 
#    0.000    0.000    0.000    0.000    0.000    0.000 
#
# Total GULP energy -347291.839351 kJ/mol
# GULP energy per Si atom -12403.279977 kJ/mol
# Density = 1.729363 g / cm^3
# Si number density = 17.333084 Si / 1000 Ang^3
#
#
#
# Elastic Constant Matrix: (Units=GPa)
#
#
# Indices 1 2 3 4 5 6 
#
# 1 61.6839 44.0684 37.7626 0.0000 0.0000 0.0000
# 2 44.0684 122.6547 63.9587 0.0000 0.0000 0.0000
# 3 37.7626 63.9587 103.6394 0.0000 0.0000 0.0000
# 4 0.0000 0.0000 0.0000 16.3770 0.0000 0.0000
# 5 0.0000 0.0000 0.0000 0.0000 26.9904 0.0000
# 6 0.0000 0.0000 0.0000 0.0000 0.0000 28.5378
#
#
#
# Elastic Compliance Matrix: (Units=1/GPa)
#
#
# Indices 1 2 3 4 5 6 
#
# 1 0.023396 -0.005840 -0.004921 0.000000 0.000000 0.000000
# 2 -0.005840 0.013479 -0.006191 0.000000 0.000000 0.000000
# 3 -0.004921 -0.006191 0.015262 0.000000 0.000000 0.000000
# 4 0.000000 0.000000 0.000000 0.061061 0.000000 0.000000
# 5 0.000000 0.000000 0.000000 0.000000 0.037050 0.000000
# 6 0.000000 0.000000 0.000000 0.000000 0.000000 0.035041
#
#
# Mechanical properties :
#
#
# Convention : Reuss Voigt Hill
#
# Bulk Modulus (GPa) = 54.83924 64.39523 59.61724
# Shear Modulus (GPa) = 22.19543 23.86028 23.02786
#
# Velocity S-wave (km/s) = 3.58232 3.71425 3.64888
# Velocity P-wave (km/s) = 6.98698 7.45831 7.22649
#
# Compressibility (1/GPa) = 0.01823512
#
# Stress axis : x y z
#
# Youngs Moduli (GPa) = 42.74153 74.18772 65.52168
#
# Poissons Ratio (x) = 0.43327 0.32242
# Poissons Ratio (y) = 0.24962 0.40561
# Poissons Ratio (z) = 0.21032 0.45926
#
# Static dielectric constant tensor:
#      x y z
#    x 3.104620 0.000000 0.000000 
#    y 0.000000 3.131200 0.000000 
#    z 0.000000 0.000000 3.251160 
# 
# 
# High freq. dielectric constant tensor:
#      x y z
#    x 1.663840 0.000000 0.000000 
#    y 0.000000 1.654920 0.000000 
#    z 0.000000 0.000000 1.670890 
# 
# From -- ./inp_files/15679.got.cif
#   From: 2010.03.12/outbox.cif.g09.slc.cpg/sg35_8_cif.got.tgz:15679.got - 2010.04.14 02:02:04.
