data_PCOD8172330
_publ_section_title
;
Structure prediction by ZEFSAII (Michael W. Deem and Ramdas Pophale) SiO2 
 PCOD8172330
Probable space group: C M M 2
;
_chemical_formula_sum "Si O2"
_cell_formula_units_Z 40
_cell_length_a 8.361966
_cell_length_b 26.003383
_cell_length_c 9.878756
_cell_angle_alpha 90.000000
_cell_angle_beta 90.000000
_cell_angle_gamma 90.000000
_cell_volume 2148.030822
_symmetry_space_group_name_H-M "C M M 2"
_symmetry_group_IT_number 35
_symmetry_cell_setting 'orthorhombic'
loop_
_space_group_symop_operation_xyz
x,y,z
-x,-y,z
-x,y,z
x,-y,z
1/2+x,1/2+y,z
1/2-x,1/2-y,z
1/2-x,1/2+y,z
1/2+x,1/2-y,z
loop_
_atom_site_type_symbol
_atom_site_label
_atom_site_fract_x
_atom_site_fract_y
_atom_site_fract_z
Si Si1 0.187575 0.105044 0.051970
Si Si2 0.188069 0.306377 0.241825
Si Si3 0.684983 0.000000 0.028819
Si Si4 0.809296 0.890262 0.744803
Si Si5 0.316738 0.500000 0.738382
Si Si6 0.309709 0.694624 0.537831
O O1 0.230829 0.152800 0.144565
O O2 0.000000 0.095737 0.056149
O O3 0.248375 0.117872 0.899303
O O4 0.273321 0.052915 0.108747
O O5 0.250000 0.250000 0.202180
O O6 0.233793 0.320409 0.394902
O O7 0.000000 0.308200 0.223050
O O8 0.802283 0.000000 0.900394
O O9 0.500000 0.000000 0.986953
O O10 0.743595 0.845406 0.648946
O O11 0.000000 0.890722 0.741163
O O12 0.741727 0.945644 0.687551
O O13 0.500000 0.500000 0.695864
O O14 0.500000 0.694283 0.524127
O O15 0.250000 0.750000 0.586974
#
# Coordination Sequence:
#
# PCOD8172330 Si02
#       6
#     8   8   4   8   4   8
#     4  10  19  35  56  79 105 138 174 213 257 307
#     4  11  22  37  54  75 102 137 175 216 261 312
#     4  10  18  30  49  78 109 138 170 210 256 306
#     4   8  16  30  53  78 100 127 168 212 252 300
#     4   8  14  30  51  72  99 134 168 206 254 306
#     4  10  19  34  52  73 100 134 170 209 255 309
#
# _framework density 18.621708000000002
#
# number of rings (size 3 to 8) (size 9 to 14) (size 15 to 20)
#    0.000    2.400    0.000    6.300    0.000    0.800 
#    0.000   13.000    0.000    2.400    0.000    0.000 
#    0.000    0.000    0.000    0.000    0.000    0.000 
#
# Total GULP energy -247851.087843 kJ/mol
# GULP energy per Si atom -12392.554392 kJ/mol
# Density = 1.857932 g / cm^3
# Si number density = 18.621708 Si / 1000 Ang^3
#
#
#
# Elastic Constant Matrix: (Units=GPa)
#
#
# Indices 1 2 3 4 5 6 
#
# 1 51.5748 14.1599 5.9050 0.0000 0.0000 0.0000
# 2 14.1599 175.9079 86.7822 0.0000 0.0000 0.0000
# 3 5.9050 86.7822 74.6601 0.0000 0.0000 0.0000
# 4 0.0000 0.0000 0.0000 1.5975 0.0000 0.0000
# 5 0.0000 0.0000 0.0000 0.0000 19.7377 0.0000
# 6 0.0000 0.0000 0.0000 0.0000 0.0000 30.2838
#
#
#
# Elastic Compliance Matrix: (Units=1/GPa)
#
#
# Indices 1 2 3 4 5 6 
#
# 1 0.019842 -0.001929 0.000673 0.000000 0.000000 0.000000
# 2 -0.001929 0.013515 -0.015556 0.000000 0.000000 0.000000
# 3 0.000673 -0.015556 0.031423 0.000000 0.000000 0.000000
# 4 0.000000 0.000000 0.000000 0.625980 0.000000 0.000000
# 5 0.000000 0.000000 0.000000 0.000000 0.050664 0.000000
# 6 0.000000 0.000000 0.000000 0.000000 0.000000 0.033021
#
#
# Mechanical properties :
#
#
# Convention : Reuss Voigt Hill
#
# Bulk Modulus (GPa) = 32.09793 57.31523 44.70658
# Shear Modulus (GPa) = 6.10907 23.34352 14.72630
#
# Velocity S-wave (km/s) = 1.81321 3.54441 2.81519
# Velocity P-wave (km/s) = 4.65381 6.89899 5.88447
#
# Compressibility (1/GPa) = 0.03115466
#
# Stress axis : x y z
#
# Youngs Moduli (GPa) = 50.39828 73.99383 31.82393
#
# Poissons Ratio (x) = 0.14276 -0.02143
# Poissons Ratio (y) = 0.09724 0.49506
# Poissons Ratio (z) = -0.03393 1.15107
#
# Static dielectric constant tensor:
#      x y z
#    x 3.281980 0.000000 0.000000 
#    y 0.000000 3.928510 0.000000 
#    z 0.000000 0.000000 3.288550 
# 
# 
# High freq. dielectric constant tensor:
#      x y z
#    x 1.715110 0.000000 0.000000 
#    y 0.000000 1.746360 0.000000 
#    z 0.000000 0.000000 1.689300 
# 
# From -- ./inp_files/4992.got.cif
#   From: 2010.03.12/outbox.cif.g09.slc.cpg/sg35_3_cif.got.tgz:4992.got - 2010.04.14 02:02:04.
