data_PCOD8172709
_publ_section_title
;
Structure prediction by ZEFSAII (Michael W. Deem and Ramdas Pophale) SiO2 
 PCOD8172709
Probable space group: C M M 2
;
_chemical_formula_sum "Si O2"
_cell_formula_units_Z 56
_cell_length_a 9.189085
_cell_length_b 18.847422
_cell_length_c 17.889091
_cell_angle_alpha 90.000000
_cell_angle_beta 90.000000
_cell_angle_gamma 90.000000
_cell_volume 3098.221738
_symmetry_space_group_name_H-M "C M M 2"
_symmetry_group_IT_number 35
_symmetry_cell_setting 'orthorhombic'
loop_
_space_group_symop_operation_xyz
x,y,z
-x,-y,z
-x,y,z
x,-y,z
1/2+x,1/2+y,z
1/2-x,1/2-y,z
1/2-x,1/2+y,z
1/2+x,1/2-y,z
loop_
_atom_site_type_symbol
_atom_site_label
_atom_site_fract_x
_atom_site_fract_y
_atom_site_fract_z
Si Si1 0.667542 0.319011 0.201760
Si Si2 0.171185 0.325587 0.948428
Si Si3 0.666292 0.178211 0.786035
Si Si4 0.330138 0.917593 0.486130
Si Si5 0.330251 0.175532 0.624610
Si Si6 0.827893 0.822098 0.372261
Si Si7 0.668749 0.581872 0.068164
O O1 0.500000 0.298614 0.198329
O O2 0.750000 0.250000 0.171250
O O3 0.713230 0.337975 0.286222
O O4 0.704963 0.385371 0.149195
O O5 0.250000 0.250000 0.958224
O O6 0.201264 0.360117 0.865274
O O7 0.000000 0.314371 0.963053
O O8 0.233085 0.381947 0.005897
O O9 0.500000 0.200336 0.786191
O O10 0.750000 0.250000 0.785316
O O11 0.703052 0.139420 0.706885
O O12 0.500000 0.904062 0.469708
O O13 0.278416 0.880222 0.562653
O O14 0.234827 0.887704 0.418399
O O15 0.295011 0.000000 0.494609
O O16 0.500000 0.191706 0.615674
O O17 0.250000 0.250000 0.613153
O O18 0.750000 0.750000 0.399651
O O19 0.000000 0.814786 0.384977
O O20 0.500000 0.592906 0.047418
O O21 0.711558 0.500000 0.072422
#
# Coordination Sequence:
#
# PCOD8172709 Si02
#       7
#     8   8   8   8   8   8   8
#     4   9  19  35  55  77  99 127 164 205 248 296
#     4  10  19  32  52  77 103 131 167 209 251 296
#     4   8  15  28  47  72  98 125 161 205 249 292
#     4  10  21  35  50  72 104 138 170 205 247 295
#     4   9  17  31  51  73  97 128 166 206 249 295
#     4  10  20  35  56  79 102 129 164 206 250 297
#     4  10  21  36  52  72 102 137 169 203 247 297
#
# _framework density 18.074884000000001
#
# number of rings (size 3 to 8) (size 9 to 14) (size 15 to 20)
#    0.000    2.571    0.000    1.714    0.000    5.714 
#    0.000    2.143    0.000    2.571    0.000    0.000 
#    0.000    0.000    0.000    0.000    0.000    0.000 
#
# Total GULP energy -347009.002568 kJ/mol
# GULP energy per Si atom -12393.178663 kJ/mol
# Density = 1.803375 g / cm^3
# Si number density = 18.074884 Si / 1000 Ang^3
#
#
#
# Elastic Constant Matrix: (Units=GPa)
#
#
# Indices 1 2 3 4 5 6 
#
# 1 63.1352 49.8777 55.5878 0.0000 0.0000 0.0000
# 2 49.8777 117.6578 77.1544 0.0000 0.0000 0.0000
# 3 55.5878 77.1544 136.9692 0.0000 0.0000 0.0000
# 4 0.0000 0.0000 0.0000 8.2829 0.0000 0.0000
# 5 0.0000 0.0000 0.0000 0.0000 26.2627 0.0000
# 6 0.0000 0.0000 0.0000 0.0000 0.0000 25.7588
#
#
#
# Elastic Compliance Matrix: (Units=1/GPa)
#
#
# Indices 1 2 3 4 5 6 
#
# 1 0.027832 -0.006964 -0.007373 0.000000 0.000000 0.000000
# 2 -0.006964 0.015220 -0.005747 0.000000 0.000000 0.000000
# 3 -0.007373 -0.005747 0.013530 0.000000 0.000000 0.000000
# 4 0.000000 0.000000 0.000000 0.120730 0.000000 0.000000
# 5 0.000000 0.000000 0.000000 0.000000 0.038077 0.000000
# 6 0.000000 0.000000 0.000000 0.000000 0.000000 0.038822
#
#
# Mechanical properties :
#
#
# Convention : Reuss Voigt Hill
#
# Bulk Modulus (GPa) = 60.91999 75.88910 68.40454
# Shear Modulus (GPa) = 16.67499 21.07037 18.87268
#
# Velocity S-wave (km/s) = 3.04065 3.41798 3.23482
# Velocity P-wave (km/s) = 6.79005 7.59301 7.20273
#
# Compressibility (1/GPa) = 0.01641497
#
# Stress axis : x y z
#
# Youngs Moduli (GPa) = 35.93004 65.70245 73.90782
#
# Poissons Ratio (x) = 0.45755 0.54489
# Poissons Ratio (y) = 0.25022 0.42476
# Poissons Ratio (z) = 0.26490 0.37760
#
# Static dielectric constant tensor:
#      x y z
#    x 3.365390 0.000000 0.000000 
#    y 0.000000 3.058430 0.000000 
#    z 0.000000 0.000000 4.055670 
# 
# 
# High freq. dielectric constant tensor:
#      x y z
#    x 1.701960 0.000000 0.000000 
#    y 0.000000 1.668740 0.000000 
#    z 0.000000 0.000000 1.723460 
# 
# From -- ./inp_files/18229.got.cif
#   From: 2010.03.12/outbox.cif.g09.slc.cpg/sg35_10_cif.got.tgz:18229.got - 2010.04.14 02:02:04.
