data_PCOD8172588
_publ_section_title
;
Structure prediction by ZEFSAII (Michael W. Deem and Ramdas Pophale) SiO2 
 PCOD8172588
Probable space group: C M M 2
;
_chemical_formula_sum "Si O2"
_cell_formula_units_Z 64
_cell_length_a 8.765013
_cell_length_b 29.593885
_cell_length_c 12.562701
_cell_angle_alpha 90.000000
_cell_angle_beta 90.000000
_cell_angle_gamma 90.000000
_cell_volume 3258.648896
_symmetry_space_group_name_H-M "C M M 2"
_symmetry_group_IT_number 35
_symmetry_cell_setting 'orthorhombic'
loop_
_space_group_symop_operation_xyz
x,y,z
-x,-y,z
-x,y,z
x,-y,z
1/2+x,1/2+y,z
1/2-x,1/2-y,z
1/2-x,1/2+y,z
1/2+x,1/2-y,z
loop_
_atom_site_type_symbol
_atom_site_label
_atom_site_fract_x
_atom_site_fract_y
_atom_site_fract_z
Si Si1 0.822936 0.892208 0.495720
Si Si2 0.823032 0.682917 0.208479
Si Si3 0.819469 0.884930 0.888471
Si Si4 0.173118 0.905477 0.263355
Si Si5 0.681410 0.448180 0.693048
Si Si6 0.680436 0.796591 0.968957
Si Si7 0.679713 0.705203 0.425242
Si Si8 0.824212 0.952322 0.058401
O O1 0.793373 0.919140 0.385288
O O2 0.748538 0.922334 0.589316
O O3 0.757246 0.840782 0.482229
O O4 0.000000 0.887447 0.522261
O O5 0.795874 0.629751 0.220018
O O6 0.725571 0.707057 0.300652
O O7 0.000000 0.694502 0.224653
O O8 0.764645 0.697485 0.091485
O O9 0.766802 0.916845 0.791261
O O10 0.740088 0.836134 0.890596
O O11 0.000000 0.876806 0.887192
O O12 0.755443 0.910340 0.994007
O O13 0.190256 0.948151 0.186044
O O14 0.000000 0.885106 0.256812
O O15 0.500000 0.451096 0.686655
O O16 0.745269 0.500000 0.701467
O O17 0.500000 0.795399 0.961675
O O18 0.750000 0.750000 0.924928
O O19 0.500000 0.707247 0.435122
O O20 0.750000 0.750000 0.481273
O O21 0.000000 0.954598 0.023424
O O22 0.745676 0.000000 0.026666
#
# Coordination Sequence:
#
# PCOD8172588 Si02
#       8
#     8   8   8   8   8   8   8   8
#     4   8  16  29  46  72 105 137 171 215 262 306
#     4  10  19  31  49  74 105 141 177 214 256 310
#     4  10  19  33  54  77 106 139 174 221 266 309
#     4   9  16  28  47  72 107 145 174 212 259 306
#     4   9  17  31  54  82 107 135 177 225 268 309
#     4  11  23  36  53  77 106 140 177 216 263 319
#     4  10  19  31  49  74 106 142 178 214 259 310
#     4   9  16  26  45  75 105 135 173 213 257 308
#
# _framework density 19.640042000000001
#
# number of rings (size 3 to 8) (size 9 to 14) (size 15 to 20)
#    0.000    2.500    1.250    2.625    0.000    4.500 
#    0.000    3.125    0.000    7.875    0.000    0.000 
#    0.000    0.000    0.000    0.000    0.000    0.000 
#
# Total GULP energy -396464.158557 kJ/mol
# GULP energy per Si atom -12389.504955 kJ/mol
# Density = 1.959534 g / cm^3
# Si number density = 19.640042 Si / 1000 Ang^3
#
#
#
# Elastic Constant Matrix: (Units=GPa)
#
#
# Indices 1 2 3 4 5 6 
#
# 1 37.7173 27.5531 20.1711 0.0000 0.0000 0.0000
# 2 27.5531 162.4023 71.5874 0.0000 0.0000 0.0000
# 3 20.1711 71.5874 114.8744 0.0000 0.0000 0.0000
# 4 0.0000 0.0000 0.0000 20.9179 0.0000 0.0000
# 5 0.0000 0.0000 0.0000 0.0000 13.0057 0.0000
# 6 0.0000 0.0000 0.0000 0.0000 0.0000 20.2703
#
#
#
# Elastic Compliance Matrix: (Units=1/GPa)
#
#
# Indices 1 2 3 4 5 6 
#
# 1 0.030989 -0.003942 -0.002985 0.000000 0.000000 0.000000
# 2 -0.003942 0.008991 -0.004911 0.000000 0.000000 0.000000
# 3 -0.002985 -0.004911 0.012290 0.000000 0.000000 0.000000
# 4 0.000000 0.000000 0.000000 0.047806 0.000000 0.000000
# 5 0.000000 0.000000 0.000000 0.000000 0.076889 0.000000
# 6 0.000000 0.000000 0.000000 0.000000 0.000000 0.049333
#
#
# Mechanical properties :
#
#
# Convention : Reuss Voigt Hill
#
# Bulk Modulus (GPa) = 34.97199 61.51302 48.24251
# Shear Modulus (GPa) = 19.26748 23.88428 21.57588
#
# Velocity S-wave (km/s) = 3.13554 3.49105 3.31806
# Velocity P-wave (km/s) = 5.56363 6.90203 6.26865
#
# Compressibility (1/GPa) = 0.02859431
#
# Stress axis : x y z
#
# Youngs Moduli (GPa) = 32.26962 111.22178 81.36915
#
# Poissons Ratio (x) = 0.43841 0.24289
# Poissons Ratio (y) = 0.12720 0.39959
# Poissons Ratio (z) = 0.09632 0.54620
#
# Static dielectric constant tensor:
#      x y z
#    x 3.119950 0.000000 0.000000 
#    y 0.000000 3.851660 0.000000 
#    z 0.000000 0.000000 3.610440 
# 
# 
# High freq. dielectric constant tensor:
#      x y z
#    x 1.714560 0.000000 0.000000 
#    y 0.000000 1.775210 0.000000 
#    z 0.000000 0.000000 1.750020 
# 
# From -- ./inp_files/11866.got.cif
#   From: 2010.03.12/outbox.cif.g09.slc.cpg/sg35_6_cif.got.tgz:11866.got - 2010.04.14 02:02:04.
