data_PCOD8172794
_publ_section_title
;
Structure prediction by ZEFSAII (Michael W. Deem and Ramdas Pophale) SiO2 
 PCOD8172794
Probable space group: C M M 2
;
_chemical_formula_sum "Si O2"
_cell_formula_units_Z 48
_cell_length_a 18.503533
_cell_length_b 26.923401
_cell_length_c 5.051837
_cell_angle_alpha 90.000000
_cell_angle_beta 90.000000
_cell_angle_gamma 90.000000
_cell_volume 2516.714249
_symmetry_space_group_name_H-M "C M M 2"
_symmetry_group_IT_number 35
_symmetry_cell_setting 'orthorhombic'
loop_
_space_group_symop_operation_xyz
x,y,z
-x,-y,z
-x,y,z
x,-y,z
1/2+x,1/2+y,z
1/2-x,1/2-y,z
1/2-x,1/2+y,z
1/2+x,1/2-y,z
loop_
_atom_site_type_symbol
_atom_site_label
_atom_site_fract_x
_atom_site_fract_y
_atom_site_fract_z
Si Si1 0.081084 0.245581 0.100730
Si Si2 0.080516 0.058471 0.096027
Si Si3 0.328747 0.441889 0.605029
Si Si4 0.280148 0.304406 0.006650
Si Si5 0.725456 0.142145 0.506630
Si Si6 0.581477 0.188355 0.602635
O O1 0.133386 0.198556 0.054692
O O2 0.092668 0.267550 0.392601
O O3 0.000000 0.225512 0.061702
O O4 0.097852 0.289444 0.891520
O O5 0.114101 0.071383 0.378097
O O6 0.000000 0.081857 0.076655
O O7 0.074250 0.000000 0.052460
O O8 0.134144 0.079191 0.871003
O O9 0.309989 0.500000 0.616449
O O10 0.253071 0.413650 0.560545
O O11 0.250000 0.250000 0.068112
O O12 0.244522 0.343458 0.206754
O O13 0.264588 0.319659 0.705592
O O14 0.638714 0.144200 0.548529
O O15 0.500000 0.166521 0.584284
#
# Coordination Sequence:
#
# PCOD8172794 Si02
#       6
#     8   8   8   8   8   8
#     4  10  20  34  51  74 106 139 168 209 259 307
#     4   9  17  33  56  77 100 138 184 222 262 314
#     4  10  21  36  54  80 109 141 182 229 269 311
#     4  12  21  35  56  79 107 138 174 221 261 322
#     4  12  22  35  55  81 105 141 180 217 268 319
#     4  10  19  33  53  76 100 134 177 212 250 315
#
# _framework density 19.072488
#
# number of rings (size 3 to 8) (size 9 to 14) (size 15 to 20)
#    0.000    1.500    3.333    3.000    0.000    2.000 
#    0.000    5.000    0.000    0.500    0.000    0.000 
#    0.000   10.667    0.000    0.000    0.000    1.667 
#
# Total GULP energy -297650.366520 kJ/mol
# GULP energy per Si atom -12402.098605 kJ/mol
# Density = 1.902908 g / cm^3
# Si number density = 19.072488 Si / 1000 Ang^3
#
#
#
# Elastic Constant Matrix: (Units=GPa)
#
#
# Indices 1 2 3 4 5 6 
#
# 1 122.1290 35.1771 8.4874 0.0000 0.0000 0.0000
# 2 35.1771 46.5208 8.9514 0.0000 0.0000 0.0000
# 3 8.4874 8.9514 81.4710 0.0000 0.0000 0.0000
# 4 0.0000 0.0000 0.0000 18.3325 0.0000 0.0000
# 5 0.0000 0.0000 0.0000 0.0000 23.7699 0.0000
# 6 0.0000 0.0000 0.0000 0.0000 0.0000 27.1186
#
#
#
# Elastic Compliance Matrix: (Units=1/GPa)
#
#
# Indices 1 2 3 4 5 6 
#
# 1 0.010472 -0.007875 -0.000226 0.000000 0.000000 0.000000
# 2 -0.007875 0.027882 -0.002243 0.000000 0.000000 0.000000
# 3 -0.000226 -0.002243 0.012544 0.000000 0.000000 0.000000
# 4 0.000000 0.000000 0.000000 0.054548 0.000000 0.000000
# 5 0.000000 0.000000 0.000000 0.000000 0.042070 0.000000
# 6 0.000000 0.000000 0.000000 0.000000 0.000000 0.036875
#
#
# Mechanical properties :
#
#
# Convention : Reuss Voigt Hill
#
# Bulk Modulus (GPa) = 33.10077 39.48361 36.29219
# Shear Modulus (GPa) = 23.23965 27.01119 25.12542
#
# Velocity S-wave (km/s) = 3.49448 3.76738 3.63349
# Velocity P-wave (km/s) = 5.80299 6.29849 6.05581
#
# Compressibility (1/GPa) = 0.03021078
#
# Stress axis : x y z
#
# Youngs Moduli (GPa) = 95.49257 35.86522 79.71772
#
# Poissons Ratio (x) = 0.28244 0.01799
# Poissons Ratio (y) = 0.75201 0.17881
# Poissons Ratio (z) = 0.02155 0.08045
#
# Static dielectric constant tensor:
#      x y z
#    x 3.843080 0.000000 0.000000 
#    y 0.000000 3.067300 0.000000 
#    z 0.000000 0.000000 3.659410 
# 
# 
# High freq. dielectric constant tensor:
#      x y z
#    x 1.748790 0.000000 0.000000 
#    y 0.000000 1.687550 0.000000 
#    z 0.000000 0.000000 1.764720 
# 
# From -- ./inp_files/2568.got.cif
#   From: 2010.03.12/outbox.cif.g09.slc.cpg/sg35_2_cif.got.tgz:2568.got - 2010.04.14 02:02:04.
