data_PCOD8172614
_publ_section_title
;
Structure prediction by ZEFSAII (Michael W. Deem and Ramdas Pophale) SiO2 
 PCOD8172614
Probable space group: C M M 2
;
_chemical_formula_sum "Si O2"
_cell_formula_units_Z 64
_cell_length_a 8.957919
_cell_length_b 19.107334
_cell_length_c 20.377935
_cell_angle_alpha 90.000000
_cell_angle_beta 90.000000
_cell_angle_gamma 90.000000
_cell_volume 3487.927097
_symmetry_space_group_name_H-M "C M M 2"
_symmetry_group_IT_number 35
_symmetry_cell_setting 'orthorhombic'
loop_
_space_group_symop_operation_xyz
x,y,z
-x,-y,z
-x,y,z
x,-y,z
1/2+x,1/2+y,z
1/2-x,1/2-y,z
1/2-x,1/2+y,z
1/2+x,1/2-y,z
loop_
_atom_site_type_symbol
_atom_site_label
_atom_site_fract_x
_atom_site_fract_y
_atom_site_fract_z
Si Si1 0.173512 0.175539 0.143920
Si Si2 0.173447 0.174900 0.998434
Si Si3 0.176228 0.321879 0.627329
Si Si4 0.829261 0.082472 0.525003
Si Si5 0.173435 0.419496 0.392773
Si Si6 0.323162 0.174094 0.270132
Si Si7 0.175320 0.580156 0.891800
Si Si8 0.825828 0.679450 0.776166
O O1 0.250000 0.250000 0.140323
O O2 0.257186 0.136239 0.204117
O O3 0.000000 0.182787 0.161498
O O4 0.196423 0.142316 0.071748
O O5 0.250000 0.250000 0.988821
O O6 0.240225 0.117618 0.950535
O O7 0.000000 0.186277 0.983225
O O8 0.250000 0.250000 0.602733
O O9 0.234643 0.384958 0.583590
O O10 0.225560 0.338018 0.702165
O O11 0.000000 0.315442 0.620072
O O12 0.765878 0.107871 0.455164
O O13 0.000000 0.106728 0.530418
O O14 0.810978 0.000000 0.531792
O O15 0.210682 0.500000 0.376825
O O16 0.223818 0.374107 0.330789
O O17 0.000000 0.409251 0.409066
O O18 0.500000 0.181342 0.263773
O O19 0.250000 0.250000 0.280265
O O20 0.227415 0.500000 0.888555
O O21 0.220670 0.615289 0.822691
O O22 0.000000 0.586738 0.904813
O O23 0.750000 0.750000 0.802762
O O24 0.000000 0.693694 0.778690
#
# Coordination Sequence:
#
# PCOD8172614 Si02
#       8
#     8   8   8   8   8   8   8   8
#     4   9  17  30  49  73 101 131 165 207 252 301
#     4  10  20  34  54  78 103 135 175 215 257 308
#     4  10  20  35  56  80 107 137 169 211 259 306
#     4  10  21  36  54  77 105 137 174 215 257 305
#     4   9  19  36  54  72  98 135 176 212 250 301
#     4  10  19  31  51  77 103 130 164 209 255 302
#     4  10  21  36  53  76 107 139 172 213 258 304
#     4   9  19  35  55  78 103 134 172 211 254 306
#
# _framework density 18.349008000000001
#
# number of rings (size 3 to 8) (size 9 to 14) (size 15 to 20)
#    0.000    2.375    0.000    3.000    0.000    6.500 
#    0.000    3.125    0.000    2.250    0.000    0.000 
#    0.000    0.000    0.000    0.000    0.000    0.000 
#
# Total GULP energy -396753.518922 kJ/mol
# GULP energy per Si atom -12398.547466 kJ/mol
# Density = 1.830724 g / cm^3
# Si number density = 18.349008 Si / 1000 Ang^3
#
#
#
# Elastic Constant Matrix: (Units=GPa)
#
#
# Indices 1 2 3 4 5 6 
#
# 1 86.8470 45.3931 62.4476 0.0000 0.0000 0.0000
# 2 45.3931 90.2552 71.6156 0.0000 0.0000 0.0000
# 3 62.4476 71.6156 142.2091 0.0000 0.0000 0.0000
# 4 0.0000 0.0000 0.0000 2.6316 0.0000 0.0000
# 5 0.0000 0.0000 0.0000 0.0000 33.4616 0.0000
# 6 0.0000 0.0000 0.0000 0.0000 0.0000 27.2268
#
#
#
# Elastic Compliance Matrix: (Units=1/GPa)
#
#
# Indices 1 2 3 4 5 6 
#
# 1 0.017910 -0.004609 -0.005544 0.000000 0.000000 0.000000
# 2 -0.004609 0.019640 -0.007867 0.000000 0.000000 0.000000
# 3 -0.005544 -0.007867 0.013428 0.000000 0.000000 0.000000
# 4 0.000000 0.000000 0.000000 0.379996 0.000000 0.000000
# 5 0.000000 0.000000 0.000000 0.000000 0.029885 0.000000
# 6 0.000000 0.000000 0.000000 0.000000 0.000000 0.036728
#
#
# Mechanical properties :
#
#
# Convention : Reuss Voigt Hill
#
# Bulk Modulus (GPa) = 66.93837 75.35822 71.14829
# Shear Modulus (GPa) = 9.28326 21.98768 15.63547
#
# Velocity S-wave (km/s) = 2.25172 3.46541 2.92227
# Velocity P-wave (km/s) = 6.58181 7.56112 7.08840
#
# Compressibility (1/GPa) = 0.01493912
#
# Stress axis : x y z
#
# Youngs Moduli (GPa) = 55.83619 50.91770 74.47252
#
# Poissons Ratio (x) = 0.23467 0.41285
# Poissons Ratio (y) = 0.25733 0.58584
# Poissons Ratio (z) = 0.30953 0.40055
#
# Static dielectric constant tensor:
#      x y z
#    x 3.457070 0.000000 0.000000 
#    y 0.000000 3.193730 0.000000 
#    z 0.000000 0.000000 3.894220 
# 
# 
# High freq. dielectric constant tensor:
#      x y z
#    x 1.720280 0.000000 0.000000 
#    y 0.000000 1.686360 0.000000 
#    z 0.000000 0.000000 1.728360 
# 
# From -- ./inp_files/18376.got.cif
#   From: 2010.03.12/outbox.cif.g09.slc.cpg/sg35_10_cif.got.tgz:18376.got - 2010.04.14 02:02:04.
