data_PCOD8172698
_publ_section_title
;
Structure prediction by ZEFSAII (Michael W. Deem and Ramdas Pophale) SiO2 
 PCOD8172698
Probable space group: C M M 2
;
_chemical_formula_sum "Si O2"
_cell_formula_units_Z 48
_cell_length_a 18.251463
_cell_length_b 8.876540
_cell_length_c 15.618236
_cell_angle_alpha 90.000000
_cell_angle_beta 90.000000
_cell_angle_gamma 90.000000
_cell_volume 2530.307937
_symmetry_space_group_name_H-M "C M M 2"
_symmetry_group_IT_number 35
_symmetry_cell_setting 'orthorhombic'
loop_
_space_group_symop_operation_xyz
x,y,z
-x,-y,z
-x,y,z
x,-y,z
1/2+x,1/2+y,z
1/2-x,1/2-y,z
1/2-x,1/2+y,z
1/2+x,1/2-y,z
loop_
_atom_site_type_symbol
_atom_site_label
_atom_site_fract_x
_atom_site_fract_y
_atom_site_fract_z
Si Si1 0.329064 0.176439 0.531570
Si Si2 0.670873 0.177774 0.019313
Si Si3 0.328616 0.823820 0.343860
Si Si4 0.918069 0.320695 0.183179
Si Si5 0.914551 0.174010 0.868174
Si Si6 0.170748 0.176707 0.697768
O O1 0.250000 0.250000 0.528682
O O2 0.364580 0.208337 0.437925
O O3 0.369223 0.255541 0.612231
O O4 0.323404 0.000000 0.549836
O O5 0.750000 0.250000 0.011863
O O6 0.622407 0.221082 0.938294
O O7 0.680316 0.000000 0.022013
O O8 0.630733 0.238842 0.104500
O O9 0.250000 0.750000 0.332114
O O10 0.383547 0.760318 0.271942
O O11 0.315909 0.000000 0.331238
O O12 0.921095 0.500000 0.182597
O O13 0.000000 0.254211 0.174583
O O14 0.881486 0.216583 0.776415
O O15 0.000000 0.210581 0.865709
O O16 0.899142 0.000000 0.890732
O O17 0.250000 0.250000 0.713795
O O18 0.181295 0.000000 0.685909
#
# Coordination Sequence:
#
# PCOD8172698 Si02
#       6
#     8   8   8   8   8   8
#     4   9  16  27  46  73 101 130 167 210 254 296
#     4  11  22  36  57  82 105 134 173 215 258 305
#     4   9  17  30  50  74 100 132 169 209 252 298
#     4   9  18  33  52  75 104 136 169 206 251 304
#     4  10  22  39  56  76 105 139 172 210 260 313
#     4  10  19  32  52  75 100 133 171 211 255 303
#
# _framework density 18.970022
#
# number of rings (size 3 to 8) (size 9 to 14) (size 15 to 20)
#    0.000    2.333    0.000    4.000    0.000    4.333 
#    0.000    1.667    0.000    3.500    0.000    0.000 
#    0.000    0.000    0.000    0.000    0.000    0.000 
#
# Total GULP energy -297504.330922 kJ/mol
# GULP energy per Si atom -12396.013788 kJ/mol
# Density = 1.892685 g / cm^3
# Si number density = 18.970022 Si / 1000 Ang^3
#
#
#
# Elastic Constant Matrix: (Units=GPa)
#
#
# Indices 1 2 3 4 5 6 
#
# 1 106.1988 32.3134 70.6294 0.0000 0.0000 0.0000
# 2 32.3134 67.1116 53.9319 0.0000 0.0000 0.0000
# 3 70.6294 53.9319 181.4745 0.0000 0.0000 0.0000
# 4 0.0000 0.0000 0.0000 327.7089 0.0000 0.0000
# 5 0.0000 0.0000 0.0000 0.0000 8.5379 0.0000
# 6 0.0000 0.0000 0.0000 0.0000 0.0000 8.5852
#
#
#
# Elastic Compliance Matrix: (Units=1/GPa)
#
#
# Indices 1 2 3 4 5 6 
#
# 1 0.013123 -0.002909 -0.004243 0.000000 0.000000 0.000000
# 2 -0.002909 0.020220 -0.004877 0.000000 0.000000 0.000000
# 3 -0.004243 -0.004877 0.008611 0.000000 0.000000 0.000000
# 4 0.000000 0.000000 0.000000 0.003051 0.000000 0.000000
# 5 0.000000 0.000000 0.000000 0.000000 0.117126 0.000000
# 6 0.000000 0.000000 0.000000 0.000000 0.000000 0.116480
#
#
# Mechanical properties :
#
#
# Convention : Reuss Voigt Hill
#
# Bulk Modulus (GPa) = 55.87589 74.28161 65.07875
# Shear Modulus (GPa) = 16.20032 82.16040 49.18036
#
# Velocity S-wave (km/s) = 2.92549 6.58822 5.09721
# Velocity P-wave (km/s) = 6.39766 9.85471 8.30799
#
# Compressibility (1/GPa) = 0.01789681
#
# Stress axis : x y z
#
# Youngs Moduli (GPa) = 76.20013 49.45478 116.12737
#
# Poissons Ratio (x) = 0.14386 0.49274
# Poissons Ratio (y) = 0.22166 0.56637
# Poissons Ratio (z) = 0.32332 0.24120
#
# Static dielectric constant tensor:
#      x y z
#    x 3.340240 0.000000 0.000000 
#    y 0.000000 3.312460 0.000000 
#    z 0.000000 0.000000 4.219220 
# 
# 
# High freq. dielectric constant tensor:
#      x y z
#    x 1.713400 0.000000 0.000000 
#    y 0.000000 1.725900 0.000000 
#    z 0.000000 0.000000 1.764300 
# 
# From -- ./inp_files/15166.got.cif
#   From: 2010.03.12/outbox.cif.g09.slc.cpg/sg35_8_cif.got.tgz:15166.got - 2010.04.14 02:02:04.
