data_PCOD8172894
_publ_section_title
;
Structure prediction by ZEFSAII (Michael W. Deem and Ramdas Pophale) SiO2 
 PCOD8172894
Probable space group: C M M 2
;
_chemical_formula_sum "Si O2"
_cell_formula_units_Z 64
_cell_length_a 31.235475
_cell_length_b 9.312741
_cell_length_c 11.536421
_cell_angle_alpha 90.000000
_cell_angle_beta 90.000000
_cell_angle_gamma 90.000000
_cell_volume 3355.805148
_symmetry_space_group_name_H-M "C M M 2"
_symmetry_group_IT_number 35
_symmetry_cell_setting 'orthorhombic'
loop_
_space_group_symop_operation_xyz
x,y,z
-x,-y,z
-x,y,z
x,-y,z
1/2+x,1/2+y,z
1/2-x,1/2-y,z
1/2-x,1/2+y,z
1/2+x,1/2-y,z
loop_
_atom_site_type_symbol
_atom_site_label
_atom_site_fract_x
_atom_site_fract_y
_atom_site_fract_z
Si Si1 0.628719 0.834230 0.125000
Si Si2 0.591300 0.165611 0.567444
Si Si3 0.786439 0.840065 0.489392
Si Si4 0.319869 0.163993 0.693177
Si Si5 0.794438 0.331744 0.951878
Si Si6 0.874570 0.836727 0.359584
Si Si7 0.450687 0.342635 0.748915
Si Si8 0.549144 0.164007 0.965348
O O1 0.628770 0.730314 0.233787
O O2 0.634213 0.000000 0.162787
O O3 0.668181 0.788753 0.042189
O O4 0.581931 0.810494 0.069643
O O5 0.631265 0.184556 0.653827
O O6 0.596202 0.238695 0.441973
O O7 0.553716 0.249878 0.632192
O O8 0.579363 0.000000 0.547054
O O9 0.750000 0.750000 0.421686
O O10 0.791575 0.767746 0.614909
O O11 0.827606 0.836318 0.411110
O O12 0.770054 0.000000 0.510829
O O13 0.313014 0.210593 0.825913
O O14 0.305658 0.000000 0.673064
O O15 0.784498 0.500000 0.959088
O O16 0.750000 0.250000 0.979423
O O17 0.892428 0.000000 0.353344
O O18 0.500000 0.366043 0.771610
O O19 0.428259 0.500000 0.736991
O O20 0.432610 0.259258 0.860344
O O21 0.500000 0.202208 0.002735
O O22 0.551340 0.000000 0.922253
#
# Coordination Sequence:
#
# PCOD8172894 Si02
#       8
#     8   8   8   8   8   8   8   8
#     4  10  21  38  57  77 105 142 183 228 274 318
#     4  10  19  34  57  80 104 138 178 219 267 321
#     4  10  20  33  51  75 102 133 172 219 268 319
#     4   9  18  33  53  77 104 134 171 218 270 321
#     4  10  21  35  51  75 108 142 177 218 265 319
#     4  10  22  38  54  75 103 137 180 224 267 320
#     4  10  20  33  52  82 117 145 170 208 261 319
#     4   9  18  35  60  86 109 137 178 224 269 323
#
# _framework density 19.071428999999998
#
# number of rings (size 3 to 8) (size 9 to 14) (size 15 to 20)
#    0.000    2.250    0.000    2.625    0.000    7.750 
#    0.000    4.375    0.000    2.250    0.000    0.000 
#    0.000    0.000    0.000    0.000    0.000    0.000 
#
# Total GULP energy -396697.506499 kJ/mol
# GULP energy per Si atom -12396.797078 kJ/mol
# Density = 1.902802 g / cm^3
# Si number density = 19.071429 Si / 1000 Ang^3
#
#
#
# Elastic Constant Matrix: (Units=GPa)
#
#
# Indices 1 2 3 4 5 6 
#
# 1 56.5915 33.5188 36.2605 0.0000 0.0000 0.0000
# 2 33.5188 139.7160 72.8968 0.0000 0.0000 0.0000
# 3 36.2605 72.8968 124.7341 0.0000 0.0000 0.0000
# 4 0.0000 0.0000 0.0000 5.4682 0.0000 0.0000
# 5 0.0000 0.0000 0.0000 0.0000 -0.5539 0.0000
# 6 0.0000 0.0000 0.0000 0.0000 0.0000 26.9211
#
#
#
# Elastic Compliance Matrix: (Units=1/GPa)
#
#
# Indices 1 2 3 4 5 6 
#
# 1 0.022479 -0.002853 -0.004867 0.000000 0.000000 0.000000
# 2 -0.002853 0.010659 -0.005400 0.000000 0.000000 0.000000
# 3 -0.004867 -0.005400 0.012588 0.000000 0.000000 0.000000
# 4 0.000000 0.000000 0.000000 0.182875 0.000000 0.000000
# 5 0.000000 0.000000 0.000000 0.000000 -1.805360 0.000000
# 6 0.000000 0.000000 0.000000 0.000000 0.000000 0.037146
#
#
# Mechanical properties :
#
#
# Convention : Reuss Voigt Hill
#
# Bulk Modulus (GPa) = 51.32123 67.37708 59.34915
# Shear Modulus (GPa) = -3.31812 18.25811 7.46999
#
# Velocity S-wave (km/s) = -1.32046 3.09747 1.98125
# Velocity P-wave (km/s) = 4.96423 6.94247 6.03496
#
# Compressibility (1/GPa) = 0.01948511
#
# Stress axis : x y z
#
# Youngs Moduli (GPa) = 44.48564 93.81382 79.44199
#
# Poissons Ratio (x) = 0.26770 0.38665
# Poissons Ratio (y) = 0.12694 0.42899
# Poissons Ratio (z) = 0.21652 0.50660
#
# Static dielectric constant tensor:
#      x y z
#    x 3.536100 0.000000 0.000000 
#    y 0.000000 3.881740 0.000000 
#    z 0.000000 0.000000 3.331250 
# 
# 
# High freq. dielectric constant tensor:
#      x y z
#    x 1.736160 0.000000 0.000000 
#    y 0.000000 1.751260 0.000000 
#    z 0.000000 0.000000 1.729980 
# 
# From -- ./inp_files/11843.got.cif
#   From: 2010.03.12/outbox.cif.g09.slc.cpg/sg35_6_cif.got.tgz:11843.got - 2010.04.14 02:02:04.
