data_PCOD8172913
_publ_section_title
;
Structure prediction by ZEFSAII (Michael W. Deem and Ramdas Pophale) SiO2 
 PCOD8172913
Probable space group: C M M 2
;
_chemical_formula_sum "Si O2"
_cell_formula_units_Z 64
_cell_length_a 13.763232
_cell_length_b 23.741262
_cell_length_c 9.385452
_cell_angle_alpha 90.000000
_cell_angle_beta 90.000000
_cell_angle_gamma 90.000000
_cell_volume 3066.757417
_symmetry_space_group_name_H-M "C M M 2"
_symmetry_group_IT_number 35
_symmetry_cell_setting 'orthorhombic'
loop_
_space_group_symop_operation_xyz
x,y,z
-x,-y,z
-x,y,z
x,-y,z
1/2+x,1/2+y,z
1/2-x,1/2-y,z
1/2-x,1/2+y,z
1/2+x,1/2-y,z
loop_
_atom_site_type_symbol
_atom_site_label
_atom_site_fract_x
_atom_site_fract_y
_atom_site_fract_z
Si Si1 0.390965 0.864883 0.211440
Si Si2 0.855479 0.730670 0.997558
Si Si3 0.885125 0.874634 0.615996
Si Si4 0.236862 0.690335 0.441843
Si Si5 0.243615 0.562567 0.028311
Si Si6 0.886986 0.675491 0.697715
Si Si7 0.209983 0.439539 0.698047
Si Si8 0.896262 0.148077 0.934602
O O1 0.500000 0.881040 0.262161
O O2 0.320877 0.854287 0.345559
O O3 0.347054 0.916978 0.122685
O O4 0.401214 0.808861 0.116711
O O5 0.750000 0.750000 0.043751
O O6 0.850529 0.694188 0.852721
O O7 0.914600 0.788497 0.988266
O O8 0.840921 0.835800 0.490201
O O9 0.817472 0.930365 0.627369
O O10 0.000000 0.887010 0.588059
O O11 0.864479 0.845510 0.769415
O O12 0.250000 0.750000 0.359214
O O13 0.171804 0.709181 0.577987
O O14 0.277769 0.500000 0.081946
O O15 0.326067 0.611288 0.035831
O O16 0.212975 0.556761 0.866873
O O17 0.864903 0.609964 0.661416
O O18 0.000000 0.688490 0.682597
O O19 0.172527 0.500000 0.639275
O O20 0.000000 0.116504 0.941069
#
# Coordination Sequence:
#
# PCOD8172913 Si02
#       8
#     8   8   8   8   8   8   8   8
#     4  12  25  41  59  87 124 165 210 254 307 370
#     4  12  20  36  60  89 126 161 203 257 310 367
#     4   9  19  37  60  89 121 158 205 250 309 373
#     4  11  24  40  58  86 124 167 201 254 309 373
#     4  10  21  39  61  86 121 162 204 255 309 364
#     4  11  21  36  59  91 126 165 207 252 309 373
#     4   9  18  34  58  91 124 155 202 261 311 360
#     4  10  19  34  62  97 125 157 201 253 311 370
#
# _framework density 20.868948
#
# number of rings (size 3 to 8) (size 9 to 14) (size 15 to 20)
#    0.000    1.500    2.500    4.500    0.000    3.000 
#    0.000    6.875    0.000    3.000    0.000    0.000 
#    0.000    0.000    0.000    0.000    0.000    0.000 
#
# Total GULP energy -396491.477110 kJ/mol
# GULP energy per Si atom -12390.358660 kJ/mol
# Density = 2.082145 g / cm^3
# Si number density = 20.868948 Si / 1000 Ang^3
#
#
#
# Elastic Constant Matrix: (Units=GPa)
#
#
# Indices 1 2 3 4 5 6 
#
# 1 103.6891 22.1686 25.1175 0.0000 0.0000 0.0000
# 2 22.1686 122.3147 16.8174 0.0000 0.0000 0.0000
# 3 25.1175 16.8174 50.7717 0.0000 0.0000 0.0000
# 4 0.0000 0.0000 0.0000 -5.6468 0.0000 0.0000
# 5 0.0000 0.0000 0.0000 0.0000 22.8182 0.0000
# 6 0.0000 0.0000 0.0000 0.0000 0.0000 11.5044
#
#
#
# Elastic Compliance Matrix: (Units=1/GPa)
#
#
# Indices 1 2 3 4 5 6 
#
# 1 0.011158 -0.001324 -0.005082 0.000000 0.000000 0.000000
# 2 -0.001324 0.008723 -0.002234 0.000000 0.000000 0.000000
# 3 -0.005082 -0.002234 0.022950 0.000000 0.000000 0.000000
# 4 0.000000 0.000000 0.000000 -0.177090 0.000000 0.000000
# 5 0.000000 0.000000 0.000000 0.000000 0.043825 0.000000
# 6 0.000000 0.000000 0.000000 0.000000 0.000000 0.086923
#
#
# Mechanical properties :
#
#
# Convention : Reuss Voigt Hill
#
# Bulk Modulus (GPa) = 39.13664 44.99805 42.06735
# Shear Modulus (GPa) = 224.35560 19.91327 122.13444
#
# Velocity S-wave (km/s) = 10.37980 3.09237 7.65843
# Velocity P-wave (km/s) = 12.74551 5.86169 9.91986
#
# Compressibility (1/GPa) = 0.02555150
#
# Stress axis : x y z
#
# Youngs Moduli (GPa) = 89.62024 114.64275 43.57277
#
# Poissons Ratio (x) = 0.15175 0.22142
# Poissons Ratio (y) = 0.11863 0.09736
# Poissons Ratio (z) = 0.45542 0.25616
#
# Static dielectric constant tensor:
#      x y z
#    x 3.785540 0.000000 0.000000 
#    y 0.000000 4.137540 0.000000 
#    z 0.000000 0.000000 3.548670 
# 
# 
# High freq. dielectric constant tensor:
#      x y z
#    x 1.818870 0.000000 0.000000 
#    y 0.000000 1.812720 0.000000 
#    z 0.000000 0.000000 1.791180 
# 
# From -- ./inp_files/7864.got.cif
#   From: 2010.03.12/outbox.cif.g09.slc.cpg/sg35_4_cif.got.tgz:7864.got - 2010.04.14 02:02:04.
