data_PCOD8172881
_publ_section_title
;
Structure prediction by ZEFSAII (Michael W. Deem and Ramdas Pophale) SiO2 
 PCOD8172881
Probable space group: C M M 2
;
_chemical_formula_sum "Si O2"
_cell_formula_units_Z 48
_cell_length_a 10.219762
_cell_length_b 17.680043
_cell_length_c 14.132509
_cell_angle_alpha 90.000000
_cell_angle_beta 90.000000
_cell_angle_gamma 90.000000
_cell_volume 2553.544141
_symmetry_space_group_name_H-M "C M M 2"
_symmetry_group_IT_number 35
_symmetry_cell_setting 'orthorhombic'
loop_
_space_group_symop_operation_xyz
x,y,z
-x,-y,z
-x,y,z
x,-y,z
1/2+x,1/2+y,z
1/2-x,1/2-y,z
1/2-x,1/2+y,z
1/2+x,1/2-y,z
loop_
_atom_site_type_symbol
_atom_site_label
_atom_site_fract_x
_atom_site_fract_y
_atom_site_fract_z
Si Si1 0.845030 0.678830 0.203220
Si Si2 0.240115 0.410231 0.023006
Si Si3 0.000000 0.409421 0.691444
Si Si4 0.500000 0.409955 0.919313
Si Si5 0.500000 0.089924 0.901517
Si Si6 0.500000 0.590434 0.702464
Si Si7 0.752245 0.089740 0.588210
Si Si8 0.650260 0.086178 0.391210
O O1 0.750000 0.750000 0.197743
O O2 0.790227 0.621010 0.126201
O O3 0.822651 0.640650 0.304184
O O4 0.000000 0.697996 0.187777
O O5 0.241202 0.500000 0.031247
O O6 0.375182 0.379986 0.977938
O O7 0.128071 0.379745 0.953769
O O8 0.000000 0.376612 0.796921
O O9 0.126539 0.375960 0.640106
O O10 0.000000 0.500000 0.690903
O O11 0.500000 0.500000 0.914747
O O12 0.500000 0.379069 0.810870
O O13 0.500000 0.000000 0.899728
O O14 0.500000 0.500000 0.704207
O O15 0.377343 0.622554 0.643144
O O16 0.745401 0.112158 0.477212
O O17 0.750848 0.000000 0.596522
O O18 0.500000 0.091615 0.426088
O O19 0.681490 0.000000 0.360779
#
# Coordination Sequence:
#
# PCOD8172881 Si02
#       8
#     8   8   4   4   4   4   8   8
#     4  11  24  40  58  79 105 140 180 225 277 329
#     4  10  19  34  55  81 109 141 181 223 268 314
#     4   9  14  22  41  71 106 134 163 211 258 305
#     4   9  18  30  48  77 116 152 175 211 268 319
#     4   9  16  26  46  77 108 136 173 217 262 313
#     4   9  16  26  41  71 116 150 167 199 260 319
#     4   9  15  25  43  72 108 141 169 205 260 313
#     4   9  17  33  57  82 106 137 178 223 267 313
#
# _framework density 18.797402999999999
#
# number of rings (size 3 to 8) (size 9 to 14) (size 15 to 20)
#    0.000    2.500    1.667    1.500    1.167    4.667 
#    1.500    0.000    0.000    0.000    0.000    7.000 
#    0.000    0.000    0.000    0.000    0.000    0.000 
#
# Total GULP energy -297472.064081 kJ/mol
# GULP energy per Si atom -12394.669337 kJ/mol
# Density = 1.875462 g / cm^3
# Si number density = 18.797403 Si / 1000 Ang^3
#
#
#
# Elastic Constant Matrix: (Units=GPa)
#
#
# Indices 1 2 3 4 5 6 
#
# 1 167.8940 23.5054 81.5761 0.0000 0.0000 0.0000
# 2 23.5054 25.7942 21.0015 0.0000 0.0000 0.0000
# 3 81.5761 21.0015 142.8950 0.0000 0.0000 0.0000
# 4 0.0000 0.0000 0.0000 0.1534 0.0000 0.0000
# 5 0.0000 0.0000 0.0000 0.0000 38.9480 0.0000
# 6 0.0000 0.0000 0.0000 0.0000 0.0000 13.2040
#
#
#
# Elastic Compliance Matrix: (Units=1/GPa)
#
#
# Indices 1 2 3 4 5 6 
#
# 1 0.008659 -0.004391 -0.004298 0.000000 0.000000 0.000000
# 2 -0.004391 0.046265 -0.004293 0.000000 0.000000 0.000000
# 3 -0.004298 -0.004293 0.010083 0.000000 0.000000 0.000000
# 4 0.000000 0.000000 0.000000 6.520216 0.000000 0.000000
# 5 0.000000 0.000000 0.000000 0.000000 0.025675 0.000000
# 6 0.000000 0.000000 0.000000 0.000000 0.000000 0.075735
#
#
# Mechanical properties :
#
#
# Convention : Reuss Voigt Hill
#
# Bulk Modulus (GPa) = 25.61283 65.41656 45.51470
# Shear Modulus (GPa) = 0.74343 24.49442 12.61892
#
# Velocity S-wave (km/s) = 0.62957 3.61373 2.59378
# Velocity P-wave (km/s) = 3.76614 7.23108 5.76508
#
# Compressibility (1/GPa) = 0.03904293
#
# Stress axis : x y z
#
# Youngs Moduli (GPa) = 115.48344 21.61451 99.17997
#
# Poissons Ratio (x) = 0.09492 0.42627
# Poissons Ratio (y) = 0.50714 0.42574
# Poissons Ratio (z) = 0.49635 0.09278
#
# Static dielectric constant tensor:
#      x y z
#    x 3.721880 0.000000 0.000000 
#    y 0.000000 2.835080 0.000000 
#    z 0.000000 0.000000 3.623670 
# 
# 
# High freq. dielectric constant tensor:
#      x y z
#    x 1.737600 0.000000 0.000000 
#    y 0.000000 1.665470 0.000000 
#    z 0.000000 0.000000 1.749280 
# 
# From -- ./inp_files/15308.got.cif
#   From: 2010.03.12/outbox.cif.g09.slc.cpg/sg35_8_cif.got.tgz:15308.got - 2010.04.14 02:02:04.
