data_PCOD8172424
_publ_section_title
;
Structure prediction by ZEFSAII (Michael W. Deem and Ramdas Pophale) SiO2 
 PCOD8172424
Probable space group: C M M 2
;
_chemical_formula_sum "Si O2"
_cell_formula_units_Z 56
_cell_length_a 18.323200
_cell_length_b 8.628775
_cell_length_c 18.054317
_cell_angle_alpha 90.000000
_cell_angle_beta 90.000000
_cell_angle_gamma 90.000000
_cell_volume 2854.509747
_symmetry_space_group_name_H-M "C M M 2"
_symmetry_group_IT_number 35
_symmetry_cell_setting 'orthorhombic'
loop_
_space_group_symop_operation_xyz
x,y,z
-x,-y,z
-x,y,z
x,-y,z
1/2+x,1/2+y,z
1/2-x,1/2-y,z
1/2-x,1/2+y,z
1/2+x,1/2-y,z
loop_
_atom_site_type_symbol
_atom_site_label
_atom_site_fract_x
_atom_site_fract_y
_atom_site_fract_z
Si Si1 0.669941 0.818091 0.503080
Si Si2 0.169460 0.683133 0.774273
Si Si3 0.083383 0.680073 0.920902
Si Si4 0.170582 0.680741 0.204528
Si Si5 0.914547 0.179703 0.637330
Si Si6 0.585891 0.676063 0.073623
Si Si7 0.831006 0.816686 0.353053
O O1 0.750000 0.750000 0.518502
O O2 0.617294 0.779297 0.570428
O O3 0.632731 0.748254 0.428351
O O4 0.678069 0.000000 0.493651
O O5 0.170143 0.500000 0.760106
O O6 0.250000 0.750000 0.770445
O O7 0.134844 0.726542 0.853077
O O8 0.120740 0.765330 0.713192
O O9 0.089855 0.500000 0.940397
O O10 0.000000 0.723715 0.900618
O O11 0.111625 0.775652 0.991658
O O12 0.178348 0.500000 0.218777
O O13 0.250000 0.750000 0.189767
O O14 0.121528 0.711789 0.133401
O O15 0.131476 0.756840 0.277173
O O16 0.000000 0.211814 0.642351
O O17 0.896619 0.000000 0.623776
O O18 0.500000 0.697596 0.080172
O O19 0.610464 0.500000 0.088505
O O20 0.750000 0.750000 0.351163
O O21 0.832111 0.000000 0.355173
#
# Coordination Sequence:
#
# PCOD8172424 Si02
#       7
#     8   8   8   8   8   8   8
#     4  11  21  36  59  85 114 147 187 231 277 330
#     4  11  23  39  60  86 116 148 185 229 276 328
#     4   9  19  37  59  81 108 146 189 231 278 332
#     4  11  21  35  56  82 113 148 189 234 281 332
#     4  11  24  41  60  83 113 148 186 229 279 333
#     4  10  21  37  57  82 113 149 188 230 279 334
#     4  10  18  32  54  81 113 146 185 230 279 332
#
# _framework density 19.618079000000002
#
# number of rings (size 3 to 8) (size 9 to 14) (size 15 to 20)
#    0.000    1.571    0.000    7.714    0.000    4.286 
#    0.000    3.571    0.000    4.286    0.000    0.000 
#    0.000    0.000    0.000    0.000    0.000    0.000 
#
# Total GULP energy -347267.845813 kJ/mol
# GULP energy per Si atom -12402.423065 kJ/mol
# Density = 1.957343 g / cm^3
# Si number density = 19.618079 Si / 1000 Ang^3
#
#
#
# Elastic Constant Matrix: (Units=GPa)
#
#
# Indices 1 2 3 4 5 6 
#
# 1 67.7390 42.2376 52.5078 0.0000 0.0000 0.0000
# 2 42.2376 141.4212 55.5504 0.0000 0.0000 0.0000
# 3 52.5078 55.5504 138.8697 0.0000 0.0000 0.0000
# 4 0.0000 0.0000 0.0000 40.6520 0.0000 0.0000
# 5 0.0000 0.0000 0.0000 0.0000 474.2331 0.0000
# 6 0.0000 0.0000 0.0000 0.0000 0.0000 23.2903
#
#
#
# Elastic Compliance Matrix: (Units=1/GPa)
#
#
# Indices 1 2 3 4 5 6 
#
# 1 0.022674 -0.004039 -0.006958 0.000000 0.000000 0.000000
# 2 -0.004039 0.009109 -0.002116 0.000000 0.000000 0.000000
# 3 -0.006958 -0.002116 0.010678 0.000000 0.000000 0.000000
# 4 0.000000 0.000000 0.000000 0.024599 0.000000 0.000000
# 5 0.000000 0.000000 0.000000 0.000000 0.002109 0.000000
# 6 0.000000 0.000000 0.000000 0.000000 0.000000 0.042936
#
#
# Mechanical properties :
#
#
# Convention : Reuss Voigt Hill
#
# Bulk Modulus (GPa) = 61.59510 72.06907 66.83209
# Shear Modulus (GPa) = 34.78421 120.81735 77.80078
#
# Velocity S-wave (km/s) = 4.21535 7.85611 6.30427
# Velocity P-wave (km/s) = 7.42681 10.91361 9.33447
#
# Compressibility (1/GPa) = 0.01623506
#
# Stress axis : x y z
#
# Youngs Moduli (GPa) = 44.10296 109.78464 93.64731
#
# Poissons Ratio (x) = 0.44342 0.65156
# Poissons Ratio (y) = 0.17813 0.19820
# Poissons Ratio (z) = 0.30685 0.23236
#
# Static dielectric constant tensor:
#      x y z
#    x 3.074160 0.000000 0.000000 
#    y 0.000000 3.687100 0.000000 
#    z 0.000000 0.000000 4.106770 
# 
# 
# High freq. dielectric constant tensor:
#      x y z
#    x 1.738670 0.000000 0.000000 
#    y 0.000000 1.781200 0.000000 
#    z 0.000000 0.000000 1.787250 
# 
# From -- ./inp_files/17420.got.cif
#   From: 2010.03.12/outbox.cif.g09.slc.cpg/sg35_9_cif.got.tgz:17420.got - 2010.04.14 02:02:04.
