data_PCOD8172796
_publ_section_title
;
Structure prediction by ZEFSAII (Michael W. Deem and Ramdas Pophale) SiO2 
 PCOD8172796
Probable space group: C M M 2
;
_chemical_formula_sum "Si O2"
_cell_formula_units_Z 64
_cell_length_a 8.714834
_cell_length_b 20.003150
_cell_length_c 19.966421
_cell_angle_alpha 90.000000
_cell_angle_beta 90.000000
_cell_angle_gamma 90.000000
_cell_volume 3480.629005
_symmetry_space_group_name_H-M "C M M 2"
_symmetry_group_IT_number 35
_symmetry_cell_setting 'orthorhombic'
loop_
_space_group_symop_operation_xyz
x,y,z
-x,-y,z
-x,y,z
x,-y,z
1/2+x,1/2+y,z
1/2-x,1/2-y,z
1/2-x,1/2+y,z
1/2+x,1/2-y,z
loop_
_atom_site_type_symbol
_atom_site_label
_atom_site_fract_x
_atom_site_fract_y
_atom_site_fract_z
Si Si1 0.182985 0.178946 0.031160
Si Si2 0.677739 0.076384 0.647008
Si Si3 0.177917 0.077435 0.787344
Si Si4 0.681163 0.820817 0.888555
Si Si5 0.676766 0.577897 0.289421
Si Si6 0.318813 0.181066 0.537918
Si Si7 0.679857 0.818791 0.387197
Si Si8 0.817658 0.073879 0.139530
O O1 0.250000 0.250000 0.053066
O O2 0.245738 0.125925 0.085236
O O3 0.000000 0.182045 0.028950
O O4 0.245349 0.157306 0.958936
O O5 0.500000 0.090245 0.664193
O O6 0.778435 0.094875 0.711395
O O7 0.737288 0.121192 0.585555
O O8 0.703529 0.000000 0.625280
O O9 0.281349 0.122054 0.835514
O O10 0.000000 0.094068 0.799011
O O11 0.214189 0.000000 0.802871
O O12 0.500000 0.812931 0.896945
O O13 0.750000 0.750000 0.864381
O O14 0.500000 0.598251 0.298071
O O15 0.700989 0.500000 0.304803
O O16 0.776999 0.619240 0.341149
O O17 0.734673 0.594740 0.214223
O O18 0.500000 0.186710 0.539064
O O19 0.250000 0.250000 0.565943
O O20 0.258585 0.167278 0.462541
O O21 0.500000 0.810056 0.387367
O O22 0.750000 0.750000 0.358717
O O23 0.000000 0.071734 0.138039
O O24 0.753524 0.000000 0.121915
#
# Coordination Sequence:
#
# PCOD8172796 Si02
#       8
#     8   8   8   8   8   8   8   8
#     4  10  19  33  53  76 103 134 169 210 256 305
#     4   9  18  34  54  75 101 134 171 210 254 303
#     4  10  21  37  56  79 107 138 173 212 254 303
#     4  11  22  37  56  78 106 138 174 214 257 305
#     4   9  18  34  54  76 104 137 173 213 258 308
#     4   9  19  34  52  74 101 134 169 210 257 306
#     4  10  20  34  52  75 104 137 175 216 259 307
#     4   8  16  32  53  75 100 133 171 209 252 304
#
# _framework density 18.387481000000001
#
# number of rings (size 3 to 8) (size 9 to 14) (size 15 to 20)
#    0.000    2.500    0.000    3.750    0.000    4.000 
#    0.000    6.250    0.000    4.125    0.000    0.000 
#    0.000    0.000    0.000    0.000    0.000    0.000 
#
# Total GULP energy -396826.434621 kJ/mol
# GULP energy per Si atom -12400.826082 kJ/mol
# Density = 1.834563 g / cm^3
# Si number density = 18.387481 Si / 1000 Ang^3
#
#
#
# Elastic Constant Matrix: (Units=GPa)
#
#
# Indices 1 2 3 4 5 6 
#
# 1 61.7432 33.5060 31.0352 0.0000 0.0000 0.0000
# 2 33.5060 112.0884 83.9338 0.0000 0.0000 0.0000
# 3 31.0352 83.9338 110.1414 0.0000 0.0000 0.0000
# 4 0.0000 0.0000 0.0000 39.9001 0.0000 0.0000
# 5 0.0000 0.0000 0.0000 0.0000 26.7698 0.0000
# 6 0.0000 0.0000 0.0000 0.0000 0.0000 30.2402
#
#
#
# Elastic Compliance Matrix: (Units=1/GPa)
#
#
# Indices 1 2 3 4 5 6 
#
# 1 0.019616 -0.004017 -0.002466 0.000000 0.000000 0.000000
# 2 -0.004017 0.021601 -0.015330 0.000000 0.000000 0.000000
# 3 -0.002466 -0.015330 0.021456 0.000000 0.000000 0.000000
# 4 0.000000 0.000000 0.000000 0.025063 0.000000 0.000000
# 5 0.000000 0.000000 0.000000 0.000000 0.037355 0.000000
# 6 0.000000 0.000000 0.000000 0.000000 0.000000 0.033069
#
#
# Mechanical properties :
#
#
# Convention : Reuss Voigt Hill
#
# Bulk Modulus (GPa) = 52.49926 64.54699 58.52312
# Shear Modulus (GPa) = 24.02300 28.41523 26.21911
#
# Velocity S-wave (km/s) = 3.61846 3.93537 3.78023
# Velocity P-wave (km/s) = 6.78758 7.47191 7.13795
#
# Compressibility (1/GPa) = 0.01904789
#
# Stress axis : x y z
#
# Youngs Moduli (GPa) = 50.97995 46.29349 46.60692
#
# Poissons Ratio (x) = 0.18596 0.11494
# Poissons Ratio (y) = 0.20478 0.71446
# Poissons Ratio (z) = 0.12572 0.70966
#
# Static dielectric constant tensor:
#      x y z
#    x 3.253810 0.000000 0.000000 
#    y 0.000000 3.496100 0.000000 
#    z 0.000000 0.000000 3.513450 
# 
# 
# High freq. dielectric constant tensor:
#      x y z
#    x 1.704910 0.000000 0.000000 
#    y 0.000000 1.716200 0.000000 
#    z 0.000000 0.000000 1.715050 
# 
# From -- ./inp_files/18373.got.cif
#   From: 2010.03.12/outbox.cif.g09.slc.cpg/sg35_10_cif.got.tgz:18373.got - 2010.04.14 02:02:04.
