data_PCOD8172311
_publ_section_title
;
Structure prediction by ZEFSAII (Michael W. Deem and Ramdas Pophale) SiO2 
 PCOD8172311
Probable space group: C M M 2
;
_chemical_formula_sum "Si O2"
_cell_formula_units_Z 48
_cell_length_a 27.891714
_cell_length_b 9.016026
_cell_length_c 12.961056
_cell_angle_alpha 90.000000
_cell_angle_beta 90.000000
_cell_angle_gamma 90.000000
_cell_volume 3259.348100
_symmetry_space_group_name_H-M "C M M 2"
_symmetry_group_IT_number 35
_symmetry_cell_setting 'orthorhombic'
loop_
_space_group_symop_operation_xyz
x,y,z
-x,-y,z
-x,y,z
x,-y,z
1/2+x,1/2+y,z
1/2-x,1/2-y,z
1/2-x,1/2+y,z
1/2+x,1/2-y,z
loop_
_atom_site_type_symbol
_atom_site_label
_atom_site_fract_x
_atom_site_fract_y
_atom_site_fract_z
Si Si1 0.945313 0.324718 0.406560
Si Si2 0.801265 0.824690 0.701824
Si Si3 0.121772 0.667828 0.814355
Si Si4 0.121772 0.332172 0.589294
Si Si5 0.445313 0.824718 0.997089
Si Si6 0.943007 0.167557 0.201825
O O1 0.942252 0.500000 0.392617
O O2 0.914049 0.267928 0.503294
O O3 0.923750 0.249843 0.303817
O O4 0.000000 0.274279 0.426299
O O5 0.750000 0.750000 0.701825
O O6 0.830377 0.769595 0.804272
O O7 0.830377 0.769595 0.599377
O O8 0.795922 0.000000 0.701824
O O9 0.137313 0.500000 0.843175
O O10 0.095371 0.668760 0.701824
O O11 0.085951 0.732072 0.900355
O O12 0.137314 0.500000 0.560474
O O13 0.500000 0.774280 0.977349
O O14 0.423750 0.749843 0.099833
O O15 0.442252 0.000000 0.011032
O O16 0.000000 0.174821 0.201825
O O17 0.923763 0.000000 0.201824
#
# Coordination Sequence:
#
# PCOD8172311 Si02
#       6
#     8   8   8   8   8   8
#     4   9  16  27  44  63  86 118 152 182 209 245
#     4  10  18  30  47  64  85 111 140 175 215 260
#     4   8  16  29  43  64  90 112 142 177 213 256
#     4   8  16  29  43  64  90 112 142 177 213 256
#     4   9  16  27  44  63  86 118 152 182 209 245
#     4   9  17  27  39  57  84 117 152 187 217 245
#
# _framework density 14.726870999999999
#
# number of rings (size 3 to 8) (size 9 to 14) (size 15 to 20)
#    1.000    2.167    0.000    1.500    0.000    4.000 
#    0.000    3.333    0.000    1.000    0.000    1.167 
#    0.000    0.000    0.000    0.000    0.000    0.000 
#
# Total GULP energy -297341.815168 kJ/mol
# GULP energy per Si atom -12389.242299 kJ/mol
# Density = 1.469335 g / cm^3
# Si number density = 14.726871 Si / 1000 Ang^3
#
#
#
# Elastic Constant Matrix: (Units=GPa)
#
#
# Indices 1 2 3 4 5 6 
#
# 1 81.4798 42.1627 59.4516 0.0000 0.0000 0.0000
# 2 42.1627 70.4107 42.6838 0.0000 0.0000 0.0000
# 3 59.4516 42.6838 114.5355 0.0000 0.0000 0.0000
# 4 0.0000 0.0000 0.0000 19.7736 0.0000 0.0000
# 5 0.0000 0.0000 0.0000 0.0000 4.0845 0.0000
# 6 0.0000 0.0000 0.0000 0.0000 0.0000 19.2360
#
#
#
# Elastic Compliance Matrix: (Units=1/GPa)
#
#
# Indices 1 2 3 4 5 6 
#
# 1 0.023107 -0.008482 -0.008833 0.000000 0.000000 0.000000
# 2 -0.008482 0.021461 -0.003595 0.000000 0.000000 0.000000
# 3 -0.008833 -0.003595 0.014656 0.000000 0.000000 0.000000
# 4 0.000000 0.000000 0.000000 0.050572 0.000000 0.000000
# 5 0.000000 0.000000 0.000000 0.000000 0.244829 0.000000
# 6 0.000000 0.000000 0.000000 0.000000 0.000000 0.051986
#
#
# Mechanical properties :
#
#
# Convention : Reuss Voigt Hill
#
# Bulk Modulus (GPa) = 57.46065 61.66913 59.56489
# Shear Modulus (GPa) = 11.00756 16.76068 13.88412
#
# Velocity S-wave (km/s) = 2.73691 3.37724 3.07379
# Velocity P-wave (km/s) = 7.00642 7.56133 7.28916
#
# Compressibility (1/GPa) = 0.01740321
#
# Stress axis : x y z
#
# Youngs Moduli (GPa) = 43.27639 46.59635 68.23283
#
# Poissons Ratio (x) = 0.39523 0.60272
# Poissons Ratio (y) = 0.36707 0.24530
# Poissons Ratio (z) = 0.38227 0.16751
#
# Static dielectric constant tensor:
#      x y z
#    x 2.585110 0.000000 0.000000 
#    y 0.000000 2.811170 0.000000 
#    z 0.000000 0.000000 2.893120 
# 
# 
# High freq. dielectric constant tensor:
#      x y z
#    x 1.523590 0.000000 0.000000 
#    y 0.000000 1.564160 0.000000 
#    z 0.000000 0.000000 1.556540 
# 
# From -- ./inp_files/11634.got.cif
#   From: 2010.03.12/outbox.cif.g09.slc.cpg/sg35_6_cif.got.tgz:11634.got - 2010.04.14 02:02:04.
