data_PCOD8172716
_publ_section_title
;
Structure prediction by ZEFSAII (Michael W. Deem and Ramdas Pophale) SiO2 
 PCOD8172716
Probable space group: C M M 2
;
_chemical_formula_sum "Si O2"
_cell_formula_units_Z 56
_cell_length_a 8.664674
_cell_length_b 19.271414
_cell_length_c 17.734325
_cell_angle_alpha 90.000000
_cell_angle_beta 90.000000
_cell_angle_gamma 90.000000
_cell_volume 2961.286807
_symmetry_space_group_name_H-M "C M M 2"
_symmetry_group_IT_number 35
_symmetry_cell_setting 'orthorhombic'
loop_
_space_group_symop_operation_xyz
x,y,z
-x,-y,z
-x,y,z
x,-y,z
1/2+x,1/2+y,z
1/2-x,1/2-y,z
1/2-x,1/2+y,z
1/2+x,1/2-y,z
loop_
_atom_site_type_symbol
_atom_site_label
_atom_site_fract_x
_atom_site_fract_y
_atom_site_fract_z
Si Si1 0.180386 0.677770 0.568130
Si Si2 0.818439 0.675588 0.144483
Si Si3 0.680147 0.919757 0.284050
Si Si4 0.683195 0.576575 0.855523
Si Si5 0.683538 0.675169 0.986464
Si Si6 0.818427 0.176529 0.407158
Si Si7 0.823774 0.081904 0.687824
O O1 0.250000 0.750000 0.597994
O O2 0.256647 0.656163 0.489283
O O3 0.211434 0.618687 0.629186
O O4 0.000000 0.686668 0.554961
O O5 0.750000 0.750000 0.168607
O O6 0.776037 0.618643 0.206696
O O7 0.000000 0.684617 0.133426
O O8 0.744552 0.648213 0.066831
O O9 0.500000 0.911807 0.301890
O O10 0.774417 0.885343 0.351471
O O11 0.728729 0.000000 0.276718
O O12 0.500000 0.572650 0.859817
O O13 0.752866 0.500000 0.869084
O O14 0.749114 0.626064 0.920502
O O15 0.729444 0.603659 0.772224
O O16 0.500000 0.677370 0.987974
O O17 0.750000 0.750000 0.968392
O O18 0.750000 0.250000 0.378924
O O19 0.000000 0.184742 0.410587
O O20 0.000000 0.105133 0.672896
O O21 0.807102 0.000000 0.677504
#
# Coordination Sequence:
#
# PCOD8172716 Si02
#       7
#     8   8   8   8   8   8   8
#     4  11  22  37  57  81 110 141 178 222 267 316
#     4  10  20  35  55  77 104 140 178 216 263 316
#     4  10  22  39  57  80 111 143 176 218 267 316
#     4   8  16  32  53  76 103 138 177 216 261 312
#     4  10  19  32  52  77 105 136 174 219 264 312
#     4  11  22  38  60  83 108 140 179 219 264 318
#     4   9  18  35  57  79 107 143 181 220 266 321
#
# _framework density 18.910696000000002
#
# number of rings (size 3 to 8) (size 9 to 14) (size 15 to 20)
#    0.000    2.143    0.000    6.429    0.000    4.571 
#    0.000    2.857    0.000    3.000    0.000    0.000 
#    0.000    0.000    0.000    0.000    0.000    0.000 
#
# Total GULP energy -347239.244008 kJ/mol
# GULP energy per Si atom -12401.401572 kJ/mol
# Density = 1.886765 g / cm^3
# Si number density = 18.910696 Si / 1000 Ang^3
#
#
#
# Elastic Constant Matrix: (Units=GPa)
#
#
# Indices 1 2 3 4 5 6 
#
# 1 100.7281 47.6958 54.8251 0.0000 0.0000 0.0000
# 2 47.6958 107.9386 89.0065 0.0000 0.0000 0.0000
# 3 54.8251 89.0065 140.8251 0.0000 0.0000 0.0000
# 4 0.0000 0.0000 0.0000 28.7756 0.0000 0.0000
# 5 0.0000 0.0000 0.0000 0.0000 22.6143 0.0000
# 6 0.0000 0.0000 0.0000 0.0000 0.0000 24.6664
#
#
#
# Elastic Compliance Matrix: (Units=1/GPa)
#
#
# Indices 1 2 3 4 5 6 
#
# 1 0.013142 -0.003317 -0.003020 0.000000 0.000000 0.000000
# 2 -0.003317 0.020186 -0.011467 0.000000 0.000000 0.000000
# 3 -0.003020 -0.011467 0.015524 0.000000 0.000000 0.000000
# 4 0.000000 0.000000 0.000000 0.034752 0.000000 0.000000
# 5 0.000000 0.000000 0.000000 0.000000 0.044220 0.000000
# 6 0.000000 0.000000 0.000000 0.000000 0.000000 0.040541
#
#
# Mechanical properties :
#
#
# Convention : Reuss Voigt Hill
#
# Bulk Modulus (GPa) = 75.50256 81.39407 78.44831
# Shear Modulus (GPa) = 23.99383 25.74220 24.86801
#
# Velocity S-wave (km/s) = 3.56588 3.69352 3.63026
# Velocity P-wave (km/s) = 7.54762 7.83097 7.69060
#
# Compressibility (1/GPa) = 0.01324458
#
# Stress axis : x y z
#
# Youngs Moduli (GPa) = 76.09168 49.53975 64.41567
#
# Poissons Ratio (x) = 0.16432 0.19453
# Poissons Ratio (y) = 0.25239 0.73864
# Poissons Ratio (z) = 0.22979 0.56806
#
# Static dielectric constant tensor:
#      x y z
#    x 3.367990 0.000000 0.000000 
#    y 0.000000 3.506310 0.000000 
#    z 0.000000 0.000000 3.643480 
# 
# 
# High freq. dielectric constant tensor:
#      x y z
#    x 1.728820 0.000000 0.000000 
#    y 0.000000 1.730920 0.000000 
#    z 0.000000 0.000000 1.745790 
# 
# From -- ./inp_files/15639.got.cif
#   From: 2010.03.12/outbox.cif.g09.slc.cpg/sg35_8_cif.got.tgz:15639.got - 2010.04.14 02:02:04.
