data_PCOD8172593
_publ_section_title
;
Structure prediction by ZEFSAII (Michael W. Deem and Ramdas Pophale) SiO2 
 PCOD8172593
Probable space group: C M M 2
;
_chemical_formula_sum "Si O2"
_cell_formula_units_Z 56
_cell_length_a 9.118583
_cell_length_b 19.185667
_cell_length_c 18.166892
_cell_angle_alpha 90.000000
_cell_angle_beta 90.000000
_cell_angle_gamma 90.000000
_cell_volume 3178.226849
_symmetry_space_group_name_H-M "C M M 2"
_symmetry_group_IT_number 35
_symmetry_cell_setting 'orthorhombic'
loop_
_space_group_symop_operation_xyz
x,y,z
-x,-y,z
-x,y,z
x,-y,z
1/2+x,1/2+y,z
1/2-x,1/2-y,z
1/2-x,1/2+y,z
1/2+x,1/2-y,z
loop_
_atom_site_type_symbol
_atom_site_label
_atom_site_fract_x
_atom_site_fract_y
_atom_site_fract_z
Si Si1 0.328810 0.676447 0.822630
Si Si2 0.328721 0.079423 0.546442
Si Si3 0.663903 0.583049 0.402486
Si Si4 0.662751 0.917071 0.263733
Si Si5 0.825428 0.675027 0.682922
Si Si6 0.329965 0.323344 0.985326
Si Si7 0.670794 0.081038 0.099993
O O1 0.500000 0.684449 0.802643
O O2 0.250000 0.750000 0.826793
O O3 0.243837 0.637176 0.755944
O O4 0.308422 0.642717 0.903545
O O5 0.500000 0.083476 0.530832
O O6 0.250520 0.109787 0.473929
O O7 0.281848 0.126309 0.615061
O O8 0.279815 0.000000 0.562783
O O9 0.500000 0.612012 0.407801
O O10 0.668589 0.500000 0.399737
O O11 0.733288 0.613824 0.327371
O O12 0.500000 0.887667 0.277970
O O13 0.716878 0.894638 0.182387
O O14 0.658704 0.000000 0.267051
O O15 0.750000 0.750000 0.670845
O O16 0.000000 0.682930 0.691343
O O17 0.500000 0.309714 0.001086
O O18 0.250000 0.250000 0.994001
O O19 0.268832 0.377974 0.042787
O O20 0.500000 0.096785 0.086363
O O21 0.704545 0.000000 0.088981
#
# Coordination Sequence:
#
# PCOD8172593 Si02
#       7
#     8   8   8   8   8   8   8
#     4   9  17  30  48  69  92 120 156 195 232 274
#     4   9  18  32  48  67  93 124 156 189 228 275
#     4   9  16  25  41  67  94 120 153 192 231 270
#     4   8  14  26  44  65  91 124 158 190 227 274
#     4  10  19  31  50  72  93 120 154 192 232 276
#     4  10  20  33  51  73  97 127 162 200 241 286
#     4   9  18  32  50  73 100 129 161 198 241 287
#
# _framework density 17.619889000000001
#
# number of rings (size 3 to 8) (size 9 to 14) (size 15 to 20)
#    0.000    2.857    0.000    3.429    0.000    5.429 
#    0.000    2.143    0.000    3.429    0.000    4.000 
#    0.000    0.000    0.000    0.000    0.000    0.000 
#
# Total GULP energy -346995.427185 kJ/mol
# GULP energy per Si atom -12392.693828 kJ/mol
# Density = 1.757979 g / cm^3
# Si number density = 17.619889 Si / 1000 Ang^3
#
#
#
# Elastic Constant Matrix: (Units=GPa)
#
#
# Indices 1 2 3 4 5 6 
#
# 1 110.6024 35.6308 90.1606 0.0000 0.0000 0.0000
# 2 35.6308 38.8176 49.4156 0.0000 0.0000 0.0000
# 3 90.1606 49.4156 186.1011 0.0000 0.0000 0.0000
# 4 0.0000 0.0000 0.0000 -99.7413 0.0000 0.0000
# 5 0.0000 0.0000 0.0000 0.0000 36.5158 0.0000
# 6 0.0000 0.0000 0.0000 0.0000 0.0000 21.0554
#
#
#
# Elastic Compliance Matrix: (Units=1/GPa)
#
#
# Indices 1 2 3 4 5 6 
#
# 1 0.016233 -0.007385 -0.005903 0.000000 0.000000 0.000000
# 2 -0.007385 0.042276 -0.007648 0.000000 0.000000 0.000000
# 3 -0.005903 -0.007648 0.010264 0.000000 0.000000 0.000000
# 4 0.000000 0.000000 0.000000 -0.010026 0.000000 0.000000
# 5 0.000000 0.000000 0.000000 0.000000 0.027385 0.000000
# 6 0.000000 0.000000 0.000000 0.000000 0.000000 0.047494
#
#
# Mechanical properties :
#
#
# Convention : Reuss Voigt Hill
#
# Bulk Modulus (GPa) = 37.17383 76.21500 56.69442
# Shear Modulus (GPa) = 27.10536 2.25359 14.67947
#
# Velocity S-wave (km/s) = 3.92642 1.13216 2.88951
# Velocity P-wave (km/s) = 6.45749 6.71253 6.58624
#
# Compressibility (1/GPa) = 0.02690064
#
# Stress axis : x y z
#
# Youngs Moduli (GPa) = 61.60374 23.65407 97.42662
#
# Poissons Ratio (x) = 0.17469 0.57514
# Poissons Ratio (y) = 0.45495 0.74509
# Poissons Ratio (z) = 0.36367 0.18090
#
# Static dielectric constant tensor:
#      x y z
#    x 3.394940 0.000000 0.000000 
#    y 0.000000 2.801940 0.000000 
#    z 0.000000 0.000000 3.865270 
# 
# 
# High freq. dielectric constant tensor:
#      x y z
#    x 1.690340 0.000000 0.000000 
#    y 0.000000 1.620920 0.000000 
#    z 0.000000 0.000000 1.703920 
# 
# From -- ./inp_files/18259.got.cif
#   From: 2010.03.12/outbox.cif.g09.slc.cpg/sg35_10_cif.got.tgz:18259.got - 2010.04.14 02:02:04.
