data_PCOD8172148
_publ_section_title
;
Structure prediction by ZEFSAII (Michael W. Deem and Ramdas Pophale) SiO2 
 PCOD8172148
Probable space group: C M M 2
;
_chemical_formula_sum "Si O2"
_cell_formula_units_Z 56
_cell_length_a 8.851468
_cell_length_b 19.451644
_cell_length_c 18.301626
_cell_angle_alpha 90.000000
_cell_angle_beta 90.000000
_cell_angle_gamma 90.000000
_cell_volume 3151.093518
_symmetry_space_group_name_H-M "C M M 2"
_symmetry_group_IT_number 35
_symmetry_cell_setting 'orthorhombic'
loop_
_space_group_symop_operation_xyz
x,y,z
-x,-y,z
-x,y,z
x,-y,z
1/2+x,1/2+y,z
1/2-x,1/2-y,z
1/2-x,1/2+y,z
1/2+x,1/2-y,z
loop_
_atom_site_type_symbol
_atom_site_label
_atom_site_fract_x
_atom_site_fract_y
_atom_site_fract_z
Si Si1 0.678237 0.078411 0.944030
Si Si2 0.676582 0.175802 0.655897
Si Si3 0.175250 0.675666 0.212619
Si Si4 0.174795 0.676469 0.374380
Si Si5 0.179246 0.826460 0.514783
Si Si6 0.322867 0.579476 0.094156
Si Si7 0.676105 0.176252 0.816465
O O1 0.500000 0.085729 0.954189
O O2 0.739563 0.123366 0.876399
O O3 0.725300 0.000000 0.928165
O O4 0.757379 0.105963 0.017234
O O5 0.500000 0.181513 0.638060
O O6 0.750000 0.250000 0.660755
O O7 0.758789 0.135575 0.588570
O O8 0.706052 0.142632 0.735876
O O9 0.250000 0.750000 0.204048
O O10 0.195593 0.643015 0.294246
O O11 0.250034 0.621858 0.158997
O O12 0.000000 0.684481 0.193568
O O13 0.250000 0.750000 0.367506
O O14 0.259985 0.635741 0.440664
O O15 0.000000 0.683896 0.395555
O O16 0.250000 0.750000 0.514297
O O17 0.000000 0.825160 0.515351
O O18 0.500000 0.591901 0.094312
O O19 0.279918 0.500000 0.105939
O O20 0.500000 0.188134 0.827598
O O21 0.750000 0.250000 0.827404
#
# Coordination Sequence:
#
# PCOD8172148 Si02
#       7
#     8   8   8   8   8   8   8
#     4   9  18  34  53  70  91 121 158 196 234 281
#     4   9  15  24  37  56  85 116 148 185 225 271
#     4  10  20  33  51  74 100 129 160 198 243 288
#     4   9  16  26  40  61  89 120 153 189 230 274
#     4  10  16  22  35  56  84 119 154 185 223 270
#     4  10  21  36  53  73  97 126 161 199 239 286
#     4   9  18  30  46  69  94 122 153 190 236 279
#
# _framework density 17.771609000000002
#
# number of rings (size 3 to 8) (size 9 to 14) (size 15 to 20)
#    0.000    2.571    0.000    4.714    0.000    4.286 
#    0.000    1.429    0.000    0.000    0.000    1.000 
#    0.000    5.714    0.000    0.000    0.000    0.000 
#
# Total GULP energy -346936.556333 kJ/mol
# GULP energy per Si atom -12390.591298 kJ/mol
# Density = 1.773116 g / cm^3
# Si number density = 17.771609 Si / 1000 Ang^3
#
#
#
# Elastic Constant Matrix: (Units=GPa)
#
#
# Indices 1 2 3 4 5 6 
#
# 1 104.1377 27.0141 72.3358 0.0000 0.0000 0.0000
# 2 27.0141 40.0615 53.4376 0.0000 0.0000 0.0000
# 3 72.3358 53.4376 188.7524 0.0000 0.0000 0.0000
# 4 0.0000 0.0000 0.0000 -0.0763 0.0000 0.0000
# 5 0.0000 0.0000 0.0000 0.0000 29.8642 0.0000
# 6 0.0000 0.0000 0.0000 0.0000 0.0000 17.7062
#
#
#
# Elastic Compliance Matrix: (Units=1/GPa)
#
#
# Indices 1 2 3 4 5 6 
#
# 1 0.013386 -0.003509 -0.004137 0.000000 0.000000 0.000000
# 2 -0.003509 0.041027 -0.010271 0.000000 0.000000 0.000000
# 3 -0.004137 -0.010271 0.009791 0.000000 0.000000 0.000000
# 4 0.000000 0.000000 0.000000-13.097874 0.000000 0.000000
# 5 0.000000 0.000000 0.000000 0.000000 0.033485 0.000000
# 6 0.000000 0.000000 0.000000 0.000000 0.000000 0.056477
#
#
# Mechanical properties :
#
#
# Convention : Reuss Voigt Hill
#
# Bulk Modulus (GPa) = 35.24518 70.94740 53.09629
# Shear Modulus (GPa) = -0.38764 21.50975 10.56105
#
# Velocity S-wave (km/s) = -0.46755 3.48277 2.44040
# Velocity P-wave (km/s) = 4.42537 7.49542 6.15489
#
# Compressibility (1/GPa) = 0.02837268
#
# Stress axis : x y z
#
# Youngs Moduli (GPa) = 74.70335 24.37393 102.13502
#
# Poissons Ratio (x) = 0.08552 0.42250
# Poissons Ratio (y) = 0.26211 1.04899
# Poissons Ratio (z) = 0.30902 0.25033
#
# Static dielectric constant tensor:
#      x y z
#    x 3.402550 0.000000 0.000000 
#    y 0.000000 2.826370 0.000000 
#    z 0.000000 0.000000 4.654540 
# 
# 
# High freq. dielectric constant tensor:
#      x y z
#    x 1.700710 0.000000 0.000000 
#    y 0.000000 1.615110 0.000000 
#    z 0.000000 0.000000 1.720590 
# 
# From -- ./inp_files/18265.got.cif
#   From: 2010.03.12/outbox.cif.g09.slc.cpg/sg35_10_cif.got.tgz:18265.got - 2010.04.14 02:02:04.
