data_PCOD8172687
_publ_section_title
;
Structure prediction by ZEFSAII (Michael W. Deem and Ramdas Pophale) SiO2 
 PCOD8172687
Probable space group: C M M 2
;
_chemical_formula_sum "Si O2"
_cell_formula_units_Z 48
_cell_length_a 8.910793
_cell_length_b 18.233533
_cell_length_c 15.575744
_cell_angle_alpha 90.000000
_cell_angle_beta 90.000000
_cell_angle_gamma 90.000000
_cell_volume 2530.672717
_symmetry_space_group_name_H-M "C M M 2"
_symmetry_group_IT_number 35
_symmetry_cell_setting 'orthorhombic'
loop_
_space_group_symop_operation_xyz
x,y,z
-x,-y,z
-x,y,z
x,-y,z
1/2+x,1/2+y,z
1/2-x,1/2-y,z
1/2-x,1/2+y,z
1/2+x,1/2-y,z
loop_
_atom_site_type_symbol
_atom_site_label
_atom_site_fract_x
_atom_site_fract_y
_atom_site_fract_z
Si Si1 0.833149 0.412867 0.614380
Si Si2 0.678587 0.081792 0.802036
Si Si3 0.321717 0.828539 0.963811
Si Si4 0.821789 0.582228 0.128876
Si Si5 0.822442 0.670807 0.293579
Si Si6 0.171739 0.913375 0.445330
O O1 0.842147 0.500000 0.616964
O O2 0.772829 0.387035 0.708162
O O3 0.720896 0.386074 0.540059
O O4 0.000000 0.381139 0.596238
O O5 0.500000 0.077469 0.805930
O O6 0.739678 0.135673 0.875724
O O7 0.744260 0.000000 0.817612
O O8 0.500000 0.820812 0.963300
O O9 0.250000 0.750000 0.976258
O O10 0.266208 0.879263 0.041983
O O11 0.754843 0.500000 0.132505
O O12 0.761431 0.627730 0.210265
O O13 0.000000 0.578748 0.131178
O O14 0.750000 0.750000 0.295383
O O15 0.777040 0.625692 0.377181
O O16 0.000000 0.679389 0.291521
O O17 0.000000 0.890324 0.430739
O O18 0.195022 0.000000 0.435958
#
# Coordination Sequence:
#
# PCOD8172687 Si02
#       6
#     8   8   8   8   8   8
#     4   8  14  27  49  75 100 129 170 217 259 298
#     4   8  14  27  50  76  98 128 174 218 250 288
#     4  10  19  32  51  75 105 136 166 204 250 301
#     4   9  18  33  55  80 101 128 170 213 250 295
#     4  11  22  36  54  76 105 138 172 211 258 311
#     4  10  20  34  53  78 106 136 173 216 261 308
#
# _framework density 18.967289000000001
#
# number of rings (size 3 to 8) (size 9 to 14) (size 15 to 20)
#    0.000    2.667    0.000    3.500    0.000    3.667 
#    0.000    2.500    0.000    7.000    0.000    0.000 
#    0.000    0.000    0.000    0.000    0.000    0.000 
#
# Total GULP energy -297548.723686 kJ/mol
# GULP energy per Si atom -12397.863487 kJ/mol
# Density = 1.892412 g / cm^3
# Si number density = 18.967289 Si / 1000 Ang^3
#
#
#
# Elastic Constant Matrix: (Units=GPa)
#
#
# Indices 1 2 3 4 5 6 
#
# 1 45.9614 29.0193 33.4098 0.0000 0.0000 0.0000
# 2 29.0193 83.1279 57.2989 0.0000 0.0000 0.0000
# 3 33.4098 57.2989 167.2524 0.0000 0.0000 0.0000
# 4 0.0000 0.0000 0.0000 9.4099 0.0000 0.0000
# 5 0.0000 0.0000 0.0000 0.0000 12.1431 0.0000
# 6 0.0000 0.0000 0.0000 0.0000 0.0000 22.2836
#
#
#
# Elastic Compliance Matrix: (Units=1/GPa)
#
#
# Indices 1 2 3 4 5 6 
#
# 1 0.029050 -0.008040 -0.003049 0.000000 0.000000 0.000000
# 2 -0.008040 0.017974 -0.004552 0.000000 0.000000 0.000000
# 3 -0.003049 -0.004552 0.008147 0.000000 0.000000 0.000000
# 4 0.000000 0.000000 0.000000 0.106271 0.000000 0.000000
# 5 0.000000 0.000000 0.000000 0.000000 0.082351 0.000000
# 6 0.000000 0.000000 0.000000 0.000000 0.000000 0.044876
#
#
# Mechanical properties :
#
#
# Convention : Reuss Voigt Hill
#
# Bulk Modulus (GPa) = 41.85706 59.53308 50.69507
# Shear Modulus (GPa) = 15.24798 20.54156 17.89477
#
# Velocity S-wave (km/s) = 2.83840 3.29447 3.07490
# Velocity P-wave (km/s) = 5.73219 6.77693 6.27633
#
# Compressibility (1/GPa) = 0.02389083
#
# Stress axis : x y z
#
# Youngs Moduli (GPa) = 34.42395 55.63719 122.74039
#
# Poissons Ratio (x) = 0.44730 0.37418
# Poissons Ratio (y) = 0.27676 0.55866
# Poissons Ratio (z) = 0.10494 0.25324
#
# Static dielectric constant tensor:
#      x y z
#    x 3.137390 0.000000 0.000000 
#    y 0.000000 3.368170 0.000000 
#    z 0.000000 0.000000 3.920250 
# 
# 
# High freq. dielectric constant tensor:
#      x y z
#    x 1.700470 0.000000 0.000000 
#    y 0.000000 1.721220 0.000000 
#    z 0.000000 0.000000 1.759200 
# 
# From -- ./inp_files/15132.got.cif
#   From: 2010.03.12/outbox.cif.g09.slc.cpg/sg35_8_cif.got.tgz:15132.got - 2010.04.14 02:02:04.
