data_PCOD8172167
_publ_section_title
;
Structure prediction by ZEFSAII (Michael W. Deem and Ramdas Pophale) SiO2 
 PCOD8172167
Probable space group: C M M 2
;
_chemical_formula_sum "Si O2"
_cell_formula_units_Z 56
_cell_length_a 21.628215
_cell_length_b 9.006530
_cell_length_c 14.642671
_cell_angle_alpha 90.000000
_cell_angle_beta 90.000000
_cell_angle_gamma 90.000000
_cell_volume 2852.321546
_symmetry_space_group_name_H-M "C M M 2"
_symmetry_group_IT_number 35
_symmetry_cell_setting 'orthorhombic'
loop_
_space_group_symop_operation_xyz
x,y,z
-x,-y,z
-x,y,z
x,-y,z
1/2+x,1/2+y,z
1/2-x,1/2-y,z
1/2-x,1/2+y,z
1/2+x,1/2-y,z
loop_
_atom_site_type_symbol
_atom_site_label
_atom_site_fract_x
_atom_site_fract_y
_atom_site_fract_z
Si Si1 0.314908 0.672380 0.819120
Si Si2 0.810918 0.827524 0.464729
Si Si3 0.387305 0.675439 0.301518
Si Si4 0.500000 0.677100 0.418886
Si Si5 0.071307 0.169239 0.110834
Si Si6 0.928600 0.675352 0.923005
Si Si7 0.500000 0.826127 0.614378
Si Si8 0.117406 0.830655 0.641147
O O1 0.310301 0.500000 0.847720
O O2 0.250000 0.750000 0.847322
O O3 0.376178 0.742365 0.864721
O O4 0.325282 0.691731 0.710500
O O5 0.750000 0.750000 0.498778
O O6 0.826906 0.778519 0.360276
O O7 0.863758 0.786615 0.537922
O O8 0.798230 0.000000 0.468610
O O9 0.395222 0.500000 0.296056
O O10 0.442524 0.739324 0.362085
O O11 0.388322 0.732458 0.196813
O O12 0.500000 0.500000 0.430560
O O13 0.500000 0.745923 0.518091
O O14 0.000000 0.172420 0.141703
O O15 0.090203 0.000000 0.084487
O O16 0.083858 0.278348 0.027352
O O17 0.919576 0.500000 0.912871
O O18 0.000000 0.719867 0.895887
O O19 0.439303 0.775403 0.670554
O O20 0.500000 0.000000 0.603111
O O21 0.094192 0.000000 0.645064
#
# Coordination Sequence:
#
# PCOD8172167 Si02
#       8
#     8   8   8   4   8   8   4   8
#     4  11  24  42  66  92 117 153 199 247 299 360
#     4  10  20  35  54  76 108 150 193 234 279 333
#     4   9  16  29  55  82 107 145 189 233 279 332
#     4  10  16  32  56  77 108 147 188 227 274 338
#     4   9  16  30  56  87 112 143 192 242 288 346
#     4  10  22  40  61  88 124 160 193 243 305 358
#     4  12  24  34  52  87 122 151 188 241 294 336
#     4  10  22  40  61  82 112 154 194 233 285 351
#
# _framework density 19.633130000000001
#
# number of rings (size 3 to 8) (size 9 to 14) (size 15 to 20)
#    0.000    2.000    2.143    1.929    1.000    2.571 
#    0.000    2.143    0.000    1.714    0.000    0.000 
#    0.000    0.000    0.000    0.000    0.000    0.000 
#
# Total GULP energy -346989.630203 kJ/mol
# GULP energy per Si atom -12392.486793 kJ/mol
# Density = 1.958844 g / cm^3
# Si number density = 19.633130 Si / 1000 Ang^3
#
#
#
# Elastic Constant Matrix: (Units=GPa)
#
#
# Indices 1 2 3 4 5 6 
#
# 1 114.1853 56.0415 38.4121 0.0000 0.0000 0.0000
# 2 56.0415 79.0709 34.6061 0.0000 0.0000 0.0000
# 3 38.4121 34.6061 85.1177 0.0000 0.0000 0.0000
# 4 0.0000 0.0000 0.0000 17.5134 0.0000 0.0000
# 5 0.0000 0.0000 0.0000 0.0000 25.1689 0.0000
# 6 0.0000 0.0000 0.0000 0.0000 0.0000 31.3505
#
#
#
# Elastic Compliance Matrix: (Units=1/GPa)
#
#
# Indices 1 2 3 4 5 6 
#
# 1 0.013945 -0.008672 -0.002767 0.000000 0.000000 0.000000
# 2 -0.008672 0.020778 -0.004534 0.000000 0.000000 0.000000
# 3 -0.002767 -0.004534 0.014841 0.000000 0.000000 0.000000
# 4 0.000000 0.000000 0.000000 0.057099 0.000000 0.000000
# 5 0.000000 0.000000 0.000000 0.000000 0.039732 0.000000
# 6 0.000000 0.000000 0.000000 0.000000 0.000000 0.031897
#
#
# Mechanical properties :
#
#
# Convention : Reuss Voigt Hill
#
# Bulk Modulus (GPa) = 56.76551 59.61036 58.18793
# Shear Modulus (GPa) = 23.13634 24.76085 23.94859
#
# Velocity S-wave (km/s) = 3.43656 3.55516 3.49636
# Velocity P-wave (km/s) = 6.68748 6.87606 6.78243
#
# Compressibility (1/GPa) = 0.01761633
#
# Stress axis : x y z
#
# Youngs Moduli (GPa) = 71.71068 48.12852 67.38298
#
# Poissons Ratio (x) = 0.41739 0.18646
# Poissons Ratio (y) = 0.62190 0.30551
# Poissons Ratio (z) = 0.19844 0.21821
#
# Static dielectric constant tensor:
#      x y z
#    x 3.521630 0.000000 0.000000 
#    y 0.000000 3.337550 0.000000 
#    z 0.000000 0.000000 3.714980 
# 
# 
# High freq. dielectric constant tensor:
#      x y z
#    x 1.755740 0.000000 0.000000 
#    y 0.000000 1.741670 0.000000 
#    z 0.000000 0.000000 1.770260 
# 
# From -- ./inp_files/17500.got.cif
#   From: 2010.03.12/outbox.cif.g09.slc.cpg/sg35_9_cif.got.tgz:17500.got - 2010.04.14 02:02:04.
