data_PCOD8172145
_publ_section_title
;
Structure prediction by ZEFSAII (Michael W. Deem and Ramdas Pophale) SiO2 
 PCOD8172145
Probable space group: P N N 2
;
_chemical_formula_sum "Si O2"
_cell_formula_units_Z 16
_cell_length_a 22.296254
_cell_length_b 5.304200
_cell_length_c 4.960886
_cell_angle_alpha 90.000000
_cell_angle_beta 90.000000
_cell_angle_gamma 90.000000
_cell_volume 586.693182
_symmetry_space_group_name_H-M "P N N 2"
_symmetry_group_IT_number 34
_symmetry_cell_setting 'orthorhombic'
loop_
_space_group_symop_operation_xyz
x,y,z
-x,-y,z
1/2-x,1/2+y,1/2+z
1/2+x,1/2-y,1/2+z
loop_
_atom_site_type_symbol
_atom_site_label
_atom_site_fract_x
_atom_site_fract_y
_atom_site_fract_z
Si Si1 0.902452 0.276659 0.866230
Si Si2 0.191014 0.087410 0.722369
Si Si3 0.500000 0.000000 0.005901
Si Si4 0.500000 0.500000 0.658897
Si Si5 0.177255 0.404674 0.220174
O O1 0.941637 0.469233 0.692099
O O2 0.848195 0.167352 0.678717
O O3 0.877751 0.418167 0.132506
O O4 0.942673 0.042733 0.967940
O O5 0.168829 0.313096 0.527117
O O6 0.260874 0.051562 0.665741
O O7 0.179403 0.158690 0.031719
O O8 0.487815 0.750472 0.831428
#
# Coordination Sequence:
#
# PCOD8172145 Si02
#       5
#     4   4   2   2   4
#     4  12  32  52  84 128 176 234 304 366 454 534
#     4  12  29  52  85 129 174 229 291 365 450 536
#     4  12  32  56  86 126 180 240 306 374 448 532
#     4  12  32  56  86 126 180 240 306 374 448 532
#     4  12  29  52  85 129 174 229 291 365 450 536
#
# _framework density 27.271495000000002
#
# number of rings (size 3 to 8) (size 9 to 14) (size 15 to 20)
#    0.000    0.000    2.500    3.000   17.500    0.000 
#    0.000    0.000    0.000    0.000    0.000    0.000 
#    0.000    0.000    0.000    0.000    0.000    0.000 
#
# Total GULP energy -198553.235311 kJ/mol
# GULP energy per Si atom -12409.577207 kJ/mol
# Density = 2.720942 g / cm^3
# Si number density = 27.271495 Si / 1000 Ang^3
#
#
#
# Elastic Constant Matrix: (Units=GPa)
#
#
# Indices 1 2 3 4 5 6 
#
# 1 126.0124 32.7935 14.7123 0.0000 0.0000 0.0000
# 2 32.7935 131.4165 23.1100 0.0000 0.0000 0.0000
# 3 14.7123 23.1100 86.4238 0.0000 0.0000 0.0000
# 4 0.0000 0.0000 0.0000 64.2593 0.0000 0.0000
# 5 0.0000 0.0000 0.0000 0.0000 36.0419 0.0000
# 6 0.0000 0.0000 0.0000 0.0000 0.0000 59.3735
#
#
#
# Elastic Compliance Matrix: (Units=1/GPa)
#
#
# Indices 1 2 3 4 5 6 
#
# 1 0.008557 -0.001972 -0.000929 0.000000 0.000000 0.000000
# 2 -0.001972 0.008439 -0.001921 0.000000 0.000000 0.000000
# 3 -0.000929 -0.001921 0.012243 0.000000 0.000000 0.000000
# 4 0.000000 0.000000 0.000000 0.015562 0.000000 0.000000
# 5 0.000000 0.000000 0.000000 0.000000 0.027746 0.000000
# 6 0.000000 0.000000 0.000000 0.000000 0.000000 0.016843
#
#
# Mechanical properties :
#
#
# Convention : Reuss Voigt Hill
#
# Bulk Modulus (GPa) = 51.03425 53.89824 52.46624
# Shear Modulus (GPa) = 47.36379 50.15073 48.75726
#
# Velocity S-wave (km/s) = 4.17196 4.29294 4.23288
# Velocity P-wave (km/s) = 6.47773 6.66175 6.57039
#
# Compressibility (1/GPa) = 0.01959468
#
# Stress axis : x y z
#
# Youngs Moduli (GPa) = 116.85758 118.49342 81.68066
#
# Poissons Ratio (x) = 0.23366 0.07592
# Poissons Ratio (y) = 0.23044 0.15691
# Poissons Ratio (z) = 0.10861 0.22763
#
# Static dielectric constant tensor:
#      x y z
#    x 5.172670 0.000000 0.000000 
#    y 0.000000 4.897860 0.000000 
#    z 0.000000 0.000000 4.915800 
# 
# 
# High freq. dielectric constant tensor:
#      x y z
#    x 2.120710 0.000000 0.000000 
#    y 0.000000 2.106700 0.000000 
#    z 0.000000 0.000000 2.100470 
# 
# From -- ./inp_files/123.got.cif
#   From: 2010.03.12/outbox.cif.g09.slc.cpg/sg34_1_cif.got.tgz:123.got - 2010.04.14 01:56:33.
