data_PCOD8172717
_publ_section_title
;
Structure prediction by ZEFSAII (Michael W. Deem and Ramdas Pophale) SiO2 
 PCOD8172717
Probable space group: C M M 2
;
_chemical_formula_sum "Si O2"
_cell_formula_units_Z 44
_cell_length_a 8.988108
_cell_length_b 23.359818
_cell_length_c 11.628581
_cell_angle_alpha 90.000000
_cell_angle_beta 90.000000
_cell_angle_gamma 90.000000
_cell_volume 2441.543461
_symmetry_space_group_name_H-M "C M M 2"
_symmetry_group_IT_number 35
_symmetry_cell_setting 'orthorhombic'
loop_
_space_group_symop_operation_xyz
x,y,z
-x,-y,z
-x,y,z
x,-y,z
1/2+x,1/2+y,z
1/2-x,1/2-y,z
1/2-x,1/2+y,z
1/2+x,1/2-y,z
loop_
_atom_site_type_symbol
_atom_site_label
_atom_site_fract_x
_atom_site_fract_y
_atom_site_fract_z
Si Si1 0.175698 0.688550 0.087280
Si Si2 0.338214 0.655456 0.872006
Si Si3 0.250000 0.250000 0.697864
Si Si4 0.176849 0.188116 0.310894
Si Si5 0.334362 0.152049 0.532018
Si Si6 0.330281 0.434305 0.684888
O O1 0.250000 0.750000 0.073402
O O2 0.252012 0.657430 0.197726
O O3 0.000000 0.693082 0.105630
O O4 0.210121 0.656421 0.968139
O O5 0.500000 0.656649 0.932645
O O6 0.342921 0.708174 0.780972
O O7 0.313571 0.595491 0.808408
O O8 0.342842 0.208305 0.613651
O O9 0.250000 0.250000 0.318505
O O10 0.219543 0.155729 0.426871
O O11 0.000000 0.192231 0.299509
O O12 0.500000 0.142307 0.483896
O O13 0.283049 0.095695 0.598475
O O14 0.500000 0.427899 0.640128
O O15 0.283278 0.500000 0.697973
#
# Coordination Sequence:
#
# PCOD8172717 Si02
#       6
#     8   8   4   8   8   8
#     4  11  21  33  50  74 107 142 176 214 260 315
#     4  10  19  32  52  77 106 139 175 216 261 314
#     4  10  20  30  50  74 112 138 174 208 266 316
#     4  11  21  34  52  75 107 143 178 215 260 318
#     4  11  21  33  53  80 110 141 176 221 267 316
#     4   9  20  38  57  78 106 142 182 222 267 317
#
# _framework density 18.021388000000002
#
# number of rings (size 3 to 8) (size 9 to 14) (size 15 to 20)
#    0.000    1.636    1.818    5.455    0.000    4.727 
#    0.000    0.000    0.000    1.091    0.000    2.545 
#    0.000    0.000    0.000    0.000    0.000    0.000 
#
# Total GULP energy -272660.246152 kJ/mol
# GULP energy per Si atom -12393.647552 kJ/mol
# Density = 1.798037 g / cm^3
# Si number density = 18.021388 Si / 1000 Ang^3
#
#
#
# Elastic Constant Matrix: (Units=GPa)
#
#
# Indices 1 2 3 4 5 6 
#
# 1 152.2777 32.7442 54.6588 0.0000 0.0000 0.0000
# 2 32.7442 99.9833 36.7111 0.0000 0.0000 0.0000
# 3 54.6588 36.7111 112.9728 0.0000 0.0000 0.0000
# 4 0.0000 0.0000 0.0000 14.2766 0.0000 0.0000
# 5 0.0000 0.0000 0.0000 0.0000 32.0800 0.0000
# 6 0.0000 0.0000 0.0000 0.0000 0.0000 17.0051
#
#
#
# Elastic Compliance Matrix: (Units=1/GPa)
#
#
# Indices 1 2 3 4 5 6 
#
# 1 0.008111 -0.001380 -0.003476 0.000000 0.000000 0.000000
# 2 -0.001380 0.011592 -0.003099 0.000000 0.000000 0.000000
# 3 -0.003476 -0.003099 0.011540 0.000000 0.000000 0.000000
# 4 0.000000 0.000000 0.000000 0.070045 0.000000 0.000000
# 5 0.000000 0.000000 0.000000 0.000000 0.031172 0.000000
# 6 0.000000 0.000000 0.000000 0.000000 0.000000 0.058806
#
#
# Mechanical properties :
#
#
# Convention : Reuss Voigt Hill
#
# Bulk Modulus (GPa) = 65.21818 68.16247 66.69032
# Shear Modulus (GPa) = 23.55298 28.74698 26.14998
#
# Velocity S-wave (km/s) = 3.61909 3.99828 3.81340
# Velocity P-wave (km/s) = 7.33019 7.69546 7.51505
#
# Compressibility (1/GPa) = 0.01533315
#
# Stress axis : x y z
#
# Youngs Moduli (GPa) = 123.28321 86.26992 86.65149
#
# Poissons Ratio (x) = 0.11907 0.30120
# Poissons Ratio (y) = 0.17015 0.26853
# Poissons Ratio (z) = 0.42853 0.26735
#
# Static dielectric constant tensor:
#      x y z
#    x 3.335340 0.000000 0.000000 
#    y 0.000000 3.027710 0.000000 
#    z 0.000000 0.000000 3.881020 
# 
# 
# High freq. dielectric constant tensor:
#      x y z
#    x 1.707690 0.000000 0.000000 
#    y 0.000000 1.652300 0.000000 
#    z 0.000000 0.000000 1.706980 
# 
# From -- ./inp_files/11369.got.cif
#   From: 2010.03.12/outbox.cif.g09.slc.cpg/sg35_6_cif.got.tgz:11369.got - 2010.04.14 02:02:04.
