data_PCOD8172774
_publ_section_title
;
Structure prediction by ZEFSAII (Michael W. Deem and Ramdas Pophale) SiO2 
 PCOD8172774
Probable space group: C M M 2
;
_chemical_formula_sum "Si O2"
_cell_formula_units_Z 48
_cell_length_a 18.014221
_cell_length_b 15.127895
_cell_length_c 8.965540
_cell_angle_alpha 90.000000
_cell_angle_beta 90.000000
_cell_angle_gamma 90.000000
_cell_volume 2443.264250
_symmetry_space_group_name_H-M "C M M 2"
_symmetry_group_IT_number 35
_symmetry_cell_setting 'orthorhombic'
loop_
_space_group_symop_operation_xyz
x,y,z
-x,-y,z
-x,y,z
x,-y,z
1/2+x,1/2+y,z
1/2-x,1/2-y,z
1/2-x,1/2+y,z
1/2+x,1/2-y,z
loop_
_atom_site_type_symbol
_atom_site_label
_atom_site_fract_x
_atom_site_fract_y
_atom_site_fract_z
Si Si1 0.083716 0.500000 0.904610
Si Si2 0.587649 0.673378 0.434677
Si Si3 0.413834 0.645407 0.093884
Si Si4 0.178203 0.307640 0.612727
Si Si5 0.152665 0.000000 0.894696
Si Si6 0.705381 0.000000 0.674759
Si Si7 0.084878 0.312429 0.911647
Si Si8 0.916522 0.000000 0.594107
O O1 0.126201 0.500000 0.750204
O O2 0.100730 0.408320 0.990918
O O3 0.000000 0.500000 0.849704
O O4 0.500000 0.688937 0.457374
O O5 0.606619 0.644837 0.266865
O O6 0.628908 0.764502 0.480078
O O7 0.619521 0.590966 0.532778
O O8 0.500000 0.617031 0.068885
O O9 0.357500 0.583949 0.001905
O O10 0.396701 0.743558 0.039313
O O11 0.250000 0.250000 0.635285
O O12 0.204793 0.409132 0.577069
O O13 0.134292 0.299643 0.766803
O O14 0.230001 0.000000 0.802403
O O15 0.087345 0.000000 0.772476
O O16 0.000000 0.302753 0.858518
O O17 0.000000 0.000000 0.535862
#
# Coordination Sequence:
#
# PCOD8172774 Si02
#       8
#     4   8   8   8   4   4   8   4
#     4   8  16  32  52  73  99 133 179 237 287 327
#     4  10  21  37  56  82 117 154 192 239 298 361
#     4  10  20  34  55  84 115 148 187 232 289 357
#     4  11  21  36  56  80 112 149 192 241 293 351
#     4  12  21  35  57  83 117 148 184 237 293 346
#     4  10  22  35  54  84 111 143 193 244 289 345
#     4   9  17  32  55  79 103 138 187 239 289 341
#     4  10  19  32  55  84 111 144 186 232 291 358
#
# _framework density 19.645848999999998
#
# number of rings (size 3 to 8) (size 9 to 14) (size 15 to 20)
#    0.000    2.000    0.000    4.750    0.000    4.667 
#    0.000    5.000    0.000    2.000    0.000    0.000 
#    0.000    0.000    0.000    0.000    0.000    0.000 
#
# Total GULP energy -297332.589606 kJ/mol
# GULP energy per Si atom -12388.857900 kJ/mol
# Density = 1.960113 g / cm^3
# Si number density = 19.645849 Si / 1000 Ang^3
#
#
#
# Elastic Constant Matrix: (Units=GPa)
#
#
# Indices 1 2 3 4 5 6 
#
# 1 66.0654 50.7209 28.9479 0.0000 0.0000 0.0000
# 2 50.7209 186.4307 60.5845 0.0000 0.0000 0.0000
# 3 28.9479 60.5845 103.1050 0.0000 0.0000 0.0000
# 4 0.0000 0.0000 0.0000 21.6005 0.0000 0.0000
# 5 0.0000 0.0000 0.0000 0.0000 21.7045 0.0000
# 6 0.0000 0.0000 0.0000 0.0000 0.0000 27.9327
#
#
#
# Elastic Compliance Matrix: (Units=1/GPa)
#
#
# Indices 1 2 3 4 5 6 
#
# 1 0.019840 -0.004434 -0.002965 0.000000 0.000000 0.000000
# 2 -0.004434 0.007621 -0.003233 0.000000 0.000000 0.000000
# 3 -0.002965 -0.003233 0.012431 0.000000 0.000000 0.000000
# 4 0.000000 0.000000 0.000000 0.046295 0.000000 0.000000
# 5 0.000000 0.000000 0.000000 0.000000 0.046073 0.000000
# 6 0.000000 0.000000 0.000000 0.000000 0.000000 0.035800
#
#
# Mechanical properties :
#
#
# Convention : Reuss Voigt Hill
#
# Bulk Modulus (GPa) = 53.68342 70.67863 62.18102
# Shear Modulus (GPa) = 25.57098 28.60407 27.08753
#
# Velocity S-wave (km/s) = 3.61168 3.81988 3.71724
# Velocity P-wave (km/s) = 6.69158 7.45049 7.08121
#
# Compressibility (1/GPa) = 0.01862773
#
# Stress axis : x y z
#
# Youngs Moduli (GPa) = 50.40344 131.21642 80.44396
#
# Poissons Ratio (x) = 0.58185 0.23849
# Poissons Ratio (y) = 0.22350 0.26009
# Poissons Ratio (z) = 0.14943 0.42424
#
# Static dielectric constant tensor:
#      x y z
#    x 3.611830 0.000000 0.000000 
#    y 0.000000 4.326220 0.000000 
#    z 0.000000 0.000000 3.251280 
# 
# 
# High freq. dielectric constant tensor:
#      x y z
#    x 1.762120 0.000000 0.000000 
#    y 0.000000 1.790740 0.000000 
#    z 0.000000 0.000000 1.730860 
# 
# From -- ./inp_files/7376.got.cif
#   From: 2010.03.12/outbox.cif.g09.slc.cpg/sg35_4_cif.got.tgz:7376.got - 2010.04.14 02:02:04.
