data_PCOD8172010
_publ_section_title
;
Structure prediction by ZEFSAII (Michael W. Deem and Ramdas Pophale) SiO2 
 PCOD8172010
Probable space group: P N N 2
;
_chemical_formula_sum "Si O2"
_cell_formula_units_Z 18
_cell_length_a 20.282865
_cell_length_b 6.783520
_cell_length_c 6.034835
_cell_angle_alpha 90.000000
_cell_angle_beta 90.000000
_cell_angle_gamma 90.000000
_cell_volume 830.328243
_symmetry_space_group_name_H-M "P N N 2"
_symmetry_group_IT_number 34
_symmetry_cell_setting 'orthorhombic'
loop_
_space_group_symop_operation_xyz
x,y,z
-x,-y,z
1/2-x,1/2+y,1/2+z
1/2+x,1/2-y,1/2+z
loop_
_atom_site_type_symbol
_atom_site_label
_atom_site_fract_x
_atom_site_fract_y
_atom_site_fract_z
Si Si1 0.500000 0.500000 0.127120
Si Si2 0.394612 0.693354 0.831034
Si Si3 0.664533 0.906484 0.752248
Si Si4 0.707380 0.574778 0.068317
Si Si5 0.390137 0.412543 0.448400
O O1 0.449718 0.373716 0.277444
O O2 0.459611 0.650425 0.974124
O O3 0.403997 0.617736 0.578306
O O4 0.382814 0.925890 0.850148
O O5 0.329661 0.587943 0.924179
O O6 0.614397 0.764074 0.623056
O O7 0.716712 0.009706 0.586969
O O8 0.701646 0.787580 0.948434
O O9 0.678360 0.581064 0.315743
#
# Coordination Sequence:
#
# PCOD8172010 Si02
#       5
#     2   4   4   4   4
#     4  10  22  44  62  84 126 164 208 262 304 360
#     4  10  22  41  63  89 123 163 207 255 306 365
#     4  11  22  39  65  95 123 159 203 250 310 371
#     4  10  22  38  61  95 128 157 200 253 310 371
#     4  10  22  41  63  88 121 165 206 254 309 362
#
# _framework density 21.678176000000001
#
# number of rings (size 3 to 8) (size 9 to 14) (size 15 to 20)
#    0.000    1.778    0.000    3.333    0.000    8.889 
#    0.000   26.667    0.000    0.000    0.000    0.000 
#    0.000    0.000    0.000    0.000    0.000    0.000 
#
# Total GULP energy -223267.838376 kJ/mol
# GULP energy per Si atom -12403.768799 kJ/mol
# Density = 2.162884 g / cm^3
# Si number density = 21.678176 Si / 1000 Ang^3
#
#
#
# Elastic Constant Matrix: (Units=GPa)
#
#
# Indices 1 2 3 4 5 6 
#
# 1 95.6579 28.0407 27.3633 0.0000 0.0000 0.0000
# 2 28.0407 128.5230 42.6219 0.0000 0.0000 0.0000
# 3 27.3633 42.6219 106.7849 0.0000 0.0000 0.0000
# 4 0.0000 0.0000 0.0000 23.5543 0.0000 0.0000
# 5 0.0000 0.0000 0.0000 0.0000 36.5617 0.0000
# 6 0.0000 0.0000 0.0000 0.0000 0.0000 23.7373
#
#
#
# Elastic Compliance Matrix: (Units=1/GPa)
#
#
# Indices 1 2 3 4 5 6 
#
# 1 0.011625 -0.001785 -0.002267 0.000000 0.000000 0.000000
# 2 -0.001785 0.009242 -0.003231 0.000000 0.000000 0.000000
# 3 -0.002267 -0.003231 0.011235 0.000000 0.000000 0.000000
# 4 0.000000 0.000000 0.000000 0.042455 0.000000 0.000000
# 5 0.000000 0.000000 0.000000 0.000000 0.027351 0.000000
# 6 0.000000 0.000000 0.000000 0.000000 0.000000 0.042128
#
#
# Mechanical properties :
#
#
# Convention : Reuss Voigt Hill
#
# Bulk Modulus (GPa) = 57.02263 58.55749 57.79006
# Shear Modulus (GPa) = 30.40485 32.29999 31.35242
#
# Velocity S-wave (km/s) = 3.74913 3.86421 3.80711
# Velocity P-wave (km/s) = 6.71585 6.85422 6.78539
#
# Compressibility (1/GPa) = 0.01753690
#
# Stress axis : x y z
#
# Youngs Moduli (GPa) = 86.01810 108.20504 89.00591
#
# Poissons Ratio (x) = 0.19312 0.20174
# Poissons Ratio (y) = 0.15352 0.28761
# Poissons Ratio (z) = 0.19497 0.34965
#
# Static dielectric constant tensor:
#      x y z
#    x 3.791050 0.000000 0.000000 
#    y 0.000000 3.748610 0.000000 
#    z 0.000000 0.000000 4.087900 
# 
# 
# High freq. dielectric constant tensor:
#      x y z
#    x 1.850780 0.000000 0.000000 
#    y 0.000000 1.837200 0.000000 
#    z 0.000000 0.000000 1.861990 
# 
# From -- ./inp_files/117.got.cif
#   From: 2010.03.12/outbox.cif.g09.slc.cpg/sg34_1_cif.got.tgz:117.got - 2010.04.14 01:56:33.
