data_PCOD8172296
_publ_section_title
;
Structure prediction by ZEFSAII (Michael W. Deem and Ramdas Pophale) SiO2 
 PCOD8172296
Probable space group: C M M 2
;
_chemical_formula_sum "Si O2"
_cell_formula_units_Z 48
_cell_length_a 30.614259
_cell_length_b 8.992117
_cell_length_c 9.959106
_cell_angle_alpha 90.000000
_cell_angle_beta 90.000000
_cell_angle_gamma 90.000000
_cell_volume 2741.612401
_symmetry_space_group_name_H-M "C M M 2"
_symmetry_group_IT_number 35
_symmetry_cell_setting 'orthorhombic'
loop_
_space_group_symop_operation_xyz
x,y,z
-x,-y,z
-x,y,z
x,-y,z
1/2+x,1/2+y,z
1/2-x,1/2-y,z
1/2-x,1/2+y,z
1/2+x,1/2-y,z
loop_
_atom_site_type_symbol
_atom_site_label
_atom_site_fract_x
_atom_site_fract_y
_atom_site_fract_z
Si Si1 0.209080 0.337323 0.260250
Si Si2 0.613772 0.176955 0.237351
Si Si3 0.451870 0.323751 0.741836
Si Si4 0.948924 0.170376 0.439913
Si Si5 0.381232 0.322516 0.954911
Si Si6 0.707966 0.166537 0.942035
O O1 0.212260 0.500000 0.324164
O O2 0.250000 0.250000 0.324114
O O3 0.161287 0.268766 0.293586
O O4 0.213546 0.343764 0.100809
O O5 0.576800 0.220491 0.341941
O O6 0.614628 0.000000 0.212758
O O7 0.603903 0.257542 0.097323
O O8 0.500000 0.259225 0.777685
O O9 0.454256 0.500000 0.746404
O O10 0.438552 0.275986 0.591182
O O11 0.416757 0.264376 0.847814
O O12 0.000000 0.186248 0.408507
O O13 0.933936 0.000000 0.417190
O O14 0.378727 0.500000 0.963866
O O15 0.334934 0.260027 0.905001
O O16 0.750000 0.250000 0.879248
O O17 0.704575 0.000000 0.881545
#
# Coordination Sequence:
#
# PCOD8172296 Si02
#       6
#     8   8   8   8   8   8
#     4   8  15  26  41  62  90 122 153 187 227 272
#     4  10  20  32  46  71 104 130 157 197 242 286
#     4   8  16  32  52  72  94 122 160 203 242 287
#     4   9  18  34  54  72  91 122 164 203 241 290
#     4  10  18  29  49  75 100 128 162 200 243 286
#     4   9  16  27  43  66  97 129 161 198 239 284
#
# _framework density 17.507943999999998
#
# number of rings (size 3 to 8) (size 9 to 14) (size 15 to 20)
#    0.000    3.000    0.000    3.500    0.000    5.667 
#    0.000    3.333    0.000    4.500    0.000    2.333 
#    0.000    0.000    0.000    0.000    0.000    0.000 
#
# Total GULP energy -297465.316776 kJ/mol
# GULP energy per Si atom -12394.388199 kJ/mol
# Density = 1.746810 g / cm^3
# Si number density = 17.507944 Si / 1000 Ang^3
#
#
#
# Elastic Constant Matrix: (Units=GPa)
#
#
# Indices 1 2 3 4 5 6 
#
# 1 131.6374 49.7102 69.2417 0.0000 0.0000 0.0000
# 2 49.7102 79.1805 34.1129 0.0000 0.0000 0.0000
# 3 69.2417 34.1129 72.0207 0.0000 0.0000 0.0000
# 4 0.0000 0.0000 0.0000 8.7117 0.0000 0.0000
# 5 0.0000 0.0000 0.0000 0.0000 2.0583 0.0000
# 6 0.0000 0.0000 0.0000 0.0000 0.0000 29.6915
#
#
#
# Elastic Compliance Matrix: (Units=1/GPa)
#
#
# Indices 1 2 3 4 5 6 
#
# 1 0.016521 -0.004434 -0.013784 0.000000 0.000000 0.000000
# 2 -0.004434 0.017057 -0.003816 0.000000 0.000000 0.000000
# 3 -0.013784 -0.003816 0.028944 0.000000 0.000000 0.000000
# 4 0.000000 0.000000 0.000000 0.114788 0.000000 0.000000
# 5 0.000000 0.000000 0.000000 0.000000 0.485848 0.000000
# 6 0.000000 0.000000 0.000000 0.000000 0.000000 0.033680
#
#
# Mechanical properties :
#
#
# Convention : Reuss Voigt Hill
#
# Bulk Modulus (GPa) = 54.18612 65.44092 59.81352
# Shear Modulus (GPa) = 6.69293 16.74389 11.71841
#
# Velocity S-wave (km/s) = 1.95732 3.09586 2.58993
# Velocity P-wave (km/s) = 6.01039 7.08789 6.57126
#
# Compressibility (1/GPa) = 0.01845491
#
# Stress axis : x y z
#
# Youngs Moduli (GPa) = 60.52839 58.62633 34.54909
#
# Poissons Ratio (x) = 0.25994 0.47621
# Poissons Ratio (y) = 0.26837 0.13186
# Poissons Ratio (z) = 0.83430 0.22375
#
# Static dielectric constant tensor:
#      x y z
#    x 3.627190 0.000000 0.000000 
#    y 0.000000 3.221060 0.000000 
#    z 0.000000 0.000000 2.945350 
# 
# 
# High freq. dielectric constant tensor:
#      x y z
#    x 1.690730 0.000000 0.000000 
#    y 0.000000 1.668850 0.000000 
#    z 0.000000 0.000000 1.632950 
# 
# From -- ./inp_files/10472.got.cif
#   From: 2010.03.12/outbox.cif.g09.slc.cpg/sg35_6_cif.got.tgz:10472.got - 2010.04.14 02:02:04.
