data_PCOD8172999
_publ_section_title
;
Structure prediction by ZEFSAII (Michael W. Deem and Ramdas Pophale) SiO2 
 PCOD8172999
Probable space group: C M M 2
;
_chemical_formula_sum "Si O2"
_cell_formula_units_Z 64
_cell_length_a 8.871205
_cell_length_b 28.259168
_cell_length_c 15.644071
_cell_angle_alpha 90.000000
_cell_angle_beta 90.000000
_cell_angle_gamma 90.000000
_cell_volume 3921.857096
_symmetry_space_group_name_H-M "C M M 2"
_symmetry_group_IT_number 35
_symmetry_cell_setting 'orthorhombic'
loop_
_space_group_symop_operation_xyz
x,y,z
-x,-y,z
-x,y,z
x,-y,z
1/2+x,1/2+y,z
1/2-x,1/2-y,z
1/2-x,1/2+y,z
1/2+x,1/2-y,z
loop_
_atom_site_type_symbol
_atom_site_label
_atom_site_fract_x
_atom_site_fract_y
_atom_site_fract_z
Si Si1 0.176374 0.698966 0.408900
Si Si2 0.675781 0.199268 0.221098
Si Si3 0.176731 0.856955 0.744279
Si Si4 0.322926 0.698741 0.574779
Si Si5 0.676919 0.800973 0.898961
Si Si6 0.823674 0.553700 0.804596
Si Si7 0.173617 0.053578 0.984831
Si Si8 0.823289 0.637712 0.064301
O O1 0.250000 0.750000 0.406506
O O2 0.207875 0.676370 0.315250
O O3 0.256059 0.672875 0.489222
O O4 0.000000 0.702688 0.427611
O O5 0.500000 0.208037 0.207647
O O6 0.750000 0.250000 0.208560
O O7 0.736553 0.163004 0.150179
O O8 0.219160 0.834457 0.653738
O O9 0.260163 0.828405 0.817847
O O10 0.234539 0.911101 0.741961
O O11 0.000000 0.855408 0.762286
O O12 0.500000 0.705316 0.564413
O O13 0.250000 0.750000 0.590017
O O14 0.500000 0.794736 0.887086
O O15 0.750000 0.750000 0.906251
O O16 0.717940 0.829456 0.984212
O O17 0.786316 0.500000 0.776694
O O18 0.772171 0.563216 0.901073
O O19 0.000000 0.564621 0.799468
O O20 0.000000 0.064136 0.962778
O O21 0.194943 0.000000 0.017706
O O22 0.233362 0.088393 0.058353
O O23 0.000000 0.626718 0.069060
#
# Coordination Sequence:
#
# PCOD8172999 Si02
#       8
#     8   8   8   8   8   8   8   8
#     4   9  16  28  47  68  92 123 157 198 239 278
#     4   9  18  31  47  70  98 127 161 196 235 280
#     4  11  22  34  49  70  96 127 162 199 238 283
#     4  10  20  32  47  69  96 127 161 197 237 281
#     4  11  22  33  46  65  94 132 167 196 229 275
#     4  10  20  34  52  72  94 122 157 198 243 287
#     4  10  20  33  50  71  94 122 159 201 241 282
#     4  10  20  33  48  69  96 128 162 196 236 283
#
# _framework density 16.318798999999999
#
# number of rings (size 3 to 8) (size 9 to 14) (size 15 to 20)
#    0.000    2.000    1.250    3.750    0.000    6.000 
#    0.000    0.000    0.000    0.000    0.000    0.875 
#    0.000    1.000    0.000    0.000    0.000    0.000 
#
# Total GULP energy -396743.688557 kJ/mol
# GULP energy per Si atom -12398.240267 kJ/mol
# Density = 1.628166 g / cm^3
# Si number density = 16.318799 Si / 1000 Ang^3
#
#
#
# Elastic Constant Matrix: (Units=GPa)
#
#
# Indices 1 2 3 4 5 6 
#
# 1 71.0068 42.4627 54.2891 0.0000 0.0000 0.0000
# 2 42.4627 99.0243 60.3267 0.0000 0.0000 0.0000
# 3 54.2891 60.3267 137.3325 0.0000 0.0000 0.0000
# 4 0.0000 0.0000 0.0000 11.5085 0.0000 0.0000
# 5 0.0000 0.0000 0.0000 0.0000 23.4792 0.0000
# 6 0.0000 0.0000 0.0000 0.0000 0.0000 28.3622
#
#
#
# Elastic Compliance Matrix: (Units=1/GPa)
#
#
# Indices 1 2 3 4 5 6 
#
# 1 0.022337 -0.005733 -0.006312 0.000000 0.000000 0.000000
# 2 -0.005733 0.015260 -0.004437 0.000000 0.000000 0.000000
# 3 -0.006312 -0.004437 0.011726 0.000000 0.000000 0.000000
# 4 0.000000 0.000000 0.000000 0.086892 0.000000 0.000000
# 5 0.000000 0.000000 0.000000 0.000000 0.042591 0.000000
# 6 0.000000 0.000000 0.000000 0.000000 0.000000 0.035258
#
#
# Mechanical properties :
#
#
# Convention : Reuss Voigt Hill
#
# Bulk Modulus (GPa) = 61.12746 69.05784 65.09265
# Shear Modulus (GPa) = 19.80342 22.68899 21.24621
#
# Velocity S-wave (km/s) = 3.48736 3.73280 3.61216
# Velocity P-wave (km/s) = 7.33179 7.80949 7.57441
#
# Compressibility (1/GPa) = 0.01635926
#
# Stress axis : x y z
#
# Youngs Moduli (GPa) = 44.76779 65.53050 85.28253
#
# Poissons Ratio (x) = 0.37571 0.53828
# Poissons Ratio (y) = 0.25667 0.37839
# Poissons Ratio (z) = 0.28256 0.29075
#
# Static dielectric constant tensor:
#      x y z
#    x 3.199950 0.000000 0.000000 
#    y 0.000000 2.999370 0.000000 
#    z 0.000000 0.000000 3.509950 
# 
# 
# High freq. dielectric constant tensor:
#      x y z
#    x 1.643790 0.000000 0.000000 
#    y 0.000000 1.606360 0.000000 
#    z 0.000000 0.000000 1.621570 
# 
# From -- ./inp_files/16169.got.cif
#   From: 2010.03.12/outbox.cif.g09.slc.cpg/sg35_9_cif.got.tgz:16169.got - 2010.04.14 02:02:04.
