data_PCOD8172733
_publ_section_title
;
Structure prediction by ZEFSAII (Michael W. Deem and Ramdas Pophale) SiO2 
 PCOD8172733
Probable space group: C M M 2
;
_chemical_formula_sum "Si O2"
_cell_formula_units_Z 64
_cell_length_a 9.084245
_cell_length_b 18.467733
_cell_length_c 20.377308
_cell_angle_alpha 90.000000
_cell_angle_beta 90.000000
_cell_angle_gamma 90.000000
_cell_volume 3418.607455
_symmetry_space_group_name_H-M "C M M 2"
_symmetry_group_IT_number 35
_symmetry_cell_setting 'orthorhombic'
loop_
_space_group_symop_operation_xyz
x,y,z
-x,-y,z
-x,y,z
x,-y,z
1/2+x,1/2+y,z
1/2-x,1/2-y,z
1/2-x,1/2+y,z
1/2+x,1/2-y,z
loop_
_atom_site_type_symbol
_atom_site_label
_atom_site_fract_x
_atom_site_fract_y
_atom_site_fract_z
Si Si1 0.327301 0.676231 0.287770
Si Si2 0.171791 0.176588 0.435835
Si Si3 0.163001 0.585180 0.536742
Si Si4 0.174816 0.172743 0.795442
Si Si5 0.675058 0.672513 0.045277
Si Si6 0.328694 0.916274 0.685630
Si Si7 0.674422 0.581377 0.920488
Si Si8 0.825386 0.919397 0.168946
O O1 0.500000 0.689566 0.281346
O O2 0.250000 0.750000 0.266242
O O3 0.282869 0.653838 0.361800
O O4 0.273889 0.613334 0.238677
O O5 0.250000 0.250000 0.457360
O O6 0.218605 0.114530 0.485732
O O7 0.000000 0.189358 0.441300
O O8 0.162417 0.500000 0.530094
O O9 0.205677 0.606558 0.610858
O O10 0.000000 0.615545 0.520112
O O11 0.250000 0.250000 0.803418
O O12 0.226192 0.134576 0.728996
O O13 0.228221 0.122870 0.855645
O O14 0.000000 0.182895 0.794123
O O15 0.500000 0.682815 0.044935
O O16 0.750000 0.750000 0.041718
O O17 0.731569 0.631301 0.110227
O O18 0.730290 0.625106 0.983799
O O19 0.500000 0.903244 0.702069
O O20 0.287048 0.000000 0.697909
O O21 0.500000 0.576456 0.921752
O O22 0.741182 0.500000 0.920993
O O23 0.000000 0.924220 0.165428
O O24 0.757794 0.000000 0.162197
#
# Coordination Sequence:
#
# PCOD8172733 Si02
#       8
#     8   8   8   8   8   8   8   8
#     4   9  18  32  50  72  99 131 167 209 253 298
#     4  10  20  33  51  75 103 136 172 212 257 305
#     4   9  19  36  56  77 103 134 167 208 258 309
#     4  11  22  35  53  77 106 138 172 212 256 303
#     4  10  19  32  53  77 102 134 169 207 250 297
#     4   9  19  37  58  78 102 133 169 210 257 308
#     4   9  18  33  53  77 103 132 170 213 253 297
#     4   9  17  30  50  75 100 130 170 210 248 294
#
# _framework density 18.721073000000001
#
# number of rings (size 3 to 8) (size 9 to 14) (size 15 to 20)
#    0.000    2.500    0.000    3.000    0.000    4.500 
#    0.000    3.125    0.000    4.125    0.000    0.000 
#    0.000    0.000    0.000    0.000    0.000    0.000 
#
# Total GULP energy -396810.015787 kJ/mol
# GULP energy per Si atom -12400.312993 kJ/mol
# Density = 1.867846 g / cm^3
# Si number density = 18.721073 Si / 1000 Ang^3
#
#
#
# Elastic Constant Matrix: (Units=GPa)
#
#
# Indices 1 2 3 4 5 6 
#
# 1 45.7673 39.5647 37.8699 0.0000 0.0000 0.0000
# 2 39.5647 141.9917 81.9076 0.0000 0.0000 0.0000
# 3 37.8699 81.9076 134.7806 0.0000 0.0000 0.0000
# 4 0.0000 0.0000 0.0000 36.5417 0.0000 0.0000
# 5 0.0000 0.0000 0.0000 0.0000 22.4050 0.0000
# 6 0.0000 0.0000 0.0000 0.0000 0.0000 27.5744
#
#
#
# Elastic Compliance Matrix: (Units=1/GPa)
#
#
# Indices 1 2 3 4 5 6 
#
# 1 0.031098 -0.005581 -0.005346 0.000000 0.000000 0.000000
# 2 -0.005581 0.011846 -0.005631 0.000000 0.000000 0.000000
# 3 -0.005346 -0.005631 0.012343 0.000000 0.000000 0.000000
# 4 0.000000 0.000000 0.000000 0.027366 0.000000 0.000000
# 5 0.000000 0.000000 0.000000 0.000000 0.044633 0.000000
# 6 0.000000 0.000000 0.000000 0.000000 0.000000 0.036265
#
#
# Mechanical properties :
#
#
# Convention : Reuss Voigt Hill
#
# Bulk Modulus (GPa) = 45.10316 71.24711 58.17514
# Shear Modulus (GPa) = 24.50283 28.18405 26.34344
#
# Velocity S-wave (km/s) = 3.62171 3.88425 3.75528
# Velocity P-wave (km/s) = 6.45241 7.63258 7.06717
#
# Compressibility (1/GPa) = 0.02217140
#
# Stress axis : x y z
#
# Youngs Moduli (GPa) = 32.15635 84.41734 81.01556
#
# Poissons Ratio (x) = 0.47117 0.43310
# Poissons Ratio (y) = 0.17948 0.45617
# Poissons Ratio (z) = 0.17190 0.47532
#
# Static dielectric constant tensor:
#      x y z
#    x 1.893950 0.000000 0.000000 
#    y 0.000000 3.514270 0.000000 
#    z 0.000000 0.000000 3.648500 
# 
# 
# High freq. dielectric constant tensor:
#      x y z
#    x 1.698490 0.000000 0.000000 
#    y 0.000000 1.731140 0.000000 
#    z 0.000000 0.000000 1.741370 
# 
# From -- ./inp_files/18405.got.cif
#   From: 2010.03.12/outbox.cif.g09.slc.cpg/sg35_10_cif.got.tgz:18405.got - 2010.04.14 02:02:04.
