data_PCOD8172864
_publ_section_title
;
Structure prediction by ZEFSAII (Michael W. Deem and Ramdas Pophale) SiO2 
 PCOD8172864
Probable space group: C M M 2
;
_chemical_formula_sum "Si O2"
_cell_formula_units_Z 64
_cell_length_a 35.213031
_cell_length_b 11.319398
_cell_length_c 7.743145
_cell_angle_alpha 90.000000
_cell_angle_beta 90.000000
_cell_angle_gamma 90.000000
_cell_volume 3086.342587
_symmetry_space_group_name_H-M "C M M 2"
_symmetry_group_IT_number 35
_symmetry_cell_setting 'orthorhombic'
loop_
_space_group_symop_operation_xyz
x,y,z
-x,-y,z
-x,y,z
x,-y,z
1/2+x,1/2+y,z
1/2-x,1/2-y,z
1/2-x,1/2+y,z
1/2+x,1/2-y,z
loop_
_atom_site_type_symbol
_atom_site_label
_atom_site_fract_x
_atom_site_fract_y
_atom_site_fract_z
Si Si1 0.542425 0.715169 0.653010
Si Si2 0.146918 0.285499 0.910042
Si Si3 0.848893 0.132905 0.245839
Si Si4 0.544314 0.131209 0.322966
Si Si5 0.229330 0.631582 0.959984
Si Si6 0.566936 0.867406 0.957256
Si Si7 0.761096 0.128906 0.333190
Si Si8 0.622025 0.631714 0.605707
O O1 0.500000 0.658136 0.630922
O O2 0.553999 0.794976 0.491249
O O3 0.541506 0.790890 0.827570
O O4 0.577249 0.623135 0.658610
O O5 0.140868 0.207372 0.079309
O O6 0.184995 0.361539 0.914874
O O7 0.110718 0.371094 0.897724
O O8 0.147258 0.204413 0.740155
O O9 0.804137 0.136532 0.274962
O O10 0.870836 0.184656 0.413850
O O11 0.862850 0.000000 0.209219
O O12 0.500000 0.128573 0.287801
O O13 0.560464 0.000000 0.356405
O O14 0.563421 0.186155 0.150749
O O15 0.243754 0.500000 0.892723
O O16 0.250000 0.750000 0.880305
O O17 0.234175 0.633347 0.165584
O O18 0.550488 0.000000 0.955639
O O19 0.750000 0.250000 0.441569
O O20 0.754006 0.000000 0.427758
O O21 0.638815 0.500000 0.607774
#
# Coordination Sequence:
#
# PCOD8172864 Si02
#       8
#     8   8   8   8   8   8   8   8
#     4  10  20  35  55  76 106 146 183 230 287 340
#     4  11  20  35  57  80 112 150 187 234 290 343
#     4  10  19  35  58  80 109 148 188 235 286 341
#     4   9  17  30  50  77 106 138 180 225 273 338
#     4  10  19  33  57  87 116 152 197 240 289 348
#     4  10  20  32  50  79 111 144 183 228 282 343
#     4   9  16  30  54  81 108 145 187 228 278 336
#     4  10  23  38  55  84 112 142 193 241 285 348
#
# _framework density 20.736518
#
# number of rings (size 3 to 8) (size 9 to 14) (size 15 to 20)
#    0.000    2.125    2.500    2.250    0.000    2.000 
#    0.000    0.625    0.000    7.500    0.000    3.500 
#    0.000    0.000    0.000    0.000    0.000    0.000 
#
# Total GULP energy -396463.570914 kJ/mol
# GULP energy per Si atom -12389.486591 kJ/mol
# Density = 2.068932 g / cm^3
# Si number density = 20.736518 Si / 1000 Ang^3
#
#
#
# Elastic Constant Matrix: (Units=GPa)
#
#
# Indices 1 2 3 4 5 6 
#
# 1 75.0391 11.5999 6.0311 0.0000 0.0000 0.0000
# 2 11.5999 112.9220 24.6574 0.0000 0.0000 0.0000
# 3 6.0311 24.6574 90.2914 0.0000 0.0000 0.0000
# 4 0.0000 0.0000 0.0000 10.8746 0.0000 0.0000
# 5 0.0000 0.0000 0.0000 0.0000 18.9084 0.0000
# 6 0.0000 0.0000 0.0000 0.0000 0.0000 33.2094
#
#
#
# Elastic Compliance Matrix: (Units=1/GPa)
#
#
# Indices 1 2 3 4 5 6 
#
# 1 0.013568 -0.001272 -0.000559 0.000000 0.000000 0.000000
# 2 -0.001272 0.009536 -0.002519 0.000000 0.000000 0.000000
# 3 -0.000559 -0.002519 0.011801 0.000000 0.000000 0.000000
# 4 0.000000 0.000000 0.000000 0.091957 0.000000 0.000000
# 5 0.000000 0.000000 0.000000 0.000000 0.052887 0.000000
# 6 0.000000 0.000000 0.000000 0.000000 0.000000 0.030112
#
#
# Mechanical properties :
#
#
# Convention : Reuss Voigt Hill
#
# Bulk Modulus (GPa) = 38.16084 40.31435 39.23760
# Shear Modulus (GPa) = 21.99778 28.32941 25.16360
#
# Velocity S-wave (km/s) = 3.26056 3.70017 3.48730
# Velocity P-wave (km/s) = 5.71119 6.14316 5.93111
#
# Compressibility (1/GPa) = 0.02620487
#
# Stress axis : x y z
#
# Youngs Moduli (GPa) = 73.70334 104.86111 84.74153
#
# Poissons Ratio (x) = 0.13335 0.04737
# Poissons Ratio (y) = 0.09373 0.21349
# Poissons Ratio (z) = 0.04120 0.26418
#
# Static dielectric constant tensor:
#      x y z
#    x 3.678270 0.000000 0.000000 
#    y 0.000000 4.010860 0.000000 
#    z 0.000000 0.000000 3.611050 
# 
# 
# High freq. dielectric constant tensor:
#      x y z
#    x 1.811290 0.000000 0.000000 
#    y 0.000000 1.803940 0.000000 
#    z 0.000000 0.000000 1.793800 
# 
# From -- ./inp_files/10640.got.cif
#   From: 2010.03.12/outbox.cif.g09.slc.cpg/sg35_6_cif.got.tgz:10640.got - 2010.04.14 02:02:04.
