data_PCOD8172928
_publ_section_title
;
Structure prediction by ZEFSAII (Michael W. Deem and Ramdas Pophale) SiO2 
 PCOD8172928
Probable space group: C M M 2
;
_chemical_formula_sum "Si O2"
_cell_formula_units_Z 64
_cell_length_a 15.350950
_cell_length_b 23.386683
_cell_length_c 9.729231
_cell_angle_alpha 90.000000
_cell_angle_beta 90.000000
_cell_angle_gamma 90.000000
_cell_volume 3492.869831
_symmetry_space_group_name_H-M "C M M 2"
_symmetry_group_IT_number 35
_symmetry_cell_setting 'orthorhombic'
loop_
_space_group_symop_operation_xyz
x,y,z
-x,-y,z
-x,y,z
x,-y,z
1/2+x,1/2+y,z
1/2-x,1/2-y,z
1/2-x,1/2+y,z
1/2+x,1/2-y,z
loop_
_atom_site_type_symbol
_atom_site_label
_atom_site_fract_x
_atom_site_fract_y
_atom_site_fract_z
Si Si1 0.900621 0.432832 0.823470
Si Si2 0.599255 0.355473 0.658469
Si Si3 0.276834 0.565438 0.306633
Si Si4 0.257382 0.065636 0.611618
Si Si5 0.099538 0.735632 0.156906
Si Si6 0.306026 0.873717 0.065128
Si Si7 0.900848 0.167420 0.352179
Si Si8 0.177759 0.203423 0.911514
O O1 0.887797 0.500000 0.850086
O O2 0.839398 0.410371 0.698670
O O3 0.000000 0.418638 0.783232
O O4 0.877627 0.399000 0.962104
O O5 0.500000 0.378200 0.676794
O O6 0.666402 0.407733 0.661362
O O7 0.608878 0.322231 0.514422
O O8 0.623213 0.311301 0.776927
O O9 0.310759 0.500000 0.300909
O O10 0.224315 0.575925 0.449561
O O11 0.216840 0.576971 0.174535
O O12 0.357299 0.608780 0.301827
O O13 0.246037 0.000000 0.646789
O O14 0.156566 0.678583 0.154197
O O15 0.138265 0.776649 0.276769
O O16 0.000000 0.718777 0.184439
O O17 0.107931 0.769286 0.014118
O O18 0.221864 0.852797 0.979043
O O19 0.000000 0.160851 0.304918
O O20 0.250000 0.250000 0.871048
#
# Coordination Sequence:
#
# PCOD8172928 Si02
#       8
#     8   8   8   8   8   8   8   8
#     4  10  20  36  58  81 110 148 189 234 281 332
#     4  10  19  35  57  82 113 145 180 224 273 330
#     4  10  20  35  56  80 111 148 184 228 277 329
#     4   9  19  36  56  82 111 144 185 228 277 330
#     4  10  20  36  55  77 109 144 181 226 275 333
#     4  11  20  35  55  82 109 144 185 231 279 333
#     4   9  19  35  55  81 111 145 183 224 273 327
#     4  10  20  34  52  79 107 143 179 222 275 325
#
# _framework density 18.323042000000001
#
# number of rings (size 3 to 8) (size 9 to 14) (size 15 to 20)
#    0.000    2.125    2.500    1.125    0.000    0.500 
#    4.500    3.750    0.000    3.000    0.000    0.000 
#    0.000    0.000    0.000    0.000    0.000    0.000 
#
# Total GULP energy -396765.876911 kJ/mol
# GULP energy per Si atom -12398.933653 kJ/mol
# Density = 1.828134 g / cm^3
# Si number density = 18.323042 Si / 1000 Ang^3
#
#
#
# Elastic Constant Matrix: (Units=GPa)
#
#
# Indices 1 2 3 4 5 6 
#
# 1 96.1373 34.2793 49.1646 0.0000 0.0000 0.0000
# 2 34.2793 72.5047 46.3932 0.0000 0.0000 0.0000
# 3 49.1646 46.3932 107.1706 0.0000 0.0000 0.0000
# 4 0.0000 0.0000 0.0000 28.6513 0.0000 0.0000
# 5 0.0000 0.0000 0.0000 0.0000 27.0226 0.0000
# 6 0.0000 0.0000 0.0000 0.0000 0.0000 24.5396
#
#
#
# Elastic Compliance Matrix: (Units=1/GPa)
#
#
# Indices 1 2 3 4 5 6 
#
# 1 0.014212 -0.003524 -0.004995 0.000000 0.000000 0.000000
# 2 -0.003524 0.019950 -0.007020 0.000000 0.000000 0.000000
# 3 -0.004995 -0.007020 0.014661 0.000000 0.000000 0.000000
# 4 0.000000 0.000000 0.000000 0.034902 0.000000 0.000000
# 5 0.000000 0.000000 0.000000 0.000000 0.037006 0.000000
# 6 0.000000 0.000000 0.000000 0.000000 0.000000 0.040750
#
#
# Mechanical properties :
#
#
# Convention : Reuss Voigt Hill
#
# Bulk Modulus (GPa) = 56.34614 59.49852 57.92233
# Shear Modulus (GPa) = 25.19229 25.77441 25.48335
#
# Velocity S-wave (km/s) = 3.71198 3.75462 3.73336
# Velocity P-wave (km/s) = 7.01356 7.16511 7.08974
#
# Compressibility (1/GPa) = 0.01774744
#
# Stress axis : x y z
#
# Youngs Moduli (GPa) = 70.36092 50.12603 68.20845
#
# Poissons Ratio (x) = 0.17662 0.34068
# Poissons Ratio (y) = 0.24792 0.47880
# Poissons Ratio (z) = 0.35143 0.35187
#
# Static dielectric constant tensor:
#      x y z
#    x 3.354810 0.000000 0.000000 
#    y 0.000000 3.327080 0.000000 
#    z 0.000000 0.000000 3.507400 
# 
# 
# High freq. dielectric constant tensor:
#      x y z
#    x 1.704520 0.000000 0.000000 
#    y 0.000000 1.702880 0.000000 
#    z 0.000000 0.000000 1.717480 
# 
# From -- ./inp_files/7845.got.cif
#   From: 2010.03.12/outbox.cif.g09.slc.cpg/sg35_4_cif.got.tgz:7845.got - 2010.04.14 02:02:04.
