data_PCOD8172656
_publ_section_title
;
Structure prediction by ZEFSAII (Michael W. Deem and Ramdas Pophale) SiO2 
 PCOD8172656
Probable space group: C M M 2
;
_chemical_formula_sum "Si O2"
_cell_formula_units_Z 48
_cell_length_a 32.671207
_cell_length_b 9.160271
_cell_length_c 9.141087
_cell_angle_alpha 90.000000
_cell_angle_beta 90.000000
_cell_angle_gamma 90.000000
_cell_volume 2735.718100
_symmetry_space_group_name_H-M "C M M 2"
_symmetry_group_IT_number 35
_symmetry_cell_setting 'orthorhombic'
loop_
_space_group_symop_operation_xyz
x,y,z
-x,-y,z
-x,y,z
x,-y,z
1/2+x,1/2+y,z
1/2-x,1/2-y,z
1/2-x,1/2+y,z
1/2+x,1/2-y,z
loop_
_atom_site_type_symbol
_atom_site_label
_atom_site_fract_x
_atom_site_fract_y
_atom_site_fract_z
Si Si1 0.954338 0.667853 0.125000
Si Si2 0.209773 0.671655 0.817391
Si Si3 0.623649 0.828514 0.306956
Si Si4 0.414849 0.336721 0.879735
Si Si5 0.332546 0.334961 0.064496
Si Si6 0.628560 0.830371 0.640904
O O1 0.947434 0.500000 0.083057
O O2 0.921555 0.714704 0.248237
O O3 0.000000 0.695728 0.187453
O O4 0.949496 0.757099 0.974674
O O5 0.217243 0.500000 0.836348
O O6 0.250000 0.750000 0.752394
O O7 0.173345 0.704999 0.704322
O O8 0.200925 0.741578 0.976395
O O9 0.658808 0.742312 0.219354
O O10 0.626901 0.777906 0.473989
O O11 0.632104 0.000000 0.288861
O O12 0.429682 0.500000 0.844922
O O13 0.406948 0.254658 0.727263
O O14 0.373697 0.335503 0.972285
O O15 0.316542 0.500000 0.090034
O O16 0.618276 0.000000 0.656018
#
# Coordination Sequence:
#
# PCOD8172656 Si02
#       6
#     8   8   8   8   8   8
#     4   9  17  30  49  71  94 123 161 203 244 286
#     4  10  19  32  50  71  95 124 159 200 244 287
#     4   9  17  31  50  71  97 129 163 199 240 287
#     4   9  17  29  47  69  93 122 157 195 234 281
#     4   9  17  30  48  70  93 121 158 195 233 281
#     4   9  18  32  50  71  97 129 162 197 240 290
#
# _framework density 17.545669
#
# number of rings (size 3 to 8) (size 9 to 14) (size 15 to 20)
#    0.000    2.833    0.000    1.500    0.000    5.667 
#    0.000    1.667    0.000    5.000    0.000    0.000 
#    0.000    0.000    0.000    0.000    0.000    0.000 
#
# Total GULP energy -297582.200022 kJ/mol
# GULP energy per Si atom -12399.258334 kJ/mol
# Density = 1.750573 g / cm^3
# Si number density = 17.545669 Si / 1000 Ang^3
#
#
#
# Elastic Constant Matrix: (Units=GPa)
#
#
# Indices 1 2 3 4 5 6 
#
# 1 70.6034 36.9700 39.9896 0.0000 0.0000 0.0000
# 2 36.9700 90.5718 56.1258 0.0000 0.0000 0.0000
# 3 39.9896 56.1258 137.6575 0.0000 0.0000 0.0000
# 4 0.0000 0.0000 0.0000 21.3974 0.0000 0.0000
# 5 0.0000 0.0000 0.0000 0.0000 17.6154 0.0000
# 6 0.0000 0.0000 0.0000 0.0000 0.0000 23.7011
#
#
#
# Elastic Compliance Matrix: (Units=1/GPa)
#
#
# Indices 1 2 3 4 5 6 
#
# 1 0.018984 -0.005796 -0.003152 0.000000 0.000000 0.000000
# 2 -0.005796 0.016543 -0.005061 0.000000 0.000000 0.000000
# 3 -0.003152 -0.005061 0.010244 0.000000 0.000000 0.000000
# 4 0.000000 0.000000 0.000000 0.046735 0.000000 0.000000
# 5 0.000000 0.000000 0.000000 0.000000 0.056768 0.000000
# 6 0.000000 0.000000 0.000000 0.000000 0.000000 0.042192
#
#
# Mechanical properties :
#
#
# Convention : Reuss Voigt Hill
#
# Bulk Modulus (GPa) = 56.32926 62.77817 59.55371
# Shear Modulus (GPa) = 22.18273 23.59260 22.88766
#
# Velocity S-wave (km/s) = 3.55954 3.67091 3.61565
# Velocity P-wave (km/s) = 7.00484 7.33655 7.17261
#
# Compressibility (1/GPa) = 0.01775276
#
# Stress axis : x y z
#
# Youngs Moduli (GPa) = 52.67713 60.44819 97.62222
#
# Poissons Ratio (x) = 0.35034 0.30768
# Poissons Ratio (y) = 0.30530 0.49409
# Poissons Ratio (z) = 0.16602 0.30595
#
# Static dielectric constant tensor:
#      x y z
#    x 3.128840 0.000000 0.000000 
#    y 0.000000 3.386500 0.000000 
#    z 0.000000 0.000000 3.210480 
# 
# 
# High freq. dielectric constant tensor:
#      x y z
#    x 1.658870 0.000000 0.000000 
#    y 0.000000 1.684400 0.000000 
#    z 0.000000 0.000000 1.663730 
# 
# From -- ./inp_files/5293.got.cif
#   From: 2010.03.12/outbox.cif.g09.slc.cpg/sg35_3_cif.got.tgz:5293.got - 2010.04.14 02:02:04.
