data_PCOD8172736
_publ_section_title
;
Structure prediction by ZEFSAII (Michael W. Deem and Ramdas Pophale) SiO2 
 PCOD8172736
Probable space group: C M M 2
;
_chemical_formula_sum "Si O2"
_cell_formula_units_Z 64
_cell_length_a 9.127125
_cell_length_b 32.456984
_cell_length_c 11.569394
_cell_angle_alpha 90.000000
_cell_angle_beta 90.000000
_cell_angle_gamma 90.000000
_cell_volume 3427.305132
_symmetry_space_group_name_H-M "C M M 2"
_symmetry_group_IT_number 35
_symmetry_cell_setting 'orthorhombic'
loop_
_space_group_symop_operation_xyz
x,y,z
-x,-y,z
-x,y,z
x,-y,z
1/2+x,1/2+y,z
1/2-x,1/2-y,z
1/2-x,1/2+y,z
1/2+x,1/2-y,z
loop_
_atom_site_type_symbol
_atom_site_label
_atom_site_fract_x
_atom_site_fract_y
_atom_site_fract_z
Si Si1 0.339588 0.952375 0.837740
Si Si2 0.672488 0.627481 0.475083
Si Si3 0.332913 0.398174 0.982342
Si Si4 0.336485 0.211606 0.101801
Si Si5 0.176687 0.206149 0.628579
Si Si6 0.166273 0.859905 0.216673
Si Si7 0.830748 0.676211 0.859241
Si Si8 0.826862 0.952970 0.607168
O O1 0.500000 0.930630 0.838035
O O2 0.250602 0.939753 0.724616
O O3 0.365425 0.000000 0.842671
O O4 0.241765 0.941119 0.949154
O O5 0.500000 0.627712 0.484764
O O6 0.727473 0.668746 0.542606
O O7 0.724577 0.627165 0.342116
O O8 0.729121 0.583066 0.521177
O O9 0.500000 0.394779 0.940217
O O10 0.325044 0.396251 0.121732
O O11 0.240225 0.365331 0.908102
O O12 0.500000 0.217320 0.143646
O O13 0.250000 0.250000 0.149670
O O14 0.274850 0.173135 0.167792
O O15 0.323990 0.208865 0.963449
O O16 0.250000 0.250000 0.589986
O O17 0.235540 0.194387 0.755003
O O18 0.000000 0.211117 0.631422
O O19 0.000000 0.842932 0.224739
O O20 0.000000 0.668898 0.821351
O O21 0.000000 0.951014 0.626066
O O22 0.782871 0.000000 0.567352
#
# Coordination Sequence:
#
# PCOD8172736 Si02
#       8
#     8   8   8   8   8   8   8   8
#     4  10  20  33  51  77 109 140 169 207 257 313
#     4   9  19  36  55  76 104 139 176 218 266 311
#     4  10  19  32  53  78 104 136 172 212 260 312
#     4  10  20  33  51  75 101 131 169 214 262 309
#     4  11  22  35  52  75 107 143 180 221 265 316
#     4   9  19  36  54  72  99 135 174 213 254 305
#     4  10  20  34  53  77 105 135 170 213 263 320
#     4   9  17  32  57  85 109 135 172 217 265 319
#
# _framework density 18.673563000000001
#
# number of rings (size 3 to 8) (size 9 to 14) (size 15 to 20)
#    0.000    2.250    0.000    3.000    0.000    5.250 
#    0.000    4.375    0.000    2.250    0.000    1.750 
#    0.000    0.000    0.000    0.000    0.000    0.000 
#
# Total GULP energy -396493.024720 kJ/mol
# GULP energy per Si atom -12390.407023 kJ/mol
# Density = 1.863106 g / cm^3
# Si number density = 18.673563 Si / 1000 Ang^3
#
#
#
# Elastic Constant Matrix: (Units=GPa)
#
#
# Indices 1 2 3 4 5 6 
#
# 1 99.8233 32.2928 54.3076 0.0000 0.0000 0.0000
# 2 32.2928 66.8019 65.8821 0.0000 0.0000 0.0000
# 3 54.3076 65.8821 119.1721 0.0000 0.0000 0.0000
# 4 0.0000 0.0000 0.0000 14.6265 0.0000 0.0000
# 5 0.0000 0.0000 0.0000 0.0000 19.8352 0.0000
# 6 0.0000 0.0000 0.0000 0.0000 0.0000 25.9754
#
#
#
# Elastic Compliance Matrix: (Units=1/GPa)
#
#
# Indices 1 2 3 4 5 6 
#
# 1 0.013350 -0.000997 -0.005532 0.000000 0.000000 0.000000
# 2 -0.000997 0.032991 -0.017784 0.000000 0.000000 0.000000
# 3 -0.005532 -0.017784 0.020744 0.000000 0.000000 0.000000
# 4 0.000000 0.000000 0.000000 0.068369 0.000000 0.000000
# 5 0.000000 0.000000 0.000000 0.000000 0.050415 0.000000
# 6 0.000000 0.000000 0.000000 0.000000 0.000000 0.038498
#
#
# Mechanical properties :
#
#
# Convention : Reuss Voigt Hill
#
# Bulk Modulus (GPa) = 54.17839 65.64025 59.90932
# Shear Modulus (GPa) = 17.91175 20.97508 19.44342
#
# Velocity S-wave (km/s) = 3.10046 3.35513 3.23031
# Velocity P-wave (km/s) = 6.47252 7.08780 6.78714
#
# Compressibility (1/GPa) = 0.01845754
#
# Stress axis : x y z
#
# Youngs Moduli (GPa) = 74.90531 30.31164 48.20729
#
# Poissons Ratio (x) = 0.03023 0.26670
# Poissons Ratio (y) = 0.07471 0.85730
# Poissons Ratio (z) = 0.41440 0.53905
#
# Static dielectric constant tensor:
#      x y z
#    x 3.584380 0.000000 0.000000 
#    y 0.000000 3.566420 0.000000 
#    z 0.000000 0.000000 3.616410 
# 
# 
# High freq. dielectric constant tensor:
#      x y z
#    x 1.727200 0.000000 0.000000 
#    y 0.000000 1.723690 0.000000 
#    z 0.000000 0.000000 1.712950 
# 
# From -- ./inp_files/11839.got.cif
#   From: 2010.03.12/outbox.cif.g09.slc.cpg/sg35_6_cif.got.tgz:11839.got - 2010.04.14 02:02:04.
