data_PCOD8172086
_publ_section_title
;
Structure prediction by ZEFSAII (Michael W. Deem and Ramdas Pophale) SiO2 
 PCOD8172086
Probable space group: P N N 2
;
_chemical_formula_sum "Si O2"
_cell_formula_units_Z 26
_cell_length_a 17.658145
_cell_length_b 13.042530
_cell_length_c 5.068828
_cell_angle_alpha 90.000000
_cell_angle_beta 90.000000
_cell_angle_gamma 90.000000
_cell_volume 1167.385992
_symmetry_space_group_name_H-M "P N N 2"
_symmetry_group_IT_number 34
_symmetry_cell_setting 'orthorhombic'
loop_
_space_group_symop_operation_xyz
x,y,z
-x,-y,z
1/2-x,1/2+y,1/2+z
1/2+x,1/2-y,1/2+z
loop_
_atom_site_type_symbol
_atom_site_label
_atom_site_fract_x
_atom_site_fract_y
_atom_site_fract_z
Si Si1 0.967896 0.164460 0.098040
Si Si2 0.120323 0.037941 0.081357
Si Si3 0.666761 0.186904 0.060708
Si Si4 0.500000 0.000000 0.343817
Si Si5 0.287437 0.594239 0.078877
Si Si6 0.341755 0.944022 0.549575
Si Si7 0.006619 0.711867 0.598480
O O1 0.049989 0.113403 0.119959
O O2 0.959819 0.252845 0.318668
O O3 0.903335 0.079368 0.130966
O O4 0.954693 0.217296 0.817871
O O5 0.184316 0.067524 0.287723
O O6 0.153316 0.048924 0.788441
O O7 0.672609 0.142043 0.768451
O O8 0.722837 0.283064 0.099139
O O9 0.688281 0.099775 0.271349
O O10 0.583029 0.229603 0.114294
O O11 0.568844 0.032152 0.534493
O O12 0.474236 0.092557 0.151780
O O13 0.204474 0.546096 0.120819
#
# Coordination Sequence:
#
# PCOD8172086 Si02
#       7
#     4   4   4   2   4   4   4
#     4  11  21  38  65 101 136 173 216 275 331 397
#     4  11  22  39  67 102 134 170 219 269 338 418
#     4  11  22  43  70  94 126 182 221 267 339 406
#     4  10  26  46  70 100 130 186 244 278 330 402
#     4  12  23  44  69  97 134 182 219 274 345 412
#     4  11  26  45  69  97 135 174 228 283 327 396
#     4  11  21  40  68  95 131 179 222 279 325 394
#
# _framework density 22.271984
#
# number of rings (size 3 to 8) (size 9 to 14) (size 15 to 20)
#    0.000    0.923    3.077    4.615    0.000    8.000 
#    8.308    0.000    0.000    0.000    0.000    0.000 
#    0.000    0.000    0.000    0.000    0.000    0.000 
#
# Total GULP energy -322559.727275 kJ/mol
# GULP energy per Si atom -12406.143357 kJ/mol
# Density = 2.222129 g / cm^3
# Si number density = 22.271984 Si / 1000 Ang^3
#
#
#
# Elastic Constant Matrix: (Units=GPa)
#
#
# Indices 1 2 3 4 5 6 
#
# 1 64.4694 42.0931 15.5967 0.0000 0.0000 0.0000
# 2 42.0931 133.9997 27.4786 0.0000 0.0000 0.0000
# 3 15.5967 27.4786 104.4492 0.0000 0.0000 0.0000
# 4 0.0000 0.0000 0.0000 38.9827 0.0000 0.0000
# 5 0.0000 0.0000 0.0000 0.0000 16.7415 0.0000
# 6 0.0000 0.0000 0.0000 0.0000 0.0000 29.9838
#
#
#
# Elastic Compliance Matrix: (Units=1/GPa)
#
#
# Indices 1 2 3 4 5 6 
#
# 1 0.019702 -0.005904 -0.001389 0.000000 0.000000 0.000000
# 2 -0.005904 0.009658 -0.001659 0.000000 0.000000 0.000000
# 3 -0.001389 -0.001659 0.010218 0.000000 0.000000 0.000000
# 4 0.000000 0.000000 0.000000 0.025652 0.000000 0.000000
# 5 0.000000 0.000000 0.000000 0.000000 0.059732 0.000000
# 6 0.000000 0.000000 0.000000 0.000000 0.000000 0.033351
#
#
# Mechanical properties :
#
#
# Convention : Reuss Voigt Hill
#
# Bulk Modulus (GPa) = 46.13910 52.58390 49.36150
# Shear Modulus (GPa) = 27.25659 31.65826 29.45742
#
# Velocity S-wave (km/s) = 3.50209 3.77429 3.64073
# Velocity P-wave (km/s) = 6.09213 6.53106 6.31541
#
# Compressibility (1/GPa) = 0.02167359
#
# Stress axis : x y z
#
# Youngs Moduli (GPa) = 50.75589 103.54528 97.86775
#
# Poissons Ratio (x) = 0.61136 0.13591
# Poissons Ratio (y) = 0.29967 0.16237
# Poissons Ratio (z) = 0.07048 0.17179
#
# Static dielectric constant tensor:
#      x y z
#    x 3.714570 0.000000 0.000000 
#    y 0.000000 4.232670 0.000000 
#    z 0.000000 0.000000 4.061500 
# 
# 
# High freq. dielectric constant tensor:
#      x y z
#    x 1.847120 0.000000 0.000000 
#    y 0.000000 1.892210 0.000000 
#    z 0.000000 0.000000 1.889600 
# 
# From -- ./inp_files/933.got.cif
#   From: 2010.03.12/outbox.cif.g09.slc.cpg/sg34_1_cif.got.tgz:933.got - 2010.04.14 01:56:33.
