data_PCOD8172790
_publ_section_title
;
Structure prediction by ZEFSAII (Michael W. Deem and Ramdas Pophale) SiO2 
 PCOD8172790
Probable space group: C M M 2
;
_chemical_formula_sum "Si O2"
_cell_formula_units_Z 64
_cell_length_a 16.297724
_cell_length_b 14.788302
_cell_length_c 14.189513
_cell_angle_alpha 90.000000
_cell_angle_beta 90.000000
_cell_angle_gamma 90.000000
_cell_volume 3419.894904
_symmetry_space_group_name_H-M "C M M 2"
_symmetry_group_IT_number 35
_symmetry_cell_setting 'orthorhombic'
loop_
_space_group_symop_operation_xyz
x,y,z
-x,-y,z
-x,y,z
x,-y,z
1/2+x,1/2+y,z
1/2-x,1/2-y,z
1/2-x,1/2+y,z
1/2+x,1/2-y,z
loop_
_atom_site_type_symbol
_atom_site_label
_atom_site_fract_x
_atom_site_fract_y
_atom_site_fract_z
Si Si1 0.593096 0.603120 0.649280
Si Si2 0.182424 0.102267 0.837130
Si Si3 0.732065 0.599528 0.331963
Si Si4 0.211571 0.844018 0.130216
Si Si5 0.837347 0.773828 0.491602
Si Si6 0.592964 0.897443 0.403010
Si Si7 0.592066 0.717754 0.985621
Si Si8 0.172140 0.400923 0.964766
O O1 0.500000 0.621523 0.686178
O O2 0.602115 0.500000 0.616440
O O3 0.661496 0.624944 0.728735
O O4 0.609407 0.663676 0.558544
O O5 0.135173 0.175305 0.896725
O O6 0.278526 0.112097 0.865465
O O7 0.152533 0.000000 0.859975
O O8 0.713146 0.500000 0.374214
O O9 0.700020 0.598746 0.224747
O O10 0.684017 0.674127 0.393471
O O11 0.831830 0.614567 0.328736
O O12 0.250000 0.750000 0.162332
O O13 0.124114 0.822060 0.083932
O O14 0.264672 0.895613 0.051826
O O15 0.750000 0.750000 0.539702
O O16 0.890299 0.681714 0.479013
O O17 0.500000 0.883824 0.360323
O O18 0.597698 0.000000 0.446470
O O19 0.500000 0.689093 0.980459
O O20 0.602754 0.825893 0.977334
O O21 0.130465 0.500000 0.966095
#
# Coordination Sequence:
#
# PCOD8172790 Si02
#       8
#     8   8   8   8   8   8   8   8
#     4  10  20  34  53  77 103 131 168 215 261 304
#     4   9  18  34  55  75  97 129 169 210 251 297
#     4  10  19  33  53  75 102 136 171 207 251 304
#     4   9  17  32  51  71  98 132 170 205 242 290
#     4  10  20  33  51  75 105 139 171 206 253 310
#     4   9  18  33  53  75  98 130 174 219 258 295
#     4  10  20  33  52  78 105 131 162 204 252 302
#     4   9  18  33  53  75 100 133 169 205 246 295
#
# _framework density 18.714024999999999
#
# number of rings (size 3 to 8) (size 9 to 14) (size 15 to 20)
#    0.000    2.500    0.000    3.750    0.000    3.000 
#    0.000    6.250    0.000    5.250    0.000    0.000 
#    0.000    0.000    0.000    0.000    0.000    0.250 
#
# Total GULP energy -396449.221242 kJ/mol
# GULP energy per Si atom -12389.038164 kJ/mol
# Density = 1.867143 g / cm^3
# Si number density = 18.714025 Si / 1000 Ang^3
#
#
#
# Elastic Constant Matrix: (Units=GPa)
#
#
# Indices 1 2 3 4 5 6 
#
# 1 18.5154 12.7868 -2.4978 0.0000 0.0000 0.0000
# 2 12.7868 94.1424 24.2182 0.0000 0.0000 0.0000
# 3 -2.4978 24.2182 70.7438 0.0000 0.0000 0.0000
# 4 0.0000 0.0000 0.0000 25.8844 0.0000 0.0000
# 5 0.0000 0.0000 0.0000 0.0000 10.6120 0.0000
# 6 0.0000 0.0000 0.0000 0.0000 0.0000 20.9280
#
#
#
# Elastic Compliance Matrix: (Units=1/GPa)
#
#
# Indices 1 2 3 4 5 6 
#
# 1 0.061503 -0.009773 0.005517 0.000000 0.000000 0.000000
# 2 -0.009773 0.013201 -0.004864 0.000000 0.000000 0.000000
# 3 0.005517 -0.004864 0.015996 0.000000 0.000000 0.000000
# 4 0.000000 0.000000 0.000000 0.038633 0.000000 0.000000
# 5 0.000000 0.000000 0.000000 0.000000 0.094233 0.000000
# 6 0.000000 0.000000 0.000000 0.000000 0.000000 0.047783
#
#
# Mechanical properties :
#
#
# Convention : Reuss Voigt Hill
#
# Bulk Modulus (GPa) = 13.80087 28.04621 20.92354
# Shear Modulus (GPa) = 15.93671 21.41118 18.67394
#
# Velocity S-wave (km/s) = 2.92137 3.38616 3.16232
# Velocity P-wave (km/s) = 4.33242 5.50521 4.95365
#
# Compressibility (1/GPa) = 0.07245918
#
# Stress axis : x y z
#
# Youngs Moduli (GPa) = 16.25950 75.75241 62.51749
#
# Poissons Ratio (x) = 0.74031 -0.34492
# Poissons Ratio (y) = 0.15890 0.30410
# Poissons Ratio (z) = -0.08971 0.36848
#
# Static dielectric constant tensor:
#      x y z
#    x 3.389200 0.000000 0.000000 
#    y 0.000000 3.546210 0.000000 
#    z 0.000000 0.000000 3.156720 
# 
# 
# High freq. dielectric constant tensor:
#      x y z
#    x 1.706160 0.000000 0.000000 
#    y 0.000000 1.748280 0.000000 
#    z 0.000000 0.000000 1.698550 
# 
# From -- ./inp_files/17230.got.cif
#   From: 2010.03.12/outbox.cif.g09.slc.cpg/sg35_9_cif.got.tgz:17230.got - 2010.04.14 02:02:04.
