data_PCOD8172808
_publ_section_title
;
Structure prediction by ZEFSAII (Michael W. Deem and Ramdas Pophale) SiO2 
 PCOD8172808
Probable space group: C M M 2
;
_chemical_formula_sum "Si O2"
_cell_formula_units_Z 64
_cell_length_a 29.191405
_cell_length_b 8.797233
_cell_length_c 12.480540
_cell_angle_alpha 90.000000
_cell_angle_beta 90.000000
_cell_angle_gamma 90.000000
_cell_volume 3205.047494
_symmetry_space_group_name_H-M "C M M 2"
_symmetry_group_IT_number 35
_symmetry_cell_setting 'orthorhombic'
loop_
_space_group_symop_operation_xyz
x,y,z
-x,-y,z
-x,y,z
x,-y,z
1/2+x,1/2+y,z
1/2-x,1/2-y,z
1/2-x,1/2+y,z
1/2+x,1/2-y,z
loop_
_atom_site_type_symbol
_atom_site_label
_atom_site_fract_x
_atom_site_fract_y
_atom_site_fract_z
Si Si1 0.387714 0.681148 0.829790
Si Si2 0.890073 0.178998 0.232652
Si Si3 0.317558 0.170214 0.519590
Si Si4 0.918421 0.670481 0.444529
Si Si5 0.550143 0.329422 0.638833
Si Si6 0.203819 0.681762 0.287995
Si Si7 0.447994 0.319634 0.028847
Si Si8 0.797154 0.318215 0.753390
O O1 0.382411 0.500000 0.833353
O O2 0.414115 0.738144 0.723783
O O3 0.337784 0.758033 0.829524
O O4 0.417384 0.740580 0.930220
O O5 0.916522 0.223989 0.340591
O O6 0.840638 0.260465 0.223870
O O7 0.922340 0.234822 0.136260
O O8 0.881612 0.000000 0.229661
O O9 0.371859 0.174165 0.511650
O O10 0.297717 0.246278 0.410879
O O11 0.302918 0.248897 0.631492
O O12 0.298531 0.000000 0.523783
O O13 0.931046 0.500000 0.407992
O O14 0.954628 0.733609 0.529512
O O15 0.500000 0.328806 0.693522
O O16 0.565202 0.500000 0.608094
O O17 0.203397 0.500000 0.284581
O O18 0.250000 0.750000 0.234715
O O19 0.500000 0.252943 0.025030
O O20 0.450905 0.500000 0.025112
O O21 0.797007 0.500000 0.756190
O O22 0.750000 0.250000 0.799865
#
# Coordination Sequence:
#
# PCOD8172808 Si02
#       8
#     8   8   8   8   8   8   8   8
#     4  10  20  37  60  85 112 145 187 236 287 337
#     4  10  20  35  57  85 114 148 190 237 287 338
#     4   8  16  30  49  74 108 148 185 224 268 323
#     4  10  19  34  53  78 115 154 187 228 282 335
#     4  10  20  33  53  83 115 147 185 229 281 345
#     4  10  19  33  53  81 116 155 194 234 281 334
#     4   9  19  38  64  88 110 142 188 241 291 339
#     4  11  21  35  54  81 115 152 191 231 279 334
#
# _framework density 19.968502000000001
#
# number of rings (size 3 to 8) (size 9 to 14) (size 15 to 20)
#    0.000    2.250    1.250    3.000    0.000    2.250 
#    0.000    4.375    0.000    3.750    0.000    0.000 
#    0.000    0.000    0.000    0.000    0.000    0.000 
#
# Total GULP energy -396657.024674 kJ/mol
# GULP energy per Si atom -12395.532021 kJ/mol
# Density = 1.992305 g / cm^3
# Si number density = 19.968502 Si / 1000 Ang^3
#
#
#
# Elastic Constant Matrix: (Units=GPa)
#
#
# Indices 1 2 3 4 5 6 
#
# 1 152.0577 38.4528 69.4477 0.0000 0.0000 0.0000
# 2 38.4528 63.5452 31.5382 0.0000 0.0000 0.0000
# 3 69.4477 31.5382 108.1822 0.0000 0.0000 0.0000
# 4 0.0000 0.0000 0.0000 17.1255 0.0000 0.0000
# 5 0.0000 0.0000 0.0000 0.0000 24.2235 0.0000
# 6 0.0000 0.0000 0.0000 0.0000 0.0000 26.4448
#
#
#
# Elastic Compliance Matrix: (Units=1/GPa)
#
#
# Indices 1 2 3 4 5 6 
#
# 1 0.009864 -0.003304 -0.005369 0.000000 0.000000 0.000000
# 2 -0.003304 0.019506 -0.003565 0.000000 0.000000 0.000000
# 3 -0.005369 -0.003565 0.013730 0.000000 0.000000 0.000000
# 4 0.000000 0.000000 0.000000 0.058392 0.000000 0.000000
# 5 0.000000 0.000000 0.000000 0.000000 0.041282 0.000000
# 6 0.000000 0.000000 0.000000 0.000000 0.000000 0.037815
#
#
# Mechanical properties :
#
#
# Convention : Reuss Voigt Hill
#
# Bulk Modulus (GPa) = 53.69868 66.96250 60.33059
# Shear Modulus (GPa) = 23.66599 25.84854 24.75726
#
# Velocity S-wave (km/s) = 3.44636 3.60177 3.52492
# Velocity P-wave (km/s) = 6.54115 7.13470 6.84436
#
# Compressibility (1/GPa) = 0.01862243
#
# Stress axis : x y z
#
# Youngs Moduli (GPa) = 101.37670 51.26660 72.83487
#
# Poissons Ratio (x) = 0.16940 0.39105
# Poissons Ratio (y) = 0.33499 0.25968
# Poissons Ratio (z) = 0.54429 0.18278
#
# Static dielectric constant tensor:
#      x y z
#    x 3.730570 0.000000 0.000000 
#    y 0.000000 3.348980 0.000000 
#    z 0.000000 0.000000 3.543190 
# 
# 
# High freq. dielectric constant tensor:
#      x y z
#    x 1.788950 0.000000 0.000000 
#    y 0.000000 1.754750 0.000000 
#    z 0.000000 0.000000 1.759370 
# 
# From -- ./inp_files/14540.got.cif
#   From: 2010.03.12/outbox.cif.g09.slc.cpg/sg35_8_cif.got.tgz:14540.got - 2010.04.14 02:02:04.
