data_PCOD8172721
_publ_section_title
;
Structure prediction by ZEFSAII (Michael W. Deem and Ramdas Pophale) SiO2 
 PCOD8172721
Probable space group: C M M 2
;
_chemical_formula_sum "Si O2"
_cell_formula_units_Z 48
_cell_length_a 17.559187
_cell_length_b 27.460900
_cell_length_c 4.881898
_cell_angle_alpha 90.000000
_cell_angle_beta 90.000000
_cell_angle_gamma 90.000000
_cell_volume 2354.007661
_symmetry_space_group_name_H-M "C M M 2"
_symmetry_group_IT_number 35
_symmetry_cell_setting 'orthorhombic'
loop_
_space_group_symop_operation_xyz
x,y,z
-x,-y,z
-x,y,z
x,-y,z
1/2+x,1/2+y,z
1/2-x,1/2-y,z
1/2-x,1/2+y,z
1/2+x,1/2-y,z
loop_
_atom_site_type_symbol
_atom_site_label
_atom_site_fract_x
_atom_site_fract_y
_atom_site_fract_z
Si Si1 0.585562 0.120134 0.828200
Si Si2 0.785667 0.891934 0.328969
Si Si3 0.771702 0.444082 0.818753
Si Si4 0.143701 0.671957 0.324181
Si Si5 0.916293 0.766247 0.069177
Si Si6 0.416792 0.667463 0.578193
O O1 0.500000 0.102985 0.764188
O O2 0.641274 0.074113 0.805058
O O3 0.609452 0.165992 0.630974
O O4 0.591861 0.136691 0.141116
O O5 0.757655 0.937007 0.511573
O O6 0.731623 0.844363 0.337640
O O7 0.865907 0.876491 0.460515
O O8 0.783835 0.912476 0.019088
O O9 0.769599 0.500000 0.906269
O O10 0.140752 0.724655 0.180014
O O11 0.932251 0.797989 0.329305
O O12 0.000000 0.745473 0.972874
O O13 0.879967 0.800384 0.828345
O O14 0.500000 0.646950 0.676052
#
# Coordination Sequence:
#
# PCOD8172721 Si02
#       6
#     8   8   8   8   8   8
#     4  10  19  32  52  78 110 146 182 219 261 309
#     4  10  21  38  56  78 108 141 179 224 277 329
#     4  10  21  37  58  80 104 139 179 224 280 334
#     4  10  20  33  51  77 111 150 183 215 257 307
#     4  10  19  32  52  78 108 142 181 217 254 308
#     4  10  21  36  56  80 106 141 179 221 272 319
#
# _framework density 20.390757000000001
#
# number of rings (size 3 to 8) (size 9 to 14) (size 15 to 20)
#    0.000    2.000    0.000    4.000    0.000    2.333 
#    0.000    1.667    0.000    9.000    0.000    0.000 
#    0.000    0.000    0.000    0.000    0.000    0.000 
#
# Total GULP energy -297328.908750 kJ/mol
# GULP energy per Si atom -12388.704531 kJ/mol
# Density = 2.034435 g / cm^3
# Si number density = 20.390757 Si / 1000 Ang^3
#
#
#
# Elastic Constant Matrix: (Units=GPa)
#
#
# Indices 1 2 3 4 5 6 
#
# 1 82.9165 43.3851 19.7179 0.0000 0.0000 0.0000
# 2 43.3851 82.4188 14.6424 0.0000 0.0000 0.0000
# 3 19.7179 14.6424 97.3326 0.0000 0.0000 0.0000
# 4 0.0000 0.0000 0.0000 29.9619 0.0000 0.0000
# 5 0.0000 0.0000 0.0000 0.0000 22.4906 0.0000
# 6 0.0000 0.0000 0.0000 0.0000 0.0000 15.9530
#
#
#
# Elastic Compliance Matrix: (Units=1/GPa)
#
#
# Indices 1 2 3 4 5 6 
#
# 1 0.017078 -0.008605 -0.002165 0.000000 0.000000 0.000000
# 2 -0.008605 0.016802 -0.000784 0.000000 0.000000 0.000000
# 3 -0.002165 -0.000784 0.010831 0.000000 0.000000 0.000000
# 4 0.000000 0.000000 0.000000 0.033376 0.000000 0.000000
# 5 0.000000 0.000000 0.000000 0.000000 0.044463 0.000000
# 6 0.000000 0.000000 0.000000 0.000000 0.000000 0.062684
#
#
# Mechanical properties :
#
#
# Convention : Reuss Voigt Hill
#
# Bulk Modulus (GPa) = 46.29336 46.46209 46.37772
# Shear Modulus (GPa) = 23.19722 26.00926 24.60324
#
# Velocity S-wave (km/s) = 3.37654 3.57535 3.47737
# Velocity P-wave (km/s) = 6.16066 6.31502 6.23832
#
# Compressibility (1/GPa) = 0.02160137
#
# Stress axis : x y z
#
# Youngs Moduli (GPa) = 58.55600 59.51618 92.33033
#
# Poissons Ratio (x) = 0.51214 0.19991
# Poissons Ratio (y) = 0.50387 0.07243
# Poissons Ratio (z) = 0.12678 0.04669
#
# Static dielectric constant tensor:
#      x y z
#    x 3.741050 0.000000 0.000000 
#    y 0.000000 3.180740 0.000000 
#    z 0.000000 0.000000 3.924570 
# 
# 
# High freq. dielectric constant tensor:
#      x y z
#    x 1.779680 0.000000 0.000000 
#    y 0.000000 1.757340 0.000000 
#    z 0.000000 0.000000 1.823520 
# 
# From -- ./inp_files/2555.got.cif
#   From: 2010.03.12/outbox.cif.g09.slc.cpg/sg35_2_cif.got.tgz:2555.got - 2010.04.14 02:02:04.
