data_PCOD8172755
_publ_section_title
;
Structure prediction by ZEFSAII (Michael W. Deem and Ramdas Pophale) SiO2 
 PCOD8172755
Probable space group: C M M 2
;
_chemical_formula_sum "Si O2"
_cell_formula_units_Z 64
_cell_length_a 26.297506
_cell_length_b 13.486634
_cell_length_c 9.488011
_cell_angle_alpha 90.000000
_cell_angle_beta 90.000000
_cell_angle_gamma 90.000000
_cell_volume 3365.063889
_symmetry_space_group_name_H-M "C M M 2"
_symmetry_group_IT_number 35
_symmetry_cell_setting 'orthorhombic'
loop_
_space_group_symop_operation_xyz
x,y,z
-x,-y,z
-x,y,z
x,-y,z
1/2+x,1/2+y,z
1/2-x,1/2-y,z
1/2-x,1/2+y,z
1/2+x,1/2-y,z
loop_
_atom_site_type_symbol
_atom_site_label
_atom_site_fract_x
_atom_site_fract_y
_atom_site_fract_z
Si Si1 0.873197 0.388326 0.920070
Si Si2 0.557726 0.711134 0.849862
Si Si3 0.355537 0.278841 0.417368
Si Si4 0.157043 0.887074 0.895573
Si Si5 0.327238 0.889047 0.613261
Si Si6 0.713703 0.382395 0.621214
Si Si7 0.690808 0.247167 0.120330
Si Si8 0.056907 0.886022 0.551105
O O1 0.888602 0.500000 0.968200
O O2 0.923518 0.320136 0.900369
O O3 0.848613 0.391648 0.768344
O O4 0.831139 0.345201 0.028985
O O5 0.500000 0.695490 0.904802
O O6 0.596953 0.632662 0.917068
O O7 0.560324 0.688941 0.683206
O O8 0.360346 0.177717 0.507624
O O9 0.310686 0.348494 0.475003
O O10 0.344710 0.252015 0.256852
O O11 0.407695 0.341539 0.428621
O O12 0.178982 0.838953 0.750007
O O13 0.170266 0.000000 0.892768
O O14 0.186525 0.845623 0.028671
O O15 0.271016 0.841181 0.625122
O O16 0.326012 0.000000 0.549202
O O17 0.715056 0.500000 0.629641
O O18 0.750000 0.250000 0.163731
O O19 0.000000 0.887642 0.490689
O O20 0.073319 0.000000 0.592211
#
# Coordination Sequence:
#
# PCOD8172755 Si02
#       8
#     8   8   8   8   8   8   8   8
#     4  10  21  40  60  82 113 151 197 242 288 342
#     4  10  19  34  60  91 115 142 184 241 297 341
#     4  12  21  36  55  81 118 150 191 236 283 340
#     4  10  20  36  56  82 115 150 191 235 281 344
#     4  10  20  34  55  80 106 143 193 245 287 331
#     4  10  19  32  54  80 108 147 191 238 288 338
#     4  11  24  37  54  83 119 161 194 233 283 341
#     4  10  20  36  60  88 117 148 183 231 294 354
#
# _framework density 19.018954000000001
#
# number of rings (size 3 to 8) (size 9 to 14) (size 15 to 20)
#    0.000    1.625    2.500    3.375    0.000    4.000 
#    0.000    2.500    0.000    0.375    0.000    0.000 
#    0.000    0.000    0.000    0.000    0.000    0.000 
#
# Total GULP energy -396600.457960 kJ/mol
# GULP energy per Si atom -12393.764311 kJ/mol
# Density = 1.897567 g / cm^3
# Si number density = 19.018954 Si / 1000 Ang^3
#
#
#
# Elastic Constant Matrix: (Units=GPa)
#
#
# Indices 1 2 3 4 5 6 
#
# 1 82.3077 25.9582 10.4151 0.0000 0.0000 0.0000
# 2 25.9582 88.3730 30.0201 0.0000 0.0000 0.0000
# 3 10.4151 30.0201 81.1516 0.0000 0.0000 0.0000
# 4 0.0000 0.0000 0.0000 7.1135 0.0000 0.0000
# 5 0.0000 0.0000 0.0000 0.0000 23.5925 0.0000
# 6 0.0000 0.0000 0.0000 0.0000 0.0000 25.5836
#
#
#
# Elastic Compliance Matrix: (Units=1/GPa)
#
#
# Indices 1 2 3 4 5 6 
#
# 1 0.013396 -0.003833 -0.000302 0.000000 0.000000 0.000000
# 2 -0.003833 0.014038 -0.004701 0.000000 0.000000 0.000000
# 3 -0.000302 -0.004701 0.014100 0.000000 0.000000 0.000000
# 4 0.000000 0.000000 0.000000 0.140577 0.000000 0.000000
# 5 0.000000 0.000000 0.000000 0.000000 0.042386 0.000000
# 6 0.000000 0.000000 0.000000 0.000000 0.000000 0.039087
#
#
# Mechanical properties :
#
#
# Convention : Reuss Voigt Hill
#
# Bulk Modulus (GPa) = 41.90328 42.73544 42.31936
# Shear Modulus (GPa) = 17.28837 23.62053 20.45445
#
# Velocity S-wave (km/s) = 3.01825 3.52795 3.28300
# Velocity P-wave (km/s) = 5.85035 6.25411 6.05560
#
# Compressibility (1/GPa) = 0.02386448
#
# Stress axis : x y z
#
# Youngs Moduli (GPa) = 74.64694 71.23292 70.91973
#
# Poissons Ratio (x) = 0.27300 0.02139
# Poissons Ratio (y) = 0.28609 0.33342
# Poissons Ratio (z) = 0.02251 0.33489
#
# Static dielectric constant tensor:
#      x y z
#    x 3.603670 0.000000 0.000000 
#    y 0.000000 3.915230 0.000000 
#    z 0.000000 0.000000 3.242380 
# 
# 
# High freq. dielectric constant tensor:
#      x y z
#    x 1.737990 0.000000 0.000000 
#    y 0.000000 1.750870 0.000000 
#    z 0.000000 0.000000 1.711590 
# 
# From -- ./inp_files/9906.got.cif
#   From: 2010.03.12/outbox.cif.g09.slc.cpg/sg35_5_cif.got.tgz:9906.got - 2010.04.14 02:02:04.
