data_PCOD8172089
_publ_section_title
;
Structure prediction by ZEFSAII (Michael W. Deem and Ramdas Pophale) SiO2 
 PCOD8172089
Probable space group: P N N 2
;
_chemical_formula_sum "Si O2"
_cell_formula_units_Z 20
_cell_length_a 27.633679
_cell_length_b 5.215604
_cell_length_c 5.180232
_cell_angle_alpha 90.000000
_cell_angle_beta 90.000000
_cell_angle_gamma 90.000000
_cell_volume 746.607810
_symmetry_space_group_name_H-M "P N N 2"
_symmetry_group_IT_number 34
_symmetry_cell_setting 'orthorhombic'
loop_
_space_group_symop_operation_xyz
x,y,z
-x,-y,z
1/2-x,1/2+y,1/2+z
1/2+x,1/2-y,1/2+z
loop_
_atom_site_type_symbol
_atom_site_label
_atom_site_fract_x
_atom_site_fract_y
_atom_site_fract_z
Si Si1 0.699570 0.915440 0.452490
Si Si2 0.807735 0.096754 0.452751
Si Si3 0.445755 0.022335 0.959402
Si Si4 0.554453 0.478092 0.630797
Si Si5 0.125842 0.228544 0.766666
O O1 0.683327 0.713113 0.670018
O O2 0.755937 0.964607 0.487188
O O3 0.667367 0.174857 0.469264
O O4 0.688770 0.816561 0.166359
O O5 0.849073 0.887371 0.509817
O O6 0.438599 0.803337 0.747111
O O7 0.500000 0.000000 0.073849
O O8 0.435046 0.301087 0.840034
O O9 0.407990 0.970180 0.189313
O O10 0.500000 0.500000 0.518988
O O11 0.592769 0.493824 0.396488
#
# Coordination Sequence:
#
# PCOD8172089 Si02
#       5
#     4   4   4   4   4
#     4  12  29  52  81 119 168 220 283 350 427 506
#     4  12  29  52  81 119 168 220 283 350 427 506
#     4  10  26  51  79 117 168 222 283 353 429 512
#     4  10  26  51  79 117 168 222 283 353 429 512
#     4  12  30  46  84 116 170 218 292 344 436 502
#
# _framework density 26.787825999999999
#
# number of rings (size 3 to 8) (size 9 to 14) (size 15 to 20)
#    0.000    0.800    2.000    1.200   11.200    4.800 
#    0.000    0.000    0.000    0.000    0.000    0.000 
#    0.000    0.000    0.000    0.000    0.000    0.000 
#
# Total GULP energy -248114.464697 kJ/mol
# GULP energy per Si atom -12405.723235 kJ/mol
# Density = 2.672686 g / cm^3
# Si number density = 26.787826 Si / 1000 Ang^3
#
#
#
# Elastic Constant Matrix: (Units=GPa)
#
#
# Indices 1 2 3 4 5 6 
#
# 1 160.7724 25.4069 24.5806 0.0000 0.0000 0.0000
# 2 25.4069 84.6981 7.9845 0.0000 0.0000 0.0000
# 3 24.5806 7.9845 59.8779 0.0000 0.0000 0.0000
# 4 0.0000 0.0000 0.0000 45.4260 0.0000 0.0000
# 5 0.0000 0.0000 0.0000 0.0000 37.1557 0.0000
# 6 0.0000 0.0000 0.0000 0.0000 0.0000 46.9155
#
#
#
# Elastic Compliance Matrix: (Units=1/GPa)
#
#
# Indices 1 2 3 4 5 6 
#
# 1 0.006905 -0.001827 -0.002591 0.000000 0.000000 0.000000
# 2 -0.001827 0.012440 -0.000909 0.000000 0.000000 0.000000
# 3 -0.002591 -0.000909 0.017885 0.000000 0.000000 0.000000
# 4 0.000000 0.000000 0.000000 0.022014 0.000000 0.000000
# 5 0.000000 0.000000 0.000000 0.000000 0.026914 0.000000
# 6 0.000000 0.000000 0.000000 0.000000 0.000000 0.021315
#
#
# Mechanical properties :
#
#
# Convention : Reuss Voigt Hill
#
# Bulk Modulus (GPa) = 37.62638 46.81028 42.21833
# Shear Modulus (GPa) = 39.37451 42.39119 40.88285
#
# Velocity S-wave (km/s) = 3.83804 3.98235 3.91086
# Velocity P-wave (km/s) = 5.80666 6.21755 6.01562
#
# Compressibility (1/GPa) = 0.02657710
#
# Stress axis : x y z
#
# Youngs Moduli (GPa) = 144.82644 80.38344 55.91145
#
# Poissons Ratio (x) = 0.14686 0.14486
# Poissons Ratio (y) = 0.26460 0.05082
# Poissons Ratio (z) = 0.37523 0.07306
#
# Static dielectric constant tensor:
#      x y z
#    x 5.427470 0.000000 0.000000 
#    y 0.000000 4.776640 0.000000 
#    z 0.000000 0.000000 4.513410 
# 
# 
# High freq. dielectric constant tensor:
#      x y z
#    x 2.107310 0.000000 0.000000 
#    y 0.000000 2.080490 0.000000 
#    z 0.000000 0.000000 2.062250 
# 
# From -- ./inp_files/1792.got.cif
#   From: 2010.03.12/outbox.cif.g09.slc.cpg/sg34_1_cif.got.tgz:1792.got - 2010.04.14 01:56:33.
