data_PCOD8172262
_publ_section_title
;
Structure prediction by ZEFSAII (Michael W. Deem and Ramdas Pophale) SiO2 
 PCOD8172262
Probable space group: C M M 2
;
_chemical_formula_sum "Si O2"
_cell_formula_units_Z 56
_cell_length_a 14.409815
_cell_length_b 16.518015
_cell_length_c 12.859596
_cell_angle_alpha 90.000000
_cell_angle_beta 90.000000
_cell_angle_gamma 90.000000
_cell_volume 3060.860848
_symmetry_space_group_name_H-M "C M M 2"
_symmetry_group_IT_number 35
_symmetry_cell_setting 'orthorhombic'
loop_
_space_group_symop_operation_xyz
x,y,z
-x,-y,z
-x,y,z
x,-y,z
1/2+x,1/2+y,z
1/2-x,1/2-y,z
1/2-x,1/2+y,z
1/2+x,1/2-y,z
loop_
_atom_site_type_symbol
_atom_site_label
_atom_site_fract_x
_atom_site_fract_y
_atom_site_fract_z
Si Si1 0.604045 0.596233 0.524540
Si Si2 0.396250 0.172014 0.241875
Si Si3 0.392186 0.649177 0.161521
Si Si4 0.896484 0.903928 0.754275
Si Si5 0.769025 0.907654 0.340748
Si Si6 0.705662 0.596867 0.956475
Si Si7 0.599995 0.905955 0.028157
O O1 0.500000 0.629498 0.502871
O O2 0.601985 0.500000 0.517168
O O3 0.637667 0.624238 0.639634
O O4 0.673813 0.630453 0.437521
O O5 0.500000 0.170550 0.289798
O O6 0.372920 0.258682 0.193220
O O7 0.322568 0.147878 0.330250
O O8 0.385278 0.106319 0.150778
O O9 0.500000 0.625553 0.170117
O O10 0.333100 0.592704 0.238151
O O11 0.358975 0.636567 0.043875
O O12 0.828689 0.871580 0.844284
O O13 0.000000 0.870424 0.774925
O O14 0.898770 0.000000 0.757701
O O15 0.739014 0.000000 0.362683
O O16 0.700095 0.500000 0.968080
O O17 0.811655 0.629538 0.966331
O O18 0.500000 0.865996 0.994559
O O19 0.594540 0.000000 0.005015
#
# Coordination Sequence:
#
# PCOD8172262 Si02
#       7
#     8   8   8   8   8   8   8
#     4   8  15  28  46  70 100 130 159 197 249 304
#     4  10  21  35  48  66  95 135 172 200 238 291
#     4  11  22  32  45  72 104 132 157 194 251 302
#     4   8  14  26  44  68 100 133 161 193 242 304
#     4  11  20  31  50  74  98 127 164 207 246 287
#     4  10  18  28  47  74 102 132 163 202 248 296
#     4   9  17  30  47  67  92 126 169 207 238 280
#
# _framework density 18.295506
#
# number of rings (size 3 to 8) (size 9 to 14) (size 15 to 20)
#    0.000    2.429    1.429    3.000    0.000    3.143 
#    0.000    0.000    0.000    0.857    7.429    4.000 
#    0.000    0.000    0.000    0.000    0.000    0.000 
#
# Total GULP energy -347049.303797 kJ/mol
# GULP energy per Si atom -12394.617993 kJ/mol
# Density = 1.825386 g / cm^3
# Si number density = 18.295506 Si / 1000 Ang^3
#
#
#
# Elastic Constant Matrix: (Units=GPa)
#
#
# Indices 1 2 3 4 5 6 
#
# 1 143.7075 26.7136 74.4407 0.0000 0.0000 0.0000
# 2 26.7136 30.0327 14.4480 0.0000 0.0000 0.0000
# 3 74.4407 14.4480 128.7269 0.0000 0.0000 0.0000
# 4 0.0000 0.0000 0.0000 10.5970 0.0000 0.0000
# 5 0.0000 0.0000 0.0000 0.0000 32.5676 0.0000
# 6 0.0000 0.0000 0.0000 0.0000 0.0000 20.0440
#
#
#
# Elastic Compliance Matrix: (Units=1/GPa)
#
#
# Indices 1 2 3 4 5 6 
#
# 1 0.011262 -0.007277 -0.005696 0.000000 0.000000 0.000000
# 2 -0.007277 0.039900 -0.000270 0.000000 0.000000 0.000000
# 3 -0.005696 -0.000270 0.011092 0.000000 0.000000 0.000000
# 4 0.000000 0.000000 0.000000 0.094366 0.000000 0.000000
# 5 0.000000 0.000000 0.000000 0.000000 0.030705 0.000000
# 6 0.000000 0.000000 0.000000 0.000000 0.000000 0.049890
#
#
# Mechanical properties :
#
#
# Convention : Reuss Voigt Hill
#
# Bulk Modulus (GPa) = 27.95771 59.29686 43.62728
# Shear Modulus (GPa) = 18.14068 25.09939 21.62003
#
# Velocity S-wave (km/s) = 3.15228 3.70792 3.44133
# Velocity P-wave (km/s) = 5.34449 7.12829 6.29984
#
# Compressibility (1/GPa) = 0.03576831
#
# Stress axis : x y z
#
# Youngs Moduli (GPa) = 88.79672 25.06280 90.15164
#
# Poissons Ratio (x) = 0.18238 0.51348
# Poissons Ratio (y) = 0.64618 0.02435
# Poissons Ratio (z) = 0.50576 0.00677
#
# Static dielectric constant tensor:
#      x y z
#    x 3.781540 0.000000 0.000000 
#    y 0.000000 2.984670 0.000000 
#    z 0.000000 0.000000 3.464660 
# 
# 
# High freq. dielectric constant tensor:
#      x y z
#    x 1.720570 0.000000 0.000000 
#    y 0.000000 1.672330 0.000000 
#    z 0.000000 0.000000 1.688310 
# 
# From -- ./inp_files/12977.got.cif
#   From: 2010.03.12/outbox.cif.g09.slc.cpg/sg35_7_cif.got.tgz:12977.got - 2010.04.14 02:02:04.
