data_PCOD8172480
_publ_section_title
;
Structure prediction by ZEFSAII (Michael W. Deem and Ramdas Pophale) SiO2 
 PCOD8172480
Probable space group: C M M 2
;
_chemical_formula_sum "Si O2"
_cell_formula_units_Z 64
_cell_length_a 23.944819
_cell_length_b 14.230376
_cell_length_c 9.364508
_cell_angle_alpha 90.000000
_cell_angle_beta 90.000000
_cell_angle_gamma 90.000000
_cell_volume 3190.897831
_symmetry_space_group_name_H-M "C M M 2"
_symmetry_group_IT_number 35
_symmetry_cell_setting 'orthorhombic'
loop_
_space_group_symop_operation_xyz
x,y,z
-x,-y,z
-x,y,z
x,-y,z
1/2+x,1/2+y,z
1/2-x,1/2-y,z
1/2-x,1/2+y,z
1/2+x,1/2-y,z
loop_
_atom_site_type_symbol
_atom_site_label
_atom_site_fract_x
_atom_site_fract_y
_atom_site_fract_z
Si Si1 0.933412 0.211482 0.102020
Si Si2 0.855871 0.894102 0.887979
Si Si3 0.130728 0.603851 0.146887
Si Si4 0.654619 0.102350 0.475931
Si Si5 0.632517 0.700598 0.591843
Si Si6 0.753805 0.139856 0.084263
Si Si7 0.435240 0.604310 0.382739
Si Si8 0.229925 0.145762 0.394653
O O1 0.910245 0.317499 0.082590
O O2 0.913404 0.170159 0.253923
O O3 0.000000 0.212529 0.081284
O O4 0.905674 0.144584 0.985032
O O5 0.852963 0.825747 0.752163
O O6 0.871322 0.000000 0.841400
O O7 0.795203 0.897008 0.962275
O O8 0.103921 0.500000 0.126261
O O9 0.137932 0.626787 0.314083
O O10 0.190612 0.602343 0.066667
O O11 0.633471 0.185827 0.579045
O O12 0.721848 0.092645 0.483115
O O13 0.629966 0.000000 0.523549
O O14 0.574319 0.658155 0.534311
O O15 0.673976 0.644917 0.485250
O O16 0.750000 0.250000 0.071188
O O17 0.778876 0.103197 0.236096
O O18 0.500000 0.591023 0.362167
O O19 0.407427 0.500000 0.378898
O O20 0.250000 0.250000 0.366875
#
# Coordination Sequence:
#
# PCOD8172480 Si02
#       8
#     8   8   8   8   8   8   8   8
#     4  11  23  42  64  88 119 157 205 263 308 354
#     4  12  26  39  56  88 127 168 205 247 305 366
#     4  10  19  37  66  97 122 155 200 250 306 361
#     4   9  18  34  60  90 120 153 194 241 293 352
#     4  11  21  38  58  84 126 159 196 245 296 360
#     4  10  18  36  64  87 124 164 201 248 300 362
#     4  10  21  38  62  87 111 149 203 255 303 354
#     4   8  17  32  56  84 112 154 197 240 288 342
#
# _framework density 20.05705
#
# number of rings (size 3 to 8) (size 9 to 14) (size 15 to 20)
#    0.000    1.875    2.500    2.625    0.000    4.500 
#    0.000    0.625    0.000    0.375    0.000    0.000 
#    0.000    0.000    0.000    0.000    0.000    0.000 
#
# Total GULP energy -396599.353088 kJ/mol
# GULP energy per Si atom -12393.729784 kJ/mol
# Density = 2.001140 g / cm^3
# Si number density = 20.057050 Si / 1000 Ang^3
#
#
#
# Elastic Constant Matrix: (Units=GPa)
#
#
# Indices 1 2 3 4 5 6 
#
# 1 69.8415 36.4214 31.6120 0.0000 0.0000 0.0000
# 2 36.4214 159.5290 41.2996 0.0000 0.0000 0.0000
# 3 31.6120 41.2996 98.3673 0.0000 0.0000 0.0000
# 4 0.0000 0.0000 0.0000 16.9496 0.0000 0.0000
# 5 0.0000 0.0000 0.0000 0.0000 12.8676 0.0000
# 6 0.0000 0.0000 0.0000 0.0000 0.0000 17.9423
#
#
#
# Elastic Compliance Matrix: (Units=1/GPa)
#
#
# Indices 1 2 3 4 5 6 
#
# 1 0.017885 -0.002912 -0.004525 0.000000 0.000000 0.000000
# 2 -0.002912 0.007507 -0.002216 0.000000 0.000000 0.000000
# 3 -0.004525 -0.002216 0.012551 0.000000 0.000000 0.000000
# 4 0.000000 0.000000 0.000000 0.058999 0.000000 0.000000
# 5 0.000000 0.000000 0.000000 0.000000 0.077714 0.000000
# 6 0.000000 0.000000 0.000000 0.000000 0.000000 0.055734
#
#
# Mechanical properties :
#
#
# Convention : Reuss Voigt Hill
#
# Bulk Modulus (GPa) = 53.65799 60.71152 57.18476
# Shear Modulus (GPa) = 19.53832 24.11222 21.82527
#
# Velocity S-wave (km/s) = 3.12450 3.47101 3.30230
# Velocity P-wave (km/s) = 6.31090 6.81168 6.56607
#
# Compressibility (1/GPa) = 0.01863655
#
# Stress axis : x y z
#
# Youngs Moduli (GPa) = 55.91368 133.21048 79.67739
#
# Poissons Ratio (x) = 0.38787 0.36055
# Poissons Ratio (y) = 0.16280 0.17657
# Poissons Ratio (z) = 0.25301 0.29520
#
# Static dielectric constant tensor:
#      x y z
#    x 3.583940 0.000000 0.000000 
#    y 0.000000 3.892690 0.000000 
#    z 0.000000 0.000000 3.414460 
# 
# 
# High freq. dielectric constant tensor:
#      x y z
#    x 1.764080 0.000000 0.000000 
#    y 0.000000 1.802300 0.000000 
#    z 0.000000 0.000000 1.751860 
# 
# From -- ./inp_files/9898.got.cif
#   From: 2010.03.12/outbox.cif.g09.slc.cpg/sg35_5_cif.got.tgz:9898.got - 2010.04.14 02:02:04.
