data_PCOD8172312
_publ_section_title
;
Structure prediction by ZEFSAII (Michael W. Deem and Ramdas Pophale) SiO2 
 PCOD8172312
Probable space group: C M M 2
;
_chemical_formula_sum "Si O2"
_cell_formula_units_Z 64
_cell_length_a 28.693400
_cell_length_b 8.894747
_cell_length_c 15.655562
_cell_angle_alpha 90.000000
_cell_angle_beta 90.000000
_cell_angle_gamma 90.000000
_cell_volume 3995.620887
_symmetry_space_group_name_H-M "C M M 2"
_symmetry_group_IT_number 35
_symmetry_cell_setting 'orthorhombic'
loop_
_space_group_symop_operation_xyz
x,y,z
-x,-y,z
-x,y,z
x,-y,z
1/2+x,1/2+y,z
1/2-x,1/2-y,z
1/2-x,1/2+y,z
1/2+x,1/2-y,z
loop_
_atom_site_type_symbol
_atom_site_label
_atom_site_fract_x
_atom_site_fract_y
_atom_site_fract_z
Si Si1 0.799647 0.325268 0.736730
Si Si2 0.449464 0.178312 0.502768
Si Si3 0.699735 0.176594 0.923851
Si Si4 0.799936 0.821382 0.415446
Si Si5 0.641023 0.323132 0.252600
Si Si6 0.552266 0.175497 0.310122
Si Si7 0.852882 0.321814 0.571137
Si Si8 0.800902 0.821309 0.090130
O O1 0.789346 0.500000 0.727698
O O2 0.750000 0.250000 0.721548
O O3 0.822558 0.291069 0.830213
O O4 0.836447 0.272171 0.665352
O O5 0.500000 0.237665 0.537258
O O6 0.441683 0.237825 0.406556
O O7 0.406619 0.233258 0.561608
O O8 0.451134 0.000000 0.499884
O O9 0.750000 0.250000 0.919494
O O10 0.703071 0.000000 0.942920
O O11 0.673957 0.258585 0.003288
O O12 0.750000 0.750000 0.398790
O O13 0.832664 0.767769 0.337726
O O14 0.820480 0.761265 0.503612
O O15 0.795206 0.000000 0.419701
O O16 0.637181 0.500000 0.251140
O O17 0.589008 0.257231 0.249049
O O18 0.668514 0.265423 0.169628
O O19 0.500000 0.210265 0.277155
O O20 0.562841 0.000000 0.307334
O O21 0.848532 0.500000 0.556240
O O22 0.750000 0.750000 0.100344
O O23 0.796687 0.000000 0.086042
#
# Coordination Sequence:
#
# PCOD8172312 Si02
#       8
#     8   8   8   8   8   8   8   8
#     4   9  18  29  43  64  89 117 149 182 222 266
#     4   8  14  26  45  67  88 112 146 186 223 260
#     4   9  16  28  44  63  86 113 146 186 228 268
#     4  11  22  33  43  60  89 123 155 183 215 258
#     4  10  21  33  45  65  92 120 151 186 224 266
#     4   9  17  30  49  70  89 114 151 190 226 266
#     4  10  18  30  47  66  89 120 152 185 221 262
#     4  10  19  31  46  66  90 118 153 188 224 269
#
# _framework density 16.017534999999999
#
# number of rings (size 3 to 8) (size 9 to 14) (size 15 to 20)
#    0.000    2.500    1.250    3.375    0.000    3.750 
#    0.000    0.000    0.000    0.375    0.000    0.875 
#    0.000    3.000    0.000    0.000    0.000    0.000 
#
# Total GULP energy -396588.620441 kJ/mol
# GULP energy per Si atom -12393.394389 kJ/mol
# Density = 1.598108 g / cm^3
# Si number density = 16.017535 Si / 1000 Ang^3
#
#
#
# Elastic Constant Matrix: (Units=GPa)
#
#
# Indices 1 2 3 4 5 6 
#
# 1 102.5663 25.5830 55.9085 0.0000 0.0000 0.0000
# 2 25.5830 39.9103 34.5879 0.0000 0.0000 0.0000
# 3 55.9085 34.5879 129.8155 0.0000 0.0000 0.0000
# 4 0.0000 0.0000 0.0000 20.7689 0.0000 0.0000
# 5 0.0000 0.0000 0.0000 0.0000 12.0698 0.0000
# 6 0.0000 0.0000 0.0000 0.0000 0.0000 19.3016
#
#
#
# Elastic Compliance Matrix: (Units=1/GPa)
#
#
# Indices 1 2 3 4 5 6 
#
# 1 0.013375 -0.004657 -0.004520 0.000000 0.000000 0.000000
# 2 -0.004657 0.034200 -0.007107 0.000000 0.000000 0.000000
# 3 -0.004520 -0.007107 0.011543 0.000000 0.000000 0.000000
# 4 0.000000 0.000000 0.000000 0.048149 0.000000 0.000000
# 5 0.000000 0.000000 0.000000 0.000000 0.082851 0.000000
# 6 0.000000 0.000000 0.000000 0.000000 0.000000 0.051809
#
#
# Mechanical properties :
#
#
# Convention : Reuss Voigt Hill
#
# Bulk Modulus (GPa) = 37.66140 56.05012 46.85576
# Shear Modulus (GPa) = 17.64637 20.84224 19.24431
#
# Velocity S-wave (km/s) = 3.32277 3.61115 3.46996
# Velocity P-wave (km/s) = 6.18747 7.24266 6.73576
#
# Compressibility (1/GPa) = 0.02655239
#
# Stress axis : x y z
#
# Youngs Moduli (GPa) = 74.76710 29.23962 86.63102
#
# Poissons Ratio (x) = 0.13616 0.39153
# Poissons Ratio (y) = 0.34816 0.61567
# Poissons Ratio (z) = 0.33791 0.20780
#
# Static dielectric constant tensor:
#      x y z
#    x 3.176400 0.000000 0.000000 
#    y 0.000000 2.949180 0.000000 
#    z 0.000000 0.000000 3.576510 
# 
# 
# High freq. dielectric constant tensor:
#      x y z
#    x 1.595190 0.000000 0.000000 
#    y 0.000000 1.609900 0.000000 
#    z 0.000000 0.000000 1.610750 
# 
# From -- ./inp_files/16224.got.cif
#   From: 2010.03.12/outbox.cif.g09.slc.cpg/sg35_9_cif.got.tgz:16224.got - 2010.04.14 02:02:04.
