data_PCOD8172320
_publ_section_title
;
Structure prediction by ZEFSAII (Michael W. Deem and Ramdas Pophale) SiO2 
 PCOD8172320
Probable space group: C M M 2
;
_chemical_formula_sum "Si O2"
_cell_formula_units_Z 64
_cell_length_a 29.137262
_cell_length_b 9.330528
_cell_length_c 12.348142
_cell_angle_alpha 90.000000
_cell_angle_beta 90.000000
_cell_angle_gamma 90.000000
_cell_volume 3357.040454
_symmetry_space_group_name_H-M "C M M 2"
_symmetry_group_IT_number 35
_symmetry_cell_setting 'orthorhombic'
loop_
_space_group_symop_operation_xyz
x,y,z
-x,-y,z
-x,y,z
x,-y,z
1/2+x,1/2+y,z
1/2-x,1/2-y,z
1/2-x,1/2+y,z
1/2+x,1/2-y,z
loop_
_atom_site_type_symbol
_atom_site_label
_atom_site_fract_x
_atom_site_fract_y
_atom_site_fract_z
Si Si1 0.793398 0.833655 0.351200
Si Si2 0.701684 0.169570 0.713814
Si Si3 0.549731 0.834805 0.996724
Si Si4 0.854807 0.334900 0.502948
Si Si5 0.550300 0.162204 0.417636
Si Si6 0.170145 0.841028 0.127539
Si Si7 0.068946 0.836726 0.204942
Si Si8 0.852055 0.331449 0.924974
O O1 0.750000 0.750000 0.400713
O O2 0.838017 0.763877 0.404759
O O3 0.792513 0.812366 0.221001
O O4 0.790804 0.000000 0.383458
O O5 0.750000 0.250000 0.705021
O O6 0.669070 0.212843 0.614164
O O7 0.673702 0.225221 0.818590
O O8 0.710948 0.000000 0.718365
O O9 0.500000 0.815941 0.935815
O O10 0.593824 0.783874 0.924937
O O11 0.557597 0.000000 0.028322
O O12 0.545501 0.745319 0.106073
O O13 0.842864 0.500000 0.477593
O O14 0.910029 0.310161 0.507710
O O15 0.500000 0.184126 0.472308
O O16 0.554041 0.267950 0.317120
O O17 0.555415 0.000000 0.373350
O O18 0.123168 0.826566 0.192823
O O19 0.175614 0.000000 0.077762
O O20 0.174421 0.730268 0.029441
O O21 0.051659 0.000000 0.203675
O O22 0.847505 0.500000 0.931377
#
# Coordination Sequence:
#
# PCOD8172320 Si02
#       8
#     8   8   8   8   8   8   8   8
#     4  11  22  36  54  80 111 142 178 221 272 331
#     4  10  22  40  60  82 104 134 180 229 275 323
#     4   9  17  30  49  75 107 143 180 215 258 316
#     4  10  21  38  58  79 108 143 181 226 272 323
#     4  10  20  33  51  77 109 145 182 219 265 321
#     4   9  19  34  51  75 110 144 176 217 265 318
#     4  10  18  30  48  74 108 146 183 220 260 308
#     4   9  19  35  55  78 106 138 176 221 268 318
#
# _framework density 19.064409999999999
#
# number of rings (size 3 to 8) (size 9 to 14) (size 15 to 20)
#    0.000    2.250    1.250    1.500    0.000    6.000 
#    0.000    3.125    0.000    3.750    0.000    0.000 
#    0.000    5.000    0.000    0.000    0.000    0.000 
#
# Total GULP energy -396619.954937 kJ/mol
# GULP energy per Si atom -12394.373592 kJ/mol
# Density = 1.902102 g / cm^3
# Si number density = 19.064410 Si / 1000 Ang^3
#
#
#
# Elastic Constant Matrix: (Units=GPa)
#
#
# Indices 1 2 3 4 5 6 
#
# 1 132.0157 45.7615 57.9010 0.0000 0.0000 0.0000
# 2 45.7615 66.4898 39.4827 0.0000 0.0000 0.0000
# 3 57.9010 39.4827 98.6161 0.0000 0.0000 0.0000
# 4 0.0000 0.0000 0.0000 19.2556 0.0000 0.0000
# 5 0.0000 0.0000 0.0000 0.0000 21.9222 0.0000
# 6 0.0000 0.0000 0.0000 0.0000 0.0000 20.5620
#
#
#
# Elastic Compliance Matrix: (Units=1/GPa)
#
#
# Indices 1 2 3 4 5 6 
#
# 1 0.011369 -0.005065 -0.004647 0.000000 0.000000 0.000000
# 2 -0.005065 0.021987 -0.005829 0.000000 0.000000 0.000000
# 3 -0.004647 -0.005829 0.015203 0.000000 0.000000 0.000000
# 4 0.000000 0.000000 0.000000 0.051933 0.000000 0.000000
# 5 0.000000 0.000000 0.000000 0.000000 0.045616 0.000000
# 6 0.000000 0.000000 0.000000 0.000000 0.000000 0.048633
#
#
# Mechanical properties :
#
#
# Convention : Reuss Voigt Hill
#
# Bulk Modulus (GPa) = 57.22096 64.82355 61.02225
# Shear Modulus (GPa) = 21.58437 22.61304 22.09871
#
# Velocity S-wave (km/s) = 3.36844 3.44777 3.40834
# Velocity P-wave (km/s) = 6.72371 7.06581 6.89688
#
# Compressibility (1/GPa) = 0.01747611
#
# Stress axis : x y z
#
# Youngs Moduli (GPa) = 87.96021 45.48079 65.77796
#
# Poissons Ratio (x) = 0.23036 0.30568
# Poissons Ratio (y) = 0.44552 0.38343
# Poissons Ratio (z) = 0.40877 0.26512
#
# Static dielectric constant tensor:
#      x y z
#    x 3.831660 0.000000 0.000000 
#    y 0.000000 3.463630 0.000000 
#    z 0.000000 0.000000 3.271050 
# 
# 
# High freq. dielectric constant tensor:
#      x y z
#    x 1.756980 0.000000 0.000000 
#    y 0.000000 1.738480 0.000000 
#    z 0.000000 0.000000 1.708310 
# 
# From -- ./inp_files/11943.got.cif
#   From: 2010.03.12/outbox.cif.g09.slc.cpg/sg35_6_cif.got.tgz:11943.got - 2010.04.14 02:02:04.
