data_PCOD8172171
_publ_section_title
;
Structure prediction by ZEFSAII (Michael W. Deem and Ramdas Pophale) SiO2 
 PCOD8172171
Probable space group: C M M 2
;
_chemical_formula_sum "Si O2"
_cell_formula_units_Z 56
_cell_length_a 30.674889
_cell_length_b 8.890820
_cell_length_c 12.767288
_cell_angle_alpha 90.000000
_cell_angle_beta 90.000000
_cell_angle_gamma 90.000000
_cell_volume 3481.957555
_symmetry_space_group_name_H-M "C M M 2"
_symmetry_group_IT_number 35
_symmetry_cell_setting 'orthorhombic'
loop_
_space_group_symop_operation_xyz
x,y,z
-x,-y,z
-x,y,z
x,-y,z
1/2+x,1/2+y,z
1/2-x,1/2-y,z
1/2-x,1/2+y,z
1/2+x,1/2-y,z
loop_
_atom_site_type_symbol
_atom_site_label
_atom_site_fract_x
_atom_site_fract_y
_atom_site_fract_z
Si Si1 0.613463 0.674077 0.611250
Si Si2 0.619374 0.677977 0.376027
Si Si3 0.206955 0.321438 0.376979
Si Si4 0.551796 0.830873 0.996580
Si Si5 0.049825 0.821830 0.785982
Si Si6 0.450502 0.323949 0.205516
Si Si7 0.709287 0.675353 0.603419
O O1 0.601834 0.500000 0.602712
O O2 0.609673 0.740566 0.493544
O O3 0.578652 0.747294 0.690924
O O4 0.662367 0.697079 0.658988
O O5 0.628285 0.500000 0.378692
O O6 0.662165 0.757962 0.326826
O O7 0.578160 0.722031 0.305397
O O8 0.208474 0.500000 0.367215
O O9 0.250000 0.250000 0.320950
O O10 0.206949 0.267491 0.496357
O O11 0.500000 0.823428 0.998379
O O12 0.568759 0.744051 0.894113
O O13 0.569494 0.000000 0.992000
O O14 0.569457 0.754474 0.102468
O O15 0.000000 0.771677 0.766370
O O16 0.054057 0.000000 0.793363
O O17 0.500000 0.271053 0.228410
O O18 0.448704 0.500000 0.184139
O O19 0.718295 0.500000 0.581141
O O20 0.750000 0.750000 0.668295
#
# Coordination Sequence:
#
# PCOD8172171 Si02
#       7
#     8   8   8   8   8   8   8
#     4   8  15  26  40  61  88 114 138 169 208 249
#     4   9  17  29  43  63  92 119 144 175 213 258
#     4  10  17  26  41  60  83 112 146 180 215 253
#     4   9  17  29  44  61  82 108 141 183 223 252
#     4   9  16  27  44  63  83 110 144 176 207 249
#     4   9  17  29  46  66  87 114 147 180 213 253
#     4   9  15  25  40  58  82 110 141 176 213 250
#
# _framework density 16.082908
#
# number of rings (size 3 to 8) (size 9 to 14) (size 15 to 20)
#    0.000    3.000    0.000    3.857    0.000    2.857 
#    0.000    6.429    0.000    0.000    0.000    5.000 
#    0.000    2.286    0.000    0.000    0.000    0.000 
#
# Total GULP energy -346947.254656 kJ/mol
# GULP energy per Si atom -12390.973381 kJ/mol
# Density = 1.604630 g / cm^3
# Si number density = 16.082908 Si / 1000 Ang^3
#
#
#
# Elastic Constant Matrix: (Units=GPa)
#
#
# Indices 1 2 3 4 5 6 
#
# 1 107.2065 40.1969 60.6408 0.0000 0.0000 0.0000
# 2 40.1969 62.7347 30.6410 0.0000 0.0000 0.0000
# 3 60.6408 30.6410 91.4136 0.0000 0.0000 0.0000
# 4 0.0000 0.0000 0.0000 11.0594 0.0000 0.0000
# 5 0.0000 0.0000 0.0000 0.0000 3.4583 0.0000
# 6 0.0000 0.0000 0.0000 0.0000 0.0000 21.6689
#
#
#
# Elastic Compliance Matrix: (Units=1/GPa)
#
#
# Indices 1 2 3 4 5 6 
#
# 1 0.016820 -0.006370 -0.009022 0.000000 0.000000 0.000000
# 2 -0.006370 0.021473 -0.002972 0.000000 0.000000 0.000000
# 3 -0.009022 -0.002972 0.017921 0.000000 0.000000 0.000000
# 4 0.000000 0.000000 0.000000 0.090421 0.000000 0.000000
# 5 0.000000 0.000000 0.000000 0.000000 0.289155 0.000000
# 6 0.000000 0.000000 0.000000 0.000000 0.000000 0.046149
#
#
# Mechanical properties :
#
#
# Convention : Reuss Voigt Hill
#
# Bulk Modulus (GPa) = 51.32257 58.25692 54.78975
# Shear Modulus (GPa) = 9.52085 15.89573 12.70829
#
# Velocity S-wave (km/s) = 2.43571 3.14723 2.81405
# Velocity P-wave (km/s) = 6.31592 7.03621 6.68577
#
# Compressibility (1/GPa) = 0.01948460
#
# Stress axis : x y z
#
# Youngs Moduli (GPa) = 59.45344 46.56915 55.80175
#
# Poissons Ratio (x) = 0.29667 0.50347
# Poissons Ratio (y) = 0.37875 0.16583
# Poissons Ratio (z) = 0.53642 0.13839
#
# Static dielectric constant tensor:
#      x y z
#    x 3.610500 0.000000 0.000000 
#    y 0.000000 3.003440 0.000000 
#    z 0.000000 0.000000 2.920350 
# 
# 
# High freq. dielectric constant tensor:
#      x y z
#    x 1.615470 0.000000 0.000000 
#    y 0.000000 1.610090 0.000000 
#    z 0.000000 0.000000 1.578490 
# 
# From -- ./inp_files/16071.got.cif
#   From: 2010.03.12/outbox.cif.g09.slc.cpg/sg35_9_cif.got.tgz:16071.got - 2010.04.14 02:02:04.
