data_PCOD8172510
_publ_section_title
;
Structure prediction by ZEFSAII (Michael W. Deem and Ramdas Pophale) SiO2 
 PCOD8172510
Probable space group: C M M 2
;
_chemical_formula_sum "Si O2"
_cell_formula_units_Z 64
_cell_length_a 9.116102
_cell_length_b 28.535057
_cell_length_c 15.596949
_cell_angle_alpha 90.000000
_cell_angle_beta 90.000000
_cell_angle_gamma 90.000000
_cell_volume 4057.210795
_symmetry_space_group_name_H-M "C M M 2"
_symmetry_group_IT_number 35
_symmetry_cell_setting 'orthorhombic'
loop_
_space_group_symop_operation_xyz
x,y,z
-x,-y,z
-x,y,z
x,-y,z
1/2+x,1/2+y,z
1/2-x,1/2-y,z
1/2-x,1/2+y,z
1/2+x,1/2-y,z
loop_
_atom_site_type_symbol
_atom_site_label
_atom_site_fract_x
_atom_site_fract_y
_atom_site_fract_z
Si Si1 0.671917 0.297489 0.513400
Si Si2 0.175279 0.947470 0.944615
Si Si3 0.174129 0.610469 0.462956
Si Si4 0.173996 0.893812 0.781285
Si Si5 0.169121 0.944787 0.610512
Si Si6 0.163101 0.944188 0.131527
Si Si7 0.327728 0.053049 0.296976
Si Si8 0.829820 0.796470 0.713422
O O1 0.500000 0.294740 0.492311
O O2 0.750000 0.250000 0.482704
O O3 0.745966 0.339636 0.461666
O O4 0.701208 0.306109 0.613686
O O5 0.239488 0.913771 0.870288
O O6 0.000000 0.948746 0.941968
O O7 0.235783 0.000000 0.928661
O O8 0.225262 0.928010 0.038241
O O9 0.226776 0.578860 0.541328
O O10 0.222863 0.584757 0.375947
O O11 0.000000 0.617360 0.469262
O O12 0.221555 0.927723 0.703850
O O13 0.232982 0.841125 0.765360
O O14 0.000000 0.892418 0.786059
O O15 0.000000 0.929901 0.593463
O O16 0.189428 0.000000 0.605275
O O17 0.262573 0.925459 0.209162
O O18 0.000000 0.924109 0.146010
O O19 0.159884 0.000000 0.130204
O O20 0.500000 0.053272 0.286561
O O21 0.270335 0.000000 0.312741
O O22 0.750000 0.750000 0.746738
O O23 0.000000 0.788821 0.730676
#
# Coordination Sequence:
#
# PCOD8172510 Si02
#       8
#     8   8   8   8   8   8   8   8
#     4  10  19  33  50  69  91 116 152 192 232 274
#     4   8  13  22  40  66  92 115 142 180 225 269
#     4  11  21  32  46  65  91 123 156 190 229 271
#     4   9  15  26  42  64  90 118 149 183 221 267
#     4  10  19  30  44  63  90 124 159 190 221 263
#     4   8  14  25  42  65  88 110 143 188 230 265
#     4   9  18  31  45  62  88 123 157 186 223 273
#     4   9  17  29  45  63  86 113 147 186 222 261
#
# _framework density 15.774384
#
# number of rings (size 3 to 8) (size 9 to 14) (size 15 to 20)
#    0.000    2.750    1.250    2.250    0.000    3.750 
#    0.000    1.250    0.000    1.500    0.000    2.625 
#    0.000    4.000    0.000    0.000    0.000    0.000 
#
# Total GULP energy -396691.900591 kJ/mol
# GULP energy per Si atom -12396.621893 kJ/mol
# Density = 1.573848 g / cm^3
# Si number density = 15.774384 Si / 1000 Ang^3
#
#
#
# Elastic Constant Matrix: (Units=GPa)
#
#
# Indices 1 2 3 4 5 6 
#
# 1 41.6116 36.1508 37.1386 0.0000 0.0000 0.0000
# 2 36.1508 105.3748 61.0074 0.0000 0.0000 0.0000
# 3 37.1386 61.0074 124.8666 0.0000 0.0000 0.0000
# 4 0.0000 0.0000 0.0000 10.8368 0.0000 0.0000
# 5 0.0000 0.0000 0.0000 0.0000 12.6349 0.0000
# 6 0.0000 0.0000 0.0000 0.0000 0.0000 23.1474
#
#
#
# Elastic Compliance Matrix: (Units=1/GPa)
#
#
# Indices 1 2 3 4 5 6 
#
# 1 0.038058 -0.009068 -0.006889 0.000000 0.000000 0.000000
# 2 -0.009068 0.015394 -0.004824 0.000000 0.000000 0.000000
# 3 -0.006889 -0.004824 0.012414 0.000000 0.000000 0.000000
# 4 0.000000 0.000000 0.000000 0.092278 0.000000 0.000000
# 5 0.000000 0.000000 0.000000 0.000000 0.079146 0.000000
# 6 0.000000 0.000000 0.000000 0.000000 0.000000 0.043201
#
#
# Mechanical properties :
#
#
# Convention : Reuss Voigt Hill
#
# Bulk Modulus (GPa) = 41.14515 60.04963 50.59739
# Shear Modulus (GPa) = 15.14436 18.49423 16.81930
#
# Velocity S-wave (km/s) = 3.10185 3.42778 3.26888
# Velocity P-wave (km/s) = 6.24249 7.33599 6.81122
#
# Compressibility (1/GPa) = 0.02430420
#
# Stress axis : x y z
#
# Youngs Moduli (GPa) = 26.27541 64.96098 80.55132
#
# Poissons Ratio (x) = 0.58908 0.55492
# Poissons Ratio (y) = 0.23827 0.38858
# Poissons Ratio (z) = 0.18101 0.31337
#
# Static dielectric constant tensor:
#      x y z
#    x 2.828000 0.000000 0.000000 
#    y 0.000000 3.047650 0.000000 
#    z 0.000000 0.000000 3.186280 
# 
# 
# High freq. dielectric constant tensor:
#      x y z
#    x 1.584770 0.000000 0.000000 
#    y 0.000000 1.590830 0.000000 
#    z 0.000000 0.000000 1.597240 
# 
# From -- ./inp_files/16214.got.cif
#   From: 2010.03.12/outbox.cif.g09.slc.cpg/sg35_9_cif.got.tgz:16214.got - 2010.04.14 02:02:04.
