data_PCOD8172189
_publ_section_title
;
Structure prediction by ZEFSAII (Michael W. Deem and Ramdas Pophale) SiO2 
 PCOD8172189
Probable space group: C M M 2
;
_chemical_formula_sum "Si O2"
_cell_formula_units_Z 64
_cell_length_a 8.808243
_cell_length_b 30.530977
_cell_length_c 15.332949
_cell_angle_alpha 90.000000
_cell_angle_beta 90.000000
_cell_angle_gamma 90.000000
_cell_volume 4123.402032
_symmetry_space_group_name_H-M "C M M 2"
_symmetry_group_IT_number 35
_symmetry_cell_setting 'orthorhombic'
loop_
_space_group_symop_operation_xyz
x,y,z
-x,-y,z
-x,y,z
x,-y,z
1/2+x,1/2+y,z
1/2-x,1/2-y,z
1/2-x,1/2+y,z
1/2+x,1/2-y,z
loop_
_atom_site_type_symbol
_atom_site_label
_atom_site_fract_x
_atom_site_fract_y
_atom_site_fract_z
Si Si1 0.319983 0.882717 0.775480
Si Si2 0.175517 0.387036 0.971885
Si Si3 0.829759 0.447954 0.469150
Si Si4 0.679790 0.949968 0.118822
Si Si5 0.670735 0.447855 0.296460
Si Si6 0.820459 0.206314 0.774849
Si Si7 0.675790 0.448624 0.646200
Si Si8 0.323417 0.791034 0.963642
O O1 0.500000 0.876454 0.776120
O O2 0.256897 0.890740 0.874125
O O3 0.246086 0.838703 0.734120
O O4 0.273564 0.924473 0.719273
O O5 0.000000 0.399029 0.965007
O O6 0.249924 0.421442 0.039211
O O7 0.198123 0.337813 0.011104
O O8 0.831740 0.500000 0.463778
O O9 0.757534 0.428527 0.380632
O O10 0.729886 0.432554 0.551167
O O11 0.000000 0.429482 0.479449
O O12 0.500000 0.945217 0.125961
O O13 0.748251 0.931481 0.208609
O O14 0.728976 0.000000 0.102154
O O15 0.500000 0.429767 0.297741
O O16 0.673462 0.500000 0.299943
O O17 0.750000 0.250000 0.728919
O O18 0.000000 0.206922 0.763547
O O19 0.771610 0.206719 0.875147
O O20 0.500000 0.436753 0.656933
O O21 0.706102 0.500000 0.658277
O O22 0.500000 0.782469 0.943106
O O23 0.250000 0.750000 0.017962
#
# Coordination Sequence:
#
# PCOD8172189 Si02
#       8
#     8   8   8   8   8   8   8   8
#     4  10  19  31  45  62  85 115 151 185 216 253
#     4   8  16  28  41  58  81 109 142 179 211 241
#     4   9  16  27  44  63  80 103 137 174 212 254
#     4   9  16  27  42  58  78 108 144 175 203 241
#     4   9  16  26  40  59  82 105 130 167 214 254
#     4  10  17  27  43  62  83 107 137 175 220 263
#     4  10  20  32  44  61  87 117 147 180 217 254
#     4   9  15  25  40  58  79 103 134 173 216 257
#
# _framework density 15.521163
#
# number of rings (size 3 to 8) (size 9 to 14) (size 15 to 20)
#    0.000    2.750    0.000    4.500    0.000    4.250 
#    0.000    5.000    0.000    1.500    0.000    0.000 
#    0.000    1.000    0.000    8.500    0.000    5.250 
#
# Total GULP energy -396574.671253 kJ/mol
# GULP energy per Si atom -12392.958477 kJ/mol
# Density = 1.548584 g / cm^3
# Si number density = 15.521163 Si / 1000 Ang^3
#
#
#
# Elastic Constant Matrix: (Units=GPa)
#
#
# Indices 1 2 3 4 5 6 
#
# 1 83.6219 32.1045 29.4503 0.0000 0.0000 0.0000
# 2 32.1045 68.7390 44.7342 0.0000 0.0000 0.0000
# 3 29.4503 44.7342 86.1224 0.0000 0.0000 0.0000
# 4 0.0000 0.0000 0.0000 1.6728 0.0000 0.0000
# 5 0.0000 0.0000 0.0000 0.0000 17.4668 0.0000
# 6 0.0000 0.0000 0.0000 0.0000 0.0000 21.1708
#
#
#
# Elastic Compliance Matrix: (Units=1/GPa)
#
#
# Indices 1 2 3 4 5 6 
#
# 1 0.014849 -0.005485 -0.002229 0.000000 0.000000 0.000000
# 2 -0.005485 0.024003 -0.010592 0.000000 0.000000 0.000000
# 3 -0.002229 -0.010592 0.017875 0.000000 0.000000 0.000000
# 4 0.000000 0.000000 0.000000 0.597789 0.000000 0.000000
# 5 0.000000 0.000000 0.000000 0.000000 0.057251 0.000000
# 6 0.000000 0.000000 0.000000 0.000000 0.000000 0.047235
#
#
# Mechanical properties :
#
#
# Convention : Reuss Voigt Hill
#
# Bulk Modulus (GPa) = 49.71214 50.11791 49.91502
# Shear Modulus (GPa) = 6.23193 16.87505 11.55349
#
# Velocity S-wave (km/s) = 2.00595 3.30089 2.73127
# Velocity P-wave (km/s) = 6.12072 6.84748 6.49428
#
# Compressibility (1/GPa) = 0.02011581
#
# Stress axis : x y z
#
# Youngs Moduli (GPa) = 67.34306 41.66228 55.94313
#
# Poissons Ratio (x) = 0.22851 0.12469
# Poissons Ratio (y) = 0.36937 0.59255
# Poissons Ratio (z) = 0.15010 0.44128
#
# Static dielectric constant tensor:
#      x y z
#    x 3.020220 0.000000 0.000000 
#    y 0.000000 3.229640 0.000000 
#    z 0.000000 0.000000 2.883110 
# 
# 
# High freq. dielectric constant tensor:
#      x y z
#    x 1.602050 0.000000 0.000000 
#    y 0.000000 1.571820 0.000000 
#    z 0.000000 0.000000 1.563590 
# 
# From -- ./inp_files/16162.got.cif
#   From: 2010.03.12/outbox.cif.g09.slc.cpg/sg35_9_cif.got.tgz:16162.got - 2010.04.14 02:02:04.
