data_PCOD8172471
_publ_section_title
;
Structure prediction by ZEFSAII (Michael W. Deem and Ramdas Pophale) SiO2 
 PCOD8172471
Probable space group: C M M 2
;
_chemical_formula_sum "Si O2"
_cell_formula_units_Z 64
_cell_length_a 8.970872
_cell_length_b 30.835188
_cell_length_c 11.871475
_cell_angle_alpha 90.000000
_cell_angle_beta 90.000000
_cell_angle_gamma 90.000000
_cell_volume 3283.869900
_symmetry_space_group_name_H-M "C M M 2"
_symmetry_group_IT_number 35
_symmetry_cell_setting 'orthorhombic'
loop_
_space_group_symop_operation_xyz
x,y,z
-x,-y,z
-x,y,z
x,-y,z
1/2+x,1/2+y,z
1/2-x,1/2-y,z
1/2-x,1/2+y,z
1/2+x,1/2-y,z
loop_
_atom_site_type_symbol
_atom_site_label
_atom_site_fract_x
_atom_site_fract_y
_atom_site_fract_z
Si Si1 0.672629 0.206866 0.603480
Si Si2 0.674605 0.123116 0.473186
Si Si3 0.171453 0.049345 0.607900
Si Si4 0.674024 0.922461 0.830779
Si Si5 0.323085 0.047733 0.072821
Si Si6 0.175013 0.370644 0.211902
Si Si7 0.676576 0.705450 0.074343
Si Si8 0.171009 0.321934 0.850759
O O1 0.500000 0.210583 0.574285
O O2 0.750000 0.250000 0.555782
O O3 0.738441 0.164631 0.540635
O O4 0.702020 0.203937 0.736490
O O5 0.500000 0.117805 0.496059
O O6 0.750860 0.079538 0.515982
O O7 0.711954 0.129583 0.342975
O O8 0.240806 0.054036 0.731071
O O9 0.000000 0.062605 0.615591
O O10 0.192484 0.000000 0.567000
O O11 0.500000 0.932064 0.815357
O O12 0.707925 0.871681 0.827031
O O13 0.736124 0.941239 0.948134
O O14 0.500000 0.048208 0.070379
O O15 0.266973 0.083675 0.161192
O O16 0.263943 0.000000 0.108798
O O17 0.265888 0.332533 0.153991
O O18 0.000000 0.363849 0.187319
O O19 0.500000 0.709104 0.083286
O O20 0.750000 0.750000 0.117004
O O21 0.720839 0.696979 0.945119
O O22 0.000000 0.316646 0.891355
#
# Coordination Sequence:
#
# PCOD8172471 Si02
#       8
#     8   8   8   8   8   8   8   8
#     4  10  21  37  57  85 115 146 188 237 293 350
#     4  10  22  41  63  85 112 155 204 247 290 346
#     4  11  24  39  57  86 124 160 196 243 297 352
#     4  10  18  34  61  87 116 153 193 239 292 353
#     4   9  17  31  56  89 118 146 184 235 293 347
#     4  10  21  40  63  86 117 152 197 251 295 342
#     4  12  25  40  61  88 121 157 198 241 293 356
#     4  10  19  36  61  87 118 151 190 241 295 352
#
# _framework density 19.4892
#
# number of rings (size 3 to 8) (size 9 to 14) (size 15 to 20)
#    0.000    1.750    2.500    2.250    0.000    5.500 
#    0.000    2.500    0.000    0.375    0.000    0.000 
#    0.000    0.000    0.000    0.000    0.000    0.000 
#
# Total GULP energy -396895.347615 kJ/mol
# GULP energy per Si atom -12402.979613 kJ/mol
# Density = 1.944484 g / cm^3
# Si number density = 19.489200 Si / 1000 Ang^3
#
#
#
# Elastic Constant Matrix: (Units=GPa)
#
#
# Indices 1 2 3 4 5 6 
#
# 1 75.4157 56.9952 47.1069 0.0000 0.0000 0.0000
# 2 56.9952 148.0200 54.9024 0.0000 0.0000 0.0000
# 3 47.1069 54.9024 95.9566 0.0000 0.0000 0.0000
# 4 0.0000 0.0000 0.0000 10.8112 0.0000 0.0000
# 5 0.0000 0.0000 0.0000 0.0000 18.9715 0.0000
# 6 0.0000 0.0000 0.0000 0.0000 0.0000 30.6692
#
#
#
# Elastic Compliance Matrix: (Units=1/GPa)
#
#
# Indices 1 2 3 4 5 6 
#
# 1 0.022447 -0.005783 -0.007711 0.000000 0.000000 0.000000
# 2 -0.005783 0.010066 -0.002920 0.000000 0.000000 0.000000
# 3 -0.007711 -0.002920 0.015877 0.000000 0.000000 0.000000
# 4 0.000000 0.000000 0.000000 0.092497 0.000000 0.000000
# 5 0.000000 0.000000 0.000000 0.000000 0.052711 0.000000
# 6 0.000000 0.000000 0.000000 0.000000 0.000000 0.032606
#
#
# Mechanical properties :
#
#
# Convention : Reuss Voigt Hill
#
# Bulk Modulus (GPa) = 64.25883 70.82236 67.54059
# Shear Modulus (GPa) = 18.92370 22.78289 20.85329
#
# Velocity S-wave (km/s) = 3.11944 3.42277 3.27462
# Velocity P-wave (km/s) = 6.78363 7.21378 7.00201
#
# Compressibility (1/GPa) = 0.01556206
#
# Stress axis : x y z
#
# Youngs Moduli (GPa) = 44.54987 99.34648 62.98233
#
# Poissons Ratio (x) = 0.57454 0.48563
# Poissons Ratio (y) = 0.25764 0.18392
# Poissons Ratio (z) = 0.34351 0.29011
#
# Static dielectric constant tensor:
#      x y z
#    x 3.316250 0.000000 0.000000 
#    y 0.000000 5.275410 0.000000 
#    z 0.000000 0.000000 3.529450 
# 
# 
# High freq. dielectric constant tensor:
#      x y z
#    x 1.733770 0.000000 0.000000 
#    y 0.000000 1.777980 0.000000 
#    z 0.000000 0.000000 1.757320 
# 
# From -- ./inp_files/11947.got.cif
#   From: 2010.03.12/outbox.cif.g09.slc.cpg/sg35_6_cif.got.tgz:11947.got - 2010.04.14 02:02:04.
