data_PCOD8172929
_publ_section_title
;
Structure prediction by ZEFSAII (Michael W. Deem and Ramdas Pophale) SiO2 
 PCOD8172929
Probable space group: C M M 2
;
_chemical_formula_sum "Si O2"
_cell_formula_units_Z 40
_cell_length_a 16.905188
_cell_length_b 21.831184
_cell_length_c 5.194284
_cell_angle_alpha 90.000000
_cell_angle_beta 90.000000
_cell_angle_gamma 90.000000
_cell_volume 1917.003854
_symmetry_space_group_name_H-M "C M M 2"
_symmetry_group_IT_number 35
_symmetry_cell_setting 'orthorhombic'
loop_
_space_group_symop_operation_xyz
x,y,z
-x,-y,z
-x,y,z
x,-y,z
1/2+x,1/2+y,z
1/2-x,1/2-y,z
1/2-x,1/2+y,z
1/2+x,1/2-y,z
loop_
_atom_site_type_symbol
_atom_site_label
_atom_site_fract_x
_atom_site_fract_y
_atom_site_fract_z
Si Si1 0.623835 0.932438 0.763380
Si Si2 0.282106 0.568257 0.000759
Si Si3 0.090388 0.240178 0.377446
Si Si4 0.090044 0.837374 0.866627
Si Si5 0.145605 0.629815 0.259019
O O1 0.599984 0.903693 0.491757
O O2 0.585349 0.000000 0.792952
O O3 0.719308 0.937806 0.768266
O O4 0.596332 0.888258 0.999841
O O5 0.305419 0.500000 0.100913
O O6 0.237140 0.607035 0.227369
O O7 0.358931 0.601176 0.886351
O O8 0.120982 0.206513 0.636410
O O9 0.145909 0.298054 0.316099
O O10 0.000000 0.262336 0.415521
O O11 0.097426 0.195287 0.138593
O O12 0.000000 0.856841 0.806168
#
# Coordination Sequence:
#
# PCOD8172929 Si02
#       5
#     8   8   8   8   8
#     4   9  18  33  53  81 114 143 179 231 281 332
#     4   9  21  37  58  84 115 148 187 237 285 334
#     4  10  22  40  58  80 115 153 191 238 286 339
#     4  10  22  39  57  82 116 152 192 235 282 341
#     4  10  19  35  57  83 109 150 187 233 287 336
#
# _framework density 20.865895999999999
#
# number of rings (size 3 to 8) (size 9 to 14) (size 15 to 20)
#    1.200    1.200    0.000    2.400    2.800    1.200 
#    0.000    0.000    0.000   10.200    0.000    0.000 
#    0.000    0.000    0.000    0.000    0.000    0.000 
#
# Total GULP energy -247793.059124 kJ/mol
# GULP energy per Si atom -12389.652956 kJ/mol
# Density = 2.081840 g / cm^3
# Si number density = 20.865896 Si / 1000 Ang^3
#
#
#
# Elastic Constant Matrix: (Units=GPa)
#
#
# Indices 1 2 3 4 5 6 
#
# 1 58.2881 56.6804 18.5891 0.0000 0.0000 0.0000
# 2 56.6804 136.4291 26.5564 0.0000 0.0000 0.0000
# 3 18.5891 26.5564 128.5813 0.0000 0.0000 0.0000
# 4 0.0000 0.0000 0.0000 34.8224 0.0000 0.0000
# 5 0.0000 0.0000 0.0000 0.0000 11.0477 0.0000
# 6 0.0000 0.0000 0.0000 0.0000 0.0000 -25.1764
#
#
#
# Elastic Compliance Matrix: (Units=1/GPa)
#
#
# Indices 1 2 3 4 5 6 
#
# 1 0.029174 -0.011773 -0.001786 0.000000 0.000000 0.000000
# 2 -0.011773 0.012388 -0.000856 0.000000 0.000000 0.000000
# 3 -0.001786 -0.000856 0.008212 0.000000 0.000000 0.000000
# 4 0.000000 0.000000 0.000000 0.028717 0.000000 0.000000
# 5 0.000000 0.000000 0.000000 0.000000 0.090517 0.000000
# 6 0.000000 0.000000 0.000000 0.000000 0.000000 -0.039720
#
#
# Mechanical properties :
#
#
# Convention : Reuss Voigt Hill
#
# Bulk Modulus (GPa) = 47.74896 58.55005 53.14950
# Shear Modulus (GPa) = 30.28468 18.90357 24.59413
#
# Velocity S-wave (km/s) = 3.81385 3.01317 3.43691
# Velocity P-wave (km/s) = 6.50595 6.34245 6.42472
#
# Compressibility (1/GPa) = 0.02094287
#
# Stress axis : x y z
#
# Youngs Moduli (GPa) = 34.27723 80.72575 121.76851
#
# Poissons Ratio (x) = 0.95037 0.21750
# Poissons Ratio (y) = 0.40354 0.10429
# Poissons Ratio (z) = 0.06123 0.06914
#
# Static dielectric constant tensor:
#      x y z
#    x 3.448720 0.000000 0.000000 
#    y 0.000000 3.623320 0.000000 
#    z 0.000000 0.000000 3.709460 
# 
# 
# High freq. dielectric constant tensor:
#      x y z
#    x 1.781250 0.000000 0.000000 
#    y 0.000000 1.813790 0.000000 
#    z 0.000000 0.000000 1.821410 
# 
# From -- ./inp_files/2355.got.cif
#   From: 2010.03.12/outbox.cif.g09.slc.cpg/sg35_2_cif.got.tgz:2355.got - 2010.04.14 02:02:04.
