data_PCOD8172763
_publ_section_title
;
Structure prediction by ZEFSAII (Michael W. Deem and Ramdas Pophale) SiO2 
 PCOD8172763
Probable space group: C M M 2
;
_chemical_formula_sum "Si O2"
_cell_formula_units_Z 64
_cell_length_a 15.621829
_cell_length_b 18.396668
_cell_length_c 11.731105
_cell_angle_alpha 90.000000
_cell_angle_beta 90.000000
_cell_angle_gamma 90.000000
_cell_volume 3371.397593
_symmetry_space_group_name_H-M "C M M 2"
_symmetry_group_IT_number 35
_symmetry_cell_setting 'orthorhombic'
loop_
_space_group_symop_operation_xyz
x,y,z
-x,-y,z
-x,y,z
x,-y,z
1/2+x,1/2+y,z
1/2-x,1/2-y,z
1/2-x,1/2+y,z
1/2+x,1/2-y,z
loop_
_atom_site_type_symbol
_atom_site_label
_atom_site_fract_x
_atom_site_fract_y
_atom_site_fract_z
Si Si1 0.375831 0.218681 0.678750
Si Si2 0.905989 0.333028 0.922531
Si Si3 0.408143 0.166454 0.440080
Si Si4 0.762690 0.917413 0.435424
Si Si5 0.201160 0.863495 0.676088
Si Si6 0.232789 0.917361 0.920414
Si Si7 0.597745 0.683863 0.043736
Si Si8 0.165414 0.791040 0.285294
O O1 0.419099 0.186531 0.790769
O O2 0.425999 0.191251 0.569043
O O3 0.280591 0.189756 0.668009
O O4 0.378468 0.307248 0.684438
O O5 0.830185 0.390646 0.941691
O O6 0.000000 0.362275 0.964458
O O7 0.878695 0.261572 0.991133
O O8 0.500000 0.136663 0.394403
O O9 0.337684 0.103377 0.432558
O O10 0.382694 0.237874 0.370796
O O11 0.802228 0.912413 0.562678
O O12 0.814170 0.865487 0.350951
O O13 0.772017 0.000000 0.392801
O O14 0.206582 0.913513 0.787750
O O15 0.229222 0.000000 0.961225
O O16 0.164601 0.874068 0.995475
O O17 0.500000 0.661329 0.013800
O O18 0.605944 0.688693 0.179607
O O19 0.250000 0.750000 0.240335
#
# Coordination Sequence:
#
# PCOD8172763 Si02
#       8
#     8   8   8   8   8   8   8   8
#     4   9  15  29  54  81 109 140 180 224 264 309
#     4  10  20  35  58  87 114 143 184 229 273 327
#     4  10  19  32  54  83 112 140 176 224 271 321
#     4  10  20  34  54  81 111 146 181 214 269 335
#     4   9  16  31  53  79 110 143 180 220 262 317
#     4  11  22  36  57  83 116 153 181 219 278 336
#     4  11  23  39  60  82 105 141 190 241 280 321
#     4  10  20  36  57  80 105 139 185 232 275 324
#
# _framework density 18.983225000000001
#
# number of rings (size 3 to 8) (size 9 to 14) (size 15 to 20)
#    0.000    2.000    2.500    2.250    0.000    1.250 
#    0.000    0.000    0.000    5.625    0.000    3.500 
#    0.000    0.000    0.000    0.000    0.000    0.000 
#
# Total GULP energy -396643.484610 kJ/mol
# GULP energy per Si atom -12395.108894 kJ/mol
# Density = 1.894002 g / cm^3
# Si number density = 18.983225 Si / 1000 Ang^3
#
#
#
# Elastic Constant Matrix: (Units=GPa)
#
#
# Indices 1 2 3 4 5 6 
#
# 1 63.2599 21.0283 19.9969 0.0000 0.0000 0.0000
# 2 21.0283 97.8301 35.1586 0.0000 0.0000 0.0000
# 3 19.9969 35.1586 95.5961 0.0000 0.0000 0.0000
# 4 0.0000 0.0000 0.0000 10.4802 0.0000 0.0000
# 5 0.0000 0.0000 0.0000 0.0000 20.3536 0.0000
# 6 0.0000 0.0000 0.0000 0.0000 0.0000 14.6282
#
#
#
# Elastic Compliance Matrix: (Units=1/GPa)
#
#
# Indices 1 2 3 4 5 6 
#
# 1 0.017583 -0.002832 -0.002636 0.000000 0.000000 0.000000
# 2 -0.002832 0.012235 -0.003907 0.000000 0.000000 0.000000
# 3 -0.002636 -0.003907 0.012449 0.000000 0.000000 0.000000
# 4 0.000000 0.000000 0.000000 0.095418 0.000000 0.000000
# 5 0.000000 0.000000 0.000000 0.000000 0.049131 0.000000
# 6 0.000000 0.000000 0.000000 0.000000 0.000000 0.068361
#
#
# Mechanical properties :
#
#
# Convention : Reuss Voigt Hill
#
# Bulk Modulus (GPa) = 42.52558 45.45040 43.98799
# Shear Modulus (GPa) = 17.74518 21.12589 19.43554
#
# Velocity S-wave (km/s) = 3.06074 3.33959 3.20320
# Velocity P-wave (km/s) = 5.91110 6.23417 6.07478
#
# Compressibility (1/GPa) = 0.02351526
#
# Stress axis : x y z
#
# Youngs Moduli (GPa) = 56.87470 81.73448 80.32624
#
# Poissons Ratio (x) = 0.23146 0.21177
# Poissons Ratio (y) = 0.16106 0.31386
# Poissons Ratio (z) = 0.14995 0.31937
#
# Static dielectric constant tensor:
#      x y z
#    x 3.475860 0.000000 0.000000 
#    y 0.000000 3.174350 0.000000 
#    z 0.000000 0.000000 3.528890 
# 
# 
# High freq. dielectric constant tensor:
#      x y z
#    x 1.737260 0.000000 0.000000 
#    y 0.000000 1.714160 0.000000 
#    z 0.000000 0.000000 1.739010 
# 
# From -- ./inp_files/13241.got.cif
#   From: 2010.03.12/outbox.cif.g09.slc.cpg/sg35_7_cif.got.tgz:13241.got - 2010.04.14 02:02:04.
