data_PCOD8172158
_publ_section_title
;
Structure prediction by ZEFSAII (Michael W. Deem and Ramdas Pophale) SiO2 
 PCOD8172158
Probable space group: C M M 2
;
_chemical_formula_sum "Si O2"
_cell_formula_units_Z 56
_cell_length_a 13.059023
_cell_length_b 28.456207
_cell_length_c 9.484415
_cell_angle_alpha 90.000000
_cell_angle_beta 90.000000
_cell_angle_gamma 90.000000
_cell_volume 3524.505940
_symmetry_space_group_name_H-M "C M M 2"
_symmetry_group_IT_number 35
_symmetry_cell_setting 'orthorhombic'
loop_
_space_group_symop_operation_xyz
x,y,z
-x,-y,z
-x,y,z
x,-y,z
1/2+x,1/2+y,z
1/2-x,1/2-y,z
1/2-x,1/2+y,z
1/2+x,1/2-y,z
loop_
_atom_site_type_symbol
_atom_site_label
_atom_site_fract_x
_atom_site_fract_y
_atom_site_fract_z
Si Si1 0.799348 0.830174 0.246010
Si Si2 0.613328 0.769692 0.301160
Si Si3 0.121913 0.052546 0.745231
Si Si4 0.823981 0.188838 0.725145
Si Si5 0.613961 0.619726 0.506745
Si Si6 0.115918 0.286553 0.627579
Si Si7 0.379103 0.628316 0.969914
O O1 0.685591 0.808772 0.229919
O O2 0.872078 0.784181 0.251300
O O3 0.810267 0.863282 0.383629
O O4 0.823804 0.866098 0.119848
O O5 0.500000 0.785529 0.260331
O O6 0.633340 0.770645 0.467631
O O7 0.158598 0.074984 0.595172
O O8 0.158571 0.082204 0.882551
O O9 0.000000 0.052378 0.743396
O O10 0.167055 0.000000 0.757656
O O11 0.899050 0.160536 0.622387
O O12 0.860602 0.242144 0.725038
O O13 0.705830 0.177759 0.675053
O O14 0.842635 0.173829 0.884850
O O15 0.500000 0.609624 0.444526
O O16 0.000000 0.306143 0.652314
O O17 0.500000 0.627083 0.994790
#
# Coordination Sequence:
#
# PCOD8172158 Si02
#       7
#     8   8   8   8   8   8   8
#     4  11  19  31  44  68  93 126 164 189 218 268
#     4  10  19  30  45  64  95 129 157 197 234 253
#     4   8  16  31  48  67  91 119 146 182 236 284
#     4  10  17  29  41  62  84 117 158 188 222 263
#     4  10  16  26  47  65  85 115 153 188 218 267
#     4  10  17  27  44  63  85 118 159 201 230 252
#     4  10  20  30  45  66  94 125 150 184 226 275
#
# _framework density 15.888752
#
# number of rings (size 3 to 8) (size 9 to 14) (size 15 to 20)
#    0.000    2.143    2.857    4.286    0.000    2.286 
#    0.000    2.857    0.000    3.429    0.000    0.000 
#    0.000   21.714    0.000    0.000    0.000    0.000 
#
# Total GULP energy -346920.708925 kJ/mol
# GULP energy per Si atom -12390.025319 kJ/mol
# Density = 1.585259 g / cm^3
# Si number density = 15.888752 Si / 1000 Ang^3
#
#
#
# Elastic Constant Matrix: (Units=GPa)
#
#
# Indices 1 2 3 4 5 6 
#
# 1 77.6377 22.1275 18.4734 0.0000 0.0000 0.0000
# 2 22.1275 86.5288 41.6744 0.0000 0.0000 0.0000
# 3 18.4734 41.6744 84.7594 0.0000 0.0000 0.0000
# 4 0.0000 0.0000 0.0000 15.1524 0.0000 0.0000
# 5 0.0000 0.0000 0.0000 0.0000 21.4725 0.0000
# 6 0.0000 0.0000 0.0000 0.0000 0.0000 12.9732
#
#
#
# Elastic Compliance Matrix: (Units=1/GPa)
#
#
# Indices 1 2 3 4 5 6 
#
# 1 0.014078 -0.002781 -0.001701 0.000000 0.000000 0.000000
# 2 -0.002781 0.015692 -0.007109 0.000000 0.000000 0.000000
# 3 -0.001701 -0.007109 0.015664 0.000000 0.000000 0.000000
# 4 0.000000 0.000000 0.000000 0.065996 0.000000 0.000000
# 5 0.000000 0.000000 0.000000 0.000000 0.046571 0.000000
# 6 0.000000 0.000000 0.000000 0.000000 0.000000 0.077082
#
#
# Mechanical properties :
#
#
# Convention : Reuss Voigt Hill
#
# Bulk Modulus (GPa) = 44.94024 45.94184 45.44104
# Shear Modulus (GPa) = 18.81944 21.02965 19.92454
#
# Velocity S-wave (km/s) = 3.44532 3.64202 3.54503
# Velocity P-wave (km/s) = 6.64625 6.83105 6.73928
#
# Compressibility (1/GPa) = 0.02225177
#
# Stress axis : x y z
#
# Youngs Moduli (GPa) = 71.03472 63.72680 63.83916
#
# Poissons Ratio (x) = 0.17721 0.10859
# Poissons Ratio (y) = 0.19753 0.45386
# Poissons Ratio (z) = 0.12083 0.45306
#
# Static dielectric constant tensor:
#      x y z
#    x 3.133970 0.000000 0.000000 
#    y 0.000000 3.027100 0.000000 
#    z 0.000000 0.000000 2.965700 
# 
# 
# High freq. dielectric constant tensor:
#      x y z
#    x 1.592400 0.000000 0.000000 
#    y 0.000000 1.574910 0.000000 
#    z 0.000000 0.000000 1.606100 
# 
# From -- ./inp_files/7964.got.cif
#   From: 2010.03.12/outbox.cif.g09.slc.cpg/sg35_4_cif.got.tgz:7964.got - 2010.04.14 02:02:04.
