data_PCOD8172350
_publ_section_title
;
Structure prediction by ZEFSAII (Michael W. Deem and Ramdas Pophale) SiO2 
 PCOD8172350
Probable space group: C M M 2
;
_chemical_formula_sum "Si O2"
_cell_formula_units_Z 64
_cell_length_a 29.504727
_cell_length_b 8.657738
_cell_length_c 12.359285
_cell_angle_alpha 90.000000
_cell_angle_beta 90.000000
_cell_angle_gamma 90.000000
_cell_volume 3157.107622
_symmetry_space_group_name_H-M "C M M 2"
_symmetry_group_IT_number 35
_symmetry_cell_setting 'orthorhombic'
loop_
_space_group_symop_operation_xyz
x,y,z
-x,-y,z
-x,y,z
x,-y,z
1/2+x,1/2+y,z
1/2-x,1/2-y,z
1/2-x,1/2+y,z
1/2+x,1/2-y,z
loop_
_atom_site_type_symbol
_atom_site_label
_atom_site_fract_x
_atom_site_fract_y
_atom_site_fract_z
Si Si1 0.800183 0.817805 0.308950
Si Si2 0.078668 0.322653 0.802719
Si Si3 0.451479 0.179157 0.567346
Si Si4 0.646436 0.817382 0.508640
Si Si5 0.856391 0.820082 0.101969
Si Si6 0.205696 0.680956 0.930997
Si Si7 0.332379 0.320920 0.731373
Si Si8 0.450547 0.323285 0.016751
O O1 0.750000 0.750000 0.297155
O O2 0.824631 0.764113 0.417173
O O3 0.832460 0.760849 0.211227
O O4 0.795450 0.000000 0.310884
O O5 0.095881 0.500000 0.807330
O O6 0.048261 0.296565 0.696558
O O7 0.121023 0.208315 0.795036
O O8 0.051123 0.283213 0.910498
O O9 0.500000 0.250461 0.525229
O O10 0.405801 0.248828 0.511855
O O11 0.450956 0.000000 0.539067
O O12 0.670271 0.778275 0.621940
O O13 0.647244 0.000000 0.490759
O O14 0.845745 0.000000 0.083766
O O15 0.838107 0.723100 0.001042
O O16 0.910672 0.786526 0.103767
O O17 0.209184 0.500000 0.917241
O O18 0.250000 0.750000 0.991820
O O19 0.205978 0.761978 0.813270
O O20 0.326045 0.500000 0.703455
O O21 0.500000 0.294564 0.071641
O O22 0.445808 0.500000 0.978323
#
# Coordination Sequence:
#
# PCOD8172350 Si02
#       8
#     8   8   8   8   8   8   8   8
#     4  11  24  43  66  89 113 150 200 253 308 364
#     4  10  18  30  51  82 118 161 205 247 291 344
#     4   8  15  29  51  81 118 157 195 236 284 339
#     4  10  21  38  61  89 120 154 198 248 300 355
#     4  10  22  41  62  86 120 157 198 249 300 355
#     4  12  24  38  59  88 120 156 196 241 299 365
#     4  11  21  36  57  84 122 161 196 241 296 357
#     4  10  20  34  55  84 120 163 205 244 293 353
#
# _framework density 20.271719000000001
#
# number of rings (size 3 to 8) (size 9 to 14) (size 15 to 20)
#    0.000    1.750    1.250    4.875    0.000    3.250 
#    0.000    3.125    0.000    8.250    0.000    0.000 
#    0.000    0.000    0.000    0.000    0.000    0.000 
#
# Total GULP energy -396644.870884 kJ/mol
# GULP energy per Si atom -12395.152215 kJ/mol
# Density = 2.022558 g / cm^3
# Si number density = 20.271719 Si / 1000 Ang^3
#
#
#
# Elastic Constant Matrix: (Units=GPa)
#
#
# Indices 1 2 3 4 5 6 
#
# 1 154.1333 34.2911 62.8338 0.0000 0.0000 0.0000
# 2 34.2911 63.1633 17.5126 0.0000 0.0000 0.0000
# 3 62.8338 17.5126 96.3386 0.0000 0.0000 0.0000
# 4 0.0000 0.0000 0.0000 19.8100 0.0000 0.0000
# 5 0.0000 0.0000 0.0000 0.0000 24.3927 0.0000
# 6 0.0000 0.0000 0.0000 0.0000 0.0000 19.9180
#
#
#
# Elastic Compliance Matrix: (Units=1/GPa)
#
#
# Indices 1 2 3 4 5 6 
#
# 1 0.009576 -0.003651 -0.005582 0.000000 0.000000 0.000000
# 2 -0.003651 0.018064 -0.000903 0.000000 0.000000 0.000000
# 3 -0.005582 -0.000903 0.014185 0.000000 0.000000 0.000000
# 4 0.000000 0.000000 0.000000 0.050480 0.000000 0.000000
# 5 0.000000 0.000000 0.000000 0.000000 0.040996 0.000000
# 6 0.000000 0.000000 0.000000 0.000000 0.000000 0.050206
#
#
# Mechanical properties :
#
#
# Convention : Reuss Voigt Hill
#
# Bulk Modulus (GPa) = 46.39486 60.32337 53.35911
# Shear Modulus (GPa) = 23.70107 26.09064 24.89586
#
# Velocity S-wave (km/s) = 3.42302 3.59143 3.50824
# Velocity P-wave (km/s) = 6.20958 6.85710 6.54136
#
# Compressibility (1/GPa) = 0.02155411
#
# Stress axis : x y z
#
# Youngs Moduli (GPa) = 104.43240 55.35775 70.49900
#
# Poissons Ratio (x) = 0.20211 0.39350
# Poissons Ratio (y) = 0.38128 0.06363
# Poissons Ratio (z) = 0.58291 0.04996
#
# Static dielectric constant tensor:
#      x y z
#    x 4.137630 0.000000 0.000000 
#    y 0.000000 3.519180 0.000000 
#    z 0.000000 0.000000 3.524970 
# 
# 
# High freq. dielectric constant tensor:
#      x y z
#    x 1.808270 0.000000 0.000000 
#    y 0.000000 1.781220 0.000000 
#    z 0.000000 0.000000 1.765250 
# 
# From -- ./inp_files/12023.got.cif
#   From: 2010.03.12/outbox.cif.g09.slc.cpg/sg35_7_cif.got.tgz:12023.got - 2010.04.14 02:02:04.
