data_PCOD8172040
_publ_section_title
;
Structure prediction by ZEFSAII (Michael W. Deem and Ramdas Pophale) SiO2 
 PCOD8172040
Probable space group: P N N 2
;
_chemical_formula_sum "Si O2"
_cell_formula_units_Z 20
_cell_length_a 12.862549
_cell_length_b 9.703737
_cell_length_c 6.960642
_cell_angle_alpha 90.000000
_cell_angle_beta 90.000000
_cell_angle_gamma 90.000000
_cell_volume 868.791088
_symmetry_space_group_name_H-M "P N N 2"
_symmetry_group_IT_number 34
_symmetry_cell_setting 'orthorhombic'
loop_
_space_group_symop_operation_xyz
x,y,z
-x,-y,z
1/2-x,1/2+y,1/2+z
1/2+x,1/2-y,1/2+z
loop_
_atom_site_type_symbol
_atom_site_label
_atom_site_fract_x
_atom_site_fract_y
_atom_site_fract_z
Si Si1 0.155305 0.251891 0.198320
Si Si2 0.686070 0.433891 0.027419
Si Si3 0.890119 0.450500 0.205053
Si Si4 0.459839 0.647248 0.347606
Si Si5 0.127418 0.758619 0.547581
O O1 0.122903 0.156194 0.374488
O O2 0.165759 0.408056 0.277996
O O3 0.266882 0.193320 0.130208
O O4 0.067953 0.241063 0.031374
O O5 0.810663 0.399581 0.037447
O O6 0.645232 0.387602 0.234557
O O7 0.657630 0.589915 0.970267
O O8 0.911252 0.339108 0.373029
O O9 0.000000 0.500000 0.117638
O O10 0.500000 0.500000 0.422399
O O11 0.540431 0.730791 0.213491
#
# Coordination Sequence:
#
# PCOD8172040 Si02
#       5
#     4   4   4   4   4
#     4  11  24  43  70 101 137 186 233 292 348 424
#     4  10  23  45  68  94 139 184 235 284 346 430
#     4  11  24  43  64 103 140 175 229 294 361 407
#     4  10  22  44  71 100 132 187 239 282 352 429
#     4  10  23  45  68 100 142 180 234 293 349 425
#
# _framework density 23.020492999999998
#
# number of rings (size 3 to 8) (size 9 to 14) (size 15 to 20)
#    0.000    1.600    2.000    1.200    2.800    5.600 
#    7.200    0.000    0.000    0.000    0.000    0.000 
#    0.000    0.000    0.000    0.000    0.000    0.000 
#
# Total GULP energy -247884.101702 kJ/mol
# GULP energy per Si atom -12394.205085 kJ/mol
# Density = 2.296810 g / cm^3
# Si number density = 23.020493 Si / 1000 Ang^3
#
#
#
# Elastic Constant Matrix: (Units=GPa)
#
#
# Indices 1 2 3 4 5 6 
#
# 1 115.3100 16.7288 29.5921 0.0000 0.0000 0.0000
# 2 16.7288 108.5442 65.7756 0.0000 0.0000 0.0000
# 3 29.5921 65.7756 101.1439 0.0000 0.0000 0.0000
# 4 0.0000 0.0000 0.0000 38.1792 0.0000 0.0000
# 5 0.0000 0.0000 0.0000 0.0000 31.6945 0.0000
# 6 0.0000 0.0000 0.0000 0.0000 0.0000 31.5560
#
#
#
# Elastic Compliance Matrix: (Units=1/GPa)
#
#
# Indices 1 2 3 4 5 6 
#
# 1 0.009385 0.000359 -0.002979 0.000000 0.000000 0.000000
# 2 0.000359 0.015218 -0.010002 0.000000 0.000000 0.000000
# 3 -0.002979 -0.010002 0.017263 0.000000 0.000000 0.000000
# 4 0.000000 0.000000 0.000000 0.026192 0.000000 0.000000
# 5 0.000000 0.000000 0.000000 0.000000 0.031551 0.000000
# 6 0.000000 0.000000 0.000000 0.000000 0.000000 0.031690
#
#
# Mechanical properties :
#
#
# Convention : Reuss Voigt Hill
#
# Bulk Modulus (GPa) = 60.16132 61.02122 60.59127
# Shear Modulus (GPa) = 30.84823 34.47939 32.66381
#
# Velocity S-wave (km/s) = 3.66462 3.87430 3.77092
# Velocity P-wave (km/s) = 6.64052 6.82484 6.73331
#
# Compressibility (1/GPa) = 0.01662198
#
# Stress axis : x y z
#
# Youngs Moduli (GPa) = 106.55593 65.70995 57.92782
#
# Poissons Ratio (x) = -0.02358 0.17258
# Poissons Ratio (y) = -0.03825 0.57938
# Poissons Ratio (z) = 0.31745 0.65722
#
# Static dielectric constant tensor:
#      x y z
#    x 4.352550 0.000000 0.000000 
#    y 0.000000 4.134270 0.000000 
#    z 0.000000 0.000000 3.690200 
# 
# 
# High freq. dielectric constant tensor:
#      x y z
#    x 1.931470 0.000000 0.000000 
#    y 0.000000 1.912340 0.000000 
#    z 0.000000 0.000000 1.879160 
# 
# From -- ./inp_files/851.got.cif
#   From: 2010.03.12/outbox.cif.g09.slc.cpg/sg34_1_cif.got.tgz:851.got - 2010.04.14 01:56:33.
