data_PCOD8172205
_publ_section_title
;
Structure prediction by ZEFSAII (Michael W. Deem and Ramdas Pophale) SiO2 
 PCOD8172205
Probable space group: C M M 2
;
_chemical_formula_sum "Si O2"
_cell_formula_units_Z 40
_cell_length_a 18.413032
_cell_length_b 8.626686
_cell_length_c 13.073743
_cell_angle_alpha 90.000000
_cell_angle_beta 90.000000
_cell_angle_gamma 90.000000
_cell_volume 2076.678382
_symmetry_space_group_name_H-M "C M M 2"
_symmetry_group_IT_number 35
_symmetry_cell_setting 'orthorhombic'
loop_
_space_group_symop_operation_xyz
x,y,z
-x,-y,z
-x,y,z
x,-y,z
1/2+x,1/2+y,z
1/2-x,1/2-y,z
1/2-x,1/2+y,z
1/2+x,1/2-y,z
loop_
_atom_site_type_symbol
_atom_site_label
_atom_site_fract_x
_atom_site_fract_y
_atom_site_fract_z
Si Si1 0.415321 0.321324 0.332340
Si Si2 0.669158 0.316594 0.719697
Si Si3 0.169127 0.316642 0.923676
Si Si4 0.829161 0.681258 0.513168
Si Si5 0.829211 0.818133 0.130151
O O1 0.500000 0.286551 0.325361
O O2 0.399094 0.500000 0.359575
O O3 0.381421 0.212715 0.418449
O O4 0.380930 0.276343 0.223982
O O5 0.668936 0.500000 0.724227
O O6 0.750000 0.250000 0.717466
O O7 0.629113 0.249954 0.821630
O O8 0.633172 0.257746 0.614031
O O9 0.169249 0.500000 0.918887
O O10 0.250000 0.250000 0.925344
O O11 0.133072 0.257496 0.029194
O O12 0.820654 0.500000 0.531964
O O13 0.750000 0.750000 0.489308
O O14 0.750000 0.750000 0.153261
O O15 0.821501 0.000000 0.111917
#
# Coordination Sequence:
#
# PCOD8172205 Si02
#       5
#     8   8   8   8   8
#     4  10  22  39  56  75 103 139 177 218 265 315
#     4  10  17  28  47  73 105 136 168 208 256 308
#     4  10  17  27  45  72 105 135 166 207 255 306
#     4  11  21  34  54  80 108 138 175 217 261 310
#     4  10  19  32  52  77 104 135 172 213 256 306
#
# _framework density 19.261528999999999
#
# number of rings (size 3 to 8) (size 9 to 14) (size 15 to 20)
#    0.000    1.800    0.000   10.200    0.000    3.600 
#    0.000    0.000    0.000    1.200    0.000    2.800 
#    0.000    0.000    0.000    0.000    0.000    0.000 
#
# Total GULP energy -247946.382600 kJ/mol
# GULP energy per Si atom -12397.319130 kJ/mol
# Density = 1.921769 g / cm^3
# Si number density = 19.261529 Si / 1000 Ang^3
#
#
#
# Elastic Constant Matrix: (Units=GPa)
#
#
# Indices 1 2 3 4 5 6 
#
# 1 53.6707 27.7774 47.2295 0.0000 0.0000 0.0000
# 2 27.7774 171.2164 82.4980 0.0000 0.0000 0.0000
# 3 47.2295 82.4980 185.6763 0.0000 0.0000 0.0000
# 4 0.0000 0.0000 0.0000 43.0761 0.0000 0.0000
# 5 0.0000 0.0000 0.0000 0.0000 -2.1965 0.0000
# 6 0.0000 0.0000 0.0000 0.0000 0.0000 14.7259
#
#
#
# Elastic Compliance Matrix: (Units=1/GPa)
#
#
# Indices 1 2 3 4 5 6 
#
# 1 0.024205 -0.001222 -0.005614 0.000000 0.000000 0.000000
# 2 -0.001222 0.007493 -0.003019 0.000000 0.000000 0.000000
# 3 -0.005614 -0.003019 0.008155 0.000000 0.000000 0.000000
# 4 0.000000 0.000000 0.000000 0.023215 0.000000 0.000000
# 5 0.000000 0.000000 0.000000 0.000000 -0.455262 0.000000
# 6 0.000000 0.000000 0.000000 0.000000 0.000000 0.067908
#
#
# Mechanical properties :
#
#
# Convention : Reuss Voigt Hill
#
# Bulk Modulus (GPa) = 49.64219 80.61924 65.13071
# Shear Modulus (GPa) = -16.78621 27.99166 5.60273
#
# Velocity S-wave (km/s) = -2.95530 3.81628 1.70736
# Velocity P-wave (km/s) = 3.76611 7.83355 6.14606
#
# Compressibility (1/GPa) = 0.02014416
#
# Stress axis : x y z
#
# Youngs Moduli (GPa) = 41.31423 133.45396 122.62620
#
# Poissons Ratio (x) = 0.16306 0.68842
# Poissons Ratio (y) = 0.05048 0.37015
# Poissons Ratio (z) = 0.23194 0.40283
#
# Static dielectric constant tensor:
#      x y z
#    x 2.936440 0.000000 0.000000 
#    y 0.000000 3.542550 0.000000 
#    z 0.000000 0.000000 4.752220 
# 
# 
# High freq. dielectric constant tensor:
#      x y z
#    x 1.679350 0.000000 0.000000 
#    y 0.000000 1.765900 0.000000 
#    z 0.000000 0.000000 1.784730 
# 
# From -- ./inp_files/14711.got.cif
#   From: 2010.03.12/outbox.cif.g09.slc.cpg/sg35_8_cif.got.tgz:14711.got - 2010.04.14 02:02:04.
