data_PCOD8172882
_publ_section_title
;
Structure prediction by ZEFSAII (Michael W. Deem and Ramdas Pophale) SiO2 
 PCOD8172882
Probable space group: C M M 2
;
_chemical_formula_sum "Si O2"
_cell_formula_units_Z 48
_cell_length_a 17.589613
_cell_length_b 9.895703
_cell_length_c 14.077597
_cell_angle_alpha 90.000000
_cell_angle_beta 90.000000
_cell_angle_gamma 90.000000
_cell_volume 2450.368863
_symmetry_space_group_name_H-M "C M M 2"
_symmetry_group_IT_number 35
_symmetry_cell_setting 'orthorhombic'
loop_
_space_group_symop_operation_xyz
x,y,z
-x,-y,z
-x,y,z
x,-y,z
1/2+x,1/2+y,z
1/2-x,1/2-y,z
1/2-x,1/2+y,z
1/2+x,1/2-y,z
loop_
_atom_site_type_symbol
_atom_site_label
_atom_site_fract_x
_atom_site_fract_y
_atom_site_fract_z
Si Si1 0.840353 0.000000 0.255680
Si Si2 0.160297 0.237430 0.909859
Si Si3 0.160026 0.263471 0.355296
Si Si4 0.672735 0.835992 0.563261
Si Si5 0.841170 0.500000 0.227166
Si Si6 0.335960 0.500000 0.042978
Si Si7 0.910263 0.845626 0.711496
Si Si8 0.656281 0.000000 0.015336
O O1 0.872823 0.878003 0.318997
O O2 0.749954 0.000000 0.239126
O O3 0.872344 0.000000 0.148310
O O4 0.250000 0.250000 0.892525
O O5 0.122487 0.196103 0.812364
O O6 0.135120 0.131473 0.989244
O O7 0.128173 0.376055 0.951842
O O8 0.250000 0.250000 0.353350
O O9 0.134917 0.308154 0.460649
O O10 0.127152 0.369291 0.280239
O O11 0.750000 0.750000 0.573475
O O12 0.615896 0.770073 0.638611
O O13 0.684312 0.000000 0.578548
O O14 0.877305 0.500000 0.121805
O O15 0.245255 0.500000 0.038050
O O16 0.000000 0.841167 0.716456
O O17 0.883441 0.000000 0.685403
#
# Coordination Sequence:
#
# PCOD8172882 Si02
#       8
#     4   8   8   8   4   4   8   4
#     4   9  16  24  45  75 112 154 183 221 270 329
#     4  10  19  34  55  83 115 147 187 234 285 338
#     4   9  17  27  46  76 115 151 180 221 275 335
#     4  11  23  38  61  89 118 151 189 239 289 344
#     4   9  14  28  41  73 118 146 181 219 272 331
#     4   9  16  30  48  77 116 152 187 223 276 335
#     4  11  25  43  61  81 110 151 196 245 297 349
#     4   9  18  26  50  81 114 152 179 223 276 335
#
# _framework density 19.588887
#
# number of rings (size 3 to 8) (size 9 to 14) (size 15 to 20)
#    0.000    2.167    1.667    2.000    5.833    4.333 
#    0.000    0.000    0.000    0.000    0.000    7.000 
#    0.000    0.000    0.000    0.000    0.000    0.000 
#
# Total GULP energy -297355.083554 kJ/mol
# GULP energy per Si atom -12389.795148 kJ/mol
# Density = 1.954430 g / cm^3
# Si number density = 19.588887 Si / 1000 Ang^3
#
#
#
# Elastic Constant Matrix: (Units=GPa)
#
#
# Indices 1 2 3 4 5 6 
#
# 1 30.0639 29.3748 31.1419 0.0000 0.0000 0.0000
# 2 29.3748 206.9175 88.0651 0.0000 0.0000 0.0000
# 3 31.1419 88.0651 146.5356 0.0000 0.0000 0.0000
# 4 0.0000 0.0000 0.0000 32.3220 0.0000 0.0000
# 5 0.0000 0.0000 0.0000 0.0000 -7.9910 0.0000
# 6 0.0000 0.0000 0.0000 0.0000 0.0000 15.0446
#
#
#
# Elastic Compliance Matrix: (Units=1/GPa)
#
#
# Indices 1 2 3 4 5 6 
#
# 1 0.044038 -0.003048 -0.007527 0.000000 0.000000 0.000000
# 2 -0.003048 0.006705 -0.003382 0.000000 0.000000 0.000000
# 3 -0.007527 -0.003382 0.010456 0.000000 0.000000 0.000000
# 4 0.000000 0.000000 0.000000 0.030939 0.000000 0.000000
# 5 0.000000 0.000000 0.000000 0.000000 -0.125141 0.000000
# 6 0.000000 0.000000 0.000000 0.000000 0.000000 0.066469
#
#
# Mechanical properties :
#
#
# Convention : Reuss Voigt Hill
#
# Bulk Modulus (GPa) = 30.04359 75.63118 52.83738
# Shear Modulus (GPa) = 68.98979 23.53748 46.26364
#
# Velocity S-wave (km/s) = 5.94098 3.47013 4.86503
# Velocity P-wave (km/s) = 7.90131 7.39924 7.65440
#
# Compressibility (1/GPa) = 0.03328497
#
# Stress axis : x y z
#
# Youngs Moduli (GPa) = 22.70781 149.14614 95.63663
#
# Poissons Ratio (x) = 0.45463 0.71986
# Poissons Ratio (y) = 0.06922 0.32341
# Poissons Ratio (z) = 0.17092 0.50436
#
# Static dielectric constant tensor:
#      x y z
#    x 2.901270 0.000000 0.000000 
#    y 0.000000 4.031250 0.000000 
#    z 0.000000 0.000000 3.832670 
# 
# 
# High freq. dielectric constant tensor:
#      x y z
#    x 1.691450 0.000000 0.000000 
#    y 0.000000 1.787100 0.000000 
#    z 0.000000 0.000000 1.782220 
# 
# From -- ./inp_files/15354.got.cif
#   From: 2010.03.12/outbox.cif.g09.slc.cpg/sg35_8_cif.got.tgz:15354.got - 2010.04.14 02:02:04.
