data_PCOD8172577
_publ_section_title
;
Structure prediction by ZEFSAII (Michael W. Deem and Ramdas Pophale) SiO2 
 PCOD8172577
Probable space group: C M M 2
;
_chemical_formula_sum "Si O2"
_cell_formula_units_Z 64
_cell_length_a 9.818063
_cell_length_b 17.986620
_cell_length_c 20.720312
_cell_angle_alpha 90.000000
_cell_angle_beta 90.000000
_cell_angle_gamma 90.000000
_cell_volume 3659.077977
_symmetry_space_group_name_H-M "C M M 2"
_symmetry_group_IT_number 35
_symmetry_cell_setting 'orthorhombic'
loop_
_space_group_symop_operation_xyz
x,y,z
-x,-y,z
-x,y,z
x,-y,z
1/2+x,1/2+y,z
1/2-x,1/2-y,z
1/2-x,1/2+y,z
1/2+x,1/2-y,z
loop_
_atom_site_type_symbol
_atom_site_label
_atom_site_fract_x
_atom_site_fract_y
_atom_site_fract_z
Si Si1 0.652822 0.411623 0.579310
Si Si2 0.651627 0.088620 0.326761
Si Si3 0.652731 0.588511 0.436361
Si Si4 0.844442 0.413948 0.691324
Si Si5 0.659743 0.177365 0.819333
Si Si6 0.661671 0.082479 0.184794
Si Si7 0.160217 0.417419 0.940236
Si Si8 0.338937 0.822552 0.064225
O O1 0.500000 0.383780 0.594556
O O2 0.657961 0.500000 0.580345
O O3 0.698010 0.384182 0.507843
O O4 0.753790 0.379428 0.633559
O O5 0.500000 0.120493 0.338201
O O6 0.748242 0.123062 0.382089
O O7 0.707430 0.111552 0.255698
O O8 0.648139 0.000000 0.330394
O O9 0.500000 0.616166 0.421664
O O10 0.658164 0.500000 0.433610
O O11 0.809850 0.500000 0.703763
O O12 0.811263 0.371480 0.756634
O O13 0.000000 0.403456 0.670051
O O14 0.500000 0.197954 0.825894
O O15 0.750000 0.250000 0.813902
O O16 0.714672 0.131497 0.880813
O O17 0.500000 0.076229 0.183257
O O18 0.711440 0.140039 0.130781
O O19 0.722452 0.000000 0.171019
O O20 0.226017 0.500000 0.938454
O O21 0.000000 0.425200 0.932878
O O22 0.198617 0.379218 0.007430
O O23 0.500000 0.803343 0.064756
O O24 0.250000 0.750000 0.052772
#
# Coordination Sequence:
#
# PCOD8172577 Si02
#       8
#     8   8   8   8   8   8   8   8
#     4   8  14  24  38  58  86 118 149 183 225 273
#     4   8  13  21  35  56  81 109 144 187 228 263
#     4   8  13  21  33  53  84 117 144 174 220 275
#     4   9  17  29  45  65  89 118 153 192 229 265
#     4  10  20  33  49  70  96 123 152 188 228 270
#     4   8  14  26  44  65  88 117 156 195 226 263
#     4   9  17  31  53  76  94 119 157 193 223 262
#     4  10  19  31  49  71  95 123 154 189 228 270
#
# _framework density 17.490743999999999
#
# number of rings (size 3 to 8) (size 9 to 14) (size 15 to 20)
#    0.000    3.250    0.000    2.625    0.000    4.000 
#    0.000    3.125    0.000    4.125    0.000    0.875 
#    0.000    2.000    0.000    0.000    0.000    0.000 
#
# Total GULP energy -396611.625483 kJ/mol
# GULP energy per Si atom -12394.113296 kJ/mol
# Density = 1.745093 g / cm^3
# Si number density = 17.490744 Si / 1000 Ang^3
#
#
#
# Elastic Constant Matrix: (Units=GPa)
#
#
# Indices 1 2 3 4 5 6 
#
# 1 64.2437 35.7416 66.9844 0.0000 0.0000 0.0000
# 2 35.7416 62.6585 41.6253 0.0000 0.0000 0.0000
# 3 66.9844 41.6253 158.8042 0.0000 0.0000 0.0000
# 4 0.0000 0.0000 0.0000 0.2340 0.0000 0.0000
# 5 0.0000 0.0000 0.0000 0.0000 18.3097 0.0000
# 6 0.0000 0.0000 0.0000 0.0000 0.0000 17.2464
#
#
#
# Elastic Compliance Matrix: (Units=1/GPa)
#
#
# Indices 1 2 3 4 5 6 
#
# 1 0.033784 -0.011871 -0.011139 0.000000 0.000000 0.000000
# 2 -0.011871 0.023496 -0.001151 0.000000 0.000000 0.000000
# 3 -0.011139 -0.001151 0.011297 0.000000 0.000000 0.000000
# 4 0.000000 0.000000 0.000000 4.272699 0.000000 0.000000
# 5 0.000000 0.000000 0.000000 0.000000 0.054616 0.000000
# 6 0.000000 0.000000 0.000000 0.000000 0.000000 0.057983
#
#
# Mechanical properties :
#
#
# Convention : Reuss Voigt Hill
#
# Bulk Modulus (GPa) = 49.37146 63.82322 56.59734
# Shear Modulus (GPa) = 1.10891 16.58172 8.84531
#
# Velocity S-wave (km/s) = 0.79710 3.08235 2.25125
# Velocity P-wave (km/s) = 5.39774 7.01689 6.25989
#
# Compressibility (1/GPa) = 0.02025462
#
# Stress axis : x y z
#
# Youngs Moduli (GPa) = 29.59977 42.56035 88.51810
#
# Poissons Ratio (x) = 0.50525 0.98596
# Poissons Ratio (y) = 0.35139 0.10191
# Poissons Ratio (z) = 0.32970 0.04900
#
# Static dielectric constant tensor:
#      x y z
#    x 3.142660 0.000000 0.000000 
#    y 0.000000 2.938750 0.000000 
#    z 0.000000 0.000000 3.689750 
# 
# 
# High freq. dielectric constant tensor:
#      x y z
#    x 1.646620 0.000000 0.000000 
#    y 0.000000 1.634940 0.000000 
#    z 0.000000 0.000000 1.696260 
# 
# From -- ./inp_files/18652.got.cif
#   From: 2010.03.12/outbox.cif.g09.slc.cpg/sg35_10_cif.got.tgz:18652.got - 2010.04.14 02:02:04.
