data_PCOD8172569
_publ_section_title
;
Structure prediction by ZEFSAII (Michael W. Deem and Ramdas Pophale) SiO2 
 PCOD8172569
Probable space group: C M M 2
;
_chemical_formula_sum "Si O2"
_cell_formula_units_Z 56
_cell_length_a 8.693431
_cell_length_b 19.285225
_cell_length_c 18.064213
_cell_angle_alpha 90.000000
_cell_angle_beta 90.000000
_cell_angle_gamma 90.000000
_cell_volume 3028.551527
_symmetry_space_group_name_H-M "C M M 2"
_symmetry_group_IT_number 35
_symmetry_cell_setting 'orthorhombic'
loop_
_space_group_symop_operation_xyz
x,y,z
-x,-y,z
-x,y,z
x,-y,z
1/2+x,1/2+y,z
1/2-x,1/2-y,z
1/2-x,1/2+y,z
1/2+x,1/2-y,z
loop_
_atom_site_type_symbol
_atom_site_label
_atom_site_fract_x
_atom_site_fract_y
_atom_site_fract_z
Si Si1 0.181941 0.578303 0.726170
Si Si2 0.682817 0.922105 0.991298
Si Si3 0.816988 0.326544 0.859839
Si Si4 0.682678 0.077196 0.155561
Si Si5 0.183382 0.674690 0.285081
Si Si6 0.180509 0.078912 0.572777
Si Si7 0.182816 0.174805 0.438769
O O1 0.244712 0.500000 0.740501
O O2 0.243506 0.630150 0.789173
O O3 0.239859 0.606610 0.647307
O O4 0.000000 0.577423 0.726454
O O5 0.500000 0.923487 0.987330
O O6 0.737897 0.899249 0.073572
O O7 0.743360 0.000000 0.973196
O O8 0.746913 0.866704 0.932339
O O9 0.750000 0.250000 0.857550
O O10 0.000000 0.321985 0.860562
O O11 0.500000 0.077658 0.158130
O O12 0.748338 0.127600 0.218490
O O13 0.744423 0.000000 0.171951
O O14 0.250000 0.750000 0.270222
O O15 0.247557 0.644954 0.362459
O O16 0.000000 0.677031 0.288066
O O17 0.237851 0.124383 0.504033
O O18 0.000000 0.086125 0.584028
O O19 0.229874 0.000000 0.556645
O O20 0.250000 0.250000 0.456392
O O21 0.000000 0.179077 0.431818
#
# Coordination Sequence:
#
# PCOD8172569 Si02
#       7
#     8   8   8   8   8   8   8
#     4   9  18  33  52  72  94 123 161 200 234 274
#     4   8  14  28  50  71  93 125 163 199 234 275
#     4  10  20  32  48  73 101 127 158 196 237 280
#     4   8  15  28  47  72  97 122 158 201 239 276
#     4  10  19  31  48  70  97 127 159 195 236 283
#     4   9  19  35  53  73  96 123 156 194 239 288
#     4  10  20  34  51  70  95 127 161 195 233 282
#
# _framework density 18.490687000000001
#
# number of rings (size 3 to 8) (size 9 to 14) (size 15 to 20)
#    0.000    2.857    0.000    3.000    0.000    5.143 
#    0.000    2.857    0.000    3.429    0.000    4.000 
#    0.000    0.000    0.000    0.000    0.000    0.000 
#
# Total GULP energy -347112.285489 kJ/mol
# GULP energy per Si atom -12396.867339 kJ/mol
# Density = 1.844860 g / cm^3
# Si number density = 18.490687 Si / 1000 Ang^3
#
#
#
# Elastic Constant Matrix: (Units=GPa)
#
#
# Indices 1 2 3 4 5 6 
#
# 1 32.0285 23.4954 31.5672 0.0000 0.0000 0.0000
# 2 23.4954 121.2558 115.4990 0.0000 0.0000 0.0000
# 3 31.5672 115.4990 200.0146 0.0000 0.0000 0.0000
# 4 0.0000 0.0000 0.0000 36.3876 0.0000 0.0000
# 5 0.0000 0.0000 0.0000 0.0000 20.1937 0.0000
# 6 0.0000 0.0000 0.0000 0.0000 0.0000 22.2853
#
#
#
# Elastic Compliance Matrix: (Units=1/GPa)
#
#
# Indices 1 2 3 4 5 6 
#
# 1 0.037682 -0.003638 -0.003847 0.000000 0.000000 0.000000
# 2 -0.003638 0.018679 -0.010212 0.000000 0.000000 0.000000
# 3 -0.003847 -0.010212 0.011504 0.000000 0.000000 0.000000
# 4 0.000000 0.000000 0.000000 0.027482 0.000000 0.000000
# 5 0.000000 0.000000 0.000000 0.000000 0.049520 0.000000
# 6 0.000000 0.000000 0.000000 0.000000 0.000000 0.044873
#
#
# Mechanical properties :
#
#
# Convention : Reuss Voigt Hill
#
# Bulk Modulus (GPa) = 30.79565 77.15800 53.97682
# Shear Modulus (GPa) = 21.19029 27.95580 24.57304
#
# Velocity S-wave (km/s) = 3.38893 3.89252 3.64942
# Velocity P-wave (km/s) = 5.65721 7.87533 6.85656
#
# Compressibility (1/GPa) = 0.03247212
#
# Stress axis : x y z
#
# Youngs Moduli (GPa) = 26.53797 53.53490 86.92706
#
# Poissons Ratio (x) = 0.19473 0.33438
# Poissons Ratio (y) = 0.09653 0.88773
# Poissons Ratio (z) = 0.10208 0.54672
#
# Static dielectric constant tensor:
#      x y z
#    x 3.059420 0.000000 0.000000 
#    y 0.000000 3.516270 0.000000 
#    z 0.000000 0.000000 3.804060 
# 
# 
# High freq. dielectric constant tensor:
#      x y z
#    x 1.685690 0.000000 0.000000 
#    y 0.000000 1.713450 0.000000 
#    z 0.000000 0.000000 1.733170 
# 
# From -- ./inp_files/18278.got.cif
#   From: 2010.03.12/outbox.cif.g09.slc.cpg/sg35_10_cif.got.tgz:18278.got - 2010.04.14 02:02:04.
