data_PCOD8172246
_publ_section_title
;
Structure prediction by ZEFSAII (Michael W. Deem and Ramdas Pophale) SiO2 
 PCOD8172246
Probable space group: C M M 2
;
_chemical_formula_sum "Si O2"
_cell_formula_units_Z 52
_cell_length_a 9.091819
_cell_length_b 26.066058
_cell_length_c 12.534930
_cell_angle_alpha 90.000000
_cell_angle_beta 90.000000
_cell_angle_gamma 90.000000
_cell_volume 2970.626504
_symmetry_space_group_name_H-M "C M M 2"
_symmetry_group_IT_number 35
_symmetry_cell_setting 'orthorhombic'
loop_
_space_group_symop_operation_xyz
x,y,z
-x,-y,z
-x,y,z
x,-y,z
1/2+x,1/2+y,z
1/2-x,1/2-y,z
1/2-x,1/2+y,z
1/2+x,1/2-y,z
loop_
_atom_site_type_symbol
_atom_site_label
_atom_site_fract_x
_atom_site_fract_y
_atom_site_fract_z
Si Si1 0.823875 0.888871 0.466520
Si Si2 0.756530 0.000000 0.249784
Si Si3 0.341031 0.500000 0.020731
Si Si4 0.827650 0.801463 0.871275
Si Si5 0.341032 0.500000 0.478836
Si Si6 0.176125 0.888871 0.033047
Si Si7 0.327650 0.301463 0.628292
Si Si8 0.835022 0.389401 0.249783
O O1 0.774851 0.848796 0.556347
O O2 0.751984 0.870841 0.355246
O O3 0.000000 0.891654 0.451740
O O4 0.762585 0.945369 0.506167
O O5 0.863342 0.000000 0.148429
O O6 0.651035 0.950760 0.249784
O O7 0.863342 0.000000 0.351138
O O8 0.500000 0.500000 0.964097
O O9 0.262584 0.554631 0.993400
O O10 0.750000 0.750000 0.912700
O O11 0.781436 0.813702 0.749783
O O12 0.000000 0.792605 0.881994
O O13 0.774850 0.848796 0.943220
O O14 0.500000 0.500000 0.535471
O O15 0.248016 0.870841 0.144321
O O16 0.000000 0.891654 0.047826
O O17 0.500000 0.292605 0.617573
O O18 0.250000 0.250000 0.586867
O O19 0.000000 0.366164 0.249783
#
# Coordination Sequence:
#
# PCOD8172246 Si02
#       8
#     8   4   4   8   4   8   8   8
#     4   9  17  30  47  68  95 124 153 185 225 272
#     4   8  14  24  38  60  91 124 155 186 217 256
#     4   8  13  23  42  66  91 121 152 181 218 267
#     4   9  18  33  52  71  90 116 153 194 231 269
#     4   8  13  23  42  66  91 121 152 181 218 267
#     4   9  17  30  47  68  95 124 153 185 225 272
#     4   9  18  33  52  71  90 116 153 194 231 269
#     4  10  18  27  43  68  96 124 154 187 224 267
#
# _framework density 17.504725000000001
#
# number of rings (size 3 to 8) (size 9 to 14) (size 15 to 20)
#    0.000    3.077    0.000    0.923    0.000    4.923 
#    0.000    1.538    0.000    4.615    0.000    0.000 
#    0.000   12.308    0.000    0.000    0.000    0.000 
#
# Total GULP energy -322089.883862 kJ/mol
# GULP energy per Si atom -12388.072456 kJ/mol
# Density = 1.746488 g / cm^3
# Si number density = 17.504725 Si / 1000 Ang^3
#
#
#
# Elastic Constant Matrix: (Units=GPa)
#
#
# Indices 1 2 3 4 5 6 
#
# 1 44.2190 27.4061 27.6432 0.0000 0.0000 0.0000
# 2 27.4061 146.8128 81.2715 0.0000 0.0000 0.0000
# 3 27.6432 81.2715 94.0229 0.0000 0.0000 0.0000
# 4 0.0000 0.0000 0.0000 35.4582 0.0000 0.0000
# 5 0.0000 0.0000 0.0000 0.0000 17.3587 0.0000
# 6 0.0000 0.0000 0.0000 0.0000 0.0000 19.1292
#
#
#
# Elastic Compliance Matrix: (Units=1/GPa)
#
#
# Indices 1 2 3 4 5 6 
#
# 1 0.027831 -0.001277 -0.007079 0.000000 0.000000 0.000000
# 2 -0.001277 0.013120 -0.010965 0.000000 0.000000 0.000000
# 3 -0.007079 -0.010965 0.022195 0.000000 0.000000 0.000000
# 4 0.000000 0.000000 0.000000 0.028202 0.000000 0.000000
# 5 0.000000 0.000000 0.000000 0.000000 0.057608 0.000000
# 6 0.000000 0.000000 0.000000 0.000000 0.000000 0.052276
#
#
# Mechanical properties :
#
#
# Convention : Reuss Voigt Hill
#
# Bulk Modulus (GPa) = 40.80881 61.96626 51.38754
# Shear Modulus (GPa) = 20.15789 24.30481 22.23135
#
# Velocity S-wave (km/s) = 3.39716 3.73026 3.56760
# Velocity P-wave (km/s) = 6.22505 7.35049 6.81106
#
# Compressibility (1/GPa) = 0.02450451
#
# Stress axis : x y z
#
# Youngs Moduli (GPa) = 35.93067 76.22169 45.05532
#
# Poissons Ratio (x) = 0.09730 0.31895
# Poissons Ratio (y) = 0.04587 0.49403
# Poissons Ratio (z) = 0.25436 0.83577
#
# Static dielectric constant tensor:
#      x y z
#    x 2.941410 0.000000 0.000000 
#    y 0.000000 3.433660 0.000000 
#    z 0.000000 0.000000 3.164420 
# 
# 
# High freq. dielectric constant tensor:
#      x y z
#    x 1.651430 0.000000 0.000000 
#    y 0.000000 1.673850 0.000000 
#    z 0.000000 0.000000 1.656760 
# 
# From -- ./inp_files/11582.got.cif
#   From: 2010.03.12/outbox.cif.g09.slc.cpg/sg35_6_cif.got.tgz:11582.got - 2010.04.14 02:02:04.
