data_PCOD8172887
_publ_section_title
;
Structure prediction by ZEFSAII (Michael W. Deem and Ramdas Pophale) SiO2 
 PCOD8172887
Probable space group: C M M 2
;
_chemical_formula_sum "Si O2"
_cell_formula_units_Z 48
_cell_length_a 15.623314
_cell_length_b 8.940740
_cell_length_c 17.267609
_cell_angle_alpha 90.000000
_cell_angle_beta 90.000000
_cell_angle_gamma 90.000000
_cell_volume 2412.008495
_symmetry_space_group_name_H-M "C M M 2"
_symmetry_group_IT_number 35
_symmetry_cell_setting 'orthorhombic'
loop_
_space_group_symop_operation_xyz
x,y,z
-x,-y,z
-x,y,z
x,-y,z
1/2+x,1/2+y,z
1/2-x,1/2-y,z
1/2-x,1/2+y,z
1/2+x,1/2-y,z
loop_
_atom_site_type_symbol
_atom_site_label
_atom_site_fract_x
_atom_site_fract_y
_atom_site_fract_z
Si Si1 0.596306 0.166238 0.572080
Si Si2 0.841319 0.824638 0.259898
Si Si3 0.500000 0.822877 0.001377
Si Si4 0.663379 0.177548 0.733242
Si Si5 0.500000 0.821751 0.827183
Si Si6 0.159259 0.827094 0.428722
Si Si7 0.156086 0.678256 0.107173
O O1 0.500000 0.161315 0.603723
O O2 0.652273 0.228018 0.643599
O O3 0.598459 0.269628 0.496595
O O4 0.627124 0.000000 0.548645
O O5 0.750000 0.750000 0.268937
O O6 0.885628 0.799428 0.344180
O O7 0.885376 0.739046 0.188115
O O8 0.834092 0.000000 0.239996
O O9 0.412252 0.768895 0.042753
O O10 0.500000 0.000000 0.001563
O O11 0.500000 0.758283 0.914601
O O12 0.750000 0.250000 0.766130
O O13 0.584732 0.239012 0.784428
O O14 0.668946 0.000000 0.739473
O O15 0.500000 0.000000 0.826826
O O16 0.250000 0.750000 0.437096
O O17 0.175886 0.000000 0.440979
O O18 0.166029 0.500000 0.110538
O O19 0.250000 0.750000 0.091209
#
# Coordination Sequence:
#
# PCOD8172887 Si02
#       7
#     8   8   4   8   4   8   8
#     4  10  20  35  53  76 108 146 187 228 273 327
#     4   9  17  31  51  75 104 141 182 224 271 320
#     4   9  20  36  57  84 111 144 182 221 269 333
#     4  10  20  36  60  85 110 145 185 224 271 327
#     4   9  18  38  61  80 111 148 180 219 271 331
#     4  10  20  33  51  76 106 142 185 229 274 324
#     4  10  19  34  56  82 111 143 184 226 272 326
#
# _framework density 19.900427000000001
#
# number of rings (size 3 to 8) (size 9 to 14) (size 15 to 20)
#    0.000    2.333    0.833    3.000    0.000    5.000 
#    1.500    2.083    0.000    3.000    0.000    0.000 
#    0.000    0.000    0.000    0.000    0.000    0.000 
#
# Total GULP energy -297415.420402 kJ/mol
# GULP energy per Si atom -12392.309183 kJ/mol
# Density = 1.985513 g / cm^3
# Si number density = 19.900427 Si / 1000 Ang^3
#
#
#
# Elastic Constant Matrix: (Units=GPa)
#
#
# Indices 1 2 3 4 5 6 
#
# 1 113.5023 30.7372 68.7212 0.0000 0.0000 0.0000
# 2 30.7372 74.2232 49.9820 0.0000 0.0000 0.0000
# 3 68.7212 49.9820 163.0344 0.0000 0.0000 0.0000
# 4 0.0000 0.0000 0.0000 17.4337 0.0000 0.0000
# 5 0.0000 0.0000 0.0000 0.0000 24.1058 0.0000
# 6 0.0000 0.0000 0.0000 0.0000 0.0000 25.8463
#
#
#
# Elastic Compliance Matrix: (Units=1/GPa)
#
#
# Indices 1 2 3 4 5 6 
#
# 1 0.012056 -0.001979 -0.004475 0.000000 0.000000 0.000000
# 2 -0.001979 0.017303 -0.004470 0.000000 0.000000 0.000000
# 3 -0.004475 -0.004470 0.009390 0.000000 0.000000 0.000000
# 4 0.000000 0.000000 0.000000 0.057360 0.000000 0.000000
# 5 0.000000 0.000000 0.000000 0.000000 0.041484 0.000000
# 6 0.000000 0.000000 0.000000 0.000000 0.000000 0.038690
#
#
# Mechanical properties :
#
#
# Convention : Reuss Voigt Hill
#
# Bulk Modulus (GPa) = 59.17088 72.18230 65.67659
# Shear Modulus (GPa) = 24.53804 26.89847 25.71826
#
# Velocity S-wave (km/s) = 3.51528 3.68047 3.59882
# Velocity P-wave (km/s) = 6.80252 7.37642 7.09528
#
# Compressibility (1/GPa) = 0.01690021
#
# Stress axis : x y z
#
# Youngs Moduli (GPa) = 82.94806 57.79416 106.49165
#
# Poissons Ratio (x) = 0.11438 0.47654
# Poissons Ratio (y) = 0.16416 0.47606
# Poissons Ratio (z) = 0.37119 0.25836
#
# Static dielectric constant tensor:
#      x y z
#    x 3.471010 0.000000 0.000000 
#    y 0.000000 3.510250 0.000000 
#    z 0.000000 0.000000 4.108950 
# 
# 
# High freq. dielectric constant tensor:
#      x y z
#    x 1.761940 0.000000 0.000000 
#    y 0.000000 1.758480 0.000000 
#    z 0.000000 0.000000 1.785370 
# 
# From -- ./inp_files/18779.got.cif
#   From: 2010.03.12/outbox.cif.g09.slc.cpg/sg35_10_cif.got.tgz:18779.got - 2010.04.14 02:02:04.
