data_PCOD8172500
_publ_section_title
;
Structure prediction by ZEFSAII (Michael W. Deem and Ramdas Pophale) SiO2 
 PCOD8172500
Probable space group: C M M 2
;
_chemical_formula_sum "Si O2"
_cell_formula_units_Z 56
_cell_length_a 30.227118
_cell_length_b 9.224781
_cell_length_c 12.503847
_cell_angle_alpha 90.000000
_cell_angle_beta 90.000000
_cell_angle_gamma 90.000000
_cell_volume 3486.554490
_symmetry_space_group_name_H-M "C M M 2"
_symmetry_group_IT_number 35
_symmetry_cell_setting 'orthorhombic'
loop_
_space_group_symop_operation_xyz
x,y,z
-x,-y,z
-x,y,z
x,-y,z
1/2+x,1/2+y,z
1/2-x,1/2-y,z
1/2-x,1/2+y,z
1/2+x,1/2-y,z
loop_
_atom_site_type_symbol
_atom_site_label
_atom_site_fract_x
_atom_site_fract_y
_atom_site_fract_z
Si Si1 0.552547 0.660258 0.727750
Si Si2 0.549896 0.829949 0.930710
Si Si3 0.292520 0.664485 0.350774
Si Si4 0.051600 0.830848 0.489948
Si Si5 0.207991 0.163229 0.096246
Si Si6 0.878055 0.668208 0.099299
Si Si7 0.119925 0.330104 0.347172
O O1 0.500000 0.657005 0.727190
O O2 0.571264 0.500000 0.750961
O O3 0.570135 0.764501 0.821346
O O4 0.567729 0.711759 0.609819
O O5 0.500000 0.773238 0.952113
O O6 0.550237 0.000000 0.914924
O O7 0.579363 0.782457 0.031453
O O8 0.292838 0.500000 0.395395
O O9 0.250000 0.750000 0.396984
O O10 0.290287 0.663107 0.223588
O O11 0.336460 0.747644 0.389193
O O12 0.077450 0.730200 0.407756
O O13 0.000000 0.797155 0.474400
O O14 0.061316 0.000000 0.467783
O O15 0.250000 0.250000 0.049804
O O16 0.163552 0.241083 0.056493
O O17 0.209050 0.000000 0.051198
O O18 0.866713 0.500000 0.082241
O O19 0.888356 0.701600 0.222446
O O20 0.125951 0.500000 0.369509
#
# Coordination Sequence:
#
# PCOD8172500 Si02
#       7
#     8   8   8   8   8   8   8
#     4   8  15  29  47  64  82 107 143 187 228 261
#     4   9  17  29  45  64  87 116 148 182 219 257
#     4   9  16  27  43  62  86 115 147 183 221 259
#     4   9  18  32  47  63  87 118 149 184 226 265
#     4   9  16  26  42  62  84 112 146 182 218 256
#     4   9  18  30  42  61  92 123 148 177 215 259
#     4  10  19  29  43  65  92 121 152 182 215 261
#
# _framework density 16.061703000000001
#
# number of rings (size 3 to 8) (size 9 to 14) (size 15 to 20)
#    0.000    3.000    0.000    2.143    0.000    6.000 
#    0.000    2.857    0.000    1.714    0.000    1.000 
#    0.000    2.286    0.000    0.000    0.000    0.000 
#
# Total GULP energy -347119.515753 kJ/mol
# GULP energy per Si atom -12397.125563 kJ/mol
# Density = 1.602515 g / cm^3
# Si number density = 16.061703 Si / 1000 Ang^3
#
#
#
# Elastic Constant Matrix: (Units=GPa)
#
#
# Indices 1 2 3 4 5 6 
#
# 1 99.6000 61.2268 48.1455 0.0000 0.0000 0.0000
# 2 61.2268 93.1949 42.2859 0.0000 0.0000 0.0000
# 3 48.1455 42.2859 64.8411 0.0000 0.0000 0.0000
# 4 0.0000 0.0000 0.0000 22.9561 0.0000 0.0000
# 5 0.0000 0.0000 0.0000 0.0000 1.9016 0.0000
# 6 0.0000 0.0000 0.0000 0.0000 0.0000 30.4257
#
#
#
# Elastic Compliance Matrix: (Units=1/GPa)
#
#
# Indices 1 2 3 4 5 6 
#
# 1 0.019884 -0.009039 -0.008870 0.000000 0.000000 0.000000
# 2 -0.009039 0.019349 -0.005907 0.000000 0.000000 0.000000
# 3 -0.008870 -0.005907 0.025860 0.000000 0.000000 0.000000
# 4 0.000000 0.000000 0.000000 0.043561 0.000000 0.000000
# 5 0.000000 0.000000 0.000000 0.000000 0.525864 0.000000
# 6 0.000000 0.000000 0.000000 0.000000 0.000000 0.032867
#
#
# Mechanical properties :
#
#
# Convention : Reuss Voigt Hill
#
# Bulk Modulus (GPa) = 57.26511 62.32803 59.79657
# Shear Modulus (GPa) = 6.93639 18.12186 12.52912
#
# Velocity S-wave (km/s) = 2.08038 3.36261 2.79599
# Velocity P-wave (km/s) = 6.44214 7.34614 6.90894
#
# Compressibility (1/GPa) = 0.01746264
#
# Stress axis : x y z
#
# Youngs Moduli (GPa) = 50.29154 51.68340 38.66975
#
# Poissons Ratio (x) = 0.46716 0.34298
# Poissons Ratio (y) = 0.45458 0.22841
# Poissons Ratio (z) = 0.44606 0.30527
#
# Static dielectric constant tensor:
#      x y z
#    x 3.039460 0.000000 0.000000 
#    y 0.000000 3.184420 0.000000 
#    z 0.000000 0.000000 2.858220 
# 
# 
# High freq. dielectric constant tensor:
#      x y z
#    x 1.607330 0.000000 0.000000 
#    y 0.000000 1.625970 0.000000 
#    z 0.000000 0.000000 1.579630 
# 
# From -- ./inp_files/16064.got.cif
#   From: 2010.03.12/outbox.cif.g09.slc.cpg/sg35_9_cif.got.tgz:16064.got - 2010.04.14 02:02:04.
