data_PCOD8172846
_publ_section_title
;
Structure prediction by ZEFSAII (Michael W. Deem and Ramdas Pophale) SiO2 
 PCOD8172846
Probable space group: C M M 2
;
_chemical_formula_sum "Si O2"
_cell_formula_units_Z 64
_cell_length_a 31.460431
_cell_length_b 9.203149
_cell_length_c 11.539603
_cell_angle_alpha 90.000000
_cell_angle_beta 90.000000
_cell_angle_gamma 90.000000
_cell_volume 3341.119348
_symmetry_space_group_name_H-M "C M M 2"
_symmetry_group_IT_number 35
_symmetry_cell_setting 'orthorhombic'
loop_
_space_group_symop_operation_xyz
x,y,z
-x,-y,z
-x,y,z
x,-y,z
1/2+x,1/2+y,z
1/2-x,1/2-y,z
1/2-x,1/2+y,z
1/2+x,1/2-y,z
loop_
_atom_site_type_symbol
_atom_site_label
_atom_site_fract_x
_atom_site_fract_y
_atom_site_fract_z
Si Si1 0.626031 0.826916 0.132240
Si Si2 0.594744 0.166813 0.581346
Si Si3 0.785865 0.839761 0.503868
Si Si4 0.318171 0.166831 0.710144
Si Si5 0.794747 0.328754 0.970030
Si Si6 0.873028 0.835197 0.371301
Si Si7 0.450976 0.343209 0.754945
Si Si8 0.549288 0.329045 0.011430
O O1 0.632137 0.761901 0.258922
O O2 0.581137 0.763889 0.089498
O O3 0.622403 0.000000 0.137504
O O4 0.667277 0.779938 0.056634
O O5 0.633606 0.192476 0.669345
O O6 0.595734 0.258249 0.462730
O O7 0.555260 0.223657 0.655812
O O8 0.588857 0.000000 0.546572
O O9 0.750000 0.750000 0.433638
O O10 0.789425 0.766377 0.629637
O O11 0.827551 0.838722 0.429385
O O12 0.768750 0.000000 0.525490
O O13 0.311163 0.215866 0.842396
O O14 0.305226 0.000000 0.692829
O O15 0.786561 0.500000 0.979937
O O16 0.750000 0.250000 0.000071
O O17 0.888717 0.000000 0.344107
O O18 0.500000 0.371275 0.771202
O O19 0.429684 0.500000 0.721457
O O20 0.435118 0.291665 0.881102
O O21 0.500000 0.282676 0.034725
O O22 0.554659 0.500000 0.037693
#
# Coordination Sequence:
#
# PCOD8172846 Si02
#       8
#     8   8   8   8   8   8   8   8
#     4  11  23  39  58  81 111 146 187 236 285 328
#     4  10  19  33  55  81 109 140 175 221 275 324
#     4  10  20  33  52  77 103 134 174 221 271 322
#     4   9  18  33  52  76 107 139 173 217 270 326
#     4  10  22  37  53  78 112 148 185 226 273 327
#     4  10  22  39  56  75 102 140 185 225 267 325
#     4   9  18  33  54  82 115 146 175 211 259 320
#     4   9  19  37  61  88 116 147 184 224 270 329
#
# _framework density 19.155256999999999
#
# number of rings (size 3 to 8) (size 9 to 14) (size 15 to 20)
#    0.000    2.250    0.000    3.375    0.000    7.000 
#    0.000    4.375    0.000    3.750    0.000    0.000 
#    0.000    0.000    0.000    0.000    0.000    0.000 
#
# Total GULP energy -396614.129582 kJ/mol
# GULP energy per Si atom -12394.191549 kJ/mol
# Density = 1.911166 g / cm^3
# Si number density = 19.155257 Si / 1000 Ang^3
#
#
#
# Elastic Constant Matrix: (Units=GPa)
#
#
# Indices 1 2 3 4 5 6 
#
# 1 58.4452 36.9783 39.2457 0.0000 0.0000 0.0000
# 2 36.9783 101.7920 52.7016 0.0000 0.0000 0.0000
# 3 39.2457 52.7016 114.4103 0.0000 0.0000 0.0000
# 4 0.0000 0.0000 0.0000 18.6930 0.0000 0.0000
# 5 0.0000 0.0000 0.0000 0.0000 -2.0654 0.0000
# 6 0.0000 0.0000 0.0000 0.0000 0.0000 32.5822
#
#
#
# Elastic Compliance Matrix: (Units=1/GPa)
#
#
# Indices 1 2 3 4 5 6 
#
# 1 0.024768 -0.006039 -0.005714 0.000000 0.000000 0.000000
# 2 -0.006039 0.014373 -0.004549 0.000000 0.000000 0.000000
# 3 -0.005714 -0.004549 0.012796 0.000000 0.000000 0.000000
# 4 0.000000 0.000000 0.000000 0.053496 0.000000 0.000000
# 5 0.000000 0.000000 0.000000 0.000000 -0.484164 0.000000
# 6 0.000000 0.000000 0.000000 0.000000 0.000000 0.030692
#
#
# Mechanical properties :
#
#
# Convention : Reuss Voigt Hill
#
# Bulk Modulus (GPa) = 51.72721 59.16654 55.44687
# Shear Modulus (GPa) = -16.18175 19.55676 1.68750
#
# Velocity S-wave (km/s) = -2.90964 3.19871 0.93961
# Velocity P-wave (km/s) = 3.97175 6.67812 5.49418
#
# Compressibility (1/GPa) = 0.01933219
#
# Stress axis : x y z
#
# Youngs Moduli (GPa) = 40.37456 69.57446 78.14846
#
# Poissons Ratio (x) = 0.42016 0.44656
# Poissons Ratio (y) = 0.24382 0.35551
# Poissons Ratio (z) = 0.23071 0.31651
#
# Static dielectric constant tensor:
#      x y z
#    x 3.494120 0.000000 0.000000 
#    y 0.000000 3.713860 0.000000 
#    z 0.000000 0.000000 3.462600 
# 
# 
# High freq. dielectric constant tensor:
#      x y z
#    x 1.740360 0.000000 0.000000 
#    y 0.000000 1.751780 0.000000 
#    z 0.000000 0.000000 1.739120 
# 
# From -- ./inp_files/11982.got.cif
#   From: 2010.03.12/outbox.cif.g09.slc.cpg/sg35_6_cif.got.tgz:11982.got - 2010.04.14 02:02:04.
