data_PCOD8172843
_publ_section_title
;
Structure prediction by ZEFSAII (Michael W. Deem and Ramdas Pophale) SiO2 
 PCOD8172843
Probable space group: C M M 2
;
_chemical_formula_sum "Si O2"
_cell_formula_units_Z 40
_cell_length_a 18.397538
_cell_length_b 8.735758
_cell_length_c 12.798684
_cell_angle_alpha 90.000000
_cell_angle_beta 90.000000
_cell_angle_gamma 90.000000
_cell_volume 2056.958926
_symmetry_space_group_name_H-M "C M M 2"
_symmetry_group_IT_number 35
_symmetry_cell_setting 'orthorhombic'
loop_
_space_group_symop_operation_xyz
x,y,z
-x,-y,z
-x,y,z
x,-y,z
1/2+x,1/2+y,z
1/2-x,1/2-y,z
1/2-x,1/2+y,z
1/2+x,1/2-y,z
loop_
_atom_site_type_symbol
_atom_site_label
_atom_site_fract_x
_atom_site_fract_y
_atom_site_fract_z
Si Si1 0.670848 0.179910 0.966420
Si Si2 0.328077 0.181567 0.571767
Si Si3 0.673129 0.678990 0.354726
Si Si4 0.918615 0.318039 0.769300
Si Si5 0.584171 0.322995 0.151309
O O1 0.750000 0.250000 0.973579
O O2 0.628808 0.246789 0.865474
O O3 0.679620 0.000000 0.957544
O O4 0.625644 0.218546 0.069214
O O5 0.250000 0.250000 0.599923
O O6 0.356265 0.244589 0.460977
O O7 0.383871 0.236959 0.660483
O O8 0.322030 0.000000 0.566837
O O9 0.684589 0.500000 0.374217
O O10 0.750000 0.750000 0.320308
O O11 0.614196 0.713385 0.266224
O O12 0.920928 0.500000 0.774714
O O13 0.000000 0.250405 0.777328
O O14 0.500000 0.278351 0.149747
O O15 0.596862 0.500000 0.122398
#
# Coordination Sequence:
#
# PCOD8172843 Si02
#       5
#     8   8   8   8   8
#     4  11  22  37  59  83 109 143 183 225 269 322
#     4  10  19  33  55  79 106 140 178 221 265 314
#     4  10  20  35  55  78 107 142 180 222 267 316
#     4   9  19  35  54  79 110 141 175 219 270 320
#     4  10  22  39  57  80 112 145 178 223 276 325
#
# _framework density 19.446182
#
# number of rings (size 3 to 8) (size 9 to 14) (size 15 to 20)
#    0.000    2.000    0.000    4.800    0.000    5.200 
#    0.000    3.000    0.000    6.600    0.000    0.000 
#    0.000    0.000    0.000    0.000    0.000    0.000 
#
# Total GULP energy -248061.044034 kJ/mol
# GULP energy per Si atom -12403.052202 kJ/mol
# Density = 1.940192 g / cm^3
# Si number density = 19.446182 Si / 1000 Ang^3
#
#
#
# Elastic Constant Matrix: (Units=GPa)
#
#
# Indices 1 2 3 4 5 6 
#
# 1 153.4752 39.8528 89.0216 0.0000 0.0000 0.0000
# 2 39.8528 71.8233 44.7369 0.0000 0.0000 0.0000
# 3 89.0216 44.7369 140.9496 0.0000 0.0000 0.0000
# 4 0.0000 0.0000 0.0000 -7.8167 0.0000 0.0000
# 5 0.0000 0.0000 0.0000 0.0000 34.1520 0.0000
# 6 0.0000 0.0000 0.0000 0.0000 0.0000 1.1029
#
#
#
# Elastic Compliance Matrix: (Units=1/GPa)
#
#
# Indices 1 2 3 4 5 6 
#
# 1 0.010536 -0.002120 -0.005981 0.000000 0.000000 0.000000
# 2 -0.002120 0.017781 -0.004304 0.000000 0.000000 0.000000
# 3 -0.005981 -0.004304 0.012238 0.000000 0.000000 0.000000
# 4 0.000000 0.000000 0.000000 -0.127932 0.000000 0.000000
# 5 0.000000 0.000000 0.000000 0.000000 0.029281 0.000000
# 6 0.000000 0.000000 0.000000 0.000000 0.000000 0.906674
#
#
# Mechanical properties :
#
#
# Convention : Reuss Voigt Hill
#
# Bulk Modulus (GPa) = 63.51996 79.27452 71.39724
# Shear Modulus (GPa) = 5.69063 18.33010 12.01036
#
# Velocity S-wave (km/s) = 1.71251 3.07352 2.48789
# Velocity P-wave (km/s) = 6.05357 7.31095 6.71177
#
# Compressibility (1/GPa) = 0.01574308
#
# Stress axis : x y z
#
# Youngs Moduli (GPa) = 94.91631 56.24087 81.70957
#
# Poissons Ratio (x) = 0.11926 0.48871
# Poissons Ratio (y) = 0.20126 0.35170
# Poissons Ratio (z) = 0.56770 0.24208
#
# Static dielectric constant tensor:
#      x y z
#    x 3.668490 0.000000 0.000000 
#    y 0.000000 3.473370 0.000000 
#    z 0.000000 0.000000 3.745600 
# 
# 
# High freq. dielectric constant tensor:
#      x y z
#    x 1.762090 0.000000 0.000000 
#    y 0.000000 1.745710 0.000000 
#    z 0.000000 0.000000 1.772990 
# 
# From -- ./inp_files/11015.got.cif
#   From: 2010.03.12/outbox.cif.g09.slc.cpg/sg35_6_cif.got.tgz:11015.got - 2010.04.14 02:02:04.
