data_PCOD8172842
_publ_section_title
;
Structure prediction by ZEFSAII (Michael W. Deem and Ramdas Pophale) SiO2 
 PCOD8172842
Probable space group: C M M 2
;
_chemical_formula_sum "Si O2"
_cell_formula_units_Z 64
_cell_length_a 9.418181
_cell_length_b 38.245129
_cell_length_c 10.128642
_cell_angle_alpha 90.000000
_cell_angle_beta 90.000000
_cell_angle_gamma 90.000000
_cell_volume 3648.332263
_symmetry_space_group_name_H-M "C M M 2"
_symmetry_group_IT_number 35
_symmetry_cell_setting 'orthorhombic'
loop_
_space_group_symop_operation_xyz
x,y,z
-x,-y,z
-x,y,z
x,-y,z
1/2+x,1/2+y,z
1/2-x,1/2-y,z
1/2-x,1/2+y,z
1/2+x,1/2-y,z
loop_
_atom_site_type_symbol
_atom_site_label
_atom_site_fract_x
_atom_site_fract_y
_atom_site_fract_z
Si Si1 0.335410 0.716791 0.060830
Si Si2 0.830519 0.389211 0.723383
Si Si3 0.335527 0.641656 0.964286
Si Si4 0.836484 0.539612 0.316264
Si Si5 0.163945 0.217123 0.362645
Si Si6 0.836387 0.899329 0.228575
Si Si7 0.831886 0.461985 0.613352
Si Si8 0.834736 0.856093 0.486223
O O1 0.500000 0.726200 0.051865
O O2 0.250000 0.750000 0.004094
O O3 0.291006 0.708799 0.211910
O O4 0.300578 0.682869 0.972566
O O5 0.768020 0.376258 0.860543
O O6 0.783279 0.429918 0.705726
O O7 0.765228 0.366212 0.606893
O O8 0.000000 0.385096 0.722507
O O9 0.500000 0.635756 0.924629
O O10 0.301044 0.624944 0.105130
O O11 0.816046 0.500000 0.266518
O O12 0.751352 0.564824 0.218041
O O13 0.774665 0.543869 0.464716
O O14 0.000000 0.550731 0.311266
O O15 0.250000 0.250000 0.419425
O O16 0.197615 0.184140 0.454093
O O17 0.000000 0.227075 0.368597
O O18 0.791616 0.878861 0.360017
O O19 0.000000 0.909590 0.231499
O O20 0.776499 0.500000 0.666975
O O21 0.000000 0.463407 0.604315
O O22 0.000000 0.861529 0.523327
#
# Coordination Sequence:
#
# PCOD8172842 Si02
#       8
#     8   8   8   8   8   8   8   8
#     4   9  17  32  54  78 104 135 173 215 262 315
#     4  11  22  35  54  81 108 138 181 225 261 309
#     4  10  21  38  55  75 109 148 177 211 265 322
#     4   9  17  31  52  78 108 140 174 217 270 317
#     4   9  17  31  52  79 107 135 172 215 264 317
#     4  10  19  33  55  79 105 138 177 216 259 315
#     4   8  15  30  51  74 102 135 169 211 264 313
#     4  10  19  34  55  78 106 139 173 212 265 322
#
# _framework density 17.542261
#
# number of rings (size 3 to 8) (size 9 to 14) (size 15 to 20)
#    0.000    2.500    2.500    1.125    0.000    1.750 
#    0.000    1.250    0.000    3.750    0.000    0.000 
#    0.000    0.000    0.000    0.000    0.000    0.000 
#
# Total GULP energy -396740.912455 kJ/mol
# GULP energy per Si atom -12398.153514 kJ/mol
# Density = 1.750233 g / cm^3
# Si number density = 17.542261 Si / 1000 Ang^3
#
#
#
# Elastic Constant Matrix: (Units=GPa)
#
#
# Indices 1 2 3 4 5 6 
#
# 1 58.7472 55.3690 29.0179 0.0000 0.0000 0.0000
# 2 55.3690 135.2111 33.7732 0.0000 0.0000 0.0000
# 3 29.0179 33.7732 45.6197 0.0000 0.0000 0.0000
# 4 0.0000 0.0000 0.0000 23.6698 0.0000 0.0000
# 5 0.0000 0.0000 0.0000 0.0000 26.7376 0.0000
# 6 0.0000 0.0000 0.0000 0.0000 0.0000 32.9758
#
#
#
# Elastic Compliance Matrix: (Units=1/GPa)
#
#
# Indices 1 2 3 4 5 6 
#
# 1 0.033478 -0.010294 -0.013674 0.000000 0.000000 0.000000
# 2 -0.010294 0.012239 -0.002513 0.000000 0.000000 0.000000
# 3 -0.013674 -0.002513 0.032479 0.000000 0.000000 0.000000
# 4 0.000000 0.000000 0.000000 0.042248 0.000000 0.000000
# 5 0.000000 0.000000 0.000000 0.000000 0.037400 0.000000
# 6 0.000000 0.000000 0.000000 0.000000 0.000000 0.030325
#
#
# Mechanical properties :
#
#
# Convention : Reuss Voigt Hill
#
# Bulk Modulus (GPa) = 39.62935 52.87757 46.25346
# Shear Modulus (GPa) = 20.03667 24.77119 22.40393
#
# Velocity S-wave (km/s) = 3.38330 3.76185 3.57759
# Velocity P-wave (km/s) = 6.15647 7.00550 6.59467
#
# Compressibility (1/GPa) = 0.02523382
#
# Stress axis : x y z
#
# Youngs Moduli (GPa) = 29.87016 81.70696 30.78949
#
# Poissons Ratio (x) = 0.84108 0.42102
# Poissons Ratio (y) = 0.30748 0.07737
# Poissons Ratio (z) = 0.40845 0.20533
#
# Static dielectric constant tensor:
#      x y z
#    x 3.122760 0.000000 0.000000 
#    y 0.000000 3.539710 0.000000 
#    z 0.000000 0.000000 3.041840 
# 
# 
# High freq. dielectric constant tensor:
#      x y z
#    x 1.664320 0.000000 0.000000 
#    y 0.000000 1.692500 0.000000 
#    z 0.000000 0.000000 1.650600 
# 
# From -- ./inp_files/6578.got.cif
#   From: 2010.03.12/outbox.cif.g09.slc.cpg/sg35_4_cif.got.tgz:6578.got - 2010.04.14 02:02:04.
