data_PCOD8172304
_publ_section_title
;
Structure prediction by ZEFSAII (Michael W. Deem and Ramdas Pophale) SiO2 
 PCOD8172304
Probable space group: C M M 2
;
_chemical_formula_sum "Si O2"
_cell_formula_units_Z 64
_cell_length_a 17.366684
_cell_length_b 15.583680
_cell_length_c 12.028301
_cell_angle_alpha 90.000000
_cell_angle_beta 90.000000
_cell_angle_gamma 90.000000
_cell_volume 3255.301447
_symmetry_space_group_name_H-M "C M M 2"
_symmetry_group_IT_number 35
_symmetry_cell_setting 'orthorhombic'
loop_
_space_group_symop_operation_xyz
x,y,z
-x,-y,z
-x,y,z
x,-y,z
1/2+x,1/2+y,z
1/2-x,1/2-y,z
1/2-x,1/2+y,z
1/2+x,1/2-y,z
loop_
_atom_site_type_symbol
_atom_site_label
_atom_site_fract_x
_atom_site_fract_y
_atom_site_fract_z
Si Si1 0.147037 0.092195 0.588050
Si Si2 0.089131 0.857469 0.351248
Si Si3 0.824460 0.594838 0.574429
Si Si4 0.657989 0.246794 0.973334
Si Si5 0.170743 0.595120 0.121653
Si Si6 0.342199 0.754031 0.720746
Si Si7 0.148757 0.093124 0.112237
Si Si8 0.326946 0.192437 0.345842
O O1 0.131367 0.102330 0.457351
O O2 0.237025 0.086530 0.612393
O O3 0.116441 0.172933 0.659795
O O4 0.110643 0.000000 0.626098
O O5 0.127413 0.894961 0.240649
O O6 0.100048 0.755224 0.354336
O O7 0.000000 0.881823 0.354404
O O8 0.863360 0.500000 0.576385
O O9 0.869194 0.658574 0.659090
O O10 0.824082 0.633570 0.452461
O O11 0.750000 0.250000 0.979631
O O12 0.628596 0.245168 0.847067
O O13 0.630228 0.159662 0.034052
O O14 0.618660 0.328658 0.035300
O O15 0.134016 0.500000 0.109718
O O16 0.260527 0.590472 0.097674
O O17 0.157892 0.629755 0.244514
O O18 0.250000 0.750000 0.711989
O O19 0.115408 0.000000 0.073020
O O20 0.250000 0.250000 0.330696
#
# Coordination Sequence:
#
# PCOD8172304 Si02
#       8
#     8   8   8   8   8   8   8   8
#     4  10  19  32  50  76 107 141 176 209 257 316
#     4  12  23  34  53  79 109 141 176 221 269 315
#     4  10  18  29  52  80 104 136 175 216 260 314
#     4   9  17  30  48  75 109 139 172 221 266 302
#     4  10  18  29  52  80 104 136 175 216 260 314
#     4   9  17  30  48  75 109 139 172 221 266 302
#     4  10  19  32  50  76 107 141 176 209 257 316
#     4  12  17  33  55  74 106 139 174 218 266 322
#
# _framework density 19.660238
#
# number of rings (size 3 to 8) (size 9 to 14) (size 15 to 20)
#    0.000    1.750    5.000    1.500    0.000    4.000 
#    0.000    5.000    0.000    2.250    0.000    1.750 
#    0.000    2.000    0.000    0.000    0.000    0.000 
#
# Total GULP energy -396579.740320 kJ/mol
# GULP energy per Si atom -12393.116885 kJ/mol
# Density = 1.961549 g / cm^3
# Si number density = 19.660238 Si / 1000 Ang^3
#
#
#
# Elastic Constant Matrix: (Units=GPa)
#
#
# Indices 1 2 3 4 5 6 
#
# 1 12.3379 16.1747 9.2304 0.0000 0.0000 0.0000
# 2 16.1747 202.3216 72.3210 0.0000 0.0000 0.0000
# 3 9.2304 72.3210 129.5170 0.0000 0.0000 0.0000
# 4 0.0000 0.0000 0.0000 0.1957 0.0000 0.0000
# 5 0.0000 0.0000 0.0000 0.0000 0.6461 0.0000
# 6 0.0000 0.0000 0.0000 0.0000 0.0000 5.3461
#
#
#
# Elastic Compliance Matrix: (Units=1/GPa)
#
#
# Indices 1 2 3 4 5 6 
#
# 1 0.091491 -0.006226 -0.003044 0.000000 0.000000 0.000000
# 2 -0.006226 0.006599 -0.003241 0.000000 0.000000 0.000000
# 3 -0.003044 -0.003241 0.009748 0.000000 0.000000 0.000000
# 4 0.000000 0.000000 0.000000 5.109713 0.000000 0.000000
# 5 0.000000 0.000000 0.000000 0.000000 1.547767 0.000000
# 6 0.000000 0.000000 0.000000 0.000000 0.000000 0.187052
#
#
# Mechanical properties :
#
#
# Convention : Reuss Voigt Hill
#
# Bulk Modulus (GPa) = 12.07502 59.95875 36.01689
# Shear Modulus (GPa) = 0.71378 17.66761 9.19069
#
# Velocity S-wave (km/s) = 0.60319 3.00100 2.16447
# Velocity P-wave (km/s) = 2.57688 6.52470 4.96044
#
# Compressibility (1/GPa) = 0.08281560
#
# Stress axis : x y z
#
# Youngs Moduli (GPa) = 10.93003 151.53993 102.58869
#
# Poissons Ratio (x) = 0.94354 0.31224
# Poissons Ratio (y) = 0.06805 0.33249
# Poissons Ratio (z) = 0.03327 0.49115
#
# Static dielectric constant tensor:
#      x y z
#    x 2.932070 0.000000 0.000000 
#    y 0.000000 4.363280 0.000000 
#    z 0.000000 0.000000 3.582900 
# 
# 
# High freq. dielectric constant tensor:
#      x y z
#    x 1.686060 0.000000 0.000000 
#    y 0.000000 1.792900 0.000000 
#    z 0.000000 0.000000 1.765130 
# 
# From -- ./inp_files/13582.got.cif
#   From: 2010.03.12/outbox.cif.g09.slc.cpg/sg35_7_cif.got.tgz:13582.got - 2010.04.14 02:02:04.
