data_PCOD8172655
_publ_section_title
;
Structure prediction by ZEFSAII (Michael W. Deem and Ramdas Pophale) SiO2 
 PCOD8172655
Probable space group: C M M 2
;
_chemical_formula_sum "Si O2"
_cell_formula_units_Z 64
_cell_length_a 8.823737
_cell_length_b 28.276491
_cell_length_c 15.569190
_cell_angle_alpha 90.000000
_cell_angle_beta 90.000000
_cell_angle_gamma 90.000000
_cell_volume 3884.580162
_symmetry_space_group_name_H-M "C M M 2"
_symmetry_group_IT_number 35
_symmetry_cell_setting 'orthorhombic'
loop_
_space_group_symop_operation_xyz
x,y,z
-x,-y,z
-x,y,z
x,-y,z
1/2+x,1/2+y,z
1/2-x,1/2-y,z
1/2-x,1/2+y,z
1/2+x,1/2-y,z
loop_
_atom_site_type_symbol
_atom_site_label
_atom_site_fract_x
_atom_site_fract_y
_atom_site_fract_z
Si Si1 0.320134 0.201134 0.814360
Si Si2 0.177766 0.053871 0.388234
Si Si3 0.824008 0.202703 0.630924
Si Si4 0.828632 0.556170 0.216189
Si Si5 0.324806 0.602472 0.562183
Si Si6 0.678627 0.446465 0.044341
Si Si7 0.321074 0.609771 0.877092
Si Si8 0.175132 0.444497 0.722498
O O1 0.500000 0.204395 0.813464
O O2 0.250000 0.250000 0.848887
O O3 0.259821 0.189780 0.719201
O O4 0.265253 0.159616 0.876805
O O5 0.253115 0.075986 0.303030
O O6 0.228896 0.085610 0.468620
O O7 0.000000 0.055816 0.373770
O O8 0.231852 0.000000 0.404869
O O9 0.750000 0.250000 0.590004
O O10 0.802338 0.159110 0.566033
O O11 0.000000 0.212246 0.651212
O O12 0.812488 0.500000 0.216690
O O13 0.747159 0.576166 0.131086
O O14 0.000000 0.573705 0.214038
O O15 0.500000 0.588764 0.579102
O O16 0.221362 0.576294 0.630944
O O17 0.500000 0.445672 0.053619
O O18 0.737705 0.500000 0.030571
O O19 0.733326 0.416247 0.963259
O O20 0.500000 0.618476 0.875175
O O21 0.277885 0.578070 0.795871
O O22 0.205158 0.500000 0.721558
O O23 0.000000 0.432199 0.740343
#
# Coordination Sequence:
#
# PCOD8172655 Si02
#       8
#     8   8   8   8   8   8   8   8
#     4  11  21  34  52  72  96 126 162 205 250 292
#     4   9  17  30  48  69  94 126 163 200 238 286
#     4  10  19  32  50  71  94 124 162 205 248 291
#     4   9  17  29  46  69  96 125 157 198 245 288
#     4  10  20  33  50  70  94 128 168 203 241 290
#     4   9  18  32  50  71  96 129 166 201 238 286
#     4  11  21  34  51  72  97 129 167 203 243 291
#     4  11  23  34  45  66  98 134 168 201 239 285
#
# _framework density 16.475397000000001
#
# number of rings (size 3 to 8) (size 9 to 14) (size 15 to 20)
#    0.000    2.000    1.250    4.125    0.000    5.500 
#    0.000    2.500    0.000    0.000    0.000    0.875 
#    0.000    2.000    0.000    0.000    0.000    0.000 
#
# Total GULP energy -396852.977892 kJ/mol
# GULP energy per Si atom -12401.655559 kJ/mol
# Density = 1.643790 g / cm^3
# Si number density = 16.475397 Si / 1000 Ang^3
#
#
#
# Elastic Constant Matrix: (Units=GPa)
#
#
# Indices 1 2 3 4 5 6 
#
# 1 76.1562 40.5858 42.4326 0.0000 0.0000 0.0000
# 2 40.5858 94.5980 57.5788 0.0000 0.0000 0.0000
# 3 42.4326 57.5788 129.3421 0.0000 0.0000 0.0000
# 4 0.0000 0.0000 0.0000 8.8996 0.0000 0.0000
# 5 0.0000 0.0000 0.0000 0.0000 16.9383 0.0000
# 6 0.0000 0.0000 0.0000 0.0000 0.0000 24.5977
#
#
#
# Elastic Compliance Matrix: (Units=1/GPa)
#
#
# Indices 1 2 3 4 5 6 
#
# 1 0.018047 -0.005678 -0.003393 0.000000 0.000000 0.000000
# 2 -0.005678 0.016286 -0.005387 0.000000 0.000000 0.000000
# 3 -0.003393 -0.005387 0.011243 0.000000 0.000000 0.000000
# 4 0.000000 0.000000 0.000000 0.112364 0.000000 0.000000
# 5 0.000000 0.000000 0.000000 0.000000 0.059038 0.000000
# 6 0.000000 0.000000 0.000000 0.000000 0.000000 0.040654
#
#
# Mechanical properties :
#
#
# Convention : Reuss Voigt Hill
#
# Bulk Modulus (GPa) = 60.02437 64.58784 62.30611
# Shear Modulus (GPa) = 17.11730 20.72040 18.91885
#
# Velocity S-wave (km/s) = 3.22679 3.55019 3.39235
# Velocity P-wave (km/s) = 7.09892 7.48952 7.29683
#
# Compressibility (1/GPa) = 0.01665990
#
# Stress axis : x y z
#
# Youngs Moduli (GPa) = 55.41004 61.40220 88.94484
#
# Poissons Ratio (x) = 0.34861 0.30181
# Poissons Ratio (y) = 0.31459 0.47918
# Poissons Ratio (z) = 0.18802 0.33080
#
# Static dielectric constant tensor:
#      x y z
#    x 3.164410 0.000000 0.000000 
#    y 0.000000 3.138510 0.000000 
#    z 0.000000 0.000000 3.103070 
# 
# 
# High freq. dielectric constant tensor:
#      x y z
#    x 1.644970 0.000000 0.000000 
#    y 0.000000 1.616290 0.000000 
#    z 0.000000 0.000000 1.621010 
# 
# From -- ./inp_files/16187.got.cif
#   From: 2010.03.12/outbox.cif.g09.slc.cpg/sg35_9_cif.got.tgz:16187.got - 2010.04.14 02:02:04.
