data_PCOD8172247
_publ_section_title
;
Structure prediction by ZEFSAII (Michael W. Deem and Ramdas Pophale) SiO2 
 PCOD8172247
Probable space group: C M M 2
;
_chemical_formula_sum "Si O2"
_cell_formula_units_Z 52
_cell_length_a 8.934556
_cell_length_b 25.568166
_cell_length_c 12.753037
_cell_angle_alpha 90.000000
_cell_angle_beta 90.000000
_cell_angle_gamma 90.000000
_cell_volume 2913.306462
_symmetry_space_group_name_H-M "C M M 2"
_symmetry_group_IT_number 35
_symmetry_cell_setting 'orthorhombic'
loop_
_space_group_symop_operation_xyz
x,y,z
-x,-y,z
-x,y,z
x,-y,z
1/2+x,1/2+y,z
1/2-x,1/2-y,z
1/2-x,1/2+y,z
1/2+x,1/2-y,z
loop_
_atom_site_type_symbol
_atom_site_label
_atom_site_fract_x
_atom_site_fract_y
_atom_site_fract_z
Si Si1 0.161440 0.000000 0.092901
Si Si2 0.823348 0.606983 0.543045
Si Si3 0.821489 0.195328 0.927405
Si Si4 0.322613 0.612814 0.101646
Si Si5 0.751361 0.000000 0.315480
Si Si6 0.666001 0.500000 0.545093
Si Si7 0.336069 0.112698 0.312102
Si Si8 0.322054 0.195257 0.708471
O O1 0.244578 0.055298 0.066786
O O2 0.134530 0.000000 0.218401
O O3 0.000000 0.000000 0.036153
O O4 0.750557 0.552617 0.581937
O O5 0.767443 0.626304 0.427307
O O6 0.777853 0.652004 0.623682
O O7 0.000000 0.597533 0.538655
O O8 0.750000 0.250000 0.962646
O O9 0.750486 0.177059 0.817869
O O10 0.000000 0.200425 0.916970
O O11 0.772116 0.153738 0.014548
O O12 0.500000 0.607853 0.109883
O O13 0.265662 0.632296 0.215542
O O14 0.644461 0.949831 0.310061
O O15 0.850018 0.000000 0.419944
O O16 0.500000 0.500000 0.594585
O O17 0.500000 0.138314 0.298525
O O18 0.500000 0.201744 0.721197
O O19 0.250000 0.250000 0.672265
#
# Coordination Sequence:
#
# PCOD8172247 Si02
#       8
#     4   8   8   8   4   4   8   8
#     4   8  13  25  44  65  93 126 153 184 231 280
#     4   9  19  34  50  72 105 138 165 200 250 300
#     4  10  20  35  54  74  95 123 163 208 250 293
#     4   9  18  31  48  72 101 129 158 196 242 288
#     4   8  14  24  39  65  99 129 162 198 232 271
#     4  10  18  27  47  76 102 133 171 206 239 285
#     4   9  16  27  46  70  98 132 165 195 232 284
#     4  10  20  36  57  76  95 125 166 211 255 298
#
# _framework density 17.849133999999999
#
# number of rings (size 3 to 8) (size 9 to 14) (size 15 to 20)
#    0.000    2.769    0.000    2.538    0.000    8.000 
#    0.000    1.538    0.000    4.615    0.000    0.000 
#    0.000    0.000    0.000    0.000    0.000    0.000 
#
# Total GULP energy -322128.093823 kJ/mol
# GULP energy per Si atom -12389.542070 kJ/mol
# Density = 1.780851 g / cm^3
# Si number density = 17.849134 Si / 1000 Ang^3
#
#
#
# Elastic Constant Matrix: (Units=GPa)
#
#
# Indices 1 2 3 4 5 6 
#
# 1 67.8106 40.5200 39.1314 0.0000 0.0000 0.0000
# 2 40.5200 123.2214 94.6769 0.0000 0.0000 0.0000
# 3 39.1314 94.6769 123.2358 0.0000 0.0000 0.0000
# 4 0.0000 0.0000 0.0000 38.5809 0.0000 0.0000
# 5 0.0000 0.0000 0.0000 0.0000 24.6120 0.0000
# 6 0.0000 0.0000 0.0000 0.0000 0.0000 21.2659
#
#
#
# Elastic Compliance Matrix: (Units=1/GPa)
#
#
# Indices 1 2 3 4 5 6 
#
# 1 0.018790 -0.003892 -0.002976 0.000000 0.000000 0.000000
# 2 -0.003892 0.020614 -0.014601 0.000000 0.000000 0.000000
# 3 -0.002976 -0.014601 0.020277 0.000000 0.000000 0.000000
# 4 0.000000 0.000000 0.000000 0.025920 0.000000 0.000000
# 5 0.000000 0.000000 0.000000 0.000000 0.040631 0.000000
# 6 0.000000 0.000000 0.000000 0.000000 0.000000 0.047024
#
#
# Mechanical properties :
#
#
# Convention : Reuss Voigt Hill
#
# Bulk Modulus (GPa) = 59.72910 73.65826 66.69368
# Shear Modulus (GPa) = 22.54543 26.22108 24.38325
#
# Velocity S-wave (km/s) = 3.55788 3.83696 3.70005
# Velocity P-wave (km/s) = 7.10028 7.80938 7.46326
#
# Compressibility (1/GPa) = 0.01674226
#
# Stress axis : x y z
#
# Youngs Moduli (GPa) = 53.21913 48.51089 49.31711
#
# Poissons Ratio (x) = 0.18881 0.14679
# Poissons Ratio (y) = 0.20713 0.72008
# Poissons Ratio (z) = 0.15840 0.70831
#
# Static dielectric constant tensor:
#      x y z
#    x 3.140960 0.000000 0.000000 
#    y 0.000000 3.338440 0.000000 
#    z 0.000000 0.000000 3.297490 
# 
# 
# High freq. dielectric constant tensor:
#      x y z
#    x 1.683350 0.000000 0.000000 
#    y 0.000000 1.680140 0.000000 
#    z 0.000000 0.000000 1.677950 
# 
# From -- ./inp_files/11601.got.cif
#   From: 2010.03.12/outbox.cif.g09.slc.cpg/sg35_6_cif.got.tgz:11601.got - 2010.04.14 02:02:04.
