data_PCOD8172003
_publ_section_title
;
Structure prediction by ZEFSAII (Michael W. Deem and Ramdas Pophale) SiO2 
 PCOD8172003
Probable space group: P N N 2
;
_chemical_formula_sum "Si O2"
_cell_formula_units_Z 26
_cell_length_a 17.865316
_cell_length_b 9.319619
_cell_length_c 7.620404
_cell_angle_alpha 90.000000
_cell_angle_beta 90.000000
_cell_angle_gamma 90.000000
_cell_volume 1268.781556
_symmetry_space_group_name_H-M "P N N 2"
_symmetry_group_IT_number 34
_symmetry_cell_setting 'orthorhombic'
loop_
_space_group_symop_operation_xyz
x,y,z
-x,-y,z
1/2-x,1/2+y,1/2+z
1/2+x,1/2-y,1/2+z
loop_
_atom_site_type_symbol
_atom_site_label
_atom_site_fract_x
_atom_site_fract_y
_atom_site_fract_z
Si Si1 0.536423 0.775878 0.626630
Si Si2 0.889348 0.563459 0.071896
Si Si3 0.000000 0.000000 0.906675
Si Si4 0.156867 0.800213 0.401444
Si Si5 0.304978 0.823698 0.234252
Si Si6 0.350078 0.510217 0.225903
Si Si7 0.208621 0.489193 0.404085
O O1 0.453367 0.836972 0.659986
O O2 0.532682 0.631596 0.515945
O O3 0.577819 0.734516 0.807932
O O4 0.581640 0.902551 0.526011
O O5 0.825359 0.551807 0.216075
O O6 0.859341 0.637263 0.895564
O O7 0.932221 0.945688 0.788261
O O8 0.219285 0.872797 0.275199
O O9 0.196515 0.653522 0.461847
O O10 0.140962 0.902197 0.564823
O O11 0.308132 0.657682 0.176802
O O12 0.331077 0.903822 0.059593
O O13 0.296913 0.447417 0.381774
#
# Coordination Sequence:
#
# PCOD8172003 Si02
#       7
#     4   4   2   4   4   4   4
#     4  10  23  42  65  92 137 174 212 278 341 384
#     4  10  21  45  66  96 127 173 232 268 318 409
#     4  12  24  38  60  94 132 170 204 272 342 388
#     4  10  23  42  64  96 134 169 220 274 333 395
#     4  11  22  42  68  95 126 180 216 278 326 387
#     4  11  24  41  58 100 131 163 224 269 328 409
#     4  10  23  41  68  94 125 170 225 273 320 390
#
# _framework density 20.492101000000002
#
# number of rings (size 3 to 8) (size 9 to 14) (size 15 to 20)
#    0.000    1.538    3.077    0.923    2.154    4.308 
#    0.000    1.538    0.000    0.000    0.000    0.000 
#    0.000    0.000    0.000    0.000    0.000    0.000 
#
# Total GULP energy -322281.322420 kJ/mol
# GULP energy per Si atom -12395.435478 kJ/mol
# Density = 2.044546 g / cm^3
# Si number density = 20.492101 Si / 1000 Ang^3
#
#
#
# Elastic Constant Matrix: (Units=GPa)
#
#
# Indices 1 2 3 4 5 6 
#
# 1 124.7549 30.8945 43.3082 0.0000 0.0000 0.0000
# 2 30.8945 102.5531 59.3521 0.0000 0.0000 0.0000
# 3 43.3082 59.3521 108.5681 0.0000 0.0000 0.0000
# 4 0.0000 0.0000 0.0000 31.0494 0.0000 0.0000
# 5 0.0000 0.0000 0.0000 0.0000 25.9391 0.0000
# 6 0.0000 0.0000 0.0000 0.0000 0.0000 27.6421
#
#
#
# Elastic Compliance Matrix: (Units=1/GPa)
#
#
# Indices 1 2 3 4 5 6 
#
# 1 0.009369 -0.000965 -0.003210 0.000000 0.000000 0.000000
# 2 -0.000965 0.014363 -0.007467 0.000000 0.000000 0.000000
# 3 -0.003210 -0.007467 0.014574 0.000000 0.000000 0.000000
# 4 0.000000 0.000000 0.000000 0.032207 0.000000 0.000000
# 5 0.000000 0.000000 0.000000 0.000000 0.038552 0.000000
# 6 0.000000 0.000000 0.000000 0.000000 0.000000 0.036177
#
#
# Mechanical properties :
#
#
# Convention : Reuss Voigt Hill
#
# Bulk Modulus (GPa) = 66.56963 66.99841 66.78402
# Shear Modulus (GPa) = 28.81307 30.41420 29.61363
#
# Velocity S-wave (km/s) = 3.75381 3.85670 3.80560
# Velocity P-wave (km/s) = 7.16548 7.25244 7.20909
#
# Compressibility (1/GPa) = 0.01502187
#
# Stress axis : x y z
#
# Youngs Moduli (GPa) = 106.73584 69.62163 68.61769
#
# Poissons Ratio (x) = 0.06716 0.22026
# Poissons Ratio (y) = 0.10297 0.51239
# Poissons Ratio (z) = 0.34261 0.51989
#
# Static dielectric constant tensor:
#      x y z
#    x 3.919100 0.000000 0.000000 
#    y 0.000000 3.777250 0.000000 
#    z 0.000000 0.000000 3.421340 
# 
# 
# High freq. dielectric constant tensor:
#      x y z
#    x 1.815570 0.000000 0.000000 
#    y 0.000000 1.810690 0.000000 
#    z 0.000000 0.000000 1.780680 
# 
# From -- ./inp_files/953.got.cif
#   From: 2010.03.12/outbox.cif.g09.slc.cpg/sg34_1_cif.got.tgz:953.got - 2010.04.14 01:56:33.
