data_PCOD8172418
_publ_section_title
;
Structure prediction by ZEFSAII (Michael W. Deem and Ramdas Pophale) SiO2 
 PCOD8172418
Probable space group: C M M 2
;
_chemical_formula_sum "Si O2"
_cell_formula_units_Z 64
_cell_length_a 8.722017
_cell_length_b 18.590953
_cell_length_c 20.819910
_cell_angle_alpha 90.000000
_cell_angle_beta 90.000000
_cell_angle_gamma 90.000000
_cell_volume 3375.961067
_symmetry_space_group_name_H-M "C M M 2"
_symmetry_group_IT_number 35
_symmetry_cell_setting 'orthorhombic'
loop_
_space_group_symop_operation_xyz
x,y,z
-x,-y,z
-x,y,z
x,-y,z
1/2+x,1/2+y,z
1/2-x,1/2-y,z
1/2-x,1/2+y,z
1/2+x,1/2-y,z
loop_
_atom_site_type_symbol
_atom_site_label
_atom_site_fract_x
_atom_site_fract_y
_atom_site_fract_z
Si Si1 0.327970 0.914465 0.597660
Si Si2 0.827166 0.914142 0.726558
Si Si3 0.680308 0.828381 0.355487
Si Si4 0.817713 0.829595 0.226558
Si Si5 0.824802 0.915039 0.985778
Si Si6 0.672030 0.914465 0.855455
Si Si7 0.175198 0.084961 0.467338
Si Si8 0.319692 0.171619 0.097628
O O1 0.500000 0.884554 0.590076
O O2 0.256547 0.883434 0.663323
O O3 0.226888 0.888016 0.537591
O O4 0.328455 0.000000 0.600626
O O5 0.743454 0.883434 0.789793
O O6 0.000000 0.885304 0.726557
O O7 0.823767 0.000000 0.726558
O O8 0.500000 0.820849 0.345514
O O9 0.750000 0.750000 0.368295
O O10 0.754419 0.865956 0.291867
O O11 0.715569 0.879010 0.415275
O O12 0.750000 0.750000 0.226558
O O13 0.754419 0.865956 0.161248
O O14 0.000000 0.830434 0.226558
O O15 0.773112 0.888016 0.915525
O O16 0.000000 0.891412 0.996943
O O17 0.804338 0.000000 0.991854
O O18 0.715569 0.879010 0.037840
O O19 0.500000 0.884554 0.863039
O O20 0.671544 0.000000 0.852490
O O21 0.000000 0.108588 0.456173
O O22 0.195663 0.000000 0.461261
O O23 0.500000 0.179151 0.107601
O O24 0.250000 0.250000 0.084821
#
# Coordination Sequence:
#
# PCOD8172418 Si02
#       8
#     8   8   8   8   8   8   8   8
#     4   9  16  26  41  63  92 126 163 203 247 294
#     4   9  15  23  37  59  88 123 162 203 246 291
#     4  11  21  35  55  78 103 131 167 207 248 295
#     4  10  18  32  53  76 101 128 163 205 249 293
#     4  10  20  34  51  73 103 136 168 205 252 302
#     4   9  16  26  41  63  92 126 163 203 247 294
#     4  10  20  34  51  73 103 136 168 205 252 302
#     4  11  21  35  55  78 103 131 167 207 248 295
#
# _framework density 18.957564000000001
#
# number of rings (size 3 to 8) (size 9 to 14) (size 15 to 20)
#    0.000    2.125    0.000    6.750    0.000    6.000 
#    0.000    0.625    0.000    3.750    0.000    0.875 
#    0.000    0.000    0.000    0.000    0.000    0.000 
#
# Total GULP energy -396776.194740 kJ/mol
# GULP energy per Si atom -12399.256086 kJ/mol
# Density = 1.891442 g / cm^3
# Si number density = 18.957564 Si / 1000 Ang^3
#
#
#
# Elastic Constant Matrix: (Units=GPa)
#
#
# Indices 1 2 3 4 5 6 
#
# 1 164.1360 22.6735 60.1093 0.0000 0.0000 0.0000
# 2 22.6735 17.6927 27.6984 0.0000 0.0000 0.0000
# 3 60.1093 27.6984 166.4525 0.0000 0.0000 0.0000
# 4 0.0000 0.0000 0.0000 -37.9013 0.0000 0.0000
# 5 0.0000 0.0000 0.0000 0.0000 42.8009 0.0000
# 6 0.0000 0.0000 0.0000 0.0000 0.0000 18.9513
#
#
#
# Elastic Compliance Matrix: (Units=1/GPa)
#
#
# Indices 1 2 3 4 5 6 
#
# 1 0.007683 -0.007441 -0.001536 0.000000 0.000000 0.000000
# 2 -0.007441 0.083638 -0.011231 0.000000 0.000000 0.000000
# 3 -0.001536 -0.011231 0.008431 0.000000 0.000000 0.000000
# 4 0.000000 0.000000 0.000000 -0.026384 0.000000 0.000000
# 5 0.000000 0.000000 0.000000 0.000000 0.023364 0.000000
# 6 0.000000 0.000000 0.000000 0.000000 0.000000 0.052767
#
#
# Mechanical properties :
#
#
# Convention : Reuss Voigt Hill
#
# Bulk Modulus (GPa) = 16.85298 63.24930 40.05114
# Shear Modulus (GPa) = 23.84438 20.62352 22.23395
#
# Velocity S-wave (km/s) = 3.55036 3.30188 3.42837
# Velocity P-wave (km/s) = 5.07109 6.92622 6.06995
#
# Compressibility (1/GPa) = 0.05933668
#
# Stress axis : x y z
#
# Youngs Moduli (GPa) = 130.15778 11.95632 118.60517
#
# Poissons Ratio (x) = 0.08896 0.18221
# Poissons Ratio (y) = 0.96847 1.33201
# Poissons Ratio (z) = 0.19996 0.13428
#
# Static dielectric constant tensor:
#      x y z
#    x 3.660880 0.000000 0.000000 
#    y 0.000000 2.808140 0.000000 
#    z 0.000000 0.000000 4.022310 
# 
# 
# High freq. dielectric constant tensor:
#      x y z
#    x 1.758850 0.000000 0.000000 
#    y 0.000000 1.661730 0.000000 
#    z 0.000000 0.000000 1.762000 
# 
# From -- ./inp_files/18357.got.cif
#   From: 2010.03.12/outbox.cif.g09.slc.cpg/sg35_10_cif.got.tgz:18357.got - 2010.04.14 02:02:04.
