data_PCOD8172711
_publ_section_title
;
Structure prediction by ZEFSAII (Michael W. Deem and Ramdas Pophale) SiO2 
 PCOD8172711
Probable space group: C M M 2
;
_chemical_formula_sum "Si O2"
_cell_formula_units_Z 64
_cell_length_a 9.115247
_cell_length_b 18.866675
_cell_length_c 20.491151
_cell_angle_alpha 90.000000
_cell_angle_beta 90.000000
_cell_angle_gamma 90.000000
_cell_volume 3523.953454
_symmetry_space_group_name_H-M "C M M 2"
_symmetry_group_IT_number 35
_symmetry_cell_setting 'orthorhombic'
loop_
_space_group_symop_operation_xyz
x,y,z
-x,-y,z
-x,y,z
x,-y,z
1/2+x,1/2+y,z
1/2-x,1/2-y,z
1/2-x,1/2+y,z
1/2+x,1/2-y,z
loop_
_atom_site_type_symbol
_atom_site_label
_atom_site_fract_x
_atom_site_fract_y
_atom_site_fract_z
Si Si1 0.167759 0.822343 0.610800
Si Si2 0.669892 0.918456 0.218390
Si Si3 0.827055 0.174751 0.114103
Si Si4 0.169723 0.918512 0.990027
Si Si5 0.834779 0.582543 0.368418
Si Si6 0.328919 0.324888 0.469905
Si Si7 0.168576 0.583371 0.859635
Si Si8 0.172859 0.825963 0.752371
O O1 0.250000 0.750000 0.610738
O O2 0.204817 0.861163 0.541745
O O3 0.203361 0.860851 0.679910
O O4 0.000000 0.800677 0.610783
O O5 0.500000 0.905569 0.200668
O O6 0.772213 0.866941 0.177290
O O7 0.699968 0.899357 0.293522
O O8 0.712329 0.000000 0.204266
O O9 0.750000 0.250000 0.108689
O O10 0.000000 0.185996 0.120180
O O11 0.784024 0.129338 0.050835
O O12 0.267026 0.893032 0.929258
O O13 0.000000 0.908301 0.971377
O O14 0.203201 0.000000 0.008351
O O15 0.814711 0.500000 0.381144
O O16 0.721971 0.622452 0.414191
O O17 0.000000 0.606244 0.385580
O O18 0.500000 0.311331 0.460399
O O19 0.250000 0.250000 0.462484
O O20 0.186527 0.500000 0.850066
O O21 0.260331 0.619834 0.803177
O O22 0.000000 0.607501 0.856180
O O23 0.250000 0.750000 0.759643
O O24 0.000000 0.816755 0.765617
#
# Coordination Sequence:
#
# PCOD8172711 Si02
#       8
#     8   8   8   8   8   8   8   8
#     4   8  16  30  48  72 100 132 171 212 256 307
#     4   9  19  37  59  79 102 136 175 213 256 309
#     4  11  23  37  55  81 111 139 170 212 257 302
#     4   9  19  37  58  77 100 135 176 214 256 307
#     4   9  19  36  55  76 104 137 173 213 258 308
#     4  10  19  32  52  77 104 135 173 216 260 308
#     4  10  21  36  54  78 107 138 174 214 254 302
#     4  10  19  33  54  77 103 136 173 215 262 310
#
# _framework density 18.161421000000001
#
# number of rings (size 3 to 8) (size 9 to 14) (size 15 to 20)
#    0.000    2.500    0.000    2.625    0.000    5.250 
#    0.000    4.375    0.000    3.750    0.000    0.000 
#    0.000    0.000    0.000    0.000    0.000    0.000 
#
# Total GULP energy -396620.426938 kJ/mol
# GULP energy per Si atom -12394.388342 kJ/mol
# Density = 1.812008 g / cm^3
# Si number density = 18.161421 Si / 1000 Ang^3
#
#
#
# Elastic Constant Matrix: (Units=GPa)
#
#
# Indices 1 2 3 4 5 6 
#
# 1 99.1892 48.7975 76.4169 0.0000 0.0000 0.0000
# 2 48.7975 70.3822 69.8782 0.0000 0.0000 0.0000
# 3 76.4169 69.8782 148.6144 0.0000 0.0000 0.0000
# 4 0.0000 0.0000 0.0000 30.8420 0.0000 0.0000
# 5 0.0000 0.0000 0.0000 0.0000 30.7474 0.0000
# 6 0.0000 0.0000 0.0000 0.0000 0.0000 27.5410
#
#
#
# Elastic Compliance Matrix: (Units=1/GPa)
#
#
# Indices 1 2 3 4 5 6 
#
# 1 0.018023 -0.006180 -0.006362 0.000000 0.000000 0.000000
# 2 -0.006180 0.028767 -0.010349 0.000000 0.000000 0.000000
# 3 -0.006362 -0.010349 0.014866 0.000000 0.000000 0.000000
# 4 0.000000 0.000000 0.000000 0.032423 0.000000 0.000000
# 5 0.000000 0.000000 0.000000 0.000000 0.032523 0.000000
# 6 0.000000 0.000000 0.000000 0.000000 0.000000 0.036310
#
#
# Mechanical properties :
#
#
# Convention : Reuss Voigt Hill
#
# Bulk Modulus (GPa) = 62.98792 78.70789 70.84790
# Shear Modulus (GPa) = 23.36615 26.03227 24.69921
#
# Velocity S-wave (km/s) = 3.59079 3.79011 3.69179
# Velocity P-wave (km/s) = 7.20758 7.91109 7.56751
#
# Compressibility (1/GPa) = 0.01587606
#
# Stress axis : x y z
#
# Youngs Moduli (GPa) = 55.48440 34.76165 67.26756
#
# Poissons Ratio (x) = 0.21481 0.42794
# Poissons Ratio (y) = 0.34287 0.69614
# Poissons Ratio (z) = 0.35298 0.35974
#
# Static dielectric constant tensor:
#      x y z
#    x 3.409260 0.000000 0.000000 
#    y 0.000000 3.083240 0.000000 
#    z 0.000000 0.000000 3.772620 
# 
# 
# High freq. dielectric constant tensor:
#      x y z
#    x 1.713010 0.000000 0.000000 
#    y 0.000000 1.679290 0.000000 
#    z 0.000000 0.000000 1.722550 
# 
# From -- ./inp_files/18392.got.cif
#   From: 2010.03.12/outbox.cif.g09.slc.cpg/sg35_10_cif.got.tgz:18392.got - 2010.04.14 02:02:04.
