data_PCOD8172945
_publ_section_title
;
Structure prediction by ZEFSAII (Michael W. Deem and Ramdas Pophale) SiO2 
 PCOD8172945
Probable space group: C M M 2
;
_chemical_formula_sum "Si O2"
_cell_formula_units_Z 56
_cell_length_a 17.352446
_cell_length_b 23.585908
_cell_length_c 6.754183
_cell_angle_alpha 90.000000
_cell_angle_beta 90.000000
_cell_angle_gamma 90.000000
_cell_volume 2764.306056
_symmetry_space_group_name_H-M "C M M 2"
_symmetry_group_IT_number 35
_symmetry_cell_setting 'orthorhombic'
loop_
_space_group_symop_operation_xyz
x,y,z
-x,-y,z
-x,y,z
x,-y,z
1/2+x,1/2+y,z
1/2-x,1/2-y,z
1/2-x,1/2+y,z
1/2+x,1/2-y,z
loop_
_atom_site_type_symbol
_atom_site_label
_atom_site_fract_x
_atom_site_fract_y
_atom_site_fract_z
Si Si1 0.191359 0.062579 0.935310
Si Si2 0.084911 0.936313 0.575217
Si Si3 0.321688 0.859200 0.395384
Si Si4 0.660185 0.239124 0.103656
Si Si5 0.651546 0.644191 0.279415
Si Si6 0.639491 0.936251 0.052332
Si Si7 0.413040 0.839221 0.794210
O O1 0.153060 0.077151 0.726621
O O2 0.164980 0.000000 0.006212
O O3 0.164055 0.109505 0.082862
O O4 0.283435 0.065053 0.918302
O O5 0.087479 0.888613 0.405440
O O6 0.000000 0.932044 0.674440
O O7 0.096952 0.000000 0.487936
O O8 0.354956 0.808194 0.266599
O O9 0.229412 0.851816 0.410510
O O10 0.342634 0.917609 0.279651
O O11 0.359819 0.856864 0.610085
O O12 0.750000 0.250000 0.057193
O O13 0.621840 0.295053 0.200293
O O14 0.620445 0.217541 0.900277
O O15 0.604731 0.000000 0.058090
O O16 0.582408 0.892243 0.946291
O O17 0.500000 0.826382 0.722854
#
# Coordination Sequence:
#
# PCOD8172945 Si02
#       7
#     8   8   8   8   8   8   8
#     4   9  18  34  56  81 110 145 186 233 281 328
#     4  10  21  34  50  79 117 151 184 230 288 340
#     4   9  20  37  57  83 113 146 183 229 279 326
#     4   9  21  39  59  82 109 145 190 233 271 321
#     4  10  19  35  59  82 105 144 195 236 271 323
#     4   9  19  37  60  84 110 145 191 233 268 323
#     4  11  23  38  58  85 118 150 178 222 285 337
#
# _framework density 20.258248999999999
#
# number of rings (size 3 to 8) (size 9 to 14) (size 15 to 20)
#    0.000    2.429    0.000    2.143    0.000    7.714 
#    0.000    2.857    0.000    0.000    0.000    0.000 
#    0.000    0.000    0.000    0.000    0.000    0.000 
#
# Total GULP energy -347038.640120 kJ/mol
# GULP energy per Si atom -12394.237147 kJ/mol
# Density = 2.021214 g / cm^3
# Si number density = 20.258249 Si / 1000 Ang^3
#
#
#
# Elastic Constant Matrix: (Units=GPa)
#
#
# Indices 1 2 3 4 5 6 
#
# 1 63.2774 33.9376 38.6961 0.0000 0.0000 0.0000
# 2 33.9376 123.6276 42.9607 0.0000 0.0000 0.0000
# 3 38.6961 42.9607 82.6633 0.0000 0.0000 0.0000
# 4 0.0000 0.0000 0.0000 34.4260 0.0000 0.0000
# 5 0.0000 0.0000 0.0000 0.0000 13.8306 0.0000
# 6 0.0000 0.0000 0.0000 0.0000 0.0000 21.2786
#
#
#
# Elastic Compliance Matrix: (Units=1/GPa)
#
#
# Indices 1 2 3 4 5 6 
#
# 1 0.023108 -0.003154 -0.009178 0.000000 0.000000 0.000000
# 2 -0.003154 0.010302 -0.003878 0.000000 0.000000 0.000000
# 3 -0.009178 -0.003878 0.018409 0.000000 0.000000 0.000000
# 4 0.000000 0.000000 0.000000 0.029048 0.000000 0.000000
# 5 0.000000 0.000000 0.000000 0.000000 0.072303 0.000000
# 6 0.000000 0.000000 0.000000 0.000000 0.000000 0.046995
#
#
# Mechanical properties :
#
#
# Convention : Reuss Voigt Hill
#
# Bulk Modulus (GPa) = 51.54792 55.63971 53.59381
# Shear Modulus (GPa) = 20.91606 24.17198 22.54402
#
# Velocity S-wave (km/s) = 3.21669 3.45801 3.33953
# Velocity P-wave (km/s) = 6.26872 6.59307 6.43294
#
# Compressibility (1/GPa) = 0.01939942
#
# Stress axis : x y z
#
# Youngs Moduli (GPa) = 43.27583 97.06738 54.32184
#
# Poissons Ratio (x) = 0.30616 0.49856
# Poissons Ratio (y) = 0.13649 0.21064
# Poissons Ratio (z) = 0.39718 0.37639
#
# Static dielectric constant tensor:
#      x y z
#    x 3.516130 0.000000 0.000000 
#    y 0.000000 3.822680 0.000000 
#    z 0.000000 0.000000 3.428020 
# 
# 
# High freq. dielectric constant tensor:
#      x y z
#    x 1.771500 0.000000 0.000000 
#    y 0.000000 1.802080 0.000000 
#    z 0.000000 0.000000 1.776690 
# 
# From -- ./inp_files/3083.got.cif
#   From: 2010.03.12/outbox.cif.g09.slc.cpg/sg35_2_cif.got.tgz:3083.got - 2010.04.14 02:02:04.
