data_PCOD8172295
_publ_section_title
;
Structure prediction by ZEFSAII (Michael W. Deem and Ramdas Pophale) SiO2 
 PCOD8172295
Probable space group: C M M 2
;
_chemical_formula_sum "Si O2"
_cell_formula_units_Z 40
_cell_length_a 19.613529
_cell_length_b 8.887230
_cell_length_c 12.920287
_cell_angle_alpha 90.000000
_cell_angle_beta 90.000000
_cell_angle_gamma 90.000000
_cell_volume 2252.134495
_symmetry_space_group_name_H-M "C M M 2"
_symmetry_group_IT_number 35
_symmetry_cell_setting 'orthorhombic'
loop_
_space_group_symop_operation_xyz
x,y,z
-x,-y,z
-x,y,z
x,-y,z
1/2+x,1/2+y,z
1/2-x,1/2-y,z
1/2-x,1/2+y,z
1/2+x,1/2-y,z
loop_
_atom_site_type_symbol
_atom_site_label
_atom_site_fract_x
_atom_site_fract_y
_atom_site_fract_z
Si Si1 0.177050 0.174482 0.693850
Si Si2 0.079427 0.326515 0.854534
Si Si3 0.323245 0.323979 0.465679
Si Si4 0.075387 0.678589 0.086283
Si Si5 0.824571 0.320700 0.263916
O O1 0.250000 0.250000 0.710641
O O2 0.122552 0.228646 0.776042
O O3 0.144499 0.205026 0.579194
O O4 0.190390 0.000000 0.709797
O O5 0.099378 0.500000 0.839745
O O6 0.000000 0.301037 0.831414
O O7 0.097151 0.271292 0.970821
O O8 0.317917 0.500000 0.440098
O O9 0.250000 0.250000 0.470435
O O10 0.360864 0.239963 0.370008
O O11 0.072007 0.500000 0.089490
O O12 0.129751 0.739270 0.168949
O O13 0.000000 0.742829 0.112680
O O14 0.819728 0.500000 0.266712
O O15 0.750000 0.250000 0.250229
#
# Coordination Sequence:
#
# PCOD8172295 Si02
#       5
#     8   8   8   8   8
#     4  10  20  33  51  74 100 129 163 204 245 288
#     4   9  18  34  54  73  97 130 165 201 243 291
#     4   9  17  30  47  68  96 127 157 193 238 284
#     4   8  16  32  51  70  94 126 161 196 236 280
#     4  10  18  29  49  73  97 124 156 196 236 281
#
# _framework density 17.760928
#
# number of rings (size 3 to 8) (size 9 to 14) (size 15 to 20)
#    0.000    2.800    0.000    4.200    0.000    3.600 
#    0.000    5.000    0.000    8.400    0.000    0.000 
#    0.000    0.000    0.000    0.000    0.000    0.000 
#
# Total GULP energy -247828.932921 kJ/mol
# GULP energy per Si atom -12391.446646 kJ/mol
# Density = 1.772050 g / cm^3
# Si number density = 17.760928 Si / 1000 Ang^3
#
#
#
# Elastic Constant Matrix: (Units=GPa)
#
#
# Indices 1 2 3 4 5 6 
#
# 1 69.6561 36.9484 78.1024 0.0000 0.0000 0.0000
# 2 36.9484 78.8561 60.0676 0.0000 0.0000 0.0000
# 3 78.1024 60.0676 176.4717 0.0000 0.0000 0.0000
# 4 0.0000 0.0000 0.0000 29.5854 0.0000 0.0000
# 5 0.0000 0.0000 0.0000 0.0000 0.9586 0.0000
# 6 0.0000 0.0000 0.0000 0.0000 0.0000 23.0125
#
#
#
# Elastic Compliance Matrix: (Units=1/GPa)
#
#
# Indices 1 2 3 4 5 6 
#
# 1 0.030074 -0.005336 -0.011494 0.000000 0.000000 0.000000
# 2 -0.005336 0.018067 -0.003788 0.000000 0.000000 0.000000
# 3 -0.011494 -0.003788 0.012043 0.000000 0.000000 0.000000
# 4 0.000000 0.000000 0.000000 0.033800 0.000000 0.000000
# 5 0.000000 0.000000 0.000000 0.000000 1.043240 0.000000
# 6 0.000000 0.000000 0.000000 0.000000 0.000000 0.043455
#
#
# Mechanical properties :
#
#
# Convention : Reuss Voigt Hill
#
# Bulk Modulus (GPa) = 52.77539 75.02454 63.89996
# Shear Modulus (GPa) = 4.07089 20.70233 12.38661
#
# Velocity S-wave (km/s) = 1.51559 3.41781 2.64371
# Velocity P-wave (km/s) = 5.73075 7.60975 6.73609
#
# Compressibility (1/GPa) = 0.01894823
#
# Stress axis : x y z
#
# Youngs Moduli (GPa) = 33.25082 55.34923 83.03595
#
# Poissons Ratio (x) = 0.29535 0.95441
# Poissons Ratio (y) = 0.17743 0.31454
# Poissons Ratio (z) = 0.38218 0.20966
#
# Static dielectric constant tensor:
#      x y z
#    x 3.130370 0.000000 0.000000 
#    y 0.000000 3.178290 0.000000 
#    z 0.000000 0.000000 4.152330 
# 
# 
# High freq. dielectric constant tensor:
#      x y z
#    x 1.655750 0.000000 0.000000 
#    y 0.000000 1.679120 0.000000 
#    z 0.000000 0.000000 1.708270 
# 
# From -- ./inp_files/11165.got.cif
#   From: 2010.03.12/outbox.cif.g09.slc.cpg/sg35_6_cif.got.tgz:11165.got - 2010.04.14 02:02:04.
