data_PCOD8172380
_publ_section_title
;
Structure prediction by ZEFSAII (Michael W. Deem and Ramdas Pophale) SiO2 
 PCOD8172380
Probable space group: C M M 2
;
_chemical_formula_sum "Si O2"
_cell_formula_units_Z 64
_cell_length_a 8.829601
_cell_length_b 29.173200
_cell_length_c 12.563778
_cell_angle_alpha 90.000000
_cell_angle_beta 90.000000
_cell_angle_gamma 90.000000
_cell_volume 3236.274878
_symmetry_space_group_name_H-M "C M M 2"
_symmetry_group_IT_number 35
_symmetry_cell_setting 'orthorhombic'
loop_
_space_group_symop_operation_xyz
x,y,z
-x,-y,z
-x,y,z
x,-y,z
1/2+x,1/2+y,z
1/2-x,1/2-y,z
1/2-x,1/2+y,z
1/2+x,1/2-y,z
loop_
_atom_site_type_symbol
_atom_site_label
_atom_site_fract_x
_atom_site_fract_y
_atom_site_fract_z
Si Si1 0.331887 0.932005 0.597300
Si Si2 0.167316 0.669985 0.661841
Si Si3 0.680267 0.300750 0.077117
Si Si4 0.824271 0.051178 0.815103
Si Si5 0.327311 0.449762 0.377459
Si Si6 0.320527 0.204937 0.450374
Si Si7 0.824206 0.856720 0.283921
Si Si8 0.681866 0.858016 0.885834
O O1 0.500000 0.952754 0.612634
O O2 0.340570 0.877726 0.600244
O O3 0.227037 0.950069 0.692457
O O4 0.271872 0.947157 0.483141
O O5 0.244553 0.702379 0.572640
O O6 0.247762 0.664942 0.776311
O O7 0.000000 0.688712 0.686334
O O8 0.500000 0.296412 0.067295
O O9 0.750000 0.250000 0.087106
O O10 0.731485 0.332282 0.176226
O O11 0.746129 0.327473 0.976836
O O12 0.734151 0.088748 0.886329
O O13 0.000000 0.064488 0.819566
O O14 0.797177 0.000000 0.862951
O O15 0.500000 0.442887 0.414493
O O16 0.302303 0.500000 0.324918
O O17 0.289372 0.411452 0.286963
O O18 0.500000 0.207343 0.449752
O O19 0.250000 0.250000 0.396238
O O20 0.268598 0.161773 0.383325
O O21 0.000000 0.845849 0.300393
O O22 0.500000 0.857290 0.891504
#
# Coordination Sequence:
#
# PCOD8172380 Si02
#       8
#     8   8   8   8   8   8   8   8
#     4  10  18  31  51  79 116 159 201 241 285 338
#     4   8  17  33  52  78 114 151 184 228 283 342
#     4  11  24  43  65  88 113 147 197 250 301 358
#     4  10  20  34  54  84 122 163 204 242 286 344
#     4  10  20  34  54  82 116 153 194 240 291 349
#     4  11  21  35  55  82 115 149 187 232 290 354
#     4  10  22  40  60  84 115 152 196 243 293 349
#     4  10  21  39  62  88 119 152 195 247 300 353
#
# _framework density 19.775824
#
# number of rings (size 3 to 8) (size 9 to 14) (size 15 to 20)
#    0.000    2.000    1.250    3.375    0.000    5.250 
#    0.000    3.750    0.000    2.250    0.000    0.000 
#    0.000    0.000    0.000    0.000    0.000    0.000 
#
# Total GULP energy -396506.480584 kJ/mol
# GULP energy per Si atom -12390.827518 kJ/mol
# Density = 1.973081 g / cm^3
# Si number density = 19.775824 Si / 1000 Ang^3
#
#
#
# Elastic Constant Matrix: (Units=GPa)
#
#
# Indices 1 2 3 4 5 6 
#
# 1 74.8659 43.8601 40.5129 0.0000 0.0000 0.0000
# 2 43.8601 140.3238 71.6762 0.0000 0.0000 0.0000
# 3 40.5129 71.6762 117.7140 0.0000 0.0000 0.0000
# 4 0.0000 0.0000 0.0000 22.9503 0.0000 0.0000
# 5 0.0000 0.0000 0.0000 0.0000 25.0183 0.0000
# 6 0.0000 0.0000 0.0000 0.0000 0.0000 25.8218
#
#
#
# Elastic Compliance Matrix: (Units=1/GPa)
#
#
# Indices 1 2 3 4 5 6 
#
# 1 0.017509 -0.003476 -0.003910 0.000000 0.000000 0.000000
# 2 -0.003476 0.011033 -0.005522 0.000000 0.000000 0.000000
# 3 -0.003910 -0.005522 0.013203 0.000000 0.000000 0.000000
# 4 0.000000 0.000000 0.000000 0.043572 0.000000 0.000000
# 5 0.000000 0.000000 0.000000 0.000000 0.039971 0.000000
# 6 0.000000 0.000000 0.000000 0.000000 0.000000 0.038727
#
#
# Mechanical properties :
#
#
# Convention : Reuss Voigt Hill
#
# Bulk Modulus (GPa) = 62.77134 71.66691 67.21912
# Shear Modulus (GPa) = 25.62254 26.54838 26.08546
#
# Velocity S-wave (km/s) = 3.60342 3.66794 3.63582
# Velocity P-wave (km/s) = 7.00879 7.36592 7.18957
#
# Compressibility (1/GPa) = 0.01593084
#
# Stress axis : x y z
#
# Youngs Moduli (GPa) = 57.11308 90.63438 75.73990
#
# Poissons Ratio (x) = 0.31502 0.29612
# Poissons Ratio (y) = 0.19851 0.41824
# Poissons Ratio (z) = 0.22329 0.50048
#
# Static dielectric constant tensor:
#      x y z
#    x 3.563240 0.000000 0.000000 
#    y 0.000000 3.899220 0.000000 
#    z 0.000000 0.000000 3.497800 
# 
# 
# High freq. dielectric constant tensor:
#      x y z
#    x 1.765450 0.000000 0.000000 
#    y 0.000000 1.784660 0.000000 
#    z 0.000000 0.000000 1.750330 
# 
# From -- ./inp_files/11945.got.cif
#   From: 2010.03.12/outbox.cif.g09.slc.cpg/sg35_6_cif.got.tgz:11945.got - 2010.04.14 02:02:04.
