data_PCOD8172511
_publ_section_title
;
Structure prediction by ZEFSAII (Michael W. Deem and Ramdas Pophale) SiO2 
 PCOD8172511
Probable space group: C M M 2
;
_chemical_formula_sum "Si O2"
_cell_formula_units_Z 48
_cell_length_a 27.110390
_cell_length_b 8.985190
_cell_length_c 12.953380
_cell_angle_alpha 90.000000
_cell_angle_beta 90.000000
_cell_angle_gamma 90.000000
_cell_volume 3155.339807
_symmetry_space_group_name_H-M "C M M 2"
_symmetry_group_IT_number 35
_symmetry_cell_setting 'orthorhombic'
loop_
_space_group_symop_operation_xyz
x,y,z
-x,-y,z
-x,y,z
x,-y,z
1/2+x,1/2+y,z
1/2-x,1/2-y,z
1/2-x,1/2+y,z
1/2+x,1/2-y,z
loop_
_atom_site_type_symbol
_atom_site_label
_atom_site_fract_x
_atom_site_fract_y
_atom_site_fract_z
Si Si1 0.941583 0.830572 0.743950
Si Si2 0.105986 0.832047 0.128488
Si Si3 0.441505 0.164729 0.543401
Si Si4 0.199395 0.168254 0.013044
Si Si5 0.056227 0.675584 0.314565
Si Si6 0.387785 0.823720 0.928018
O O1 0.923084 0.779027 0.630708
O O2 0.917123 0.723841 0.827179
O O3 0.000000 0.813585 0.753344
O O4 0.924671 0.000000 0.761551
O O5 0.165874 0.831770 0.117411
O O6 0.091962 0.757219 0.235508
O O7 0.085138 0.000000 0.124422
O O8 0.083994 0.740631 0.030044
O O9 0.500000 0.153519 0.543158
O O10 0.425291 0.220172 0.429539
O O11 0.419720 0.000000 0.566204
O O12 0.250000 0.250000 0.037618
O O13 0.209797 0.000000 0.975494
O O14 0.167935 0.255368 0.924550
O O15 0.060445 0.500000 0.298892
O O16 0.000000 0.728130 0.295820
O O17 0.385224 0.000000 0.934513
#
# Coordination Sequence:
#
# PCOD8172511 Si02
#       6
#     8   8   8   8   8   8
#     4  10  19  30  44  64  92 123 155 191 226 264
#     4   9  19  31  44  66  93 117 149 186 223 272
#     4   8  15  28  44  62  85 117 157 192 221 259
#     4   9  18  32  49  69  91 115 145 183 225 271
#     4   9  17  29  45  65  91 123 157 189 220 262
#     4  10  19  31  47  66  90 119 152 186 225 272
#
# _framework density 15.212306999999999
#
# number of rings (size 3 to 8) (size 9 to 14) (size 15 to 20)
#    1.000    1.833    0.000    3.500    0.000    2.667 
#    0.000    1.667    0.000    0.000    0.000    1.167 
#    0.000    5.333    0.000    0.000    0.000    0.000 
#
# Total GULP energy -297369.832808 kJ/mol
# GULP energy per Si atom -12390.409700 kJ/mol
# Density = 1.517768 g / cm^3
# Si number density = 15.212307 Si / 1000 Ang^3
#
#
#
# Elastic Constant Matrix: (Units=GPa)
#
#
# Indices 1 2 3 4 5 6 
#
# 1 42.0115 33.3148 32.5521 0.0000 0.0000 0.0000
# 2 33.3148 114.7779 57.4394 0.0000 0.0000 0.0000
# 3 32.5521 57.4394 109.6845 0.0000 0.0000 0.0000
# 4 0.0000 0.0000 0.0000 28.3490 0.0000 0.0000
# 5 0.0000 0.0000 0.0000 0.0000 -0.2563 0.0000
# 6 0.0000 0.0000 0.0000 0.0000 0.0000 21.5065
#
#
#
# Elastic Compliance Matrix: (Units=1/GPa)
#
#
# Indices 1 2 3 4 5 6 
#
# 1 0.034216 -0.006572 -0.006713 0.000000 0.000000 0.000000
# 2 -0.006572 0.013069 -0.004894 0.000000 0.000000 0.000000
# 3 -0.006713 -0.004894 0.013672 0.000000 0.000000 0.000000
# 4 0.000000 0.000000 0.000000 0.035275 0.000000 0.000000
# 5 0.000000 0.000000 0.000000 0.000000 -3.901541 0.000000
# 6 0.000000 0.000000 0.000000 0.000000 0.000000 0.046497
#
#
# Mechanical properties :
#
#
# Convention : Reuss Voigt Hill
#
# Bulk Modulus (GPa) = 40.65040 57.00959 48.82999
# Shear Modulus (GPa) = -1.34616 19.46436 9.05910
#
# Velocity S-wave (km/s) = -0.94172 3.58091 2.44296
# Velocity P-wave (km/s) = 5.05941 7.39287 6.33451
#
# Compressibility (1/GPa) = 0.02460001
#
# Stress axis : x y z
#
# Youngs Moduli (GPa) = 29.22612 76.51756 73.14234
#
# Poissons Ratio (x) = 0.50286 0.49101
# Poissons Ratio (y) = 0.19207 0.35792
# Poissons Ratio (z) = 0.19620 0.37444
#
# Static dielectric constant tensor:
#      x y z
#    x 2.561730 0.000000 0.000000 
#    y 0.000000 3.062880 0.000000 
#    z 0.000000 0.000000 2.951440 
# 
# 
# High freq. dielectric constant tensor:
#      x y z
#    x 1.538200 0.000000 0.000000 
#    y 0.000000 1.598590 0.000000 
#    z 0.000000 0.000000 1.575620 
# 
# From -- ./inp_files/14074.got.cif
#   From: 2010.03.12/outbox.cif.g09.slc.cpg/sg35_8_cif.got.tgz:14074.got - 2010.04.14 02:02:04.
