data_PCOD8172249
_publ_section_title
;
Structure prediction by ZEFSAII (Michael W. Deem and Ramdas Pophale) SiO2 
 PCOD8172249
Probable space group: C M M 2
;
_chemical_formula_sum "Si O2"
_cell_formula_units_Z 64
_cell_length_a 17.814123
_cell_length_b 15.692533
_cell_length_c 14.049102
_cell_angle_alpha 90.000000
_cell_angle_beta 90.000000
_cell_angle_gamma 90.000000
_cell_volume 3927.408384
_symmetry_space_group_name_H-M "C M M 2"
_symmetry_group_IT_number 35
_symmetry_cell_setting 'orthorhombic'
loop_
_space_group_symop_operation_xyz
x,y,z
-x,-y,z
-x,y,z
x,-y,z
1/2+x,1/2+y,z
1/2-x,1/2-y,z
1/2-x,1/2+y,z
1/2+x,1/2-y,z
loop_
_atom_site_type_symbol
_atom_site_label
_atom_site_fract_x
_atom_site_fract_y
_atom_site_fract_z
Si Si1 0.310026 0.095975 0.022280
Si Si2 0.915109 0.696612 0.258631
Si Si3 0.584956 0.399299 0.533404
Si Si4 0.585619 0.748372 0.048506
Si Si5 0.682295 0.695279 0.384821
Si Si6 0.416926 0.600791 0.743840
Si Si7 0.225801 0.404790 0.231924
Si Si8 0.158471 0.098579 0.933589
O O1 0.372921 0.167608 0.006996
O O2 0.262416 0.110069 0.119540
O O3 0.345648 0.000000 0.021861
O O4 0.248466 0.105367 0.939409
O O5 0.908287 0.753136 0.162876
O O6 0.888643 0.750417 0.349555
O O7 0.861831 0.614327 0.252412
O O8 0.000000 0.665252 0.274920
O O9 0.500000 0.368865 0.506740
O O10 0.587258 0.500000 0.530122
O O11 0.649410 0.368342 0.462215
O O12 0.606348 0.364740 0.639200
O O13 0.500000 0.755672 0.014723
O O14 0.619383 0.660172 0.010098
O O15 0.750000 0.750000 0.432231
O O16 0.717285 0.653010 0.290522
O O17 0.500000 0.634561 0.769717
O O18 0.417803 0.500000 0.737782
O O19 0.361316 0.631038 0.827236
O O20 0.243062 0.500000 0.263848
O O21 0.132165 0.000000 0.951334
#
# Coordination Sequence:
#
# PCOD8172249 Si02
#       8
#     8   8   8   8   8   8   8   8
#     4   9  18  31  46  65  88 117 152 184 217 255
#     4   9  18  30  43  61  86 116 147 178 211 248
#     4   9  17  30  48  66  84 109 141 177 214 253
#     4  10  19  30  45  65  90 119 150 183 217 256
#     4  10  18  28  43  63  90 116 137 169 214 261
#     4   8  15  28  45  65  87 111 141 176 213 253
#     4   9  17  29  45  63  84 113 147 180 211 247
#     4  10  18  29  47  67  89 116 144 178 220 265
#
# _framework density 16.295733999999999
#
# number of rings (size 3 to 8) (size 9 to 14) (size 15 to 20)
#    0.000    2.750    0.000    3.000    0.000    3.250 
#    0.000    4.375    0.000    1.500    0.000    0.000 
#    0.000    0.000    0.000   14.625    0.000    0.500 
#
# Total GULP energy -396562.298592 kJ/mol
# GULP energy per Si atom -12392.571831 kJ/mol
# Density = 1.625864 g / cm^3
# Si number density = 16.295734 Si / 1000 Ang^3
#
#
#
# Elastic Constant Matrix: (Units=GPa)
#
#
# Indices 1 2 3 4 5 6 
#
# 1 85.0225 24.3231 31.8113 0.0000 0.0000 0.0000
# 2 24.3231 56.2953 15.4626 0.0000 0.0000 0.0000
# 3 31.8113 15.4626 55.5289 0.0000 0.0000 0.0000
# 4 0.0000 0.0000 0.0000 16.5322 0.0000 0.0000
# 5 0.0000 0.0000 0.0000 0.0000 23.4578 0.0000
# 6 0.0000 0.0000 0.0000 0.0000 0.0000 23.1468
#
#
#
# Elastic Compliance Matrix: (Units=1/GPa)
#
#
# Indices 1 2 3 4 5 6 
#
# 1 0.016078 -0.004782 -0.007879 0.000000 0.000000 0.000000
# 2 -0.004782 0.020657 -0.003012 0.000000 0.000000 0.000000
# 3 -0.007879 -0.003012 0.023361 0.000000 0.000000 0.000000
# 4 0.000000 0.000000 0.000000 0.060488 0.000000 0.000000
# 5 0.000000 0.000000 0.000000 0.000000 0.042630 0.000000
# 6 0.000000 0.000000 0.000000 0.000000 0.000000 0.043203
#
#
# Mechanical properties :
#
#
# Convention : Reuss Voigt Hill
#
# Bulk Modulus (GPa) = 34.78441 37.78231 36.28336
# Shear Modulus (GPa) = 20.21454 20.97732 20.59593
#
# Velocity S-wave (km/s) = 3.52587 3.59177 3.55897
# Velocity P-wave (km/s) = 6.16179 6.35900 6.26117
#
# Compressibility (1/GPa) = 0.02874851
#
# Stress axis : x y z
#
# Youngs Moduli (GPa) = 62.19822 48.40917 42.80620
#
# Poissons Ratio (x) = 0.23152 0.33726
# Poissons Ratio (y) = 0.29746 0.12895
# Poissons Ratio (z) = 0.49005 0.14583
#
# Static dielectric constant tensor:
#      x y z
#    x 3.102510 0.000000 0.000000 
#    y 0.000000 2.954890 0.000000 
#    z 0.000000 0.000000 3.114140 
# 
# 
# High freq. dielectric constant tensor:
#      x y z
#    x 1.625710 0.000000 0.000000 
#    y 0.000000 1.611040 0.000000 
#    z 0.000000 0.000000 1.611170 
# 
# From -- ./inp_files/16876.got.cif
#   From: 2010.03.12/outbox.cif.g09.slc.cpg/sg35_9_cif.got.tgz:16876.got - 2010.04.14 02:02:04.
