data_PCOD8172802
_publ_section_title
;
Structure prediction by ZEFSAII (Michael W. Deem and Ramdas Pophale) SiO2 
 PCOD8172802
Probable space group: C M M 2
;
_chemical_formula_sum "Si O2"
_cell_formula_units_Z 64
_cell_length_a 9.037407
_cell_length_b 29.360637
_cell_length_c 12.328781
_cell_angle_alpha 90.000000
_cell_angle_beta 90.000000
_cell_angle_gamma 90.000000
_cell_volume 3271.368391
_symmetry_space_group_name_H-M "C M M 2"
_symmetry_group_IT_number 35
_symmetry_cell_setting 'orthorhombic'
loop_
_space_group_symop_operation_xyz
x,y,z
-x,-y,z
-x,y,z
x,-y,z
1/2+x,1/2+y,z
1/2-x,1/2-y,z
1/2-x,1/2+y,z
1/2+x,1/2-y,z
loop_
_atom_site_type_symbol
_atom_site_label
_atom_site_fract_x
_atom_site_fract_y
_atom_site_fract_z
Si Si1 0.169926 0.048680 0.450320
Si Si2 0.831184 0.664356 0.299231
Si Si3 0.676459 0.647670 0.512086
Si Si4 0.831322 0.919284 0.216143
Si Si5 0.827279 0.362984 0.908771
Si Si6 0.331804 0.793758 0.081155
Si Si7 0.827725 0.949717 0.978321
Si Si8 0.324243 0.799366 0.707988
O O1 0.236229 0.094945 0.504433
O O2 0.186096 0.048140 0.320160
O O3 0.000000 0.048726 0.484225
O O4 0.240976 0.000000 0.490996
O O5 0.720982 0.672507 0.399572
O O6 0.787478 0.620332 0.230122
O O7 0.814522 0.704659 0.211381
O O8 0.000000 0.660176 0.340823
O O9 0.500000 0.650621 0.526526
O O10 0.759836 0.674207 0.605292
O O11 0.000000 0.899959 0.212448
O O12 0.791174 0.945523 0.106149
O O13 0.750353 0.412167 0.903020
O O14 0.780738 0.330479 0.809885
O O15 0.000000 0.372665 0.907554
O O16 0.771211 0.338600 0.019445
O O17 0.500000 0.788038 0.044560
O O18 0.250000 0.750000 0.034723
O O19 0.000000 0.943980 0.957506
O O20 0.774196 0.000000 0.941696
O O21 0.500000 0.793123 0.695237
O O22 0.250000 0.750000 0.719557
#
# Coordination Sequence:
#
# PCOD8172802 Si02
#       8
#     8   8   8   8   8   8   8   8
#     4   8  14  27  50  80 113 150 190 230 274 327
#     4  10  19  33  53  79 117 155 190 235 285 342
#     4  10  21  37  59  86 117 151 193 239 291 345
#     4   9  16  28  49  78 113 154 195 237 281 331
#     4  10  22  41  60  83 115 150 190 239 294 348
#     4  10  21  35  54  81 112 147 185 230 285 348
#     4  10  20  33  54  86 120 156 199 242 283 336
#     4  11  24  43  67  88 110 143 191 246 297 351
#
# _framework density 19.563677999999999
#
# number of rings (size 3 to 8) (size 9 to 14) (size 15 to 20)
#    0.000    2.250    1.250    2.625    0.000    4.750 
#    0.000    1.875    0.000   14.625    0.000    0.000 
#    0.000    0.000    0.000    0.000    0.000    0.000 
#
# Total GULP energy -396551.918938 kJ/mol
# GULP energy per Si atom -12392.247467 kJ/mol
# Density = 1.951915 g / cm^3
# Si number density = 19.563678 Si / 1000 Ang^3
#
#
#
# Elastic Constant Matrix: (Units=GPa)
#
#
# Indices 1 2 3 4 5 6 
#
# 1 60.5009 53.9349 38.9793 0.0000 0.0000 0.0000
# 2 53.9349 151.6129 62.8193 0.0000 0.0000 0.0000
# 3 38.9793 62.8193 98.4016 0.0000 0.0000 0.0000
# 4 0.0000 0.0000 0.0000 22.6486 0.0000 0.0000
# 5 0.0000 0.0000 0.0000 0.0000 25.5079 0.0000
# 6 0.0000 0.0000 0.0000 0.0000 0.0000 29.5877
#
#
#
# Elastic Compliance Matrix: (Units=1/GPa)
#
#
# Indices 1 2 3 4 5 6 
#
# 1 0.026672 -0.006949 -0.006130 0.000000 0.000000 0.000000
# 2 -0.006949 0.010778 -0.004128 0.000000 0.000000 0.000000
# 3 -0.006130 -0.004128 0.015226 0.000000 0.000000 0.000000
# 4 0.000000 0.000000 0.000000 0.044153 0.000000 0.000000
# 5 0.000000 0.000000 0.000000 0.000000 0.039204 0.000000
# 6 0.000000 0.000000 0.000000 0.000000 0.000000 0.033798
#
#
# Mechanical properties :
#
#
# Convention : Reuss Voigt Hill
#
# Bulk Modulus (GPa) = 54.75382 69.10916 61.93149
# Shear Modulus (GPa) = 23.77199 25.86764 24.81982
#
# Velocity S-wave (km/s) = 3.48962 3.64019 3.56570
# Velocity P-wave (km/s) = 6.65469 7.28491 6.97692
#
# Compressibility (1/GPa) = 0.01826357
#
# Stress axis : x y z
#
# Youngs Moduli (GPa) = 37.49183 92.78003 65.67750
#
# Poissons Ratio (x) = 0.64471 0.40257
# Poissons Ratio (y) = 0.26052 0.27113
# Poissons Ratio (z) = 0.22981 0.38301
#
# Static dielectric constant tensor:
#      x y z
#    x 3.405910 0.000000 0.000000 
#    y 0.000000 3.722970 0.000000 
#    z 0.000000 0.000000 3.491480 
# 
# 
# High freq. dielectric constant tensor:
#      x y z
#    x 1.745240 0.000000 0.000000 
#    y 0.000000 1.766450 0.000000 
#    z 0.000000 0.000000 1.748250 
# 
# From -- ./inp_files/12018.got.cif
#   From: 2010.03.12/outbox.cif.g09.slc.cpg/sg35_7_cif.got.tgz:12018.got - 2010.04.14 02:02:04.
