data_PCOD8172715
_publ_section_title
;
Structure prediction by ZEFSAII (Michael W. Deem and Ramdas Pophale) SiO2 
 PCOD8172715
Probable space group: C M M 2
;
_chemical_formula_sum "Si O2"
_cell_formula_units_Z 64
_cell_length_a 8.823411
_cell_length_b 19.048123
_cell_length_c 20.708891
_cell_angle_alpha 90.000000
_cell_angle_beta 90.000000
_cell_angle_gamma 90.000000
_cell_volume 3480.531258
_symmetry_space_group_name_H-M "C M M 2"
_symmetry_group_IT_number 35
_symmetry_cell_setting 'orthorhombic'
loop_
_space_group_symop_operation_xyz
x,y,z
-x,-y,z
-x,y,z
x,-y,z
1/2+x,1/2+y,z
1/2-x,1/2-y,z
1/2-x,1/2+y,z
1/2+x,1/2-y,z
loop_
_atom_site_type_symbol
_atom_site_label
_atom_site_fract_x
_atom_site_fract_y
_atom_site_fract_z
Si Si1 0.175564 0.419396 0.000000
Si Si2 0.321655 0.173792 0.518755
Si Si3 0.180140 0.175295 0.745435
Si Si4 0.178007 0.418299 0.638217
Si Si5 0.324605 0.581986 0.130587
Si Si6 0.678321 0.173617 0.239738
Si Si7 0.320312 0.823228 0.881502
Si Si8 0.323462 0.175458 0.379369
O O1 0.215158 0.500000 0.986745
O O2 0.268996 0.390195 0.061031
O O3 0.000000 0.408010 0.016004
O O4 0.224415 0.378920 0.935844
O O5 0.500000 0.184719 0.523682
O O6 0.250000 0.250000 0.530866
O O7 0.266411 0.118756 0.572302
O O8 0.276148 0.139978 0.448029
O O9 0.250000 0.250000 0.723687
O O10 0.227626 0.114783 0.696349
O O11 0.244486 0.152387 0.814850
O O12 0.000000 0.182542 0.748367
O O13 0.218498 0.500000 0.633059
O O14 0.000000 0.406614 0.650549
O O15 0.500000 0.599278 0.137754
O O16 0.288157 0.500000 0.136755
O O17 0.236022 0.620158 0.186917
O O18 0.500000 0.182449 0.231980
O O19 0.750000 0.250000 0.229847
O O20 0.721486 0.139614 0.310732
O O21 0.500000 0.816362 0.871665
O O22 0.250000 0.750000 0.904316
O O23 0.500000 0.187797 0.379707
O O24 0.250000 0.250000 0.379189
#
# Coordination Sequence:
#
# PCOD8172715 Si02
#       8
#     8   8   8   8   8   8   8   8
#     4   9  19  36  56  76 100 134 174 212 252 302
#     4   9  17  31  52  76 100 131 171 212 256 307
#     4  11  22  37  57  79 105 137 174 214 255 304
#     4  10  21  36  53  75 106 141 174 212 258 305
#     4  10  21  36  53  74 103 139 177 216 257 305
#     4  10  19  32  52  77 105 136 171 215 262 308
#     4  10  20  35  56  81 107 134 166 208 256 304
#     4   8  15  28  47  73 101 129 166 210 256 305
#
# _framework density 18.387996999999999
#
# number of rings (size 3 to 8) (size 9 to 14) (size 15 to 20)
#    0.000    2.375    0.000    3.375    0.000    5.000 
#    0.000    3.125    0.000    2.250    0.000    0.000 
#    0.000    0.000    0.000    0.000    0.000    0.000 
#
# Total GULP energy -396600.442706 kJ/mol
# GULP energy per Si atom -12393.763835 kJ/mol
# Density = 1.834615 g / cm^3
# Si number density = 18.387997 Si / 1000 Ang^3
#
#
#
# Elastic Constant Matrix: (Units=GPa)
#
#
# Indices 1 2 3 4 5 6 
#
# 1 76.1827 41.6972 62.0322 0.0000 0.0000 0.0000
# 2 41.6972 81.5496 81.8273 0.0000 0.0000 0.0000
# 3 62.0322 81.8273 169.3831 0.0000 0.0000 0.0000
# 4 0.0000 0.0000 0.0000 -12.4515 0.0000 0.0000
# 5 0.0000 0.0000 0.0000 0.0000 23.0454 0.0000
# 6 0.0000 0.0000 0.0000 0.0000 0.0000 26.6223
#
#
#
# Elastic Compliance Matrix: (Units=1/GPa)
#
#
# Indices 1 2 3 4 5 6 
#
# 1 0.019924 -0.005562 -0.004610 0.000000 0.000000 0.000000
# 2 -0.005562 0.025351 -0.010210 0.000000 0.000000 0.000000
# 3 -0.004610 -0.010210 0.012524 0.000000 0.000000 0.000000
# 4 0.000000 0.000000 0.000000 -0.080312 0.000000 0.000000
# 5 0.000000 0.000000 0.000000 0.000000 0.043393 0.000000
# 6 0.000000 0.000000 0.000000 0.000000 0.000000 0.037562
#
#
# Mechanical properties :
#
#
# Convention : Reuss Voigt Hill
#
# Bulk Modulus (GPa) = 58.69863 77.58098 68.13981
# Shear Modulus (GPa) = 47.67129 16.88049 32.27589
#
# Velocity S-wave (km/s) = 5.09721 3.03317 4.19414
# Velocity P-wave (km/s) = 8.16294 7.38576 7.78406
#
# Compressibility (1/GPa) = 0.01703617
#
# Stress axis : x y z
#
# Youngs Moduli (GPa) = 50.19053 39.44607 79.84487
#
# Poissons Ratio (x) = 0.21940 0.36806
# Poissons Ratio (y) = 0.27916 0.81521
# Poissons Ratio (z) = 0.23137 0.40274
#
# Static dielectric constant tensor:
#      x y z
#    x 3.411420 0.000000 0.000000 
#    y 0.000000 3.200520 0.000000 
#    z 0.000000 0.000000 3.993830 
# 
# 
# High freq. dielectric constant tensor:
#      x y z
#    x 1.716900 0.000000 0.000000 
#    y 0.000000 1.686410 0.000000 
#    z 0.000000 0.000000 1.736730 
# 
# From -- ./inp_files/18382.got.cif
#   From: 2010.03.12/outbox.cif.g09.slc.cpg/sg35_10_cif.got.tgz:18382.got - 2010.04.14 02:02:04.
