data_PCOD8172652
_publ_section_title
;
Structure prediction by ZEFSAII (Michael W. Deem and Ramdas Pophale) SiO2 
 PCOD8172652
Probable space group: C M M 2
;
_chemical_formula_sum "Si O2"
_cell_formula_units_Z 56
_cell_length_a 8.737281
_cell_length_b 19.602616
_cell_length_c 18.296854
_cell_angle_alpha 90.000000
_cell_angle_beta 90.000000
_cell_angle_gamma 90.000000
_cell_volume 3133.767401
_symmetry_space_group_name_H-M "C M M 2"
_symmetry_group_IT_number 35
_symmetry_cell_setting 'orthorhombic'
loop_
_space_group_symop_operation_xyz
x,y,z
-x,-y,z
-x,y,z
x,-y,z
1/2+x,1/2+y,z
1/2-x,1/2-y,z
1/2-x,1/2+y,z
1/2+x,1/2-y,z
loop_
_atom_site_type_symbol
_atom_site_label
_atom_site_fract_x
_atom_site_fract_y
_atom_site_fract_z
Si Si1 0.182403 0.822710 0.758010
Si Si2 0.829933 0.419039 0.175929
Si Si3 0.676654 0.420080 0.027815
Si Si4 0.330000 0.419022 0.476430
Si Si5 0.683057 0.423476 0.632792
Si Si6 0.326196 0.581106 0.319678
Si Si7 0.680660 0.177474 0.912309
O O1 0.250000 0.750000 0.735975
O O2 0.242792 0.875405 0.697272
O O3 0.246568 0.846778 0.835934
O O4 0.000000 0.819354 0.761805
O O5 0.832569 0.500000 0.181843
O O6 0.768904 0.387286 0.252268
O O7 0.000000 0.390433 0.161663
O O8 0.720682 0.396534 0.109560
O O9 0.500000 0.402353 0.014137
O O10 0.709756 0.500000 0.016714
O O11 0.781907 0.379609 0.971606
O O12 0.500000 0.388078 0.473248
O O13 0.340135 0.500000 0.479952
O O14 0.251540 0.396221 0.553494
O O15 0.251260 0.396989 0.398931
O O16 0.500000 0.423012 0.628688
O O17 0.742211 0.500000 0.649176
O O18 0.500000 0.607664 0.313818
O O19 0.324908 0.500000 0.313696
O O20 0.500000 0.185480 0.903189
O O21 0.750000 0.250000 0.936888
#
# Coordination Sequence:
#
# PCOD8172652 Si02
#       7
#     8   8   8   8   8   8   8
#     4  10  19  32  50  70  93 122 156 193 234 282
#     4   9  16  25  38  60  92 126 157 190 231 278
#     4  10  20  34  52  74 100 128 160 198 240 286
#     4   7  10  18  34  58  86 113 145 188 233 273
#     4   8  14  25  43  68  94 119 152 195 237 275
#     4   8  12  19  34  56  83 116 151 187 229 275
#     4  11  22  37  55  73  96 125 160 199 240 288
#
# _framework density 17.869865999999998
#
# number of rings (size 3 to 8) (size 9 to 14) (size 15 to 20)
#    0.000    3.000    0.000    5.143    0.000    3.143 
#    0.000    1.429    0.000    3.000    0.000    5.000 
#    0.000    4.571    0.000    0.000    0.000    0.000 
#
# Total GULP energy -346881.663899 kJ/mol
# GULP energy per Si atom -12388.630854 kJ/mol
# Density = 1.782919 g / cm^3
# Si number density = 17.869866 Si / 1000 Ang^3
#
#
#
# Elastic Constant Matrix: (Units=GPa)
#
#
# Indices 1 2 3 4 5 6 
#
# 1 72.2276 19.1548 37.0589 0.0000 0.0000 0.0000
# 2 19.1548 42.4856 56.4899 0.0000 0.0000 0.0000
# 3 37.0589 56.4899 163.5366 0.0000 0.0000 0.0000
# 4 0.0000 0.0000 0.0000 1.0011 0.0000 0.0000
# 5 0.0000 0.0000 0.0000 0.0000 18.3246 0.0000
# 6 0.0000 0.0000 0.0000 0.0000 0.0000 17.0455
#
#
#
# Elastic Compliance Matrix: (Units=1/GPa)
#
#
# Indices 1 2 3 4 5 6 
#
# 1 0.016110 -0.004456 -0.002112 0.000000 0.000000 0.000000
# 2 -0.004456 0.044763 -0.014453 0.000000 0.000000 0.000000
# 3 -0.002112 -0.014453 0.011586 0.000000 0.000000 0.000000
# 4 0.000000 0.000000 0.000000 0.998950 0.000000 0.000000
# 5 0.000000 0.000000 0.000000 0.000000 0.054571 0.000000
# 6 0.000000 0.000000 0.000000 0.000000 0.000000 0.058666
#
#
# Mechanical properties :
#
#
# Convention : Reuss Voigt Hill
#
# Bulk Modulus (GPa) = 32.87430 55.96190 44.41810
# Shear Modulus (GPa) = 4.04261 18.31065 11.17663
#
# Velocity S-wave (km/s) = 1.50571 3.20451 2.50360
# Velocity P-wave (km/s) = 4.63242 6.71388 5.76782
#
# Compressibility (1/GPa) = 0.03041890
#
# Stress axis : x y z
#
# Youngs Moduli (GPa) = 62.07243 22.33997 86.31365
#
# Poissons Ratio (x) = 0.09954 0.18226
# Poissons Ratio (y) = 0.27658 1.24745
# Poissons Ratio (z) = 0.13107 0.32287
#
# Static dielectric constant tensor:
#      x y z
#    x 3.148820 0.000000 0.000000 
#    y 0.000000 2.853770 0.000000 
#    z 0.000000 0.000000 3.855580 
# 
# 
# High freq. dielectric constant tensor:
#      x y z
#    x 1.669960 0.000000 0.000000 
#    y 0.000000 1.630890 0.000000 
#    z 0.000000 0.000000 1.718610 
# 
# From -- ./inp_files/18264.got.cif
#   From: 2010.03.12/outbox.cif.g09.slc.cpg/sg35_10_cif.got.tgz:18264.got - 2010.04.14 02:02:04.
