data_PCOD8172182
_publ_section_title
;
Structure prediction by ZEFSAII (Michael W. Deem and Ramdas Pophale) SiO2 
 PCOD8172182
Probable space group: C M M 2
;
_chemical_formula_sum "Si O2"
_cell_formula_units_Z 40
_cell_length_a 26.463985
_cell_length_b 8.686193
_cell_length_c 9.408830
_cell_angle_alpha 90.000000
_cell_angle_beta 90.000000
_cell_angle_gamma 90.000000
_cell_volume 2162.819807
_symmetry_space_group_name_H-M "C M M 2"
_symmetry_group_IT_number 35
_symmetry_cell_setting 'orthorhombic'
loop_
_space_group_symop_operation_xyz
x,y,z
-x,-y,z
-x,y,z
x,-y,z
1/2+x,1/2+y,z
1/2-x,1/2-y,z
1/2-x,1/2+y,z
1/2+x,1/2-y,z
loop_
_atom_site_type_symbol
_atom_site_label
_atom_site_fract_x
_atom_site_fract_y
_atom_site_fract_z
Si Si1 0.596091 0.816889 0.466080
Si Si2 0.091386 0.320650 0.787133
Si Si3 0.500000 0.184433 0.971436
Si Si4 0.000000 0.316858 0.291149
Si Si5 0.699358 0.319018 0.466973
Si Si6 0.298304 0.179952 0.777426
O O1 0.587618 0.754099 0.626988
O O2 0.549783 0.756009 0.371321
O O3 0.647925 0.749565 0.399293
O O4 0.600488 0.000000 0.465326
O O5 0.079817 0.500000 0.776415
O O6 0.147579 0.291508 0.853783
O O7 0.049347 0.247806 0.890611
O O8 0.500000 0.249189 0.131358
O O9 0.500000 0.000000 0.975097
O O10 0.000000 0.500000 0.291828
O O11 0.699663 0.500000 0.447152
O O12 0.750000 0.250000 0.392294
O O13 0.699987 0.272179 0.631128
O O14 0.250000 0.250000 0.864978
O O15 0.290330 0.000000 0.746763
#
# Coordination Sequence:
#
# PCOD8172182 Si02
#       6
#     8   8   4   4   8   8
#     4   9  16  28  44  67  93 119 147 182 221 262
#     4   8  14  23  39  61  89 115 140 174 218 259
#     4   9  15  25  41  65  88 112 146 187 222 254
#     4   9  17  27  44  65  88 116 152 189 222 258
#     4  10  17  26  42  66  92 119 146 181 222 265
#     4   9  15  24  39  63  91 118 143 177 219 263
#
# _framework density 18.494373
#
# number of rings (size 3 to 8) (size 9 to 14) (size 15 to 20)
#    0.000    3.000    0.000    5.400    0.000    2.400 
#    0.000    0.500    0.000    1.200    0.000   18.900 
#    0.000    0.000    0.000    0.000    0.000    0.000 
#
# Total GULP energy -247774.581820 kJ/mol
# GULP energy per Si atom -12388.729091 kJ/mol
# Density = 1.845228 g / cm^3
# Si number density = 18.494373 Si / 1000 Ang^3
#
#
#
# Elastic Constant Matrix: (Units=GPa)
#
#
# Indices 1 2 3 4 5 6 
#
# 1 225.9230 40.9806 70.6471 0.0000 0.0000 0.0000
# 2 40.9806 53.7775 14.6332 0.0000 0.0000 0.0000
# 3 70.6471 14.6332 72.8284 0.0000 0.0000 0.0000
# 4 0.0000 0.0000 0.0000 5.5690 0.0000 0.0000
# 5 0.0000 0.0000 0.0000 0.0000 4.8898 0.0000
# 6 0.0000 0.0000 0.0000 0.0000 0.0000 27.1068
#
#
#
# Elastic Compliance Matrix: (Units=1/GPa)
#
#
# Indices 1 2 3 4 5 6 
#
# 1 0.006979 -0.003677 -0.006031 0.000000 0.000000 0.000000
# 2 -0.003677 0.021608 -0.000774 0.000000 0.000000 0.000000
# 3 -0.006031 -0.000774 0.019737 0.000000 0.000000 0.000000
# 4 0.000000 0.000000 0.000000 0.179566 0.000000 0.000000
# 5 0.000000 0.000000 0.000000 0.000000 0.204507 0.000000
# 6 0.000000 0.000000 0.000000 0.000000 0.000000 0.036891
#
#
# Mechanical properties :
#
#
# Convention : Reuss Voigt Hill
#
# Bulk Modulus (GPa) = 36.55191 67.22786 51.88988
# Shear Modulus (GPa) = 10.01253 22.59766 16.30509
#
# Velocity S-wave (km/s) = 2.32929 3.49931 2.97244
# Velocity P-wave (km/s) = 5.20008 7.26335 6.31653
#
# Compressibility (1/GPa) = 0.02735835
#
# Stress axis : x y z
#
# Youngs Moduli (GPa) = 143.27869 46.27874 50.66537
#
# Poissons Ratio (x) = 0.17018 0.30559
# Poissons Ratio (y) = 0.52689 0.03924
# Poissons Ratio (z) = 0.86418 0.03584
#
# Static dielectric constant tensor:
#      x y z
#    x 4.414800 0.000000 0.000000 
#    y 0.000000 3.033370 0.000000 
#    z 0.000000 0.000000 3.037150 
# 
# 
# High freq. dielectric constant tensor:
#      x y z
#    x 1.753540 0.000000 0.000000 
#    y 0.000000 1.677590 0.000000 
#    z 0.000000 0.000000 1.650290 
# 
# From -- ./inp_files/10083.got.cif
#   From: 2010.03.12/outbox.cif.g09.slc.cpg/sg35_6_cif.got.tgz:10083.got - 2010.04.14 02:02:04.
