data_PCOD8172412
_publ_section_title
;
Structure prediction by ZEFSAII (Michael W. Deem and Ramdas Pophale) SiO2 
 PCOD8172412
Probable space group: C M M 2
;
_chemical_formula_sum "Si O2"
_cell_formula_units_Z 64
_cell_length_a 8.874219
_cell_length_b 29.392064
_cell_length_c 12.505659
_cell_angle_alpha 90.000000
_cell_angle_beta 90.000000
_cell_angle_gamma 90.000000
_cell_volume 3261.871206
_symmetry_space_group_name_H-M "C M M 2"
_symmetry_group_IT_number 35
_symmetry_cell_setting 'orthorhombic'
loop_
_space_group_symop_operation_xyz
x,y,z
-x,-y,z
-x,y,z
x,-y,z
1/2+x,1/2+y,z
1/2-x,1/2-y,z
1/2-x,1/2+y,z
1/2+x,1/2-y,z
loop_
_atom_site_type_symbol
_atom_site_label
_atom_site_fract_x
_atom_site_fract_y
_atom_site_fract_z
Si Si1 0.322752 0.891418 0.416450
Si Si2 0.324907 0.392835 0.806068
Si Si3 0.673543 0.409090 0.041247
Si Si4 0.179335 0.947868 0.605307
Si Si5 0.176730 0.681909 0.091003
Si Si6 0.822491 0.295711 0.329879
Si Si7 0.830484 0.450295 0.217868
Si Si8 0.678533 0.705252 0.874402
O O1 0.500000 0.896947 0.439474
O O2 0.230744 0.916857 0.507551
O O3 0.274359 0.838504 0.404487
O O4 0.276603 0.914179 0.304931
O O5 0.500000 0.388134 0.782063
O O6 0.252653 0.422734 0.710994
O O7 0.260598 0.340962 0.816706
O O8 0.294612 0.419644 0.916783
O O9 0.500000 0.394065 0.055077
O O10 0.786626 0.371172 0.085841
O O11 0.717647 0.451504 0.115621
O O12 0.000000 0.949386 0.608403
O O13 0.241260 0.000000 0.598647
O O14 0.231342 0.699150 0.207022
O O15 0.000000 0.690271 0.072302
O O16 0.271788 0.706578 0.998476
O O17 0.750000 0.250000 0.378907
O O18 0.000000 0.291228 0.332720
O O19 0.822107 0.500000 0.271440
O O20 0.000000 0.439345 0.179449
O O21 0.500000 0.707827 0.868496
O O22 0.750000 0.750000 0.817598
#
# Coordination Sequence:
#
# PCOD8172412 Si02
#       8
#     8   8   8   8   8   8   8   8
#     4  10  21  40  59  79 111 148 185 229 283 339
#     4   8  18  36  55  78 111 146 180 226 284 337
#     4  10  19  32  53  81 114 149 184 228 275 330
#     4  10  21  39  63  86 106 138 188 241 289 336
#     4  10  18  32  52  76 111 154 191 225 271 330
#     4  10  21  35  54  79 110 148 186 223 272 330
#     4  10  20  35  55  78 110 150 184 223 282 345
#     4  10  19  32  51  79 113 151 191 229 277 330
#
# _framework density 19.620638
#
# number of rings (size 3 to 8) (size 9 to 14) (size 15 to 20)
#    0.000    2.250    1.250    2.625    0.000    4.500 
#    0.000    5.625    0.000    3.000    0.000    0.000 
#    0.000    0.000    0.000    0.000    0.000    0.000 
#
# Total GULP energy -396594.680328 kJ/mol
# GULP energy per Si atom -12393.583760 kJ/mol
# Density = 1.957598 g / cm^3
# Si number density = 19.620638 Si / 1000 Ang^3
#
#
#
# Elastic Constant Matrix: (Units=GPa)
#
#
# Indices 1 2 3 4 5 6 
#
# 1 40.4387 29.4963 27.7623 0.0000 0.0000 0.0000
# 2 29.4963 147.1902 67.9057 0.0000 0.0000 0.0000
# 3 27.7623 67.9057 99.5629 0.0000 0.0000 0.0000
# 4 0.0000 0.0000 0.0000 21.2344 0.0000 0.0000
# 5 0.0000 0.0000 0.0000 0.0000 21.9929 0.0000
# 6 0.0000 0.0000 0.0000 0.0000 0.0000 29.6706
#
#
#
# Elastic Compliance Matrix: (Units=1/GPa)
#
#
# Indices 1 2 3 4 5 6 
#
# 1 0.031654 -0.003314 -0.006566 0.000000 0.000000 0.000000
# 2 -0.003314 0.010260 -0.006074 0.000000 0.000000 0.000000
# 3 -0.006566 -0.006074 0.016017 0.000000 0.000000 0.000000
# 4 0.000000 0.000000 0.000000 0.047093 0.000000 0.000000
# 5 0.000000 0.000000 0.000000 0.000000 0.045469 0.000000
# 6 0.000000 0.000000 0.000000 0.000000 0.000000 0.033703
#
#
# Mechanical properties :
#
#
# Convention : Reuss Voigt Hill
#
# Bulk Modulus (GPa) = 38.42667 59.72451 49.07559
# Shear Modulus (GPa) = 22.24398 25.38139 23.81268
#
# Velocity S-wave (km/s) = 3.37070 3.60058 3.48753
# Velocity P-wave (km/s) = 5.89713 6.91312 6.42524
#
# Compressibility (1/GPa) = 0.02602360
#
# Stress axis : x y z
#
# Youngs Moduli (GPa) = 31.59162 97.46454 62.43238
#
# Poissons Ratio (x) = 0.32300 0.40994
# Poissons Ratio (y) = 0.10470 0.37920
# Poissons Ratio (z) = 0.20744 0.59197
#
# Static dielectric constant tensor:
#      x y z
#    x 3.332580 0.000000 0.000000 
#    y 0.000000 3.937130 0.000000 
#    z 0.000000 0.000000 3.519870 
# 
# 
# High freq. dielectric constant tensor:
#      x y z
#    x 1.744440 0.000000 0.000000 
#    y 0.000000 1.777990 0.000000 
#    z 0.000000 0.000000 1.743030 
# 
# From -- ./inp_files/11830.got.cif
#   From: 2010.03.12/outbox.cif.g09.slc.cpg/sg35_6_cif.got.tgz:11830.got - 2010.04.14 02:02:04.
