data_PCOD8172149
_publ_section_title
;
Structure prediction by ZEFSAII (Michael W. Deem and Ramdas Pophale) SiO2 
 PCOD8172149
Probable space group: C M M 2
;
_chemical_formula_sum "Si O2"
_cell_formula_units_Z 48
_cell_length_a 8.818736
_cell_length_b 18.635706
_cell_length_c 15.702162
_cell_angle_alpha 90.000000
_cell_angle_beta 90.000000
_cell_angle_gamma 90.000000
_cell_volume 2580.546241
_symmetry_space_group_name_H-M "C M M 2"
_symmetry_group_IT_number 35
_symmetry_cell_setting 'orthorhombic'
loop_
_space_group_symop_operation_xyz
x,y,z
-x,-y,z
-x,y,z
x,-y,z
1/2+x,1/2+y,z
1/2-x,1/2-y,z
1/2-x,1/2+y,z
1/2+x,1/2-y,z
loop_
_atom_site_type_symbol
_atom_site_label
_atom_site_fract_x
_atom_site_fract_y
_atom_site_fract_z
Si Si1 0.175448 0.826986 0.536020
Si Si2 0.677296 0.083363 0.200137
Si Si3 0.823870 0.172189 0.347671
Si Si4 0.823871 0.172189 0.052603
Si Si5 0.679528 0.829907 0.700138
Si Si6 0.824552 0.826986 0.864256
O O1 0.250000 0.750000 0.528289
O O2 0.197481 0.861988 0.442678
O O3 0.259613 0.869355 0.613737
O O4 0.000000 0.819398 0.560089
O O5 0.500000 0.098622 0.200136
O O6 0.747862 0.116747 0.284467
O O7 0.747864 0.116747 0.115808
O O8 0.716779 0.000000 0.200137
O O9 0.750000 0.250000 0.337542
O O10 0.000000 0.180973 0.325540
O O11 0.750000 0.250000 0.062731
O O12 0.000000 0.180974 0.074735
O O13 0.802521 0.138011 0.957597
O O14 0.500000 0.828719 0.700137
O O15 0.750000 0.750000 0.700138
O O16 0.740386 0.869355 0.786539
O O17 0.750000 0.750000 0.871987
O O18 0.000000 0.819399 0.840185
#
# Coordination Sequence:
#
# PCOD8172149 Si02
#       6
#     8   8   8   8   8   8
#     4   9  16  26  41  64  94 127 161 197 239 285
#     4  11  24  39  54  73  99 131 166 207 254 303
#     4  10  20  34  54  77 102 133 168 208 250 296
#     4  10  20  34  54  77 102 133 168 208 250 296
#     4  10  16  22  36  60  93 130 161 194 237 283
#     4   9  16  26  41  64  94 127 161 197 239 285
#
# _framework density 18.600712999999999
#
# number of rings (size 3 to 8) (size 9 to 14) (size 15 to 20)
#    0.000    2.167    0.000    6.500    0.000    5.333 
#    0.000    0.000    0.000    0.000    0.000    1.167 
#    0.000    9.333    0.000    0.000    0.000    0.000 
#
# Total GULP energy -297374.923750 kJ/mol
# GULP energy per Si atom -12390.621823 kJ/mol
# Density = 1.855838 g / cm^3
# Si number density = 18.600713 Si / 1000 Ang^3
#
#
#
# Elastic Constant Matrix: (Units=GPa)
#
#
# Indices 1 2 3 4 5 6 
#
# 1 167.3272 51.6343 97.7101 0.0000 0.0000 0.0000
# 2 51.6343 49.5027 53.7652 0.0000 0.0000 0.0000
# 3 97.7101 53.7652 190.7736 0.0000 0.0000 0.0000
# 4 0.0000 0.0000 0.0000 -1.4727 0.0000 0.0000
# 5 0.0000 0.0000 0.0000 0.0000 37.7684 0.0000
# 6 0.0000 0.0000 0.0000 0.0000 0.0000 17.7631
#
#
#
# Elastic Compliance Matrix: (Units=1/GPa)
#
#
# Indices 1 2 3 4 5 6 
#
# 1 0.009962 -0.006989 -0.003133 0.000000 0.000000 0.000000
# 2 -0.006989 0.034015 -0.006007 0.000000 0.000000 0.000000
# 3 -0.003133 -0.006007 0.008539 0.000000 0.000000 0.000000
# 4 0.000000 0.000000 0.000000 -0.679040 0.000000 0.000000
# 5 0.000000 0.000000 0.000000 0.000000 0.026477 0.000000
# 6 0.000000 0.000000 0.000000 0.000000 0.000000 0.056296
#
#
# Mechanical properties :
#
#
# Convention : Reuss Voigt Hill
#
# Bulk Modulus (GPa) = 49.35965 90.42474 69.89219
# Shear Modulus (GPa) = -9.90608 24.44470 7.26931
#
# Velocity S-wave (km/s) = -2.31024 3.62910 1.97903
# Velocity P-wave (km/s) = 4.41336 8.14123 6.54818
#
# Compressibility (1/GPa) = 0.02025946
#
# Stress axis : x y z
#
# Youngs Moduli (GPa) = 100.37804 29.39923 117.10574
#
# Poissons Ratio (x) = 0.20546 0.36688
# Poissons Ratio (y) = 0.70151 0.70343
# Poissons Ratio (z) = 0.31447 0.17659
#
# Static dielectric constant tensor:
#      x y z
#    x 3.638070 0.000000 0.000000 
#    y 0.000000 2.739610 0.000000 
#    z 0.000000 0.000000 5.004960 
# 
# 
# High freq. dielectric constant tensor:
#      x y z
#    x 1.745660 0.000000 0.000000 
#    y 0.000000 1.636190 0.000000 
#    z 0.000000 0.000000 1.762180 
# 
# From -- ./inp_files/17988.got.cif
#   From: 2010.03.12/outbox.cif.g09.slc.cpg/sg35_9_cif.got.tgz:17988.got - 2010.04.14 02:02:04.
