data_PCOD8172390
_publ_section_title
;
Structure prediction by ZEFSAII (Michael W. Deem and Ramdas Pophale) SiO2 
 PCOD8172390
Probable space group: C M M 2
;
_chemical_formula_sum "Si O2"
_cell_formula_units_Z 64
_cell_length_a 8.908707
_cell_length_b 29.105541
_cell_length_c 12.243451
_cell_angle_alpha 90.000000
_cell_angle_beta 90.000000
_cell_angle_gamma 90.000000
_cell_volume 3174.637918
_symmetry_space_group_name_H-M "C M M 2"
_symmetry_group_IT_number 35
_symmetry_cell_setting 'orthorhombic'
loop_
_space_group_symop_operation_xyz
x,y,z
-x,-y,z
-x,y,z
x,-y,z
1/2+x,1/2+y,z
1/2-x,1/2-y,z
1/2-x,1/2+y,z
1/2+x,1/2-y,z
loop_
_atom_site_type_symbol
_atom_site_label
_atom_site_fract_x
_atom_site_fract_y
_atom_site_fract_z
Si Si1 0.174722 0.923271 0.984480
Si Si2 0.675706 0.167695 0.046425
Si Si3 0.826364 0.136339 0.673594
Si Si4 0.673130 0.051049 0.769219
Si Si5 0.830520 0.207929 0.855994
Si Si6 0.323244 0.142613 0.282801
Si Si7 0.827467 0.949550 0.228167
Si Si8 0.821287 0.300372 0.492703
O O1 0.235568 0.952311 0.882776
O O2 0.000000 0.909915 0.965444
O O3 0.279688 0.879208 0.988179
O O4 0.195471 0.950413 0.097493
O O5 0.500000 0.175804 0.039826
O O6 0.733355 0.167222 0.171713
O O7 0.758561 0.206607 0.976987
O O8 0.749659 0.086504 0.684283
O O9 0.812579 0.160376 0.791479
O O10 0.738210 0.167682 0.588764
O O11 0.000000 0.131198 0.637981
O O12 0.500000 0.065396 0.789295
O O13 0.681553 0.000000 0.716960
O O14 0.750000 0.250000 0.791616
O O15 0.000000 0.222561 0.869594
O O16 0.500000 0.137173 0.282044
O O17 0.260750 0.090733 0.290552
O O18 0.268945 0.174658 0.381392
O O19 0.000000 0.941329 0.257053
O O20 0.774464 0.000000 0.270399
O O21 0.750000 0.250000 0.498372
O O22 0.000000 0.295694 0.500759
#
# Coordination Sequence:
#
# PCOD8172390 Si02
#       8
#     8   8   8   8   8   8   8   8
#     4  10  18  31  52  81 119 162 203 244 289 344
#     4  10  19  34  56  83 120 159 196 241 294 352
#     4  11  24  42  64  89 119 153 198 250 301 355
#     4  11  23  37  57  87 122 161 202 244 295 352
#     4  11  23  37  56  85 118 154 193 238 296 360
#     4   9  21  39  59  87 119 154 196 247 299 351
#     4   9  18  32  53  84 121 161 203 245 290 345
#     4  11  24  44  68  91 117 150 198 252 304 360
#
# _framework density 20.159780000000001
#
# number of rings (size 3 to 8) (size 9 to 14) (size 15 to 20)
#    0.000    1.750    1.250    3.000    0.000    6.750 
#    0.000    1.875    0.000    0.750    0.000    0.000 
#    0.000    0.000    0.000    0.000    0.000    0.000 
#
# Total GULP energy -396713.627425 kJ/mol
# GULP energy per Si atom -12397.300857 kJ/mol
# Density = 2.011390 g / cm^3
# Si number density = 20.159780 Si / 1000 Ang^3
#
#
#
# Elastic Constant Matrix: (Units=GPa)
#
#
# Indices 1 2 3 4 5 6 
#
# 1 92.8930 47.2469 43.7216 0.0000 0.0000 0.0000
# 2 47.2469 128.7526 50.8363 0.0000 0.0000 0.0000
# 3 43.7216 50.8363 91.9962 0.0000 0.0000 0.0000
# 4 0.0000 0.0000 0.0000 22.9785 0.0000 0.0000
# 5 0.0000 0.0000 0.0000 0.0000 23.2882 0.0000
# 6 0.0000 0.0000 0.0000 0.0000 0.0000 36.4439
#
#
#
# Elastic Compliance Matrix: (Units=1/GPa)
#
#
# Indices 1 2 3 4 5 6 
#
# 1 0.014966 -0.003432 -0.005216 0.000000 0.000000 0.000000
# 2 -0.003432 0.010722 -0.004293 0.000000 0.000000 0.000000
# 3 -0.005216 -0.004293 0.015721 0.000000 0.000000 0.000000
# 4 0.000000 0.000000 0.000000 0.043519 0.000000 0.000000
# 5 0.000000 0.000000 0.000000 0.000000 0.042940 0.000000
# 6 0.000000 0.000000 0.000000 0.000000 0.000000 0.027439
#
#
# Mechanical properties :
#
#
# Convention : Reuss Voigt Hill
#
# Bulk Modulus (GPa) = 64.41036 66.36124 65.38580
# Shear Modulus (GPa) = 26.82895 27.99789 27.41342
#
# Velocity S-wave (km/s) = 3.65199 3.73070 3.69156
# Velocity P-wave (km/s) = 7.05705 7.17960 7.11859
#
# Compressibility (1/GPa) = 0.01552545
#
# Stress axis : x y z
#
# Youngs Moduli (GPa) = 66.81910 93.26988 63.60782
#
# Poissons Ratio (x) = 0.32014 0.33177
# Poissons Ratio (y) = 0.22935 0.27309
# Poissons Ratio (z) = 0.34852 0.40044
#
# Static dielectric constant tensor:
#      x y z
#    x 3.695060 0.000000 0.000000 
#    y 0.000000 3.835770 0.000000 
#    z 0.000000 0.000000 3.655260 
# 
# 
# High freq. dielectric constant tensor:
#      x y z
#    x 1.793850 0.000000 0.000000 
#    y 0.000000 1.795980 0.000000 
#    z 0.000000 0.000000 1.766800 
# 
# From -- ./inp_files/11903.got.cif
#   From: 2010.03.12/outbox.cif.g09.slc.cpg/sg35_6_cif.got.tgz:11903.got - 2010.04.14 02:02:04.
