data_PCOD8172613
_publ_section_title
;
Structure prediction by ZEFSAII (Michael W. Deem and Ramdas Pophale) SiO2 
 PCOD8172613
Probable space group: C M M 2
;
_chemical_formula_sum "Si O2"
_cell_formula_units_Z 48
_cell_length_a 8.702055
_cell_length_b 33.459208
_cell_length_c 9.223904
_cell_angle_alpha 90.000000
_cell_angle_beta 90.000000
_cell_angle_gamma 90.000000
_cell_volume 2685.667569
_symmetry_space_group_name_H-M "C M M 2"
_symmetry_group_IT_number 35
_symmetry_cell_setting 'orthorhombic'
loop_
_space_group_symop_operation_xyz
x,y,z
-x,-y,z
-x,y,z
x,-y,z
1/2+x,1/2+y,z
1/2-x,1/2-y,z
1/2-x,1/2+y,z
1/2+x,1/2-y,z
loop_
_atom_site_type_symbol
_atom_site_label
_atom_site_fract_x
_atom_site_fract_y
_atom_site_fract_z
Si Si1 0.820318 0.791599 0.120600
Si Si2 0.822144 0.594844 0.032650
Si Si3 0.681200 0.630061 0.287932
Si Si4 0.178199 0.543457 0.774299
Si Si5 0.680680 0.120290 0.599452
Si Si6 0.322778 0.337799 0.850875
O O1 0.750000 0.750000 0.173177
O O2 0.759434 0.827472 0.223619
O O3 0.000000 0.788641 0.141983
O O4 0.779940 0.799184 0.949735
O O5 0.799530 0.553228 0.946030
O O6 0.706201 0.625460 0.957690
O O7 0.000000 0.608637 0.019386
O O8 0.767706 0.593948 0.200458
O O9 0.500000 0.624781 0.271197
O O10 0.726943 0.627104 0.453943
O O11 0.256077 0.500000 0.742699
O O12 0.243397 0.579041 0.672663
O O13 0.000000 0.540364 0.737898
O O14 0.500000 0.119273 0.569392
O O15 0.718089 0.157419 0.707519
O O16 0.500000 0.336951 0.802679
#
# Coordination Sequence:
#
# PCOD8172613 Si02
#       6
#     8   8   8   8   8   8
#     4   9  19  33  51  73  95 124 160 199 244 291
#     4   9  16  28  49  73  93 121 164 201 230 278
#     4  10  20  34  50  70 100 134 162 196 249 297
#     4   8  15  29  49  73  99 124 157 205 251 286
#     4  10  19  31  51  76  97 127 170 205 237 285
#     4   9  17  31  49  70  97 127 156 190 239 289
#
# _framework density 17.872653
#
# number of rings (size 3 to 8) (size 9 to 14) (size 15 to 20)
#    0.000    2.833    0.000    4.000    0.000    4.000 
#    0.000    1.667    0.000   23.000    0.000    0.000 
#    0.000    0.000    0.000    0.000    0.000    0.000 
#
# Total GULP energy -297321.993041 kJ/mol
# GULP energy per Si atom -12388.416377 kJ/mol
# Density = 1.783197 g / cm^3
# Si number density = 17.872653 Si / 1000 Ang^3
#
#
#
# Elastic Constant Matrix: (Units=GPa)
#
#
# Indices 1 2 3 4 5 6 
#
# 1 43.1089 27.6776 22.9834 0.0000 0.0000 0.0000
# 2 27.6776 88.3377 46.5239 0.0000 0.0000 0.0000
# 3 22.9834 46.5239 118.9408 0.0000 0.0000 0.0000
# 4 0.0000 0.0000 0.0000 17.7803 0.0000 0.0000
# 5 0.0000 0.0000 0.0000 0.0000 32.8739 0.0000
# 6 0.0000 0.0000 0.0000 0.0000 0.0000 15.6520
#
#
#
# Elastic Compliance Matrix: (Units=1/GPa)
#
#
# Indices 1 2 3 4 5 6 
#
# 1 0.029684 -0.007909 -0.002642 0.000000 0.000000 0.000000
# 2 -0.007909 0.016364 -0.004873 0.000000 0.000000 0.000000
# 3 -0.002642 -0.004873 0.010824 0.000000 0.000000 0.000000
# 4 0.000000 0.000000 0.000000 0.056242 0.000000 0.000000
# 5 0.000000 0.000000 0.000000 0.000000 0.030419 0.000000
# 6 0.000000 0.000000 0.000000 0.000000 0.000000 0.063890
#
#
# Mechanical properties :
#
#
# Convention : Reuss Voigt Hill
#
# Bulk Modulus (GPa) = 38.42540 49.41748 43.92144
# Shear Modulus (GPa) = 20.24739 23.47473 21.86106
#
# Velocity S-wave (km/s) = 3.36946 3.62808 3.50116
# Velocity P-wave (km/s) = 6.05673 6.72758 6.40095
#
# Compressibility (1/GPa) = 0.02602445
#
# Stress axis : x y z
#
# Youngs Moduli (GPa) = 33.68872 61.10838 92.38627
#
# Poissons Ratio (x) = 0.48329 0.24412
# Poissons Ratio (y) = 0.26643 0.45017
# Poissons Ratio (z) = 0.08902 0.29776
#
# Static dielectric constant tensor:
#      x y z
#    x 3.162990 0.000000 0.000000 
#    y 0.000000 3.529390 0.000000 
#    z 0.000000 0.000000 3.448390 
# 
# 
# High freq. dielectric constant tensor:
#      x y z
#    x 1.684940 0.000000 0.000000 
#    y 0.000000 1.664030 0.000000 
#    z 0.000000 0.000000 1.688740 
# 
# From -- ./inp_files/5274.got.cif
#   From: 2010.03.12/outbox.cif.g09.slc.cpg/sg35_3_cif.got.tgz:5274.got - 2010.04.14 02:02:04.
