data_PCOD8172413
_publ_section_title
;
Structure prediction by ZEFSAII (Michael W. Deem and Ramdas Pophale) SiO2 
 PCOD8172413
Probable space group: C M M 2
;
_chemical_formula_sum "Si O2"
_cell_formula_units_Z 40
_cell_length_a 29.352159
_cell_length_b 8.626271
_cell_length_c 7.860759
_cell_angle_alpha 90.000000
_cell_angle_beta 90.000000
_cell_angle_gamma 90.000000
_cell_volume 1990.341647
_symmetry_space_group_name_H-M "C M M 2"
_symmetry_group_IT_number 35
_symmetry_cell_setting 'orthorhombic'
loop_
_space_group_symop_operation_xyz
x,y,z
-x,-y,z
-x,y,z
x,-y,z
1/2+x,1/2+y,z
1/2-x,1/2-y,z
1/2-x,1/2+y,z
1/2+x,1/2-y,z
loop_
_atom_site_type_symbol
_atom_site_label
_atom_site_fract_x
_atom_site_fract_y
_atom_site_fract_z
Si Si1 0.203456 0.316818 0.767790
Si Si2 0.391574 0.818241 0.638464
Si Si3 0.296372 0.682743 0.141124
Si Si4 0.051100 0.684827 0.952020
Si Si5 0.886840 0.682235 0.262181
O O1 0.207090 0.500000 0.767896
O O2 0.250000 0.250000 0.686700
O O3 0.160046 0.255872 0.661152
O O4 0.196462 0.259585 0.958604
O O5 0.425399 0.746781 0.780714
O O6 0.408746 0.780516 0.447545
O O7 0.390719 0.000000 0.672157
O O8 0.292170 0.500000 0.121826
O O9 0.250000 0.750000 0.224945
O O10 0.339170 0.727931 0.256509
O O11 0.049797 0.500000 0.949814
O O12 0.000000 0.752088 0.962024
O O13 0.078812 0.743196 0.117396
O O14 0.877193 0.500000 0.241155
#
# Coordination Sequence:
#
# PCOD8172413 Si02
#       5
#     8   8   8   8   8
#     4  10  18  32  52  77 108 143 180 220 266 318
#     4   9  18  31  51  79 110 142 176 219 269 317
#     4  11  21  34  54  80 109 145 184 221 266 320
#     4   9  17  31  53  81 111 141 177 224 274 320
#     4  10  19  34  55  80 112 144 179 223 269 317
#
# _framework density 20.097054
#
# number of rings (size 3 to 8) (size 9 to 14) (size 15 to 20)
#    0.000    2.200    2.000    3.600    0.000    1.600 
#    0.000    8.000    0.000    0.600    0.000    0.000 
#    0.000    0.000    0.000    0.000    0.000    0.000 
#
# Total GULP energy -247934.947279 kJ/mol
# GULP energy per Si atom -12396.747364 kJ/mol
# Density = 2.005131 g / cm^3
# Si number density = 20.097054 Si / 1000 Ang^3
#
#
#
# Elastic Constant Matrix: (Units=GPa)
#
#
# Indices 1 2 3 4 5 6 
#
# 1 167.8772 25.1166 83.3369 0.0000 0.0000 0.0000
# 2 25.1166 48.5081 10.1945 0.0000 0.0000 0.0000
# 3 83.3369 10.1945 133.5056 0.0000 0.0000 0.0000
# 4 0.0000 0.0000 0.0000 11.2062 0.0000 0.0000
# 5 0.0000 0.0000 0.0000 0.0000 16.6596 0.0000
# 6 0.0000 0.0000 0.0000 0.0000 0.0000 20.4651
#
#
#
# Elastic Compliance Matrix: (Units=1/GPa)
#
#
# Indices 1 2 3 4 5 6 
#
# 1 0.009218 -0.003622 -0.005477 0.000000 0.000000 0.000000
# 2 -0.003622 0.022374 0.000552 0.000000 0.000000 0.000000
# 3 -0.005477 0.000552 0.010867 0.000000 0.000000 0.000000
# 4 0.000000 0.000000 0.000000 0.089237 0.000000 0.000000
# 5 0.000000 0.000000 0.000000 0.000000 0.060026 0.000000
# 6 0.000000 0.000000 0.000000 0.000000 0.000000 0.048864
#
#
# Mechanical properties :
#
#
# Convention : Reuss Voigt Hill
#
# Bulk Modulus (GPa) = 39.42337 65.24297 52.33317
# Shear Modulus (GPa) = 18.78758 25.08237 21.93497
#
# Velocity S-wave (km/s) = 3.06084 3.53662 3.30730
# Velocity P-wave (km/s) = 5.67016 7.01508 6.37817
#
# Compressibility (1/GPa) = 0.02536566
#
# Stress axis : x y z
#
# Youngs Moduli (GPa) = 108.48858 44.69424 92.02034
#
# Poissons Ratio (x) = 0.16186 0.50402
# Poissons Ratio (y) = 0.39290 -0.05081
# Poissons Ratio (z) = 0.59422 -0.02468
#
# Static dielectric constant tensor:
#      x y z
#    x 4.002300 0.000000 0.000000 
#    y 0.000000 3.201930 0.000000 
#    z 0.000000 0.000000 3.671960 
# 
# 
# High freq. dielectric constant tensor:
#      x y z
#    x 1.788130 0.000000 0.000000 
#    y 0.000000 1.738190 0.000000 
#    z 0.000000 0.000000 1.783770 
# 
# From -- ./inp_files/4984.got.cif
#   From: 2010.03.12/outbox.cif.g09.slc.cpg/sg35_3_cif.got.tgz:4984.got - 2010.04.14 02:02:04.
