data_PCOD8172294
_publ_section_title
;
Structure prediction by ZEFSAII (Michael W. Deem and Ramdas Pophale) SiO2 
 PCOD8172294
Probable space group: C M M 2
;
_chemical_formula_sum "Si O2"
_cell_formula_units_Z 56
_cell_length_a 8.882881
_cell_length_b 18.969441
_cell_length_c 17.973138
_cell_angle_alpha 90.000000
_cell_angle_beta 90.000000
_cell_angle_gamma 90.000000
_cell_volume 3028.532831
_symmetry_space_group_name_H-M "C M M 2"
_symmetry_group_IT_number 35
_symmetry_cell_setting 'orthorhombic'
loop_
_space_group_symop_operation_xyz
x,y,z
-x,-y,z
-x,y,z
x,-y,z
1/2+x,1/2+y,z
1/2-x,1/2-y,z
1/2-x,1/2+y,z
1/2+x,1/2-y,z
loop_
_atom_site_type_symbol
_atom_site_label
_atom_site_fract_x
_atom_site_fract_y
_atom_site_fract_z
Si Si1 0.675342 0.325371 0.772270
Si Si2 0.677409 0.823216 0.027294
Si Si3 0.677440 0.580958 0.908188
Si Si4 0.823086 0.322300 0.196728
Si Si5 0.821255 0.578653 0.326310
Si Si6 0.820961 0.327214 0.463572
Si Si7 0.823452 0.825917 0.609002
O O1 0.500000 0.311639 0.781953
O O2 0.750000 0.250000 0.784450
O O3 0.734882 0.379979 0.833707
O O4 0.707164 0.359947 0.690451
O O5 0.500000 0.816772 0.017596
O O6 0.750000 0.750000 0.999801
O O7 0.739169 0.887447 0.979300
O O8 0.724579 0.839553 0.112263
O O9 0.500000 0.589837 0.919258
O O10 0.724798 0.500000 0.900783
O O11 0.750000 0.250000 0.224646
O O12 0.765207 0.384952 0.249949
O O13 0.000000 0.312409 0.203844
O O14 0.752245 0.500000 0.330072
O O15 0.764316 0.623802 0.396415
O O16 0.000000 0.574651 0.327381
O O17 0.750000 0.250000 0.453192
O O18 0.759611 0.364416 0.539880
O O19 0.000000 0.320779 0.466323
O O20 0.750000 0.750000 0.613403
O O21 0.000000 0.820756 0.591569
#
# Coordination Sequence:
#
# PCOD8172294 Si02
#       7
#     8   8   8   8   8   8   8
#     4   9  18  32  51  73  95 125 164 203 244 291
#     4  10  20  34  54  79 103 129 165 207 250 296
#     4  10  21  36  52  72 102 137 169 203 247 297
#     4   9  18  33  54  76  98 126 160 201 243 286
#     4   9  18  32  49  70  97 130 165 197 234 283
#     4  10  18  29  49  73  96 124 159 200 242 286
#     4   9  16  28  47  71  97 123 157 201 244 287
#
# _framework density 18.490801999999999
#
# number of rings (size 3 to 8) (size 9 to 14) (size 15 to 20)
#    0.000    2.571    0.000    3.000    0.000    3.714 
#    0.000    2.857    0.000    4.714    0.000    0.000 
#    0.000    0.000    0.000    0.000    0.000    0.000 
#
# Total GULP energy -347086.709666 kJ/mol
# GULP energy per Si atom -12395.953917 kJ/mol
# Density = 1.844872 g / cm^3
# Si number density = 18.490802 Si / 1000 Ang^3
#
#
#
# Elastic Constant Matrix: (Units=GPa)
#
#
# Indices 1 2 3 4 5 6 
#
# 1 49.3734 33.5168 38.0318 0.0000 0.0000 0.0000
# 2 33.5168 126.7522 85.6447 0.0000 0.0000 0.0000
# 3 38.0318 85.6447 151.2799 0.0000 0.0000 0.0000
# 4 0.0000 0.0000 0.0000 12.2223 0.0000 0.0000
# 5 0.0000 0.0000 0.0000 0.0000 14.5156 0.0000
# 6 0.0000 0.0000 0.0000 0.0000 0.0000 20.7420
#
#
#
# Elastic Compliance Matrix: (Units=1/GPa)
#
#
# Indices 1 2 3 4 5 6 
#
# 1 0.026332 -0.004032 -0.004337 0.000000 0.000000 0.000000
# 2 -0.004032 0.013395 -0.006569 0.000000 0.000000 0.000000
# 3 -0.004337 -0.006569 0.011420 0.000000 0.000000 0.000000
# 4 0.000000 0.000000 0.000000 0.081818 0.000000 0.000000
# 5 0.000000 0.000000 0.000000 0.000000 0.068891 0.000000
# 6 0.000000 0.000000 0.000000 0.000000 0.000000 0.048211
#
#
# Mechanical properties :
#
#
# Convention : Reuss Voigt Hill
#
# Bulk Modulus (GPa) = 47.01756 71.31024 59.16390
# Shear Modulus (GPa) = 17.41956 20.84346 19.13151
#
# Velocity S-wave (km/s) = 3.07264 3.36107 3.22009
# Velocity P-wave (km/s) = 6.17016 7.32881 6.77430
#
# Compressibility (1/GPa) = 0.02126865
#
# Stress axis : x y z
#
# Youngs Moduli (GPa) = 37.97674 74.65750 87.56811
#
# Poissons Ratio (x) = 0.30105 0.37978
# Poissons Ratio (y) = 0.15314 0.57526
# Poissons Ratio (z) = 0.16470 0.49045
#
# Static dielectric constant tensor:
#      x y z
#    x 3.286830 0.000000 0.000000 
#    y 0.000000 3.309870 0.000000 
#    z 0.000000 0.000000 4.089410 
# 
# 
# High freq. dielectric constant tensor:
#      x y z
#    x 1.705530 0.000000 0.000000 
#    y 0.000000 1.690060 0.000000 
#    z 0.000000 0.000000 1.739920 
# 
# From -- ./inp_files/18220.got.cif
#   From: 2010.03.12/outbox.cif.g09.slc.cpg/sg35_10_cif.got.tgz:18220.got - 2010.04.14 02:02:04.
