data_PCOD8172317
_publ_section_title
;
Structure prediction by ZEFSAII (Michael W. Deem and Ramdas Pophale) SiO2 
 PCOD8172317
Probable space group: C M M 2
;
_chemical_formula_sum "Si O2"
_cell_formula_units_Z 56
_cell_length_a 8.797797
_cell_length_b 19.376318
_cell_length_c 18.366957
_cell_angle_alpha 90.000000
_cell_angle_beta 90.000000
_cell_angle_gamma 90.000000
_cell_volume 3130.995183
_symmetry_space_group_name_H-M "C M M 2"
_symmetry_group_IT_number 35
_symmetry_cell_setting 'orthorhombic'
loop_
_space_group_symop_operation_xyz
x,y,z
-x,-y,z
-x,y,z
x,-y,z
1/2+x,1/2+y,z
1/2-x,1/2-y,z
1/2-x,1/2+y,z
1/2+x,1/2-y,z
loop_
_atom_site_type_symbol
_atom_site_label
_atom_site_fract_x
_atom_site_fract_y
_atom_site_fract_z
Si Si1 0.318672 0.825474 0.836120
Si Si2 0.668709 0.082177 0.255513
Si Si3 0.179170 0.422407 0.967230
Si Si4 0.681574 0.825468 0.543602
Si Si5 0.669384 0.417863 0.113507
Si Si6 0.818972 0.576826 0.414291
Si Si7 0.681931 0.673743 0.689713
O O1 0.500000 0.820542 0.828676
O O2 0.250000 0.750000 0.849666
O O3 0.264923 0.873667 0.902205
O O4 0.247425 0.860905 0.763314
O O5 0.500000 0.112946 0.247167
O O6 0.766078 0.113240 0.188973
O O7 0.739077 0.102635 0.334578
O O8 0.662574 0.000000 0.251262
O O9 0.242945 0.500000 0.954245
O O10 0.000000 0.423993 0.970909
O O11 0.237505 0.391430 0.043632
O O12 0.500000 0.821629 0.550094
O O13 0.750000 0.750000 0.531609
O O14 0.738438 0.871328 0.476129
O O15 0.751779 0.861379 0.616397
O O16 0.500000 0.389945 0.104593
O O17 0.676647 0.500000 0.117217
O O18 0.756047 0.500000 0.431434
O O19 0.000000 0.574336 0.411791
O O20 0.500000 0.673637 0.689434
O O21 0.750000 0.750000 0.689594
#
# Coordination Sequence:
#
# PCOD8172317 Si02
#       7
#     8   8   8   8   8   8   8
#     4  10  19  32  51  72  93 118 151 190 229 270
#     4   8  13  24  43  64  86 114 151 191 226 264
#     4   9  18  32  49  69  93 122 155 188 223 267
#     4  10  18  30  49  70  93 119 151 190 228 270
#     4   9  16  25  40  65  94 121 150 186 228 269
#     4   8  15  28  47  70  92 118 154 192 227 265
#     4  10  18  30  48  68  91 119 154 190 223 266
#
# _framework density 17.885687999999998
#
# number of rings (size 3 to 8) (size 9 to 14) (size 15 to 20)
#    0.000    2.857    0.000    5.143    0.000    2.857 
#    0.000    2.143    0.000    8.571    0.000    2.000 
#    0.000    0.000    0.000    0.000    0.000    0.000 
#
# Total GULP energy -346987.291581 kJ/mol
# GULP energy per Si atom -12392.403271 kJ/mol
# Density = 1.784498 g / cm^3
# Si number density = 17.885688 Si / 1000 Ang^3
#
#
#
# Elastic Constant Matrix: (Units=GPa)
#
#
# Indices 1 2 3 4 5 6 
#
# 1 68.5761 20.8102 50.5423 0.0000 0.0000 0.0000
# 2 20.8102 46.2553 59.4912 0.0000 0.0000 0.0000
# 3 50.5423 59.4912 207.2070 0.0000 0.0000 0.0000
# 4 0.0000 0.0000 0.0000 16.7879 0.0000 0.0000
# 5 0.0000 0.0000 0.0000 0.0000 26.4135 0.0000
# 6 0.0000 0.0000 0.0000 0.0000 0.0000 14.8683
#
#
#
# Elastic Compliance Matrix: (Units=1/GPa)
#
#
# Indices 1 2 3 4 5 6 
#
# 1 0.018219 -0.003934 -0.003315 0.000000 0.000000 0.000000
# 2 -0.003934 0.035126 -0.009125 0.000000 0.000000 0.000000
# 3 -0.003315 -0.009125 0.008255 0.000000 0.000000 0.000000
# 4 0.000000 0.000000 0.000000 0.059567 0.000000 0.000000
# 5 0.000000 0.000000 0.000000 0.000000 0.037859 0.000000
# 6 0.000000 0.000000 0.000000 0.000000 0.000000 0.067257
#
#
# Mechanical properties :
#
#
# Convention : Reuss Voigt Hill
#
# Bulk Modulus (GPa) = 34.65981 64.85841 49.75911
# Shear Modulus (GPa) = 18.61179 24.36026 21.48602
#
# Velocity S-wave (km/s) = 3.22933 3.69453 3.46973
# Velocity P-wave (km/s) = 5.77281 7.38518 6.62820
#
# Compressibility (1/GPa) = 0.02885186
#
# Stress axis : x y z
#
# Youngs Moduli (GPa) = 54.88775 28.46934 121.14458
#
# Poissons Ratio (x) = 0.11199 0.40155
# Poissons Ratio (y) = 0.21591 1.10549
# Poissons Ratio (z) = 0.18193 0.25979
#
# Static dielectric constant tensor:
#      x y z
#    x 3.248120 0.000000 0.000000 
#    y 0.000000 2.931840 0.000000 
#    z 0.000000 0.000000 4.097290 
# 
# 
# High freq. dielectric constant tensor:
#      x y z
#    x 1.685570 0.000000 0.000000 
#    y 0.000000 1.630980 0.000000 
#    z 0.000000 0.000000 1.719230 
# 
# From -- ./inp_files/18215.got.cif
#   From: 2010.03.12/outbox.cif.g09.slc.cpg/sg35_10_cif.got.tgz:18215.got - 2010.04.14 02:02:04.
