data_PCOD8172071
_publ_section_title
;
Structure prediction by ZEFSAII (Michael W. Deem and Ramdas Pophale) SiO2 
 PCOD8172071
Probable space group: P N N 2
;
_chemical_formula_sum "Si O2"
_cell_formula_units_Z 32
_cell_length_a 11.977662
_cell_length_b 8.417302
_cell_length_c 14.541179
_cell_angle_alpha 90.000000
_cell_angle_beta 90.000000
_cell_angle_gamma 90.000000
_cell_volume 1466.035826
_symmetry_space_group_name_H-M "P N N 2"
_symmetry_group_IT_number 34
_symmetry_cell_setting 'orthorhombic'
loop_
_space_group_symop_operation_xyz
x,y,z
-x,-y,z
1/2-x,1/2+y,1/2+z
1/2+x,1/2-y,1/2+z
loop_
_atom_site_type_symbol
_atom_site_label
_atom_site_fract_x
_atom_site_fract_y
_atom_site_fract_z
Si Si1 0.116735 0.337415 0.909300
Si Si2 0.972772 0.821887 0.283878
Si Si3 0.203403 0.607464 0.022546
Si Si4 0.286777 0.833935 0.890564
Si Si5 0.893077 0.111603 0.587113
Si Si6 0.498471 0.318239 0.573471
Si Si7 0.557907 0.669224 0.289400
Si Si8 0.847646 0.312811 0.409522
O O1 0.232718 0.264177 0.874903
O O2 0.025451 0.306395 0.828919
O O3 0.135808 0.522256 0.937220
O O4 0.086667 0.261935 0.007047
O O5 0.852816 0.759128 0.312799
O O6 0.958846 0.810773 0.175920
O O7 0.066967 0.709910 0.326095
O O8 0.000000 0.000000 0.317506
O O9 0.275178 0.487112 0.086525
O O10 0.117919 0.721202 0.076500
O O11 0.295503 0.724125 0.980251
O O12 0.159228 0.849423 0.859512
O O13 0.337723 0.999880 0.921673
O O14 0.903012 0.205299 0.684653
O O15 0.891452 0.238922 0.504891
O O16 0.000000 0.000000 0.571957
O O17 0.500000 0.500000 0.539179
O O18 0.500000 0.500000 0.289427
#
# Coordination Sequence:
#
# PCOD8172071 Si02
#       8
#     4   4   4   4   4   4   4   4
#     4  11  22  42  71  98 134 174 226 283 352 406
#     4  11  26  44  65  98 139 177 229 283 340 405
#     4  11  24  41  71  99 136 182 229 284 349 416
#     4  12  24  41  70  98 136 180 230 279 353 408
#     4  10  24  44  72  99 145 183 232 284 352 422
#     4  11  24  42  66 100 135 174 228 289 336 402
#     4  11  23  43  69 106 139 180 228 293 345 418
#     4  11  23  42  72  97 136 181 227 286 345 411
#
# _framework density 21.827570999999999
#
# number of rings (size 3 to 8) (size 9 to 14) (size 15 to 20)
#    0.000    1.000    2.500    4.500    5.250    1.000 
#    0.000    0.000   11.000    0.000    0.000    0.000 
#    0.000    0.000    0.000    0.000    0.000    0.000 
#
# Total GULP energy -396697.392506 kJ/mol
# GULP energy per Si atom -12396.793516 kJ/mol
# Density = 2.177789 g / cm^3
# Si number density = 21.827571 Si / 1000 Ang^3
#
#
#
# Elastic Constant Matrix: (Units=GPa)
#
#
# Indices 1 2 3 4 5 6 
#
# 1 76.2807 2.3063 8.1327 0.0000 0.0000 0.0000
# 2 2.3063 92.6329 9.8161 0.0000 0.0000 0.0000
# 3 8.1327 9.8161 58.8194 0.0000 0.0000 0.0000
# 4 0.0000 0.0000 0.0000 22.0262 0.0000 0.0000
# 5 0.0000 0.0000 0.0000 0.0000 28.1870 0.0000
# 6 0.0000 0.0000 0.0000 0.0000 0.0000 39.3539
#
#
#
# Elastic Compliance Matrix: (Units=1/GPa)
#
#
# Indices 1 2 3 4 5 6 
#
# 1 0.013307 -0.000139 -0.001817 0.000000 0.000000 0.000000
# 2 -0.000139 0.010991 -0.001815 0.000000 0.000000 0.000000
# 3 -0.001817 -0.001815 0.017555 0.000000 0.000000 0.000000
# 4 0.000000 0.000000 0.000000 0.045401 0.000000 0.000000
# 5 0.000000 0.000000 0.000000 0.000000 0.035477 0.000000
# 6 0.000000 0.000000 0.000000 0.000000 0.000000 0.025410
#
#
# Mechanical properties :
#
#
# Convention : Reuss Voigt Hill
#
# Bulk Modulus (GPa) = 29.14392 29.80480 29.47436
# Shear Modulus (GPa) = 29.91847 31.74528 30.83187
#
# Velocity S-wave (km/s) = 3.70628 3.81775 3.76243
# Velocity P-wave (km/s) = 5.62994 5.75482 5.69272
#
# Compressibility (1/GPa) = 0.03431247
#
# Stress axis : x y z
#
# Youngs Moduli (GPa) = 75.14637 90.98279 56.96284
#
# Poissons Ratio (x) = 0.01263 0.10349
# Poissons Ratio (y) = 0.01043 0.10339
# Poissons Ratio (z) = 0.13653 0.16514
#
# Static dielectric constant tensor:
#      x y z
#    x 4.074830 0.000000 0.000000 
#    y 0.000000 4.044830 0.000000 
#    z 0.000000 0.000000 3.914620 
# 
# 
# High freq. dielectric constant tensor:
#      x y z
#    x 1.872230 0.000000 0.000000 
#    y 0.000000 1.865340 0.000000 
#    z 0.000000 0.000000 1.850120 
# 
# From -- ./inp_files/6832.got.cif
#   From: 2010.03.12/outbox.cif.g09.slc.cpg/sg34_4_cif.got.tgz:6832.got - 2010.04.14 01:56:33.
