data_PCOD8172514
_publ_section_title
;
Structure prediction by ZEFSAII (Michael W. Deem and Ramdas Pophale) SiO2 
 PCOD8172514
Probable space group: C M M 2
;
_chemical_formula_sum "Si O2"
_cell_formula_units_Z 64
_cell_length_a 28.593477
_cell_length_b 9.233561
_cell_length_c 15.644218
_cell_angle_alpha 90.000000
_cell_angle_beta 90.000000
_cell_angle_gamma 90.000000
_cell_volume 4130.380399
_symmetry_space_group_name_H-M "C M M 2"
_symmetry_group_IT_number 35
_symmetry_cell_setting 'orthorhombic'
loop_
_space_group_symop_operation_xyz
x,y,z
-x,-y,z
-x,y,z
x,-y,z
1/2+x,1/2+y,z
1/2-x,1/2-y,z
1/2-x,1/2+y,z
1/2+x,1/2-y,z
loop_
_atom_site_type_symbol
_atom_site_label
_atom_site_fract_x
_atom_site_fract_y
_atom_site_fract_z
Si Si1 0.854153 0.834475 0.798140
Si Si2 0.647922 0.830311 0.474849
Si Si3 0.448100 0.333782 0.717284
Si Si4 0.799385 0.330164 0.938749
Si Si5 0.701208 0.168718 0.308449
Si Si6 0.948654 0.331636 0.545235
Si Si7 0.797213 0.665622 0.124113
Si Si8 0.298655 0.330014 0.624901
O O1 0.909524 0.800863 0.789562
O O2 0.835794 0.727890 0.870326
O O3 0.829750 0.801830 0.708148
O O4 0.845125 0.000000 0.826177
O O5 0.664641 0.782590 0.380704
O O6 0.592392 0.794389 0.478064
O O7 0.675762 0.736455 0.543283
O O8 0.657333 0.000000 0.492842
O O9 0.500000 0.297268 0.753337
O O10 0.444379 0.500000 0.688700
O O11 0.436273 0.243178 0.633856
O O12 0.791033 0.500000 0.922738
O O13 0.750000 0.250000 0.927814
O O14 0.822609 0.300179 0.033420
O O15 0.750000 0.250000 0.321326
O O16 0.677205 0.202473 0.214682
O O17 0.712641 0.000000 0.317710
O O18 0.949477 0.500000 0.565455
O O19 0.000000 0.281278 0.510490
O O20 0.782524 0.500000 0.124278
O O21 0.750000 0.750000 0.124249
O O22 0.290108 0.500000 0.608935
O O23 0.250000 0.250000 0.639878
#
# Coordination Sequence:
#
# PCOD8172514 Si02
#       8
#     8   8   8   8   8   8   8   8
#     4  10  20  32  45  65  89 116 147 180 217 259
#     4  10  19  30  45  65  88 117 149 181 217 256
#     4   9  17  31  49  66  85 111 145 183 221 259
#     4  10  19  30  46  66  88 117 148 183 221 260
#     4   9  17  29  44  63  87 115 145 179 216 257
#     4   9  17  29  45  65  88 113 144 183 223 259
#     4   8  15  28  44  62  84 110 143 180 220 258
#     4  11  22  33  43  59  87 122 152 178 210 251
#
# _framework density 15.49494
#
# number of rings (size 3 to 8) (size 9 to 14) (size 15 to 20)
#    0.000    2.500    1.250    1.500    0.000    4.500 
#    0.000    0.000    0.000    0.000    0.000    0.875 
#    0.000    3.000    0.000    0.000    0.000    0.000 
#
# Total GULP energy -396480.533269 kJ/mol
# GULP energy per Si atom -12390.016665 kJ/mol
# Density = 1.545967 g / cm^3
# Si number density = 15.494940 Si / 1000 Ang^3
#
#
#
# Elastic Constant Matrix: (Units=GPa)
#
#
# Indices 1 2 3 4 5 6 
#
# 1 95.8994 35.2255 55.4856 0.0000 0.0000 0.0000
# 2 35.2255 50.5897 44.2596 0.0000 0.0000 0.0000
# 3 55.4856 44.2596 122.9743 0.0000 0.0000 0.0000
# 4 0.0000 0.0000 0.0000 17.7293 0.0000 0.0000
# 5 0.0000 0.0000 0.0000 0.0000 7.0310 0.0000
# 6 0.0000 0.0000 0.0000 0.0000 0.0000 15.1401
#
#
#
# Elastic Compliance Matrix: (Units=1/GPa)
#
#
# Indices 1 2 3 4 5 6 
#
# 1 0.015589 -0.006861 -0.004564 0.000000 0.000000 0.000000
# 2 -0.006861 0.031871 -0.008375 0.000000 0.000000 0.000000
# 3 -0.004564 -0.008375 0.013205 0.000000 0.000000 0.000000
# 4 0.000000 0.000000 0.000000 0.056404 0.000000 0.000000
# 5 0.000000 0.000000 0.000000 0.000000 0.142227 0.000000
# 6 0.000000 0.000000 0.000000 0.000000 0.000000 0.066050
#
#
# Mechanical properties :
#
#
# Convention : Reuss Voigt Hill
#
# Bulk Modulus (GPa) = 47.47313 59.93386 53.70349
# Shear Modulus (GPa) = 13.44200 16.94626 15.19413
#
# Velocity S-wave (km/s) = 2.94855 3.31065 3.13483
# Velocity P-wave (km/s) = 6.50356 7.30599 6.91642
#
# Compressibility (1/GPa) = 0.02106455
#
# Stress axis : x y z
#
# Youngs Moduli (GPa) = 64.14973 31.37601 75.72704
#
# Poissons Ratio (x) = 0.21528 0.34562
# Poissons Ratio (y) = 0.44015 0.63422
# Poissons Ratio (z) = 0.29278 0.26278
#
# Static dielectric constant tensor:
#      x y z
#    x 3.065790 0.000000 0.000000 
#    y 0.000000 3.047520 0.000000 
#    z 0.000000 0.000000 3.337890 
# 
# 
# High freq. dielectric constant tensor:
#      x y z
#    x 1.574750 0.000000 0.000000 
#    y 0.000000 1.602690 0.000000 
#    z 0.000000 0.000000 1.587060 
# 
# From -- ./inp_files/16141.got.cif
#   From: 2010.03.12/outbox.cif.g09.slc.cpg/sg35_9_cif.got.tgz:16141.got - 2010.04.14 02:02:04.
