data_PCOD8172419
_publ_section_title
;
Structure prediction by ZEFSAII (Michael W. Deem and Ramdas Pophale) SiO2 
 PCOD8172419
Probable space group: C M M 2
;
_chemical_formula_sum "Si O2"
_cell_formula_units_Z 64
_cell_length_a 8.706445
_cell_length_b 18.956491
_cell_length_c 20.405207
_cell_angle_alpha 90.000000
_cell_angle_beta 90.000000
_cell_angle_gamma 90.000000
_cell_volume 3367.749766
_symmetry_space_group_name_H-M "C M M 2"
_symmetry_group_IT_number 35
_symmetry_cell_setting 'orthorhombic'
loop_
_space_group_symop_operation_xyz
x,y,z
-x,-y,z
-x,y,z
x,-y,z
1/2+x,1/2+y,z
1/2-x,1/2-y,z
1/2-x,1/2+y,z
1/2+x,1/2-y,z
loop_
_atom_site_type_symbol
_atom_site_label
_atom_site_fract_x
_atom_site_fract_y
_atom_site_fract_z
Si Si1 0.676836 0.917542 0.930370
Si Si2 0.320621 0.326415 0.304394
Si Si3 0.817700 0.671881 0.173413
Si Si4 0.180499 0.173057 0.041668
Si Si5 0.678904 0.080138 0.562191
Si Si6 0.180375 0.173033 0.671980
Si Si7 0.825172 0.418011 0.411714
Si Si8 0.679060 0.418874 0.793989
O O1 0.500000 0.896963 0.941633
O O2 0.725054 0.895310 0.857335
O O3 0.706210 0.000000 0.941155
O O4 0.783685 0.876351 0.980610
O O5 0.500000 0.317985 0.291744
O O6 0.250000 0.250000 0.318011
O O7 0.243860 0.364036 0.240310
O O8 0.291540 0.374727 0.367142
O O9 0.750000 0.750000 0.174307
O O10 0.753407 0.636370 0.106869
O O11 0.000000 0.671062 0.172288
O O12 0.250000 0.250000 0.028694
O O13 0.000000 0.180682 0.051391
O O14 0.500000 0.088945 0.577885
O O15 0.774494 0.134131 0.605397
O O16 0.713299 0.099075 0.486945
O O17 0.731216 0.000000 0.577139
O O18 0.250000 0.250000 0.674806
O O19 0.239787 0.128033 0.733888
O O20 0.000000 0.180326 0.674127
O O21 0.800824 0.500000 0.397322
O O22 0.000000 0.395875 0.395656
O O23 0.500000 0.406502 0.808563
O O24 0.711918 0.500000 0.775767
#
# Coordination Sequence:
#
# PCOD8172419 Si02
#       8
#     8   8   8   8   8   8   8   8
#     4  10  21  37  57  82 111 143 180 221 267 320
#     4  11  21  34  54  80 109 142 182 224 268 319
#     4  10  18  32  53  77 107 141 180 223 268 320
#     4  11  21  35  56  81 110 143 181 224 270 320
#     4   9  19  37  60  82 106 140 180 220 266 324
#     4  11  23  37  55  81 113 145 178 222 270 316
#     4   9  19  37  58  80 108 141 177 220 271 323
#     4   9  19  37  58  78 103 140 183 223 267 320
#
# _framework density 19.003786999999999
#
# number of rings (size 3 to 8) (size 9 to 14) (size 15 to 20)
#    0.000    2.000    0.000    6.750    0.000    4.250 
#    0.000    4.375    0.000    3.750    0.000    0.000 
#    0.000    0.000    0.000    0.000    0.000    0.000 
#
# Total GULP energy -396845.611530 kJ/mol
# GULP energy per Si atom -12401.425360 kJ/mol
# Density = 1.896053 g / cm^3
# Si number density = 19.003787 Si / 1000 Ang^3
#
#
#
# Elastic Constant Matrix: (Units=GPa)
#
#
# Indices 1 2 3 4 5 6 
#
# 1 123.6535 39.9918 57.9625 0.0000 0.0000 0.0000
# 2 39.9918 76.4282 66.5857 0.0000 0.0000 0.0000
# 3 57.9625 66.5857 135.9193 0.0000 0.0000 0.0000
# 4 0.0000 0.0000 0.0000 54.5509 0.0000 0.0000
# 5 0.0000 0.0000 0.0000 0.0000 36.4188 0.0000
# 6 0.0000 0.0000 0.0000 0.0000 0.0000 19.8879
#
#
#
# Elastic Compliance Matrix: (Units=1/GPa)
#
#
# Indices 1 2 3 4 5 6 
#
# 1 0.010431 -0.002761 -0.003096 0.000000 0.000000 0.000000
# 2 -0.002761 0.023558 -0.010363 0.000000 0.000000 0.000000
# 3 -0.003096 -0.010363 0.013754 0.000000 0.000000 0.000000
# 4 0.000000 0.000000 0.000000 0.018332 0.000000 0.000000
# 5 0.000000 0.000000 0.000000 0.000000 0.027458 0.000000
# 6 0.000000 0.000000 0.000000 0.000000 0.000000 0.050282
#
#
# Mechanical properties :
#
#
# Convention : Reuss Voigt Hill
#
# Bulk Modulus (GPa) = 65.34666 73.89788 69.62227
# Shear Modulus (GPa) = 27.57010 33.60225 30.58618
#
# Velocity S-wave (km/s) = 3.81303 4.20954 4.01618
# Velocity P-wave (km/s) = 7.33801 7.91185 7.63032
#
# Compressibility (1/GPa) = 0.01530300
#
# Stress axis : x y z
#
# Youngs Moduli (GPa) = 95.86586 42.44919 72.70480
#
# Poissons Ratio (x) = 0.11721 0.22507
# Poissons Ratio (y) = 0.26471 0.75345
# Poissons Ratio (z) = 0.29677 0.43991
#
# Static dielectric constant tensor:
#      x y z
#    x 3.467030 0.000000 0.000000 
#    y 0.000000 3.299450 0.000000 
#    z 0.000000 0.000000 3.876070 
# 
# 
# High freq. dielectric constant tensor:
#      x y z
#    x 1.746340 0.000000 0.000000 
#    y 0.000000 1.715700 0.000000 
#    z 0.000000 0.000000 1.755970 
# 
# From -- ./inp_files/18390.got.cif
#   From: 2010.03.12/outbox.cif.g09.slc.cpg/sg35_10_cif.got.tgz:18390.got - 2010.04.14 02:02:04.
