data_PCOD8172383
_publ_section_title
;
Structure prediction by ZEFSAII (Michael W. Deem and Ramdas Pophale) SiO2 
 PCOD8172383
Probable space group: C M M 2
;
_chemical_formula_sum "Si O2"
_cell_formula_units_Z 64
_cell_length_a 29.371559
_cell_length_b 8.998249
_cell_length_c 12.411671
_cell_angle_alpha 90.000000
_cell_angle_beta 90.000000
_cell_angle_gamma 90.000000
_cell_volume 3280.312816
_symmetry_space_group_name_H-M "C M M 2"
_symmetry_group_IT_number 35
_symmetry_cell_setting 'orthorhombic'
loop_
_space_group_symop_operation_xyz
x,y,z
-x,-y,z
-x,y,z
x,-y,z
1/2+x,1/2+y,z
1/2-x,1/2-y,z
1/2-x,1/2+y,z
1/2+x,1/2-y,z
loop_
_atom_site_type_symbol
_atom_site_label
_atom_site_fract_x
_atom_site_fract_y
_atom_site_fract_z
Si Si1 0.550105 0.667193 0.225550
Si Si2 0.108887 0.823187 0.420937
Si Si3 0.106244 0.669795 0.810267
Si Si4 0.908624 0.669669 0.052106
Si Si5 0.794102 0.324337 0.881704
Si Si6 0.204778 0.825316 0.340026
Si Si7 0.181699 0.826006 0.097552
Si Si8 0.552305 0.676460 0.624034
O O1 0.500000 0.664461 0.276779
O O2 0.564975 0.500000 0.192600
O O3 0.583351 0.736077 0.315181
O O4 0.548243 0.775920 0.121191
O O5 0.161456 0.770051 0.411243
O O6 0.082894 0.759247 0.525803
O O7 0.106053 0.000000 0.422814
O O8 0.104301 0.500000 0.769867
O O9 0.159199 0.722112 0.820779
O O10 0.077542 0.772642 0.731829
O O11 0.081961 0.687117 0.925710
O O12 0.894547 0.500000 0.076906
O O13 0.870964 0.783747 0.095283
O O14 0.788949 0.500000 0.882081
O O15 0.750000 0.250000 0.823430
O O16 0.793509 0.268743 0.005123
O O17 0.250000 0.750000 0.388434
O O18 0.200356 0.780348 0.214668
O O19 0.209645 0.000000 0.351831
O O20 0.188214 0.000000 0.073982
O O21 0.500000 0.736462 0.618705
O O22 0.551563 0.500000 0.622334
#
# Coordination Sequence:
#
# PCOD8172383 Si02
#       8
#     8   8   8   8   8   8   8   8
#     4  10  19  33  56  82 109 144 183 224 277 343
#     4   9  18  37  58  80 111 143 180 229 283 333
#     4   9  21  39  56  78 112 150 185 227 282 338
#     4  10  20  34  52  77 114 152 183 225 277 334
#     4  10  20  34  53  81 115 153 192 230 278 331
#     4  10  20  33  52  78 111 148 183 220 268 327
#     4  10  18  31  52  78 110 151 192 230 271 325
#     4  10  21  38  63  88 105 134 188 244 286 333
#
# _framework density 19.510332999999999
#
# number of rings (size 3 to 8) (size 9 to 14) (size 15 to 20)
#    0.000    2.250    1.250    2.625    0.000    7.500 
#    0.000    4.375    0.000    4.500    0.000    0.000 
#    0.000    0.000    0.000    0.000    0.000    0.000 
#
# Total GULP energy -396631.911770 kJ/mol
# GULP energy per Si atom -12394.747243 kJ/mol
# Density = 1.946593 g / cm^3
# Si number density = 19.510333 Si / 1000 Ang^3
#
#
#
# Elastic Constant Matrix: (Units=GPa)
#
#
# Indices 1 2 3 4 5 6 
#
# 1 150.2525 35.8521 66.5078 0.0000 0.0000 0.0000
# 2 35.8521 44.7347 32.8841 0.0000 0.0000 0.0000
# 3 66.5078 32.8841 93.8111 0.0000 0.0000 0.0000
# 4 0.0000 0.0000 0.0000 17.2785 0.0000 0.0000
# 5 0.0000 0.0000 0.0000 0.0000 22.7662 0.0000
# 6 0.0000 0.0000 0.0000 0.0000 0.0000 30.2089
#
#
#
# Elastic Compliance Matrix: (Units=1/GPa)
#
#
# Indices 1 2 3 4 5 6 
#
# 1 0.010166 -0.003839 -0.005862 0.000000 0.000000 0.000000
# 2 -0.003839 0.031563 -0.008343 0.000000 0.000000 0.000000
# 3 -0.005862 -0.008343 0.017740 0.000000 0.000000 0.000000
# 4 0.000000 0.000000 0.000000 0.057875 0.000000 0.000000
# 5 0.000000 0.000000 0.000000 0.000000 0.043925 0.000000
# 6 0.000000 0.000000 0.000000 0.000000 0.000000 0.033103
#
#
# Mechanical properties :
#
#
# Convention : Reuss Voigt Hill
#
# Bulk Modulus (GPa) = 42.76595 62.14291 52.45443
# Shear Modulus (GPa) = 20.98621 24.28767 22.63694
#
# Velocity S-wave (km/s) = 3.28326 3.53209 3.40995
# Velocity P-wave (km/s) = 6.02829 6.96811 6.51517
#
# Compressibility (1/GPa) = 0.02338309
#
# Stress axis : x y z
#
# Youngs Moduli (GPa) = 98.36704 31.68273 56.37052
#
# Poissons Ratio (x) = 0.12162 0.33043
# Poissons Ratio (y) = 0.37759 0.47028
# Poissons Ratio (z) = 0.57660 0.26432
#
# Static dielectric constant tensor:
#      x y z
#    x 3.864790 0.000000 0.000000 
#    y 0.000000 3.318360 0.000000 
#    z 0.000000 0.000000 3.421210 
# 
# 
# High freq. dielectric constant tensor:
#      x y z
#    x 1.773030 0.000000 0.000000 
#    y 0.000000 1.741000 0.000000 
#    z 0.000000 0.000000 1.737440 
# 
# From -- ./inp_files/14549.got.cif
#   From: 2010.03.12/outbox.cif.g09.slc.cpg/sg35_8_cif.got.tgz:14549.got - 2010.04.14 02:02:04.
