data_PCOD8172565
_publ_section_title
;
Structure prediction by ZEFSAII (Michael W. Deem and Ramdas Pophale) SiO2 
 PCOD8172565
Probable space group: C M M 2
;
_chemical_formula_sum "Si O2"
_cell_formula_units_Z 64
_cell_length_a 9.189316
_cell_length_b 19.156066
_cell_length_c 20.937291
_cell_angle_alpha 90.000000
_cell_angle_beta 90.000000
_cell_angle_gamma 90.000000
_cell_volume 3685.615283
_symmetry_space_group_name_H-M "C M M 2"
_symmetry_group_IT_number 35
_symmetry_cell_setting 'orthorhombic'
loop_
_space_group_symop_operation_xyz
x,y,z
-x,-y,z
-x,y,z
x,-y,z
1/2+x,1/2+y,z
1/2-x,1/2-y,z
1/2-x,1/2+y,z
1/2+x,1/2-y,z
loop_
_atom_site_type_symbol
_atom_site_label
_atom_site_fract_x
_atom_site_fract_y
_atom_site_fract_z
Si Si1 0.670934 0.579880 0.122840
Si Si2 0.163481 0.583223 0.247216
Si Si3 0.336431 0.582910 0.507651
Si Si4 0.829681 0.579334 0.629704
Si Si5 0.835852 0.083095 0.367629
Si Si6 0.670860 0.676388 0.868677
Si Si7 0.831354 0.177535 0.009261
Si Si8 0.326076 0.175076 0.747859
O O1 0.500000 0.587286 0.134117
O O2 0.715733 0.500000 0.110570
O O3 0.749428 0.610436 0.185506
O O4 0.725590 0.622761 0.061438
O O5 0.168329 0.500000 0.249172
O O6 0.234718 0.614391 0.311801
O O7 0.000000 0.611696 0.243008
O O8 0.500000 0.609879 0.518388
O O9 0.331232 0.500000 0.508730
O O10 0.238851 0.612250 0.565297
O O11 0.280065 0.608435 0.437739
O O12 0.775674 0.500000 0.642055
O O13 0.781802 0.626376 0.689026
O O14 0.000000 0.581079 0.619426
O O15 0.000000 0.109586 0.356248
O O16 0.832839 0.000000 0.364908
O O17 0.500000 0.684013 0.851987
O O18 0.750000 0.750000 0.872491
O O19 0.755940 0.637192 0.810971
O O20 0.692704 0.642446 0.938908
O O21 0.750000 0.250000 0.018089
O O22 0.000000 0.194289 0.019344
O O23 0.500000 0.182903 0.755064
O O24 0.250000 0.250000 0.737663
#
# Coordination Sequence:
#
# PCOD8172565 Si02
#       8
#     8   8   8   8   8   8   8   8
#     4   9  17  30  46  63  88 121 150 177 215 263
#     4   9  16  24  36  58  86 114 146 183 219 254
#     4   8  14  24  39  60  85 113 146 182 217 255
#     4   9  18  31  45  63  90 121 148 177 218 265
#     4   8  13  22  36  55  81 113 146 178 215 259
#     4   9  16  28  46  67  89 112 143 182 221 259
#     4   9  18  31  48  69  89 113 146 182 220 261
#     4  10  19  31  48  68  89 115 148 183 218 259
#
# _framework density 17.364806999999999
#
# number of rings (size 3 to 8) (size 9 to 14) (size 15 to 20)
#    0.000    3.125    0.000    2.625    0.000    4.000 
#    0.000    3.125    0.000    0.750    0.000    0.875 
#    0.000    6.000    0.000    0.000    0.000    0.000 
#
# Total GULP energy -396498.283082 kJ/mol
# GULP energy per Si atom -12390.571346 kJ/mol
# Density = 1.732528 g / cm^3
# Si number density = 17.364807 Si / 1000 Ang^3
#
#
#
# Elastic Constant Matrix: (Units=GPa)
#
#
# Indices 1 2 3 4 5 6 
#
# 1 75.7363 24.1742 73.3874 0.0000 0.0000 0.0000
# 2 24.1742 34.1337 47.1884 0.0000 0.0000 0.0000
# 3 73.3874 47.1884 201.2895 0.0000 0.0000 0.0000
# 4 0.0000 0.0000 0.0000 4.5551 0.0000 0.0000
# 5 0.0000 0.0000 0.0000 0.0000 31.9989 0.0000
# 6 0.0000 0.0000 0.0000 0.0000 0.0000 12.9213
#
#
#
# Elastic Compliance Matrix: (Units=1/GPa)
#
#
# Indices 1 2 3 4 5 6 
#
# 1 0.021334 -0.006445 -0.006267 0.000000 0.000000 0.000000
# 2 -0.006445 0.045291 -0.008268 0.000000 0.000000 0.000000
# 3 -0.006267 -0.008268 0.009191 0.000000 0.000000 0.000000
# 4 0.000000 0.000000 0.000000 0.219534 0.000000 0.000000
# 5 0.000000 0.000000 0.000000 0.000000 0.031251 0.000000
# 6 0.000000 0.000000 0.000000 0.000000 0.000000 0.077391
#
#
# Mechanical properties :
#
#
# Convention : Reuss Voigt Hill
#
# Bulk Modulus (GPa) = 29.53695 66.73996 48.13846
# Shear Modulus (GPa) = 10.93525 20.98903 15.96214
#
# Velocity S-wave (km/s) = 2.51218 3.48042 3.03516
# Velocity P-wave (km/s) = 5.04592 7.39382 6.32969
#
# Compressibility (1/GPa) = 0.03385590
#
# Stress axis : x y z
#
# Youngs Moduli (GPa) = 46.87460 22.07948 108.80124
#
# Poissons Ratio (x) = 0.14230 0.68186
# Poissons Ratio (y) = 0.30210 0.89955
# Poissons Ratio (z) = 0.29376 0.18255
#
# Static dielectric constant tensor:
#      x y z
#    x 3.310710 0.000000 0.000000 
#    y 0.000000 2.712610 0.000000 
#    z 0.000000 0.000000 3.976030 
# 
# 
# High freq. dielectric constant tensor:
#      x y z
#    x 1.673070 0.000000 0.000000 
#    y 0.000000 1.600290 0.000000 
#    z 0.000000 0.000000 1.696190 
# 
# From -- ./inp_files/18510.got.cif
#   From: 2010.03.12/outbox.cif.g09.slc.cpg/sg35_10_cif.got.tgz:18510.got - 2010.04.14 02:02:04.
