data_PCOD8172425
_publ_section_title
;
Structure prediction by ZEFSAII (Michael W. Deem and Ramdas Pophale) SiO2 
 PCOD8172425
Probable space group: C M M 2
;
_chemical_formula_sum "Si O2"
_cell_formula_units_Z 64
_cell_length_a 19.388327
_cell_length_b 18.936446
_cell_length_c 9.596140
_cell_angle_alpha 90.000000
_cell_angle_beta 90.000000
_cell_angle_gamma 90.000000
_cell_volume 3523.184486
_symmetry_space_group_name_H-M "C M M 2"
_symmetry_group_IT_number 35
_symmetry_cell_setting 'orthorhombic'
loop_
_space_group_symop_operation_xyz
x,y,z
-x,-y,z
-x,y,z
x,-y,z
1/2+x,1/2+y,z
1/2-x,1/2-y,z
1/2-x,1/2+y,z
1/2+x,1/2-y,z
loop_
_atom_site_type_symbol
_atom_site_label
_atom_site_fract_x
_atom_site_fract_y
_atom_site_fract_z
Si Si1 0.660375 0.830043 0.105630
Si Si2 0.422917 0.165844 0.841220
Si Si3 0.419115 0.919479 0.329380
Si Si4 0.720466 0.675236 0.708193
Si Si5 0.573901 0.320709 0.726154
Si Si6 0.807886 0.828383 0.040631
Si Si7 0.845374 0.581129 0.620829
Si Si8 0.925144 0.920552 0.981585
O O1 0.611362 0.861353 0.224418
O O2 0.739461 0.856011 0.120205
O O3 0.664287 0.745108 0.102541
O O4 0.629329 0.857620 0.960821
O O5 0.500000 0.146480 0.888037
O O6 0.416121 0.249014 0.813745
O O7 0.404016 0.121476 0.705898
O O8 0.500000 0.902471 0.359947
O O9 0.370753 0.911782 0.463427
O O10 0.412833 0.000000 0.271590
O O11 0.750000 0.750000 0.660509
O O12 0.643849 0.667866 0.635960
O O13 0.769937 0.614669 0.648217
O O14 0.710751 0.674133 0.875768
O O15 0.500000 0.317478 0.642127
O O16 0.569599 0.385176 0.831570
O O17 0.867864 0.883497 0.076801
O O18 0.841148 0.500000 0.667818
O O19 0.000000 0.916221 0.056451
O O20 0.901425 0.000000 0.956374
#
# Coordination Sequence:
#
# PCOD8172425 Si02
#       8
#     8   8   8   8   8   8   8   8
#     4  11  19  36  57  84 112 150 192 235 298 351
#     4  11  19  32  58  86 111 148 191 238 297 358
#     4  10  24  44  59  79 120 163 201 248 296 352
#     4  11  16  34  55  82 115 149 182 238 294 347
#     4   9  17  29  48  78 116 149 178 227 291 345
#     4  10  18  32  54  82 118 140 180 243 295 341
#     4  11  23  39  59  83 113 157 201 245 300 355
#     4   9  17  28  45  72 108 150 183 217 281 350
#
# _framework density 18.165384
#
# number of rings (size 3 to 8) (size 9 to 14) (size 15 to 20)
#    0.000    1.750    6.250    0.750    0.000    4.250 
#    2.250    0.000    0.000    0.000    0.000    0.000 
#    0.000    1.000    0.000    0.000    0.000    0.000 
#
# Total GULP energy -396436.594768 kJ/mol
# GULP energy per Si atom -12388.643587 kJ/mol
# Density = 1.812404 g / cm^3
# Si number density = 18.165384 Si / 1000 Ang^3
#
#
#
# Elastic Constant Matrix: (Units=GPa)
#
#
# Indices 1 2 3 4 5 6 
#
# 1 176.4482 68.6097 25.9626 0.0000 0.0000 0.0000
# 2 68.6097 110.2079 33.7248 0.0000 0.0000 0.0000
# 3 25.9626 33.7248 43.4515 0.0000 0.0000 0.0000
# 4 0.0000 0.0000 0.0000 19.7125 0.0000 0.0000
# 5 0.0000 0.0000 0.0000 0.0000 26.5258 0.0000
# 6 0.0000 0.0000 0.0000 0.0000 0.0000 24.2680
#
#
#
# Elastic Compliance Matrix: (Units=1/GPa)
#
#
# Indices 1 2 3 4 5 6 
#
# 1 0.007519 -0.004336 -0.001127 0.000000 0.000000 0.000000
# 2 -0.004336 0.014401 -0.008586 0.000000 0.000000 0.000000
# 3 -0.001127 -0.008586 0.030352 0.000000 0.000000 0.000000
# 4 0.000000 0.000000 0.000000 0.050729 0.000000 0.000000
# 5 0.000000 0.000000 0.000000 0.000000 0.037699 0.000000
# 6 0.000000 0.000000 0.000000 0.000000 0.000000 0.041206
#
#
# Mechanical properties :
#
#
# Convention : Reuss Voigt Hill
#
# Bulk Modulus (GPa) = 41.36926 65.18908 53.27917
# Shear Modulus (GPa) = 22.92908 27.55530 25.24219
#
# Velocity S-wave (km/s) = 3.55666 3.89898 3.73175
# Velocity P-wave (km/s) = 6.29996 7.49892 6.92543
#
# Compressibility (1/GPa) = 0.02417254
#
# Stress axis : x y z
#
# Youngs Moduli (GPa) = 132.99071 69.44113 32.94687
#
# Poissons Ratio (x) = 0.30111 0.03714
# Poissons Ratio (y) = 0.57667 0.28289
# Poissons Ratio (z) = 0.14993 0.59623
#
# Static dielectric constant tensor:
#      x y z
#    x 4.131710 0.000000 0.000000 
#    y 0.000000 3.373550 0.000000 
#    z 0.000000 0.000000 2.807360 
# 
# 
# High freq. dielectric constant tensor:
#      x y z
#    x 1.739570 0.000000 0.000000 
#    y 0.000000 1.704440 0.000000 
#    z 0.000000 0.000000 1.637210 
# 
# From -- ./inp_files/9432.got.cif
#   From: 2010.03.12/outbox.cif.g09.slc.cpg/sg35_5_cif.got.tgz:9432.got - 2010.04.14 02:02:04.
