data_PCOD8172475
_publ_section_title
;
Structure prediction by ZEFSAII (Michael W. Deem and Ramdas Pophale) SiO2 
 PCOD8172475
Probable space group: C M M 2
;
_chemical_formula_sum "Si O2"
_cell_formula_units_Z 64
_cell_length_a 15.630364
_cell_length_b 23.196717
_cell_length_c 9.684989
_cell_angle_alpha 90.000000
_cell_angle_beta 90.000000
_cell_angle_gamma 90.000000
_cell_volume 3511.516779
_symmetry_space_group_name_H-M "C M M 2"
_symmetry_group_IT_number 35
_symmetry_cell_setting 'orthorhombic'
loop_
_space_group_symop_operation_xyz
x,y,z
-x,-y,z
-x,y,z
x,-y,z
1/2+x,1/2+y,z
1/2-x,1/2-y,z
1/2-x,1/2+y,z
1/2+x,1/2-y,z
loop_
_atom_site_type_symbol
_atom_site_label
_atom_site_fract_x
_atom_site_fract_y
_atom_site_fract_z
Si Si1 0.349896 0.243868 0.918400
Si Si2 0.594258 0.660923 0.729450
Si Si3 0.270157 0.433436 0.784829
Si Si4 0.404209 0.068027 0.275313
Si Si5 0.759221 0.566257 0.475224
Si Si6 0.901397 0.137768 0.422682
Si Si7 0.324044 0.875225 0.022527
Si Si8 0.688706 0.301017 0.180581
O O1 0.250000 0.250000 0.886608
O O2 0.399065 0.275194 0.794808
O O3 0.371017 0.176185 0.936660
O O4 0.372769 0.276062 0.061179
O O5 0.500000 0.636232 0.753489
O O6 0.653414 0.612622 0.800253
O O7 0.611180 0.670722 0.567404
O O8 0.302967 0.500000 0.790313
O O9 0.224826 0.421287 0.637282
O O10 0.205782 0.422645 0.910806
O O11 0.500000 0.083537 0.326051
O O12 0.336203 0.094867 0.385831
O O13 0.391160 0.095249 0.124352
O O14 0.392677 0.000000 0.260989
O O15 0.762683 0.500000 0.441855
O O16 0.664963 0.584917 0.424143
O O17 0.874718 0.180306 0.300978
O O18 0.000000 0.116804 0.402577
O O19 0.244662 0.852686 0.115139
O O20 0.750000 0.250000 0.236746
#
# Coordination Sequence:
#
# PCOD8172475 Si02
#       8
#     8   8   8   8   8   8   8   8
#     4   9  18  34  54  75 101 139 177 215 269 323
#     4  10  20  34  52  81 112 143 181 223 268 318
#     4  10  19  34  56  80 108 147 184 219 271 329
#     4  10  20  35  56  81 109 142 183 232 283 332
#     4   9  19  35  55  79 109 146 182 223 273 324
#     4  10  20  34  55  81 111 144 182 223 267 321
#     4  10  18  35  57  80 105 139 182 227 275 329
#     4   9  18  34  52  76 103 138 177 220 269 319
#
# _framework density 18.225742
#
# number of rings (size 3 to 8) (size 9 to 14) (size 15 to 20)
#    0.000    2.625    3.750    0.375    0.000    2.000 
#    0.000    5.000    0.000    2.250    0.000    0.000 
#    0.000    0.000    0.000    0.000    0.000    0.000 
#
# Total GULP energy -396545.839551 kJ/mol
# GULP energy per Si atom -12392.057486 kJ/mol
# Density = 1.818426 g / cm^3
# Si number density = 18.225742 Si / 1000 Ang^3
#
#
#
# Elastic Constant Matrix: (Units=GPa)
#
#
# Indices 1 2 3 4 5 6 
#
# 1 95.4985 32.2197 52.8359 0.0000 0.0000 0.0000
# 2 32.2197 61.8901 39.2042 0.0000 0.0000 0.0000
# 3 52.8359 39.2042 93.1181 0.0000 0.0000 0.0000
# 4 0.0000 0.0000 0.0000 25.7038 0.0000 0.0000
# 5 0.0000 0.0000 0.0000 0.0000 23.0257 0.0000
# 6 0.0000 0.0000 0.0000 0.0000 0.0000 20.6255
#
#
#
# Elastic Compliance Matrix: (Units=1/GPa)
#
#
# Indices 1 2 3 4 5 6 
#
# 1 0.015791 -0.003471 -0.007499 0.000000 0.000000 0.000000
# 2 -0.003471 0.022797 -0.007628 0.000000 0.000000 0.000000
# 3 -0.007499 -0.007628 0.018206 0.000000 0.000000 0.000000
# 4 0.000000 0.000000 0.000000 0.038905 0.000000 0.000000
# 5 0.000000 0.000000 0.000000 0.000000 0.043430 0.000000
# 6 0.000000 0.000000 0.000000 0.000000 0.000000 0.048484
#
#
# Mechanical properties :
#
#
# Convention : Reuss Voigt Hill
#
# Bulk Modulus (GPa) = 51.02673 55.44736 53.23705
# Shear Modulus (GPa) = 21.61319 22.28746 21.95032
#
# Velocity S-wave (km/s) = 3.44737 3.50073 3.47415
# Velocity P-wave (km/s) = 6.62598 6.84315 6.73544
#
# Compressibility (1/GPa) = 0.01959757
#
# Stress axis : x y z
#
# Youngs Moduli (GPa) = 63.32673 43.86588 54.92809
#
# Poissons Ratio (x) = 0.15224 0.41189
# Poissons Ratio (y) = 0.21979 0.41902
# Poissons Ratio (z) = 0.47487 0.33463
#
# Static dielectric constant tensor:
#      x y z
#    x 3.294120 0.000000 0.000000 
#    y 0.000000 3.320800 0.000000 
#    z 0.000000 0.000000 3.478100 
# 
# 
# High freq. dielectric constant tensor:
#      x y z
#    x 1.687020 0.000000 0.000000 
#    y 0.000000 1.695890 0.000000 
#    z 0.000000 0.000000 1.712190 
# 
# From -- ./inp_files/7890.got.cif
#   From: 2010.03.12/outbox.cif.g09.slc.cpg/sg35_4_cif.got.tgz:7890.got - 2010.04.14 02:02:04.
