data_PCOD8172161
_publ_section_title
;
Structure prediction by ZEFSAII (Michael W. Deem and Ramdas Pophale) SiO2 
 PCOD8172161
Probable space group: C M M 2
;
_chemical_formula_sum "Si O2"
_cell_formula_units_Z 64
_cell_length_a 17.807168
_cell_length_b 14.733051
_cell_length_c 12.263632
_cell_angle_alpha 90.000000
_cell_angle_beta 90.000000
_cell_angle_gamma 90.000000
_cell_volume 3217.411859
_symmetry_space_group_name_H-M "C M M 2"
_symmetry_group_IT_number 35
_symmetry_cell_setting 'orthorhombic'
loop_
_space_group_symop_operation_xyz
x,y,z
-x,-y,z
-x,y,z
x,-y,z
1/2+x,1/2+y,z
1/2-x,1/2-y,z
1/2-x,1/2+y,z
1/2+x,1/2-y,z
loop_
_atom_site_type_symbol
_atom_site_label
_atom_site_fract_x
_atom_site_fract_y
_atom_site_fract_z
Si Si1 0.711619 0.152051 0.402380
Si Si2 0.639364 0.606792 0.166680
Si Si3 0.139364 0.893208 0.638080
Si Si4 0.414045 0.764459 0.777051
Si Si5 0.184612 0.395210 0.632928
Si Si6 0.914045 0.264459 0.027709
Si Si7 0.315388 0.104790 0.171832
Si Si8 0.869559 0.097598 0.402380
O O1 0.750000 0.250000 0.402380
O O2 0.661519 0.135711 0.510309
O O3 0.661519 0.135711 0.294451
O O4 0.779441 0.079449 0.402380
O O5 0.620931 0.500000 0.154354
O O6 0.595644 0.663327 0.076100
O O7 0.727664 0.625075 0.153117
O O8 0.610951 0.645134 0.286501
O O9 0.095644 0.836673 0.728660
O O10 0.227664 0.874925 0.651643
O O11 0.110951 0.854866 0.518259
O O12 0.120931 0.000000 0.650406
O O13 0.500000 0.794925 0.764260
O O14 0.362206 0.837413 0.718291
O O15 0.389536 0.760588 0.902380
O O16 0.164893 0.500000 0.652066
O O17 0.862206 0.337413 0.086469
O O18 0.000000 0.294925 0.040500
O O19 0.335107 0.000000 0.152693
O O20 0.909494 0.000000 0.402380
#
# Coordination Sequence:
#
# PCOD8172161 Si02
#       8
#     8   8   8   8   8   8   8   8
#     4  10  16  28  56  89 118 142 167 214 280 339
#     4   9  18  35  61  89 113 139 177 230 288 344
#     4   9  18  35  61  89 113 139 177 230 288 344
#     4  11  25  41  54  73 108 154 197 235 281 337
#     4  10  20  36  60  87 113 143 183 230 275 326
#     4  11  25  41  54  73 108 154 197 235 281 337
#     4  10  20  36  60  87 113 143 183 230 275 326
#     4   8  14  28  52  83 114 137 162 205 270 342
#
# _framework density 19.891763999999998
#
# number of rings (size 3 to 8) (size 9 to 14) (size 15 to 20)
#    0.000    2.250    0.000    6.375    0.000    4.000 
#    0.000    7.500    0.000    3.750    0.000    0.000 
#    0.000    0.000    0.000    0.000    0.000    0.000 
#
# Total GULP energy -396536.112822 kJ/mol
# GULP energy per Si atom -12391.753526 kJ/mol
# Density = 1.984649 g / cm^3
# Si number density = 19.891764 Si / 1000 Ang^3
#
#
#
# Elastic Constant Matrix: (Units=GPa)
#
#
# Indices 1 2 3 4 5 6 
#
# 1 41.9274 24.7218 44.1588 0.0000 0.0000 0.0000
# 2 24.7218 104.5389 59.8466 0.0000 0.0000 0.0000
# 3 44.1588 59.8466 179.8142 0.0000 0.0000 0.0000
# 4 0.0000 0.0000 0.0000 24.3682 0.0000 0.0000
# 5 0.0000 0.0000 0.0000 0.0000 -34.3223 0.0000
# 6 0.0000 0.0000 0.0000 0.0000 0.0000 14.2473
#
#
#
# Elastic Compliance Matrix: (Units=1/GPa)
#
#
# Indices 1 2 3 4 5 6 
#
# 1 0.033450 -0.003963 -0.006896 0.000000 0.000000 0.000000
# 2 -0.003963 0.012287 -0.003116 0.000000 0.000000 0.000000
# 3 -0.006896 -0.003116 0.008292 0.000000 0.000000 0.000000
# 4 0.000000 0.000000 0.000000 0.041037 0.000000 0.000000
# 5 0.000000 0.000000 0.000000 0.000000 -0.029136 0.000000
# 6 0.000000 0.000000 0.000000 0.000000 0.000000 0.070189
#
#
# Mechanical properties :
#
#
# Convention : Reuss Voigt Hill
#
# Bulk Modulus (GPa) = 38.34430 64.85942 51.60186
# Shear Modulus (GPa) = 28.94156 14.02887 21.48522
#
# Velocity S-wave (km/s) = 3.81852 2.65855 3.29006
# Velocity P-wave (km/s) = 6.22574 6.48852 6.35848
#
# Compressibility (1/GPa) = 0.02607950
#
# Stress axis : x y z
#
# Youngs Moduli (GPa) = 29.89526 81.38738 120.59938
#
# Poissons Ratio (x) = 0.32252 0.83163
# Poissons Ratio (y) = 0.11847 0.37581
# Poissons Ratio (z) = 0.20615 0.25362
#
# Static dielectric constant tensor:
#      x y z
#    x 3.276030 0.000000 0.000000 
#    y 0.000000 3.644600 0.000000 
#    z 0.000000 0.000000 3.859130 
# 
# 
# High freq. dielectric constant tensor:
#      x y z
#    x 1.734550 0.000000 0.000000 
#    y 0.000000 1.780870 0.000000 
#    z 0.000000 0.000000 1.785460 
# 
# From -- ./inp_files/13602.got.cif
#   From: 2010.03.12/outbox.cif.g09.slc.cpg/sg35_7_cif.got.tgz:13602.got - 2010.04.14 02:02:04.
