data_PCOD8172920
_publ_section_title
;
Structure prediction by ZEFSAII (Michael W. Deem and Ramdas Pophale) SiO2 
 PCOD8172920
Probable space group: C M M 2
;
_chemical_formula_sum "Si O2"
_cell_formula_units_Z 60
_cell_length_a 13.772228
_cell_length_b 13.283187
_cell_length_c 16.155584
_cell_angle_alpha 90.000000
_cell_angle_beta 90.000000
_cell_angle_gamma 90.000000
_cell_volume 2955.487673
_symmetry_space_group_name_H-M "C M M 2"
_symmetry_group_IT_number 35
_symmetry_cell_setting 'orthorhombic'
loop_
_space_group_symop_operation_xyz
x,y,z
-x,-y,z
-x,y,z
x,-y,z
1/2+x,1/2+y,z
1/2-x,1/2-y,z
1/2-x,1/2+y,z
1/2+x,1/2-y,z
loop_
_atom_site_type_symbol
_atom_site_label
_atom_site_fract_x
_atom_site_fract_y
_atom_site_fract_z
Si Si1 0.608136 0.119172 0.440480
Si Si2 0.389099 0.617490 0.017393
Si Si3 0.703096 0.115337 0.270906
Si Si4 0.892886 0.302546 0.774789
Si Si5 0.303695 0.118264 0.607961
Si Si6 0.250000 0.250000 0.905276
Si Si7 0.610692 0.301773 0.201182
Si Si8 0.893817 0.885462 0.677105
O O1 0.500000 0.162769 0.425880
O O2 0.676123 0.149576 0.363752
O O3 0.650502 0.166847 0.525371
O O4 0.603208 0.000000 0.448540
O O5 0.500000 0.633021 0.987001
O O6 0.361416 0.500000 0.018553
O O7 0.316530 0.676667 0.958446
O O8 0.375852 0.662324 0.108111
O O9 0.642071 0.184319 0.206886
O O10 0.818469 0.132401 0.259739
O O11 0.674621 0.000000 0.253486
O O12 0.864889 0.356293 0.689405
O O13 0.817344 0.323010 0.848494
O O14 0.893147 0.181731 0.759876
O O15 0.000000 0.340508 0.800895
O O16 0.191470 0.156015 0.616837
O O17 0.303066 0.000000 0.596763
O O18 0.500000 0.317003 0.231138
O O19 0.000000 0.876653 0.633222
O O20 0.872482 0.000000 0.704653
#
# Coordination Sequence:
#
# PCOD8172920 Si02
#       8
#     8   8   8   8   8   4   8   8
#     4   9  18  33  54  80 113 156 204 244 283 344
#     4  10  23  43  66  89 118 158 196 233 292 371
#     4  10  20  36  60  91 122 157 197 244 297 350
#     4  11  22  36  55  83 115 149 190 243 294 340
#     4  10  19  35  56  79 111 156 201 241 286 340
#     4  12  22  38  60  90 118 144 196 248 298 344
#     4  10  21  39  61  90 121 153 194 241 293 360
#     4   9  18  34  54  76 105 146 197 246 290 340
#
# _framework density 20.301217999999999
#
# number of rings (size 3 to 8) (size 9 to 14) (size 15 to 20)
#    0.000    2.000    1.333    2.400    0.000    3.467 
#    4.800    2.000    0.000    4.400    0.000    0.000 
#    0.000    0.000    0.000    0.000    0.000    0.000 
#
# Total GULP energy -371874.707621 kJ/mol
# GULP energy per Si atom -12395.823587 kJ/mol
# Density = 2.025501 g / cm^3
# Si number density = 20.301218 Si / 1000 Ang^3
#
#
#
# Elastic Constant Matrix: (Units=GPa)
#
#
# Indices 1 2 3 4 5 6 
#
# 1 179.6781 29.6123 84.4164 0.0000 0.0000 0.0000
# 2 29.6123 53.7289 34.6305 0.0000 0.0000 0.0000
# 3 84.4164 34.6305 119.1139 0.0000 0.0000 0.0000
# 4 0.0000 0.0000 0.0000 24.7898 0.0000 0.0000
# 5 0.0000 0.0000 0.0000 0.0000 33.1985 0.0000
# 6 0.0000 0.0000 0.0000 0.0000 0.0000 28.5600
#
#
#
# Elastic Compliance Matrix: (Units=1/GPa)
#
#
# Indices 1 2 3 4 5 6 
#
# 1 0.008385 -0.000974 -0.005659 0.000000 0.000000 0.000000
# 2 -0.000974 0.023017 -0.006002 0.000000 0.000000 0.000000
# 3 -0.005659 -0.006002 0.014151 0.000000 0.000000 0.000000
# 4 0.000000 0.000000 0.000000 0.040339 0.000000 0.000000
# 5 0.000000 0.000000 0.000000 0.000000 0.030122 0.000000
# 6 0.000000 0.000000 0.000000 0.000000 0.000000 0.035014
#
#
# Mechanical properties :
#
#
# Convention : Reuss Voigt Hill
#
# Bulk Modulus (GPa) = 49.30143 72.20437 60.75290
# Shear Modulus (GPa) = 27.31368 30.90043 29.10705
#
# Velocity S-wave (km/s) = 3.67198 3.90564 3.79061
# Velocity P-wave (km/s) = 6.50504 7.48214 7.01063
#
# Compressibility (1/GPa) = 0.02028339
#
# Stress axis : x y z
#
# Youngs Moduli (GPa) = 119.26318 43.44615 70.66618
#
# Poissons Ratio (x) = 0.04230 0.39992
# Poissons Ratio (y) = 0.11611 0.42413
# Poissons Ratio (z) = 0.67495 0.26076
#
# Static dielectric constant tensor:
#      x y z
#    x 4.107030 0.000000 0.000000 
#    y 0.000000 3.673720 0.000000 
#    z 0.000000 0.000000 3.604520 
# 
# 
# High freq. dielectric constant tensor:
#      x y z
#    x 1.812700 0.000000 0.000000 
#    y 0.000000 1.785400 0.000000 
#    z 0.000000 0.000000 1.774800 
# 
# From -- ./inp_files/16850.got.cif
#   From: 2010.03.12/outbox.cif.g09.slc.cpg/sg35_9_cif.got.tgz:16850.got - 2010.04.14 02:02:04.
