data_PCOD8172543
_publ_section_title
;
Structure prediction by ZEFSAII (Michael W. Deem and Ramdas Pophale) SiO2 
 PCOD8172543
Probable space group: C M M 2
;
_chemical_formula_sum "Si O2"
_cell_formula_units_Z 64
_cell_length_a 9.012836
_cell_length_b 28.971360
_cell_length_c 12.443827
_cell_angle_alpha 90.000000
_cell_angle_beta 90.000000
_cell_angle_gamma 90.000000
_cell_volume 3249.258891
_symmetry_space_group_name_H-M "C M M 2"
_symmetry_group_IT_number 35
_symmetry_cell_setting 'orthorhombic'
loop_
_space_group_symop_operation_xyz
x,y,z
-x,-y,z
-x,y,z
x,-y,z
1/2+x,1/2+y,z
1/2-x,1/2-y,z
1/2-x,1/2+y,z
1/2+x,1/2-y,z
loop_
_atom_site_type_symbol
_atom_site_label
_atom_site_fract_x
_atom_site_fract_y
_atom_site_fract_z
Si Si1 0.174780 0.887048 0.411400
Si Si2 0.324919 0.395136 0.822261
Si Si3 0.835665 0.418663 0.026820
Si Si4 0.176547 0.947493 0.612897
Si Si5 0.167064 0.684511 0.096918
Si Si6 0.824197 0.296837 0.340836
Si Si7 0.830604 0.449152 0.249746
Si Si8 0.674620 0.705326 0.885926
O O1 0.231238 0.918055 0.511028
O O2 0.258323 0.838212 0.412696
O O3 0.215314 0.914575 0.303817
O O4 0.000000 0.878051 0.415928
O O5 0.500000 0.394764 0.818938
O O6 0.260494 0.421057 0.717994
O O7 0.266717 0.341998 0.829751
O O8 0.276365 0.423431 0.927714
O O9 0.827315 0.370040 0.086876
O O10 0.795443 0.453908 0.122289
O O11 0.000000 0.427757 0.980234
O O12 0.000000 0.949247 0.616069
O O13 0.239361 0.000000 0.608278
O O14 0.221067 0.697274 0.216150
O O15 0.000000 0.702908 0.074724
O O16 0.279941 0.706466 0.011380
O O17 0.750000 0.250000 0.384373
O O18 0.000000 0.295271 0.356436
O O19 0.810816 0.500000 0.300220
O O20 0.000000 0.431159 0.266460
O O21 0.500000 0.709672 0.874710
O O22 0.750000 0.750000 0.829028
#
# Coordination Sequence:
#
# PCOD8172543 Si02
#       8
#     8   8   8   8   8   8   8   8
#     4  11  22  37  59  84 112 146 190 241 286 336
#     4   9  19  35  55  80 108 141 182 232 282 333
#     4   9  17  32  51  77 113 150 181 220 277 337
#     4   9  19  38  62  84 108 142 186 237 291 339
#     4   9  17  31  51  74 107 148 185 221 264 321
#     4  11  22  37  56  82 115 152 191 230 282 338
#     4  10  20  35  55  80 114 153 186 226 287 349
#     4  10  19  30  48  76 109 144 183 222 267 324
#
# _framework density 19.696798999999999
#
# number of rings (size 3 to 8) (size 9 to 14) (size 15 to 20)
#    0.000    2.250    1.250    1.875    0.000    4.250 
#    0.000    1.875    0.000    3.000    0.000    0.000 
#    0.000    0.000    0.000    0.000    0.000    0.000 
#
# Total GULP energy -396725.584490 kJ/mol
# GULP energy per Si atom -12397.674515 kJ/mol
# Density = 1.965197 g / cm^3
# Si number density = 19.696799 Si / 1000 Ang^3
#
#
#
# Elastic Constant Matrix: (Units=GPa)
#
#
# Indices 1 2 3 4 5 6 
#
# 1 56.0409 42.5402 29.2451 0.0000 0.0000 0.0000
# 2 42.5402 139.2385 61.4203 0.0000 0.0000 0.0000
# 3 29.2451 61.4203 97.0686 0.0000 0.0000 0.0000
# 4 0.0000 0.0000 0.0000 23.4749 0.0000 0.0000
# 5 0.0000 0.0000 0.0000 0.0000 18.6302 0.0000
# 6 0.0000 0.0000 0.0000 0.0000 0.0000 24.0218
#
#
#
# Elastic Compliance Matrix: (Units=1/GPa)
#
#
# Indices 1 2 3 4 5 6 
#
# 1 0.024111 -0.005774 -0.003611 0.000000 0.000000 0.000000
# 2 -0.005774 0.011345 -0.005439 0.000000 0.000000 0.000000
# 3 -0.003611 -0.005439 0.014832 0.000000 0.000000 0.000000
# 4 0.000000 0.000000 0.000000 0.042599 0.000000 0.000000
# 5 0.000000 0.000000 0.000000 0.000000 0.053676 0.000000
# 6 0.000000 0.000000 0.000000 0.000000 0.000000 0.041629
#
#
# Mechanical properties :
#
#
# Convention : Reuss Voigt Hill
#
# Bulk Modulus (GPa) = 48.44881 62.08437 55.26659
# Shear Modulus (GPa) = 22.24994 23.83487 23.04240
#
# Velocity S-wave (km/s) = 3.36463 3.48241 3.42403
# Velocity P-wave (km/s) = 6.30437 6.91072 6.61449
#
# Compressibility (1/GPa) = 0.02064034
#
# Stress axis : x y z
#
# Youngs Moduli (GPa) = 41.47449 88.14308 67.42359
#
# Poissons Ratio (x) = 0.50890 0.24347
# Poissons Ratio (y) = 0.23946 0.36673
# Poissons Ratio (z) = 0.14977 0.47943
#
# Static dielectric constant tensor:
#      x y z
#    x 3.361510 0.000000 0.000000 
#    y 0.000000 3.891820 0.000000 
#    z 0.000000 0.000000 3.475810 
# 
# 
# High freq. dielectric constant tensor:
#      x y z
#    x 1.748280 0.000000 0.000000 
#    y 0.000000 1.782170 0.000000 
#    z 0.000000 0.000000 1.742890 
# 
# From -- ./inp_files/11922.got.cif
#   From: 2010.03.12/outbox.cif.g09.slc.cpg/sg35_6_cif.got.tgz:11922.got - 2010.04.14 02:02:04.
