data_PCOD8172162
_publ_section_title
;
Structure prediction by ZEFSAII (Michael W. Deem and Ramdas Pophale) SiO2 
 PCOD8172162
Probable space group: C M M 2
;
_chemical_formula_sum "Si O2"
_cell_formula_units_Z 64
_cell_length_a 20.893683
_cell_length_b 27.491757
_cell_length_c 7.944760
_cell_angle_alpha 90.000000
_cell_angle_beta 90.000000
_cell_angle_gamma 90.000000
_cell_volume 4563.502367
_symmetry_space_group_name_H-M "C M M 2"
_symmetry_group_IT_number 35
_symmetry_cell_setting 'orthorhombic'
loop_
_space_group_symop_operation_xyz
x,y,z
-x,-y,z
-x,y,z
x,-y,z
1/2+x,1/2+y,z
1/2-x,1/2-y,z
1/2-x,1/2+y,z
1/2+x,1/2-y,z
loop_
_atom_site_type_symbol
_atom_site_label
_atom_site_fract_x
_atom_site_fract_y
_atom_site_fract_z
Si Si1 0.125168 0.150810 0.457680
Si Si2 0.573798 0.445487 0.964687
Si Si3 0.315384 0.782021 0.767387
Si Si4 0.262082 0.192918 0.448813
Si Si5 0.071952 0.793354 0.767379
Si Si6 0.762084 0.307080 0.085966
Si Si7 0.073798 0.054513 0.570078
Si Si8 0.874829 0.150811 0.077080
O O1 0.197740 0.164882 0.499659
O O2 0.079891 0.175123 0.597605
O O3 0.117495 0.092570 0.468814
O O4 0.107447 0.168199 0.267380
O O5 0.500000 0.436554 0.012343
O O6 0.594292 0.500000 0.017795
O O7 0.584296 0.437880 0.767383
O O8 0.617496 0.407429 0.065946
O O9 0.250000 0.750000 0.767403
O O10 0.313725 0.815472 0.598591
O O11 0.379523 0.751265 0.767368
O O12 0.313731 0.815468 0.936195
O O13 0.250000 0.250000 0.432238
O O14 0.287884 0.173702 0.267390
O O15 0.000000 0.772702 0.767382
O O16 0.079895 0.824875 0.937156
O O17 0.750000 0.250000 0.102570
O O18 0.697744 0.335117 0.035109
O O19 0.000000 0.063447 0.522423
O O20 0.094292 0.000000 0.516970
#
# Coordination Sequence:
#
# PCOD8172162 Si02
#       8
#     8   8   8   8   8   8   8   8
#     4  11  20  30  45  62  79 105 140 178 216 247
#     4   9  18  31  43  55  77 109 141 175 212 245
#     4  10  16  30  46  56  76 112 131 157 210 251
#     4   9  16  27  44  62  77  97 133 172 201 247
#     4  12  22  30  41  63  88 104 134 180 211 242
#     4   9  16  27  44  62  77  97 133 172 201 247
#     4   9  18  31  43  55  77 109 141 175 212 245
#     4  11  20  30  45  62  79 105 140 178 216 247
#
# _framework density 14.024316000000001
#
# number of rings (size 3 to 8) (size 9 to 14) (size 15 to 20)
#    0.000    2.000    6.250    1.500    0.000    2.500 
#    0.000    1.250    0.000    0.000    0.000    0.000 
#    0.000    0.000    0.000    0.000    0.000    2.500 
#
# Total GULP energy -396501.327077 kJ/mol
# GULP energy per Si atom -12390.666471 kJ/mol
# Density = 1.399240 g / cm^3
# Si number density = 14.024316 Si / 1000 Ang^3
#
#
#
# Elastic Constant Matrix: (Units=GPa)
#
#
# Indices 1 2 3 4 5 6 
#
# 1 69.3887 47.0555 39.7413 0.0000 0.0000 0.0000
# 2 47.0555 62.7456 24.2390 0.0000 0.0000 0.0000
# 3 39.7413 24.2390 110.6173 0.0000 0.0000 0.0000
# 4 0.0000 0.0000 0.0000 106.8602 0.0000 0.0000
# 5 0.0000 0.0000 0.0000 0.0000 49.3716 0.0000
# 6 0.0000 0.0000 0.0000 0.0000 0.0000 24.5259
#
#
#
# Elastic Compliance Matrix: (Units=1/GPa)
#
#
# Indices 1 2 3 4 5 6 
#
# 1 0.033890 -0.022627 -0.007217 0.000000 0.000000 0.000000
# 2 -0.022627 0.032519 0.001004 0.000000 0.000000 0.000000
# 3 -0.007217 0.001004 0.011413 0.000000 0.000000 0.000000
# 4 0.000000 0.000000 0.000000 0.009358 0.000000 0.000000
# 5 0.000000 0.000000 0.000000 0.000000 0.020255 0.000000
# 6 0.000000 0.000000 0.000000 0.000000 0.000000 0.040773
#
#
# Mechanical properties :
#
#
# Convention : Reuss Voigt Hill
#
# Bulk Modulus (GPa) = 49.65294 51.64702 50.64998
# Shear Modulus (GPa) = 23.51809 44.93262 34.22535
#
# Velocity S-wave (km/s) = 4.09950 5.66645 4.94543
# Velocity P-wave (km/s) = 7.60852 8.92851 8.29481
#
# Compressibility (1/GPa) = 0.02013979
#
# Stress axis : x y z
#
# Youngs Moduli (GPa) = 29.50753 30.75155 87.61765
#
# Poissons Ratio (x) = 0.69582 0.63237
# Poissons Ratio (y) = 0.66767 -0.08793
# Poissons Ratio (z) = 0.21297 -0.03086
#
# Static dielectric constant tensor:
#      x y z
#    x 2.500470 0.000000 0.000000 
#    y 0.000000 2.618820 0.000000 
#    z 0.000000 0.000000 3.900650 
# 
# 
# High freq. dielectric constant tensor:
#      x y z
#    x 1.493280 0.000000 0.000000 
#    y 0.000000 1.499150 0.000000 
#    z 0.000000 0.000000 1.566250 
# 
# From -- ./inp_files/9555.got.cif
#   From: 2010.03.12/outbox.cif.g09.slc.cpg/sg35_5_cif.got.tgz:9555.got - 2010.04.14 02:02:04.
