data_PCOD8172484
_publ_section_title
;
Structure prediction by ZEFSAII (Michael W. Deem and Ramdas Pophale) SiO2 
 PCOD8172484
Probable space group: C M M 2
;
_chemical_formula_sum "Si O2"
_cell_formula_units_Z 64
_cell_length_a 9.181881
_cell_length_b 25.759265
_cell_length_c 17.108169
_cell_angle_alpha 90.000000
_cell_angle_beta 90.000000
_cell_angle_gamma 90.000000
_cell_volume 4046.398570
_symmetry_space_group_name_H-M "C M M 2"
_symmetry_group_IT_number 35
_symmetry_cell_setting 'orthorhombic'
loop_
_space_group_symop_operation_xyz
x,y,z
-x,-y,z
-x,y,z
x,-y,z
1/2+x,1/2+y,z
1/2-x,1/2-y,z
1/2-x,1/2+y,z
1/2+x,1/2-y,z
loop_
_atom_site_type_symbol
_atom_site_label
_atom_site_fract_x
_atom_site_fract_y
_atom_site_fract_z
Si Si1 0.330278 0.616522 0.534850
Si Si2 0.342536 0.058026 0.655708
Si Si3 0.163231 0.938716 0.241498
Si Si4 0.332791 0.395214 0.777851
Si Si5 0.166354 0.059630 0.941053
Si Si6 0.327396 0.060127 0.398938
Si Si7 0.336299 0.938260 0.093301
Si Si8 0.167864 0.196817 0.662821
O O1 0.500000 0.611713 0.513290
O O2 0.287344 0.575020 0.599628
O O3 0.234642 0.602928 0.459087
O O4 0.293914 0.671487 0.577587
O O5 0.500000 0.087726 0.645962
O O6 0.279365 0.062961 0.742894
O O7 0.377782 0.000000 0.634901
O O8 0.258476 0.923940 0.316576
O O9 0.242759 0.915094 0.165227
O O10 0.000000 0.915290 0.248843
O O11 0.152790 0.000000 0.232885
O O12 0.500000 0.409539 0.757887
O O13 0.307886 0.399184 0.870822
O O14 0.292296 0.340203 0.736862
O O15 0.000000 0.061918 0.969674
O O16 0.204162 0.000000 0.916353
O O17 0.266094 0.079530 0.011744
O O18 0.500000 0.066503 0.394351
O O19 0.287146 0.000000 0.421002
O O20 0.500000 0.916110 0.098264
O O21 0.337378 0.000000 0.098610
O O22 0.250000 0.250000 0.673797
O O23 0.000000 0.210367 0.665216
#
# Coordination Sequence:
#
# PCOD8172484 Si02
#       8
#     8   8   8   8   8   8   8   8
#     4  10  20  32  45  62  83 109 143 177 211 256
#     4  10  19  28  39  58  84 112 141 172 207 248
#     4   9  16  26  40  57  80 115 155 185 210 244
#     4   9  18  31  45  62  83 109 143 178 213 257
#     4   9  16  26  41  60  84 115 147 177 209 247
#     4  10  19  29  42  63  91 119 147 180 216 251
#     4   9  16  25  37  55  82 115 149 183 214 243
#     4   9  19  34  50  66  83 106 138 178 222 265
#
# _framework density 15.816535
#
# number of rings (size 3 to 8) (size 9 to 14) (size 15 to 20)
#    0.000    2.625    0.000    3.375    0.000    9.750 
#    0.000    1.250    0.000    0.000    0.000    0.000 
#    0.000    1.000    0.000    6.250    0.000    4.750 
#
# Total GULP energy -396452.013681 kJ/mol
# GULP energy per Si atom -12389.125428 kJ/mol
# Density = 1.578054 g / cm^3
# Si number density = 15.816535 Si / 1000 Ang^3
#
#
#
# Elastic Constant Matrix: (Units=GPa)
#
#
# Indices 1 2 3 4 5 6 
#
# 1 88.1337 27.2305 53.8863 0.0000 0.0000 0.0000
# 2 27.2305 50.5170 31.0232 0.0000 0.0000 0.0000
# 3 53.8863 31.0232 113.9590 0.0000 0.0000 0.0000
# 4 0.0000 0.0000 0.0000 10.9380 0.0000 0.0000
# 5 0.0000 0.0000 0.0000 0.0000 -12.2114 0.0000
# 6 0.0000 0.0000 0.0000 0.0000 0.0000 18.8536
#
#
#
# Elastic Compliance Matrix: (Units=1/GPa)
#
#
# Indices 1 2 3 4 5 6 
#
# 1 0.016977 -0.005069 -0.006648 0.000000 0.000000 0.000000
# 2 -0.005069 0.025282 -0.004486 0.000000 0.000000 0.000000
# 3 -0.006648 -0.004486 0.013140 0.000000 0.000000 0.000000
# 4 0.000000 0.000000 0.000000 0.091425 0.000000 0.000000
# 5 0.000000 0.000000 0.000000 0.000000 -0.081890 0.000000
# 6 0.000000 0.000000 0.000000 0.000000 0.000000 0.053040
#
#
# Mechanical properties :
#
#
# Convention : Reuss Voigt Hill
#
# Bulk Modulus (GPa) = 43.48903 52.98776 48.23839
# Shear Modulus (GPa) = 31.63689 12.88068 22.25879
#
# Velocity S-wave (km/s) = 4.47726 2.85683 3.75548
# Velocity P-wave (km/s) = 7.36773 6.66755 7.02637
#
# Compressibility (1/GPa) = 0.02299431
#
# Stress axis : x y z
#
# Youngs Moduli (GPa) = 58.90303 39.55323 76.10488
#
# Poissons Ratio (x) = 0.20048 0.50593
# Poissons Ratio (y) = 0.29856 0.34140
# Poissons Ratio (z) = 0.39158 0.17743
#
# Static dielectric constant tensor:
#      x y z
#    x 4.451090 0.000000 0.000000 
#    y 0.000000 2.596830 0.000000 
#    z 0.000000 0.000000 3.154760 
# 
# 
# High freq. dielectric constant tensor:
#      x y z
#    x 1.627180 0.000000 0.000000 
#    y 0.000000 1.538940 0.000000 
#    z 0.000000 0.000000 1.610530 
# 
# From -- ./inp_files/18533.got.cif
#   From: 2010.03.12/outbox.cif.g09.slc.cpg/sg35_10_cif.got.tgz:18533.got - 2010.04.14 02:02:04.
