data_PCOD8172290
_publ_section_title
;
Structure prediction by ZEFSAII (Michael W. Deem and Ramdas Pophale) SiO2 
 PCOD8172290
Probable space group: C M M 2
;
_chemical_formula_sum "Si O2"
_cell_formula_units_Z 64
_cell_length_a 14.717214
_cell_length_b 18.769619
_cell_length_c 12.103395
_cell_angle_alpha 90.000000
_cell_angle_beta 90.000000
_cell_angle_gamma 90.000000
_cell_volume 3343.399467
_symmetry_space_group_name_H-M "C M M 2"
_symmetry_group_IT_number 35
_symmetry_cell_setting 'orthorhombic'
loop_
_space_group_symop_operation_xyz
x,y,z
-x,-y,z
-x,y,z
x,-y,z
1/2+x,1/2+y,z
1/2-x,1/2-y,z
1/2-x,1/2+y,z
1/2+x,1/2-y,z
loop_
_atom_site_type_symbol
_atom_site_label
_atom_site_fract_x
_atom_site_fract_y
_atom_site_fract_z
Si Si1 0.399839 0.205763 0.704140
Si Si2 0.098679 0.134903 0.788190
Si Si3 0.340807 0.421112 0.570272
Si Si4 0.302815 0.180369 0.491358
Si Si5 0.903666 0.917749 0.331725
Si Si6 0.393638 0.082578 0.063610
Si Si7 0.704414 0.916410 0.291783
Si Si8 0.773500 0.330998 0.892934
O O1 0.500000 0.175150 0.729584
O O2 0.391652 0.286922 0.739049
O O3 0.384886 0.202244 0.572019
O O4 0.326773 0.162947 0.776816
O O5 0.103716 0.081625 0.684444
O O6 0.179369 0.124292 0.877826
O O7 0.000000 0.123666 0.845895
O O8 0.299459 0.500000 0.557088
O O9 0.259987 0.364855 0.573748
O O10 0.402377 0.404187 0.463397
O O11 0.250000 0.250000 0.445789
O O12 0.337833 0.131511 0.390091
O O13 0.809894 0.889511 0.275622
O O14 0.000000 0.882392 0.289089
O O15 0.909571 0.000000 0.302737
O O16 0.500000 0.103076 0.058677
O O17 0.356462 0.097657 0.185740
O O18 0.379252 0.000000 0.031242
O O19 0.336062 0.132868 0.984439
O O20 0.702905 0.000000 0.325389
O O21 0.750000 0.250000 0.928704
#
# Coordination Sequence:
#
# PCOD8172290 Si02
#       8
#     8   8   8   8   8   8   8   8
#     4  10  19  33  54  81 113 151 187 228 282 337
#     4  10  19  32  52  80 114 149 181 217 273 338
#     4  10  18  29  48  74 111 151 184 218 262 327
#     4  11  18  33  53  79 115 149 187 229 278 331
#     4   8  14  26  46  73 104 141 180 214 259 322
#     4  10  22  42  65  85 109 148 197 245 294 348
#     4   9  20  36  55  79 109 146 190 238 290 341
#     4  10  20  38  60  83 114 147 192 240 287 338
#
# _framework density 19.142194
#
# number of rings (size 3 to 8) (size 9 to 14) (size 15 to 20)
#    0.000    2.250    2.500    2.250    0.000    2.750 
#    0.000    0.625    0.000    5.625    0.000    0.000 
#    0.000    0.000    0.000    0.000    0.000    0.000 
#
# Total GULP energy -396458.298546 kJ/mol
# GULP energy per Si atom -12389.321830 kJ/mol
# Density = 1.909863 g / cm^3
# Si number density = 19.142194 Si / 1000 Ang^3
#
#
#
# Elastic Constant Matrix: (Units=GPa)
#
#
# Indices 1 2 3 4 5 6 
#
# 1 138.6327 33.0124 55.2448 0.0000 0.0000 0.0000
# 2 33.0124 60.2190 38.7347 0.0000 0.0000 0.0000
# 3 55.2448 38.7347 93.6748 0.0000 0.0000 0.0000
# 4 0.0000 0.0000 0.0000 26.4185 0.0000 0.0000
# 5 0.0000 0.0000 0.0000 0.0000 33.0590 0.0000
# 6 0.0000 0.0000 0.0000 0.0000 0.0000 19.2275
#
#
#
# Elastic Compliance Matrix: (Units=1/GPa)
#
#
# Indices 1 2 3 4 5 6 
#
# 1 0.009642 -0.002218 -0.004769 0.000000 0.000000 0.000000
# 2 -0.002218 0.023134 -0.008258 0.000000 0.000000 0.000000
# 3 -0.004769 -0.008258 0.016902 0.000000 0.000000 0.000000
# 4 0.000000 0.000000 0.000000 0.037852 0.000000 0.000000
# 5 0.000000 0.000000 0.000000 0.000000 0.030249 0.000000
# 6 0.000000 0.000000 0.000000 0.000000 0.000000 0.052009
#
#
# Mechanical properties :
#
#
# Convention : Reuss Voigt Hill
#
# Bulk Modulus (GPa) = 52.11556 60.72335 56.41945
# Shear Modulus (GPa) = 24.19267 26.77664 25.48465
#
# Velocity S-wave (km/s) = 3.55891 3.74415 3.65270
# Velocity P-wave (km/s) = 6.64623 7.10511 6.87950
#
# Compressibility (1/GPa) = 0.01918813
#
# Stress axis : x y z
#
# Youngs Moduli (GPa) = 103.71276 43.22713 59.16310
#
# Poissons Ratio (x) = 0.09588 0.28216
# Poissons Ratio (y) = 0.23005 0.48855
# Poissons Ratio (z) = 0.49463 0.35695
#
# Static dielectric constant tensor:
#      x y z
#    x 3.877960 0.000000 0.000000 
#    y 0.000000 3.377290 0.000000 
#    z 0.000000 0.000000 3.262430 
# 
# 
# High freq. dielectric constant tensor:
#      x y z
#    x 1.752080 0.000000 0.000000 
#    y 0.000000 1.724970 0.000000 
#    z 0.000000 0.000000 1.715220 
# 
# From -- ./inp_files/13177.got.cif
#   From: 2010.03.12/outbox.cif.g09.slc.cpg/sg35_7_cif.got.tgz:13177.got - 2010.04.14 02:02:04.
