data_PCOD8172427
_publ_section_title
;
Structure prediction by ZEFSAII (Michael W. Deem and Ramdas Pophale) SiO2 
 PCOD8172427
Probable space group: C M M 2
;
_chemical_formula_sum "Si O2"
_cell_formula_units_Z 48
_cell_length_a 8.371206
_cell_length_b 18.123881
_cell_length_c 15.373574
_cell_angle_alpha 90.000000
_cell_angle_beta 90.000000
_cell_angle_gamma 90.000000
_cell_volume 2332.459298
_symmetry_space_group_name_H-M "C M M 2"
_symmetry_group_IT_number 35
_symmetry_cell_setting 'orthorhombic'
loop_
_space_group_symop_operation_xyz
x,y,z
-x,-y,z
-x,y,z
x,-y,z
1/2+x,1/2+y,z
1/2-x,1/2-y,z
1/2-x,1/2+y,z
1/2+x,1/2-y,z
loop_
_atom_site_type_symbol
_atom_site_label
_atom_site_fract_x
_atom_site_fract_y
_atom_site_fract_z
Si Si1 0.684892 0.831569 0.462030
Si Si2 0.313222 0.668033 0.959399
Si Si3 0.813161 0.333278 0.138713
Si Si4 0.684529 0.830755 0.783317
Si Si5 0.315240 0.585522 0.301795
Si Si6 0.184076 0.915150 0.624608
O O1 0.500000 0.830068 0.488440
O O2 0.750000 0.750000 0.450022
O O3 0.705138 0.873293 0.371072
O O4 0.784760 0.872517 0.535656
O O5 0.500000 0.665765 0.978912
O O6 0.250000 0.750000 0.945030
O O7 0.270815 0.630219 0.866922
O O8 0.223292 0.633116 0.042718
O O9 0.750000 0.250000 0.143592
O O10 0.719452 0.383186 0.206624
O O11 0.000000 0.335329 0.158722
O O12 0.500000 0.822906 0.806082
O O13 0.750000 0.750000 0.759013
O O14 0.707705 0.883532 0.701329
O O15 0.500000 0.598456 0.325423
O O16 0.270013 0.500000 0.302780
O O17 0.000000 0.905265 0.650799
O O18 0.229719 0.000000 0.609369
#
# Coordination Sequence:
#
# PCOD8172427 Si02
#       6
#     8   8   8   8   8   8
#     4  12  25  42  65  91 119 151 193 240 287 342
#     4  10  18  32  55  84 117 152 195 243 293 343
#     4  11  21  36  59  87 119 154 197 244 291 344
#     4  11  21  36  59  87 119 154 197 244 291 344
#     4  11  24  42  62  86 119 156 193 237 292 349
#     4  11  24  42  62  86 119 156 193 237 292 349
#
# _framework density 20.579135999999998
#
# number of rings (size 3 to 8) (size 9 to 14) (size 15 to 20)
#    0.000    1.000    0.000   10.500    0.000    4.667 
#    0.000    0.833    0.000    5.000    0.000    0.000 
#    0.000    0.000    0.000    0.000    0.000    0.000 
#
# Total GULP energy -297702.596557 kJ/mol
# GULP energy per Si atom -12404.274857 kJ/mol
# Density = 2.053230 g / cm^3
# Si number density = 20.579136 Si / 1000 Ang^3
#
#
#
# Elastic Constant Matrix: (Units=GPa)
#
#
# Indices 1 2 3 4 5 6 
#
# 1 91.2885 25.9903 3.6186 0.0000 0.0000 0.0000
# 2 25.9903 102.2210 48.9040 0.0000 0.0000 0.0000
# 3 3.6186 48.9040 132.6485 0.0000 0.0000 0.0000
# 4 0.0000 0.0000 0.0000 -23.9328 0.0000 0.0000
# 5 0.0000 0.0000 0.0000 0.0000 39.5820 0.0000
# 6 0.0000 0.0000 0.0000 0.0000 0.0000 18.0545
#
#
#
# Elastic Compliance Matrix: (Units=1/GPa)
#
#
# Indices 1 2 3 4 5 6 
#
# 1 0.011909 -0.003488 0.000961 0.000000 0.000000 0.000000
# 2 -0.003488 0.012899 -0.004660 0.000000 0.000000 0.000000
# 3 0.000961 -0.004660 0.009231 0.000000 0.000000 0.000000
# 4 0.000000 0.000000 0.000000 -0.041784 0.000000 0.000000
# 5 0.000000 0.000000 0.000000 0.000000 0.025264 0.000000
# 6 0.000000 0.000000 0.000000 0.000000 0.000000 0.055388
#
#
# Mechanical properties :
#
#
# Convention : Reuss Voigt Hill
#
# Bulk Modulus (GPa) = 50.85281 53.68707 52.26994
# Shear Modulus (GPa) = 53.28424 23.25042 38.26733
#
# Velocity S-wave (km/s) = 5.09397 3.36490 4.31689
# Velocity P-wave (km/s) = 7.70471 6.42196 7.09239
#
# Compressibility (1/GPa) = 0.01966460
#
# Stress axis : x y z
#
# Youngs Moduli (GPa) = 83.96902 77.52476 108.33441
#
# Poissons Ratio (x) = 0.27038 -0.10410
# Poissons Ratio (y) = 0.29286 0.50488
# Poissons Ratio (z) = -0.08069 0.36130
#
# Static dielectric constant tensor:
#      x y z
#    x 3.756830 0.000000 0.000000 
#    y 0.000000 3.590690 0.000000 
#    z 0.000000 0.000000 4.073030 
# 
# 
# High freq. dielectric constant tensor:
#      x y z
#    x 1.820960 0.000000 0.000000 
#    y 0.000000 1.779090 0.000000 
#    z 0.000000 0.000000 1.828180 
# 
# From -- ./inp_files/17818.got.cif
#   From: 2010.03.12/outbox.cif.g09.slc.cpg/sg35_9_cif.got.tgz:17818.got - 2010.04.14 02:02:04.
