data_PCOD8172799
_publ_section_title
;
Structure prediction by ZEFSAII (Michael W. Deem and Ramdas Pophale) SiO2 
 PCOD8172799
Probable space group: C M M 2
;
_chemical_formula_sum "Si O2"
_cell_formula_units_Z 64
_cell_length_a 8.513959
_cell_length_b 19.833172
_cell_length_c 20.026480
_cell_angle_alpha 90.000000
_cell_angle_beta 90.000000
_cell_angle_gamma 90.000000
_cell_volume 3381.647646
_symmetry_space_group_name_H-M "C M M 2"
_symmetry_group_IT_number 35
_symmetry_cell_setting 'orthorhombic'
loop_
_space_group_symop_operation_xyz
x,y,z
-x,-y,z
-x,y,z
x,-y,z
1/2+x,1/2+y,z
1/2-x,1/2-y,z
1/2-x,1/2+y,z
1/2+x,1/2-y,z
loop_
_atom_site_type_symbol
_atom_site_label
_atom_site_fract_x
_atom_site_fract_y
_atom_site_fract_z
Si Si1 0.818764 0.578796 0.126600
Si Si2 0.818144 0.922666 0.479740
Si Si3 0.815061 0.322703 0.372855
Si Si4 0.816737 0.820346 0.228890
Si Si5 0.686571 0.074442 0.976625
Si Si6 0.318253 0.078014 0.620258
Si Si7 0.683057 0.678004 0.725073
Si Si8 0.185831 0.676959 0.867199
O O1 0.793153 0.500000 0.140969
O O2 0.708963 0.620887 0.175671
O O3 0.000000 0.598696 0.138153
O O4 0.764980 0.596744 0.051276
O O5 0.766372 0.878980 0.417304
O O6 0.719608 0.900702 0.544626
O O7 0.000000 0.910813 0.495954
O O8 0.783351 0.000000 0.461144
O O9 0.750000 0.250000 0.394412
O O10 0.774086 0.339093 0.296490
O O11 0.000000 0.324848 0.383805
O O12 0.750000 0.750000 0.199899
O O13 0.000000 0.812490 0.245067
O O14 0.500000 0.071893 0.972591
O O15 0.756292 0.125738 0.922107
O O16 0.754403 0.000000 0.961067
O O17 0.500000 0.091963 0.635033
O O18 0.213797 0.122251 0.669456
O O19 0.273779 0.000000 0.631858
O O20 0.500000 0.686751 0.737642
O O21 0.750000 0.750000 0.701412
O O22 0.761315 0.653588 0.793934
O O23 0.250000 0.750000 0.885371
O O24 0.000000 0.678056 0.869954
#
# Coordination Sequence:
#
# PCOD8172799 Si02
#       8
#     8   8   8   8   8   8   8   8
#     4   9  18  35  57  80 108 142 180 221 267 320
#     4  10  21  38  59  84 114 145 179 221 267 315
#     4  11  22  38  59  82 110 143 182 224 269 320
#     4  11  22  37  56  79 109 142 180 224 271 321
#     4   8  16  32  54  78 104 137 177 219 263 315
#     4  10  21  38  59  83 111 143 180 221 267 320
#     4  11  22  37  56  79 109 143 182 225 271 320
#     4  10  19  33  53  77 106 139 177 220 268 320
#
# _framework density 18.925685000000001
#
# number of rings (size 3 to 8) (size 9 to 14) (size 15 to 20)
#    0.000    2.000    0.000    6.750    0.000    3.750 
#    0.000    6.250    0.000    2.625    0.000    0.000 
#    0.000    0.000    0.000    0.000    0.000    0.000 
#
# Total GULP energy -396893.708758 kJ/mol
# GULP energy per Si atom -12402.928399 kJ/mol
# Density = 1.888261 g / cm^3
# Si number density = 18.925685 Si / 1000 Ang^3
#
#
#
# Elastic Constant Matrix: (Units=GPa)
#
#
# Indices 1 2 3 4 5 6 
#
# 1 62.2694 23.7882 13.8120 0.0000 0.0000 0.0000
# 2 23.7882 96.9737 73.8111 0.0000 0.0000 0.0000
# 3 13.8120 73.8111 100.7273 0.0000 0.0000 0.0000
# 4 0.0000 0.0000 0.0000 40.5357 0.0000 0.0000
# 5 0.0000 0.0000 0.0000 0.0000 28.1647 0.0000
# 6 0.0000 0.0000 0.0000 0.0000 0.0000 28.8192
#
#
#
# Elastic Compliance Matrix: (Units=1/GPa)
#
#
# Indices 1 2 3 4 5 6 
#
# 1 0.017851 -0.005689 0.001721 0.000000 0.000000 0.000000
# 2 -0.005689 0.025130 -0.017635 0.000000 0.000000 0.000000
# 3 0.001721 -0.017635 0.022614 0.000000 0.000000 0.000000
# 4 0.000000 0.000000 0.000000 0.024670 0.000000 0.000000
# 5 0.000000 0.000000 0.000000 0.000000 0.035505 0.000000
# 6 0.000000 0.000000 0.000000 0.000000 0.000000 0.034699
#
#
# Mechanical properties :
#
#
# Convention : Reuss Voigt Hill
#
# Bulk Modulus (GPa) = 44.66321 53.64365 49.15343
# Shear Modulus (GPa) = 23.68112 29.40787 26.54449
#
# Velocity S-wave (km/s) = 3.54117 3.94618 3.74915
# Velocity P-wave (km/s) = 6.35376 7.01206 6.69101
#
# Compressibility (1/GPa) = 0.02238979
#
# Stress axis : x y z
#
# Youngs Moduli (GPa) = 56.02009 39.79250 44.21953
#
# Poissons Ratio (x) = 0.22637 -0.07609
# Poissons Ratio (y) = 0.31868 0.77981
# Poissons Ratio (z) = -0.09640 0.70174
#
# Static dielectric constant tensor:
#      x y z
#    x 3.405410 0.000000 0.000000 
#    y 0.000000 3.541450 0.000000 
#    z 0.000000 0.000000 3.505710 
# 
# 
# High freq. dielectric constant tensor:
#      x y z
#    x 1.736540 0.000000 0.000000 
#    y 0.000000 1.736920 0.000000 
#    z 0.000000 0.000000 1.738700 
# 
# From -- ./inp_files/18374.got.cif
#   From: 2010.03.12/outbox.cif.g09.slc.cpg/sg35_10_cif.got.tgz:18374.got - 2010.04.14 02:02:04.
