data_PCOD8172752
_publ_section_title
;
Structure prediction by ZEFSAII (Michael W. Deem and Ramdas Pophale) SiO2 
 PCOD8172752
Probable space group: C M M 2
;
_chemical_formula_sum "Si O2"
_cell_formula_units_Z 48
_cell_length_a 17.984754
_cell_length_b 15.248542
_cell_length_c 9.256152
_cell_angle_alpha 90.000000
_cell_angle_beta 90.000000
_cell_angle_gamma 90.000000
_cell_volume 2538.418942
_symmetry_space_group_name_H-M "C M M 2"
_symmetry_group_IT_number 35
_symmetry_cell_setting 'orthorhombic'
loop_
_space_group_symop_operation_xyz
x,y,z
-x,-y,z
-x,y,z
x,-y,z
1/2+x,1/2+y,z
1/2-x,1/2-y,z
1/2-x,1/2+y,z
1/2+x,1/2-y,z
loop_
_atom_site_type_symbol
_atom_site_label
_atom_site_fract_x
_atom_site_fract_y
_atom_site_fract_z
Si Si1 0.918409 0.500000 0.813020
Si Si2 0.588118 0.666674 0.373805
Si Si3 0.411564 0.663262 0.048985
Si Si4 0.173713 0.304660 0.544570
Si Si5 0.084611 0.000000 0.879328
Si Si6 0.698825 0.000000 0.564847
Si Si7 0.085108 0.311435 0.842358
Si Si8 0.132352 0.000000 0.560830
O O1 0.852981 0.500000 0.701060
O O2 0.911775 0.589113 0.905609
O O3 0.000000 0.500000 0.734646
O O4 0.500000 0.669800 0.376785
O O5 0.619503 0.655374 0.211271
O O6 0.618570 0.758400 0.432778
O O7 0.615701 0.585646 0.468305
O O8 0.500000 0.661346 0.054285
O O9 0.377637 0.585472 0.950268
O O10 0.383892 0.752142 0.972171
O O11 0.250000 0.250000 0.550839
O O12 0.184456 0.405636 0.485622
O O13 0.136599 0.301839 0.702277
O O14 0.084828 0.000000 0.706489
O O15 0.000000 0.000000 0.930535
O O16 0.783558 0.000000 0.615524
O O17 0.000000 0.284940 0.800846
#
# Coordination Sequence:
#
# PCOD8172752 Si02
#       8
#     4   8   8   8   4   4   8   4
#     4   8  16  32  58  83 109 143 190 239 288 335
#     4  11  22  37  59  87 116 156 196 238 291 350
#     4   9  19  34  53  81 117 147 188 239 288 340
#     4  11  21  37  58  82 116 151 194 239 286 342
#     4  10  19  32  53  84 115 150 190 236 284 341
#     4  10  22  37  56  84 121 149 187 238 300 329
#     4   9  17  33  57  83 108 143 188 241 287 335
#     4  12  21  35  61  87 125 152 193 239 290 353
#
# _framework density 18.909409
#
# number of rings (size 3 to 8) (size 9 to 14) (size 15 to 20)
#    0.000    2.000    1.667    2.750    0.000    3.333 
#    0.000    1.667    0.000    2.000    0.000    0.000 
#    0.000    0.000    0.000    0.000    0.000    0.000 
#
# Total GULP energy -297366.875127 kJ/mol
# GULP energy per Si atom -12390.286464 kJ/mol
# Density = 1.886637 g / cm^3
# Si number density = 18.909409 Si / 1000 Ang^3
#
#
#
# Elastic Constant Matrix: (Units=GPa)
#
#
# Indices 1 2 3 4 5 6 
#
# 1 67.8083 35.5324 18.1793 0.0000 0.0000 0.0000
# 2 35.5324 189.4737 75.2284 0.0000 0.0000 0.0000
# 3 18.1793 75.2284 122.9915 0.0000 0.0000 0.0000
# 4 0.0000 0.0000 0.0000 79.3659 0.0000 0.0000
# 5 0.0000 0.0000 0.0000 0.0000 -2.3380 0.0000
# 6 0.0000 0.0000 0.0000 0.0000 0.0000 23.2212
#
#
#
# Elastic Compliance Matrix: (Units=1/GPa)
#
#
# Indices 1 2 3 4 5 6 
#
# 1 0.016402 -0.002791 -0.000717 0.000000 0.000000 0.000000
# 2 -0.002791 0.007446 -0.004142 0.000000 0.000000 0.000000
# 3 -0.000717 -0.004142 0.010770 0.000000 0.000000 0.000000
# 4 0.000000 0.000000 0.000000 0.012600 0.000000 0.000000
# 5 0.000000 0.000000 0.000000 0.000000 -0.427718 0.000000
# 6 0.000000 0.000000 0.000000 0.000000 0.000000 0.043064
#
#
# Mechanical properties :
#
#
# Convention : Reuss Voigt Hill
#
# Bulk Modulus (GPa) = 51.76540 70.90596 61.33568
# Shear Modulus (GPa) = -15.83798 36.80537 10.48370
#
# Velocity S-wave (km/s) = -2.89722 4.41659 2.35716
# Velocity P-wave (km/s) = 4.03027 7.97418 6.31785
#
# Compressibility (1/GPa) = 0.01931792
#
# Stress axis : x y z
#
# Youngs Moduli (GPa) = 60.96677 134.30768 92.85174
#
# Poissons Ratio (x) = 0.37489 0.06659
# Poissons Ratio (y) = 0.17017 0.38455
# Poissons Ratio (z) = 0.04372 0.55624
#
# Static dielectric constant tensor:
#      x y z
#    x 3.408430 0.000000 0.000000 
#    y 0.000000 4.155420 0.000000 
#    z 0.000000 0.000000 3.324600 
# 
# 
# High freq. dielectric constant tensor:
#      x y z
#    x 1.721480 0.000000 0.000000 
#    y 0.000000 1.762660 0.000000 
#    z 0.000000 0.000000 1.704700 
# 
# From -- ./inp_files/8427.got.cif
#   From: 2010.03.12/outbox.cif.g09.slc.cpg/sg35_5_cif.got.tgz:8427.got - 2010.04.14 02:02:04.
