data_PCOD8172355
_publ_section_title
;
Structure prediction by ZEFSAII (Michael W. Deem and Ramdas Pophale) SiO2 
 PCOD8172355
Probable space group: C M M 2
;
_chemical_formula_sum "Si O2"
_cell_formula_units_Z 64
_cell_length_a 29.094483
_cell_length_b 8.765450
_cell_length_c 12.374714
_cell_angle_alpha 90.000000
_cell_angle_beta 90.000000
_cell_angle_gamma 90.000000
_cell_volume 3155.876733
_symmetry_space_group_name_H-M "C M M 2"
_symmetry_group_IT_number 35
_symmetry_cell_setting 'orthorhombic'
loop_
_space_group_symop_operation_xyz
x,y,z
-x,-y,z
-x,y,z
x,-y,z
1/2+x,1/2+y,z
1/2-x,1/2-y,z
1/2-x,1/2+y,z
1/2+x,1/2-y,z
loop_
_atom_site_type_symbol
_atom_site_label
_atom_site_fract_x
_atom_site_fract_y
_atom_site_fract_z
Si Si1 0.203948 0.326675 0.320290
Si Si2 0.449669 0.321902 0.936105
Si Si3 0.570683 0.323600 0.175517
Si Si4 0.699373 0.818658 0.669398
Si Si5 0.143364 0.677506 0.873149
Si Si6 0.360624 0.320145 0.479962
Si Si7 0.158782 0.671915 0.110565
Si Si8 0.448544 0.175181 0.397932
O O1 0.202037 0.500000 0.363063
O O2 0.250000 0.250000 0.364337
O O3 0.161089 0.231777 0.366222
O O4 0.203189 0.321809 0.188786
O O5 0.500000 0.281557 0.885818
O O6 0.439319 0.500000 0.928554
O O7 0.408676 0.241256 0.870834
O O8 0.451939 0.272748 0.061991
O O9 0.561700 0.500000 0.201721
O O10 0.624523 0.292842 0.162972
O O11 0.550102 0.227462 0.273423
O O12 0.750000 0.750000 0.656826
O O13 0.675415 0.754464 0.778795
O O14 0.666438 0.767180 0.573161
O O15 0.703965 0.000000 0.669497
O O16 0.138246 0.500000 0.853023
O O17 0.169211 0.716599 0.986351
O O18 0.356469 0.500000 0.497403
O O19 0.414257 0.273181 0.473569
O O20 0.137704 0.500000 0.112610
O O21 0.500000 0.194309 0.445288
O O22 0.432402 0.000000 0.401562
#
# Coordination Sequence:
#
# PCOD8172355 Si02
#       8
#     8   8   8   8   8   8   8   8
#     4  11  22  36  57  85 121 158 195 239 294 358
#     4   9  18  32  52  83 123 163 202 244 289 342
#     4  10  18  30  52  82 119 161 203 244 286 341
#     4  11  24  44  68  91 117 150 198 252 304 360
#     4   9  20  38  60  87 117 153 198 247 295 351
#     4  12  25  42  64  88 118 152 198 250 301 356
#     4   9  18  34  55  81 119 160 196 239 293 351
#     4  11  23  38  58  86 121 160 199 241 295 355
#
# _framework density 20.279626
#
# number of rings (size 3 to 8) (size 9 to 14) (size 15 to 20)
#    0.000    1.750    1.250    3.375    0.000    4.250 
#    0.000    0.625    0.000    0.750    0.000    0.000 
#    0.000    0.000    0.000    0.000    0.000    0.000 
#
# Total GULP energy -396663.695910 kJ/mol
# GULP energy per Si atom -12395.740497 kJ/mol
# Density = 2.023347 g / cm^3
# Si number density = 20.279626 Si / 1000 Ang^3
#
#
#
# Elastic Constant Matrix: (Units=GPa)
#
#
# Indices 1 2 3 4 5 6 
#
# 1 113.9603 37.1799 48.2238 0.0000 0.0000 0.0000
# 2 37.1799 74.7291 24.5717 0.0000 0.0000 0.0000
# 3 48.2238 24.5717 100.9193 0.0000 0.0000 0.0000
# 4 0.0000 0.0000 0.0000 22.6183 0.0000 0.0000
# 5 0.0000 0.0000 0.0000 0.0000 20.3921 0.0000
# 6 0.0000 0.0000 0.0000 0.0000 0.0000 32.2384
#
#
#
# Elastic Compliance Matrix: (Units=1/GPa)
#
#
# Indices 1 2 3 4 5 6 
#
# 1 0.012269 -0.004540 -0.004757 0.000000 0.000000 0.000000
# 2 -0.004540 0.016226 -0.001781 0.000000 0.000000 0.000000
# 3 -0.004757 -0.001781 0.012616 0.000000 0.000000 0.000000
# 4 0.000000 0.000000 0.000000 0.044212 0.000000 0.000000
# 5 0.000000 0.000000 0.000000 0.000000 0.049039 0.000000
# 6 0.000000 0.000000 0.000000 0.000000 0.000000 0.031019
#
#
# Mechanical properties :
#
#
# Convention : Reuss Voigt Hill
#
# Bulk Modulus (GPa) = 52.75960 56.61771 54.68866
# Shear Modulus (GPa) = 25.79225 27.02531 26.40878
#
# Velocity S-wave (km/s) = 3.57014 3.65449 3.61256
# Velocity P-wave (km/s) = 6.56255 6.76655 6.66533
#
# Compressibility (1/GPa) = 0.01895390
#
# Stress axis : x y z
#
# Youngs Moduli (GPa) = 81.50370 61.62879 79.26479
#
# Poissons Ratio (x) = 0.27980 0.37710
# Poissons Ratio (y) = 0.37003 0.14119
# Poissons Ratio (z) = 0.38775 0.10978
#
# Static dielectric constant tensor:
#      x y z
#    x 3.678300 0.000000 0.000000 
#    y 0.000000 3.662770 0.000000 
#    z 0.000000 0.000000 3.690310 
# 
# 
# High freq. dielectric constant tensor:
#      x y z
#    x 1.790580 0.000000 0.000000 
#    y 0.000000 1.793480 0.000000 
#    z 0.000000 0.000000 1.777590 
# 
# From -- ./inp_files/14537.got.cif
#   From: 2010.03.12/outbox.cif.g09.slc.cpg/sg35_8_cif.got.tgz:14537.got - 2010.04.14 02:02:04.
