data_PCOD8172874
_publ_section_title
;
Structure prediction by ZEFSAII (Michael W. Deem and Ramdas Pophale) SiO2 
 PCOD8172874
Probable space group: C M M 2
;
_chemical_formula_sum "Si O2"
_cell_formula_units_Z 64
_cell_length_a 29.200693
_cell_length_b 8.825753
_cell_length_c 12.494716
_cell_angle_alpha 90.000000
_cell_angle_beta 90.000000
_cell_angle_gamma 90.000000
_cell_volume 3220.114516
_symmetry_space_group_name_H-M "C M M 2"
_symmetry_group_IT_number 35
_symmetry_cell_setting 'orthorhombic'
loop_
_space_group_symop_operation_xyz
x,y,z
-x,-y,z
-x,y,z
x,-y,z
1/2+x,1/2+y,z
1/2-x,1/2-y,z
1/2-x,1/2+y,z
1/2+x,1/2-y,z
loop_
_atom_site_type_symbol
_atom_site_label
_atom_site_fract_x
_atom_site_fract_y
_atom_site_fract_z
Si Si1 0.320492 0.824994 0.273040
Si Si2 0.411654 0.676631 0.350266
Si Si3 0.052155 0.320135 0.777365
Si Si4 0.895729 0.680104 0.564335
Si Si5 0.203427 0.820565 0.052993
Si Si6 0.549833 0.829034 0.167460
Si Si7 0.795029 0.326791 0.510667
Si Si8 0.613032 0.179272 0.974259
O O1 0.371501 0.771891 0.295297
O O2 0.299584 0.726655 0.177564
O O3 0.292725 0.801181 0.382838
O O4 0.320643 0.000000 0.236705
O O5 0.400249 0.500000 0.355242
O O6 0.422821 0.738801 0.468095
O O7 0.452817 0.715585 0.269431
O O8 0.049561 0.500000 0.781544
O O9 0.078810 0.266407 0.671189
O O10 0.082407 0.258670 0.875994
O O11 0.000000 0.254752 0.779793
O O12 0.897673 0.500000 0.547642
O O13 0.842587 0.737130 0.560990
O O14 0.250000 0.750000 0.005078
O O15 0.205084 0.000000 0.045668
O O16 0.162166 0.759792 0.979012
O O17 0.500000 0.823023 0.111453
O O18 0.560570 0.000000 0.205863
O O19 0.587113 0.774518 0.082184
O O20 0.791789 0.500000 0.542280
O O21 0.750000 0.250000 0.561996
O O22 0.620270 0.000000 0.963879
#
# Coordination Sequence:
#
# PCOD8172874 Si02
#       8
#     8   8   8   8   8   8   8   8
#     4  10  19  34  54  79 113 152 194 241 289 343
#     4  11  21  33  52  81 118 157 193 236 290 349
#     4   9  18  36  65  93 111 141 196 251 296 350
#     4   9  19  36  56  81 115 150 191 243 294 346
#     4  12  24  37  56  84 118 158 199 238 288 346
#     4  10  20  34  55  82 114 153 191 232 293 361
#     4   9  18  30  48  75 109 148 186 228 278 333
#     4  10  20  37  61  87 117 147 189 248 299 348
#
# _framework density 19.875069
#
# number of rings (size 3 to 8) (size 9 to 14) (size 15 to 20)
#    0.000    2.000    1.250    4.125    0.000    5.750 
#    0.000    2.500    0.000    3.375    0.000    0.000 
#    0.000    0.000    0.000    0.000    0.000    0.000 
#
# Total GULP energy -396688.365016 kJ/mol
# GULP energy per Si atom -12396.511407 kJ/mol
# Density = 1.982983 g / cm^3
# Si number density = 19.875069 Si / 1000 Ang^3
#
#
#
# Elastic Constant Matrix: (Units=GPa)
#
#
# Indices 1 2 3 4 5 6 
#
# 1 141.3968 44.8617 64.5299 0.0000 0.0000 0.0000
# 2 44.8617 71.1663 42.0135 0.0000 0.0000 0.0000
# 3 64.5299 42.0135 118.4562 0.0000 0.0000 0.0000
# 4 0.0000 0.0000 0.0000 15.6817 0.0000 0.0000
# 5 0.0000 0.0000 0.0000 0.0000 20.7510 0.0000
# 6 0.0000 0.0000 0.0000 0.0000 0.0000 25.4645
#
#
#
# Elastic Compliance Matrix: (Units=1/GPa)
#
#
# Indices 1 2 3 4 5 6 
#
# 1 0.010239 -0.003999 -0.004160 0.000000 0.000000 0.000000
# 2 -0.003999 0.019335 -0.004679 0.000000 0.000000 0.000000
# 3 -0.004160 -0.004679 0.012367 0.000000 0.000000 0.000000
# 4 0.000000 0.000000 0.000000 0.063769 0.000000 0.000000
# 5 0.000000 0.000000 0.000000 0.000000 0.048191 0.000000
# 6 0.000000 0.000000 0.000000 0.000000 0.000000 0.039270
#
#
# Mechanical properties :
#
#
# Convention : Reuss Voigt Hill
#
# Bulk Modulus (GPa) = 61.47711 70.42552 65.95132
# Shear Modulus (GPa) = 22.29467 24.35372 23.32420
#
# Velocity S-wave (km/s) = 3.35287 3.50428 3.42941
# Velocity P-wave (km/s) = 6.78144 7.20308 6.99544
#
# Compressibility (1/GPa) = 0.01626622
#
# Stress axis : x y z
#
# Youngs Moduli (GPa) = 97.66139 51.72016 80.85715
#
# Poissons Ratio (x) = 0.20683 0.33634
# Poissons Ratio (y) = 0.39055 0.37834
# Poissons Ratio (z) = 0.40624 0.24200
#
# Static dielectric constant tensor:
#      x y z
#    x 3.826360 0.000000 0.000000 
#    y 0.000000 3.313550 0.000000 
#    z 0.000000 0.000000 3.579410 
# 
# 
# High freq. dielectric constant tensor:
#      x y z
#    x 1.787530 0.000000 0.000000 
#    y 0.000000 1.750270 0.000000 
#    z 0.000000 0.000000 1.754760 
# 
# From -- ./inp_files/14592.got.cif
#   From: 2010.03.12/outbox.cif.g09.slc.cpg/sg35_8_cif.got.tgz:14592.got - 2010.04.14 02:02:04.
