data_PCOD8172415
_publ_section_title
;
Structure prediction by ZEFSAII (Michael W. Deem and Ramdas Pophale) SiO2 
 PCOD8172415
Probable space group: C M M 2
;
_chemical_formula_sum "Si O2"
_cell_formula_units_Z 56
_cell_length_a 8.936034
_cell_length_b 21.651046
_cell_length_c 14.580122
_cell_angle_alpha 90.000000
_cell_angle_beta 90.000000
_cell_angle_gamma 90.000000
_cell_volume 2820.881569
_symmetry_space_group_name_H-M "C M M 2"
_symmetry_group_IT_number 35
_symmetry_cell_setting 'orthorhombic'
loop_
_space_group_symop_operation_xyz
x,y,z
-x,-y,z
-x,y,z
x,-y,z
1/2+x,1/2+y,z
1/2-x,1/2-y,z
1/2-x,1/2+y,z
1/2+x,1/2-y,z
loop_
_atom_site_type_symbol
_atom_site_label
_atom_site_fract_x
_atom_site_fract_y
_atom_site_fract_z
Si Si1 0.676146 0.000000 0.299901
Si Si2 0.829535 0.132397 0.080099
Si Si3 0.826570 0.312408 0.244598
Si Si4 0.167152 0.000000 0.110881
Si Si5 0.172099 0.070709 0.589072
Si Si6 0.322963 0.928938 0.781222
Si Si7 0.825222 0.614301 0.416233
Si Si8 0.678249 0.315224 0.889857
O O1 0.722488 0.000000 0.195590
O O2 0.736428 0.059017 0.353910
O O3 0.500000 0.000000 0.300944
O O4 0.733219 0.137566 0.172538
O O5 0.808863 0.060850 0.048230
O O6 0.000000 0.147474 0.105544
O O7 0.778286 0.176314 0.996870
O O8 0.750000 0.250000 0.215151
O O9 0.793980 0.326424 0.351864
O O10 0.000000 0.307249 0.226980
O O11 0.000000 0.000000 0.152378
O O12 0.273393 0.082543 0.677132
O O13 0.230128 0.116723 0.509523
O O14 0.000000 0.086321 0.612035
O O15 0.190268 0.000000 0.555655
O O16 0.500000 0.919782 0.789538
O O17 0.241961 0.875729 0.839323
O O18 0.278899 0.000000 0.810228
O O19 0.000000 0.607495 0.441405
O O20 0.500000 0.312939 0.874537
O O21 0.750000 0.250000 0.855877
#
# Coordination Sequence:
#
# PCOD8172415 Si02
#       8
#     4   8   8   4   8   8   8   8
#     4  10  18  32  52  79 112 147 186 233 284 334
#     4  10  22  38  59  86 119 156 194 241 295 352
#     4  11  23  38  56  78 111 155 202 247 291 343
#     4  10  20  34  54  85 120 153 192 239 294 348
#     4  10  20  34  57  89 120 151 189 236 293 355
#     4  10  22  41  65  93 124 157 197 249 307 365
#     4  10  20  34  54  80 113 151 189 234 287 343
#     4  11  24  42  65  90 121 159 203 252 303 365
#
# _framework density 19.851949000000001
#
# number of rings (size 3 to 8) (size 9 to 14) (size 15 to 20)
#    0.000    1.714    2.143    2.143    1.000    5.429 
#    0.000    0.714    0.000    1.714    0.000    0.000 
#    0.000    0.000    0.000    0.000    0.000    0.000 
#
# Total GULP energy -347048.868715 kJ/mol
# GULP energy per Si atom -12394.602454 kJ/mol
# Density = 1.980677 g / cm^3
# Si number density = 19.851949 Si / 1000 Ang^3
#
#
#
# Elastic Constant Matrix: (Units=GPa)
#
#
# Indices 1 2 3 4 5 6 
#
# 1 87.5631 47.5259 47.5952 0.0000 0.0000 0.0000
# 2 47.5259 111.8269 42.2796 0.0000 0.0000 0.0000
# 3 47.5952 42.2796 87.5104 0.0000 0.0000 0.0000
# 4 0.0000 0.0000 0.0000 26.3690 0.0000 0.0000
# 5 0.0000 0.0000 0.0000 0.0000 34.1524 0.0000
# 6 0.0000 0.0000 0.0000 0.0000 0.0000 28.5557
#
#
#
# Elastic Compliance Matrix: (Units=1/GPa)
#
#
# Indices 1 2 3 4 5 6 
#
# 1 0.018151 -0.004872 -0.007518 0.000000 0.000000 0.000000
# 2 -0.004872 0.012248 -0.003268 0.000000 0.000000 0.000000
# 3 -0.007518 -0.003268 0.017095 0.000000 0.000000 0.000000
# 4 0.000000 0.000000 0.000000 0.037923 0.000000 0.000000
# 5 0.000000 0.000000 0.000000 0.000000 0.029280 0.000000
# 6 0.000000 0.000000 0.000000 0.000000 0.000000 0.035019
#
#
# Mechanical properties :
#
#
# Convention : Reuss Voigt Hill
#
# Bulk Modulus (GPa) = 61.80998 62.41131 62.11065
# Shear Modulus (GPa) = 26.82018 27.78207 27.30112
#
# Velocity S-wave (km/s) = 3.67960 3.74500 3.71244
# Velocity P-wave (km/s) = 7.01824 7.08566 7.05203
#
# Compressibility (1/GPa) = 0.01617862
#
# Stress axis : x y z
#
# Youngs Moduli (GPa) = 55.09312 81.64329 58.49575
#
# Poissons Ratio (x) = 0.39773 0.43979
# Poissons Ratio (y) = 0.26839 0.19117
# Poissons Ratio (z) = 0.41421 0.26682
#
# Static dielectric constant tensor:
#      x y z
#    x 3.584980 0.000000 0.000000 
#    y 0.000000 3.648690 0.000000 
#    z 0.000000 0.000000 3.452090 
# 
# 
# High freq. dielectric constant tensor:
#      x y z
#    x 1.776300 0.000000 0.000000 
#    y 0.000000 1.771460 0.000000 
#    z 0.000000 0.000000 1.765510 
# 
# From -- ./inp_files/15732.got.cif
#   From: 2010.03.12/outbox.cif.g09.slc.cpg/sg35_8_cif.got.tgz:15732.got - 2010.04.14 02:02:04.
