data_PCOD8172150
_publ_section_title
;
Structure prediction by ZEFSAII (Michael W. Deem and Ramdas Pophale) SiO2 
 PCOD8172150
Probable space group: C M M 2
;
_chemical_formula_sum "Si O2"
_cell_formula_units_Z 64
_cell_length_a 8.701620
_cell_length_b 19.592543
_cell_length_c 21.111058
_cell_angle_alpha 90.000000
_cell_angle_beta 90.000000
_cell_angle_gamma 90.000000
_cell_volume 3599.158075
_symmetry_space_group_name_H-M "C M M 2"
_symmetry_group_IT_number 35
_symmetry_cell_setting 'orthorhombic'
loop_
_space_group_symop_operation_xyz
x,y,z
-x,-y,z
-x,y,z
x,-y,z
1/2+x,1/2+y,z
1/2-x,1/2-y,z
1/2-x,1/2+y,z
1/2+x,1/2-y,z
loop_
_atom_site_type_symbol
_atom_site_label
_atom_site_fract_x
_atom_site_fract_y
_atom_site_fract_z
Si Si1 0.681992 0.173920 0.400290
Si Si2 0.170399 0.418893 0.903343
Si Si3 0.317037 0.325796 0.526270
Si Si4 0.816888 0.423760 0.765483
Si Si5 0.181163 0.923485 0.030327
Si Si6 0.683168 0.174906 0.654769
Si Si7 0.679431 0.324231 0.137323
Si Si8 0.320750 0.324196 0.276439
O O1 0.500000 0.174842 0.406093
O O2 0.750000 0.250000 0.396388
O O3 0.753972 0.136713 0.462554
O O4 0.735895 0.136338 0.334898
O O5 0.163381 0.500000 0.902109
O O6 0.238777 0.396333 0.834720
O O7 0.000000 0.388418 0.913306
O O8 0.274616 0.392901 0.961485
O O9 0.500000 0.325687 0.527045
O O10 0.250000 0.250000 0.524777
O O11 0.250509 0.359501 0.590377
O O12 0.752401 0.500000 0.751618
O O13 0.757142 0.372286 0.711928
O O14 0.000000 0.426416 0.766107
O O15 0.251085 0.875732 0.085497
O O16 0.000000 0.925744 0.035778
O O17 0.249083 0.000000 0.038650
O O18 0.500000 0.178590 0.650371
O O19 0.750000 0.250000 0.665793
O O20 0.500000 0.314977 0.125928
O O21 0.750000 0.250000 0.128687
O O22 0.708900 0.357623 0.207276
O O23 0.500000 0.319644 0.292765
O O24 0.250000 0.250000 0.270214
#
# Coordination Sequence:
#
# PCOD8172150 Si02
#       8
#     8   8   8   8   8   8   8   8
#     4  10  16  23  36  56  81 109 143 179 216 256
#     4   8  14  27  47  68  87 110 145 185 220 255
#     4  10  17  26  39  57  84 115 146 179 216 257
#     4   8  15  29  49  69  87 112 148 185 218 257
#     4   9  17  30  47  67  90 115 145 181 221 263
#     4  10  18  29  45  65  91 119 146 178 219 264
#     4   9  18  30  44  63  89 120 148 178 218 263
#     4   9  15  24  37  55  80 109 141 175 214 257
#
# _framework density 17.781936000000002
#
# number of rings (size 3 to 8) (size 9 to 14) (size 15 to 20)
#    0.000    2.875    0.000    6.000    0.000    1.000 
#    0.000    1.875    0.000    6.000    0.000    0.875 
#    0.000    3.000    0.000    0.000    0.000    0.000 
#
# Total GULP energy -396426.866566 kJ/mol
# GULP energy per Si atom -12388.339580 kJ/mol
# Density = 1.774146 g / cm^3
# Si number density = 17.781936 Si / 1000 Ang^3
#
#
#
# Elastic Constant Matrix: (Units=GPa)
#
#
# Indices 1 2 3 4 5 6 
#
# 1 82.5736 17.2259 49.9510 0.0000 0.0000 0.0000
# 2 17.2259 42.4269 54.6948 0.0000 0.0000 0.0000
# 3 49.9510 54.6948 206.3840 0.0000 0.0000 0.0000
# 4 0.0000 0.0000 0.0000 8.8209 0.0000 0.0000
# 5 0.0000 0.0000 0.0000 0.0000 29.2509 0.0000
# 6 0.0000 0.0000 0.0000 0.0000 0.0000 10.1483
#
#
#
# Elastic Compliance Matrix: (Units=1/GPa)
#
#
# Indices 1 2 3 4 5 6 
#
# 1 0.014303 -0.002042 -0.002921 0.000000 0.000000 0.000000
# 2 -0.002042 0.036093 -0.009071 0.000000 0.000000 0.000000
# 3 -0.002921 -0.009071 0.007956 0.000000 0.000000 0.000000
# 4 0.000000 0.000000 0.000000 0.113366 0.000000 0.000000
# 5 0.000000 0.000000 0.000000 0.000000 0.034187 0.000000
# 6 0.000000 0.000000 0.000000 0.000000 0.000000 0.098539
#
#
# Mechanical properties :
#
#
# Convention : Reuss Voigt Hill
#
# Bulk Modulus (GPa) = 33.01984 63.90313 48.46149
# Shear Modulus (GPa) = 14.59399 23.61155 19.10277
#
# Velocity S-wave (km/s) = 2.86793 3.64791 3.28118
# Velocity P-wave (km/s) = 5.43841 7.33199 6.45501
#
# Compressibility (1/GPa) = 0.03028482
#
# Stress axis : x y z
#
# Youngs Moduli (GPa) = 69.91456 27.70630 125.68950
#
# Poissons Ratio (x) = 0.05658 0.36708
# Poissons Ratio (y) = 0.14278 1.14011
# Poissons Ratio (z) = 0.20419 0.25132
#
# Static dielectric constant tensor:
#      x y z
#    x 3.213650 0.000000 0.000000 
#    y 0.000000 2.858390 0.000000 
#    z 0.000000 0.000000 4.675080 
# 
# 
# High freq. dielectric constant tensor:
#      x y z
#    x 1.681510 0.000000 0.000000 
#    y 0.000000 1.610640 0.000000 
#    z 0.000000 0.000000 1.722750 
# 
# From -- ./inp_files/18507.got.cif
#   From: 2010.03.12/outbox.cif.g09.slc.cpg/sg35_10_cif.got.tgz:18507.got - 2010.04.14 02:02:04.
