data_PCOD8172729
_publ_section_title
;
Structure prediction by ZEFSAII (Michael W. Deem and Ramdas Pophale) SiO2 
 PCOD8172729
Probable space group: C M M 2
;
_chemical_formula_sum "Si O2"
_cell_formula_units_Z 64
_cell_length_a 28.995293
_cell_length_b 8.867431
_cell_length_c 12.442556
_cell_angle_alpha 90.000000
_cell_angle_beta 90.000000
_cell_angle_gamma 90.000000
_cell_volume 3199.152357
_symmetry_space_group_name_H-M "C M M 2"
_symmetry_group_IT_number 35
_symmetry_cell_setting 'orthorhombic'
loop_
_space_group_symop_operation_xyz
x,y,z
-x,-y,z
-x,y,z
x,-y,z
1/2+x,1/2+y,z
1/2-x,1/2-y,z
1/2-x,1/2+y,z
1/2+x,1/2-y,z
loop_
_atom_site_type_symbol
_atom_site_label
_atom_site_fract_x
_atom_site_fract_y
_atom_site_fract_z
Si Si1 0.107727 0.676963 0.844960
Si Si2 0.704095 0.177342 0.938185
Si Si3 0.949437 0.667938 0.043809
Si Si4 0.553073 0.678484 0.651457
Si Si5 0.081476 0.831020 0.238283
Si Si6 0.815935 0.828937 0.165044
Si Si7 0.103917 0.677186 0.452022
Si Si8 0.795111 0.322058 0.385226
O O1 0.098443 0.500000 0.827273
O O2 0.162121 0.712832 0.856214
O O3 0.084815 0.766156 0.748319
O O4 0.084767 0.735600 0.955066
O O5 0.750000 0.250000 0.885894
O O6 0.710047 0.000000 0.952955
O O7 0.697185 0.248419 0.055097
O O8 0.932447 0.500000 0.076473
O O9 0.953792 0.769480 0.150017
O O10 0.000000 0.662369 0.990937
O O11 0.500000 0.737429 0.660516
O O12 0.553371 0.500000 0.650001
O O13 0.576838 0.736808 0.543928
O O14 0.129582 0.827390 0.176801
O O15 0.080018 0.722201 0.340545
O O16 0.068059 0.000000 0.274659
O O17 0.794337 0.738363 0.263828
O O18 0.796843 0.000000 0.165115
O O19 0.098968 0.500000 0.470754
O O20 0.158045 0.725972 0.447886
O O21 0.790488 0.500000 0.383679
O O22 0.750000 0.250000 0.443935
#
# Coordination Sequence:
#
# PCOD8172729 Si02
#       8
#     8   8   8   8   8   8   8   8
#     4  10  22  41  64  87 117 156 200 247 293 351
#     4  11  22  36  57  85 119 158 200 245 292 346
#     4  10  20  35  57  85 117 154 195 239 292 356
#     4  11  25  44  67  93 118 148 192 249 307 359
#     4  10  20  34  55  84 121 159 194 241 297 350
#     4  10  19  32  52  80 117 161 202 241 287 342
#     4  10  22  40  63  88 117 155 201 247 292 352
#     4  10  20  34  55  85 120 158 200 243 289 345
#
# _framework density 20.005299999999998
#
# number of rings (size 3 to 8) (size 9 to 14) (size 15 to 20)
#    0.000    1.750    1.250    3.000    0.000    6.250 
#    0.000    0.625    0.000    0.000    0.000    0.000 
#    0.000    0.000    0.000    0.000    0.000    0.000 
#
# Total GULP energy -396758.688688 kJ/mol
# GULP energy per Si atom -12398.709021 kJ/mol
# Density = 1.995977 g / cm^3
# Si number density = 20.005300 Si / 1000 Ang^3
#
#
#
# Elastic Constant Matrix: (Units=GPa)
#
#
# Indices 1 2 3 4 5 6 
#
# 1 130.9157 51.7349 64.7908 0.0000 0.0000 0.0000
# 2 51.7349 81.5315 37.4779 0.0000 0.0000 0.0000
# 3 64.7908 37.4779 100.0520 0.0000 0.0000 0.0000
# 4 0.0000 0.0000 0.0000 31.9096 0.0000 0.0000
# 5 0.0000 0.0000 0.0000 0.0000 28.1269 0.0000
# 6 0.0000 0.0000 0.0000 0.0000 0.0000 25.4910
#
#
#
# Elastic Compliance Matrix: (Units=1/GPa)
#
#
# Indices 1 2 3 4 5 6 
#
# 1 0.012856 -0.005232 -0.006366 0.000000 0.000000 0.000000
# 2 -0.005232 0.016945 -0.002960 0.000000 0.000000 0.000000
# 3 -0.006366 -0.002960 0.015226 0.000000 0.000000 0.000000
# 4 0.000000 0.000000 0.000000 0.031339 0.000000 0.000000
# 5 0.000000 0.000000 0.000000 0.000000 0.035553 0.000000
# 6 0.000000 0.000000 0.000000 0.000000 0.000000 0.039229
#
#
# Mechanical properties :
#
#
# Convention : Reuss Voigt Hill
#
# Bulk Modulus (GPa) = 62.83999 68.94515 65.89257
# Shear Modulus (GPa) = 26.94447 27.67189 27.30818
#
# Velocity S-wave (km/s) = 3.67395 3.72321 3.69866
# Velocity P-wave (km/s) = 7.03399 7.28158 7.15886
#
# Compressibility (1/GPa) = 0.01591343
#
# Stress axis : x y z
#
# Youngs Moduli (GPa) = 77.78249 59.01328 65.67871
#
# Poissons Ratio (x) = 0.30874 0.41809
# Poissons Ratio (y) = 0.40694 0.19438
# Poissons Ratio (z) = 0.49514 0.17465
#
# Static dielectric constant tensor:
#      x y z
#    x 4.033010 0.000000 0.000000 
#    y 0.000000 3.729510 0.000000 
#    z 0.000000 0.000000 3.419460 
# 
# 
# High freq. dielectric constant tensor:
#      x y z
#    x 1.797040 0.000000 0.000000 
#    y 0.000000 1.786160 0.000000 
#    z 0.000000 0.000000 1.755460 
# 
# From -- ./inp_files/14550.got.cif
#   From: 2010.03.12/outbox.cif.g09.slc.cpg/sg35_8_cif.got.tgz:14550.got - 2010.04.14 02:02:04.
