data_PCOD8172090
_publ_section_title
;
Structure prediction by ZEFSAII (Michael W. Deem and Ramdas Pophale) SiO2 
 PCOD8172090
Probable space group: P N N 2
;
_chemical_formula_sum "Si O2"
_cell_formula_units_Z 32
_cell_length_a 14.415942
_cell_length_b 8.691344
_cell_length_c 11.406186
_cell_angle_alpha 90.000000
_cell_angle_beta 90.000000
_cell_angle_gamma 90.000000
_cell_volume 1429.125654
_symmetry_space_group_name_H-M "P N N 2"
_symmetry_group_IT_number 34
_symmetry_cell_setting 'orthorhombic'
loop_
_space_group_symop_operation_xyz
x,y,z
-x,-y,z
1/2-x,1/2+y,1/2+z
1/2+x,1/2-y,1/2+z
loop_
_atom_site_type_symbol
_atom_site_label
_atom_site_fract_x
_atom_site_fract_y
_atom_site_fract_z
Si Si1 0.628163 0.896614 0.787120
Si Si2 0.755758 0.506055 0.935922
Si Si3 0.261873 0.754794 0.117610
Si Si4 0.553949 0.153967 0.435539
Si Si5 0.640418 0.762184 0.028229
Si Si6 0.029358 0.321724 0.679923
Si Si7 0.784926 0.928070 0.181344
Si Si8 0.950069 0.717282 0.190821
O O1 0.725211 0.836972 0.732731
O O2 0.546260 0.773385 0.760479
O O3 0.603144 0.060513 0.729668
O O4 0.634119 0.897320 0.928989
O O5 0.839051 0.621391 0.964951
O O6 0.768468 0.472031 0.799481
O O7 0.760867 0.344802 0.003385
O O8 0.661891 0.598075 0.967412
O O9 0.370530 0.793803 0.123000
O O10 0.206359 0.916081 0.104759
O O11 0.535241 0.246076 0.313736
O O12 0.518938 0.232963 0.554325
O O13 0.500000 0.000000 0.414915
O O14 0.546457 0.733948 0.101469
O O15 0.724076 0.801242 0.115737
O O16 0.000000 0.500000 0.676079
O O17 0.885024 0.862039 0.217922
#
# Coordination Sequence:
#
# PCOD8172090 Si02
#       8
#     4   4   4   4   4   4   4   4
#     4  11  24  44  71 102 146 187 239 303 363 444
#     4  12  25  46  71 100 149 190 232 306 365 425
#     4  12  24  45  69 104 139 190 242 292 366 428
#     4  11  18  43  71  95 134 188 237 288 354 440
#     4  12  25  46  69 107 143 186 243 298 364 440
#     4  11  24  40  71 101 139 185 238 300 365 428
#     4  12  25  43  71 108 141 190 238 301 364 436
#     4  11  24  42  71 104 138 190 240 293 377 436
#
# _framework density 22.391314999999999
#
# number of rings (size 3 to 8) (size 9 to 14) (size 15 to 20)
#    0.000    0.500    7.500    0.750    5.250    1.000 
#    0.000    0.000    0.000    4.500    0.000    0.000 
#    0.000    0.000    0.000    0.000    0.000    0.000 
#
# Total GULP energy -396683.308029 kJ/mol
# GULP energy per Si atom -12396.353376 kJ/mol
# Density = 2.234035 g / cm^3
# Si number density = 22.391315 Si / 1000 Ang^3
#
#
#
# Elastic Constant Matrix: (Units=GPa)
#
#
# Indices 1 2 3 4 5 6 
#
# 1 103.9455 26.4678 34.7476 0.0000 0.0000 0.0000
# 2 26.4678 72.2604 29.2367 0.0000 0.0000 0.0000
# 3 34.7476 29.2367 114.4682 0.0000 0.0000 0.0000
# 4 0.0000 0.0000 0.0000 20.9507 0.0000 0.0000
# 5 0.0000 0.0000 0.0000 0.0000 39.1148 0.0000
# 6 0.0000 0.0000 0.0000 0.0000 0.0000 36.4762
#
#
#
# Elastic Compliance Matrix: (Units=1/GPa)
#
#
# Indices 1 2 3 4 5 6 
#
# 1 0.011284 -0.003064 -0.002643 0.000000 0.000000 0.000000
# 2 -0.003064 0.016266 -0.003224 0.000000 0.000000 0.000000
# 3 -0.002643 -0.003224 0.010362 0.000000 0.000000 0.000000
# 4 0.000000 0.000000 0.000000 0.047731 0.000000 0.000000
# 5 0.000000 0.000000 0.000000 0.000000 0.025566 0.000000
# 6 0.000000 0.000000 0.000000 0.000000 0.000000 0.027415
#
#
# Mechanical properties :
#
#
# Convention : Reuss Voigt Hill
#
# Bulk Modulus (GPa) = 49.87679 52.39758 51.13719
# Shear Modulus (GPa) = 30.64311 32.65649 31.64980
#
# Velocity S-wave (km/s) = 3.70337 3.82310 3.76371
# Velocity P-wave (km/s) = 6.37260 6.55285 6.46335
#
# Compressibility (1/GPa) = 0.02004941
#
# Stress axis : x y z
#
# Youngs Moduli (GPa) = 88.62081 61.47911 96.50786
#
# Poissons Ratio (x) = 0.18836 0.25505
# Poissons Ratio (y) = 0.27152 0.31118
# Poissons Ratio (z) = 0.23421 0.19823
#
# Static dielectric constant tensor:
#      x y z
#    x 4.124340 0.000000 0.000000 
#    y 0.000000 3.794460 0.000000 
#    z 0.000000 0.000000 4.395970 
# 
# 
# High freq. dielectric constant tensor:
#      x y z
#    x 1.888690 0.000000 0.000000 
#    y 0.000000 1.850750 0.000000 
#    z 0.000000 0.000000 1.896100 
# 
# From -- ./inp_files/5110.got.cif
#   From: 2010.03.12/outbox.cif.g09.slc.cpg/sg34_3_cif.got.tgz:5110.got - 2010.04.14 01:56:33.
