data_PCOD8172468
_publ_section_title
;
Structure prediction by ZEFSAII (Michael W. Deem and Ramdas Pophale) SiO2 
 PCOD8172468
Probable space group: C M M 2
;
_chemical_formula_sum "Si O2"
_cell_formula_units_Z 32
_cell_length_a 17.615603
_cell_length_b 9.990290
_cell_length_c 10.239978
_cell_angle_alpha 90.000000
_cell_angle_beta 90.000000
_cell_angle_gamma 90.000000
_cell_volume 1802.082349
_symmetry_space_group_name_H-M "C M M 2"
_symmetry_group_IT_number 35
_symmetry_cell_setting 'orthorhombic'
loop_
_space_group_symop_operation_xyz
x,y,z
-x,-y,z
-x,y,z
x,-y,z
1/2+x,1/2+y,z
1/2-x,1/2-y,z
1/2-x,1/2+y,z
1/2+x,1/2-y,z
loop_
_atom_site_type_symbol
_atom_site_label
_atom_site_fract_x
_atom_site_fract_y
_atom_site_fract_z
Si Si1 0.339947 0.000000 0.706300
Si Si2 0.411613 0.237779 0.846761
Si Si3 0.813385 0.654007 0.067803
Si Si4 0.673727 0.500000 0.763605
Si Si5 0.250000 0.250000 0.316014
Si Si6 0.228667 0.000000 0.489226
O O1 0.389241 0.131253 0.735386
O O2 0.264164 0.000000 0.799081
O O3 0.313382 0.000000 0.554589
O O4 0.500000 0.268337 0.839864
O O5 0.366039 0.372325 0.823802
O O6 0.391905 0.178604 0.990514
O O7 0.788290 0.500000 0.059154
O O8 0.750000 0.750000 0.000064
O O9 0.818358 0.695747 0.221806
O O10 0.666060 0.500000 0.605101
O O11 0.283640 0.367972 0.403910
#
# Coordination Sequence:
#
# PCOD8172468 Si02
#       6
#     4   8   8   4   4   4
#     4  10  21  36  61  84 117 149 192 240 282 332
#     4  12  23  37  57  89 123 150 184 236 300 348
#     4  10  21  35  59  86 117 147 193 240 286 338
#     4  10  23  38  59  86 119 151 194 238 282 340
#     4  10  18  34  56  92 108 146 196 248 274 320
#     4  10  20  34  60  86 110 144 204 244 264 328
#
# _framework density 17.757234
#
# number of rings (size 3 to 8) (size 9 to 14) (size 15 to 20)
#    1.500    0.000    2.500    4.500    1.750    0.000 
#    0.000    0.000    0.000    9.000    0.000    0.000 
#    0.000    0.000    0.000    0.000    0.000    0.000 
#
# Total GULP energy -198268.773425 kJ/mol
# GULP energy per Si atom -12391.798339 kJ/mol
# Density = 1.771682 g / cm^3
# Si number density = 17.757234 Si / 1000 Ang^3
#
#
#
# Elastic Constant Matrix: (Units=GPa)
#
#
# Indices 1 2 3 4 5 6 
#
# 1 61.7365 10.6468 10.8414 0.0000 0.0000 0.0000
# 2 10.6468 134.7149 30.4654 0.0000 0.0000 0.0000
# 3 10.8414 30.4654 92.1537 0.0000 0.0000 0.0000
# 4 0.0000 0.0000 0.0000 52.4225 0.0000 0.0000
# 5 0.0000 0.0000 0.0000 0.0000 11.9500 0.0000
# 6 0.0000 0.0000 0.0000 0.0000 0.0000 20.8871
#
#
#
# Elastic Compliance Matrix: (Units=1/GPa)
#
#
# Indices 1 2 3 4 5 6 
#
# 1 0.016650 -0.000943 -0.001647 0.000000 0.000000 0.000000
# 2 -0.000943 0.008076 -0.002559 0.000000 0.000000 0.000000
# 3 -0.001647 -0.002559 0.011891 0.000000 0.000000 0.000000
# 4 0.000000 0.000000 0.000000 0.019076 0.000000 0.000000
# 5 0.000000 0.000000 0.000000 0.000000 0.083682 0.000000
# 6 0.000000 0.000000 0.000000 0.000000 0.000000 0.047877
#
#
# Mechanical properties :
#
#
# Convention : Reuss Voigt Hill
#
# Bulk Modulus (GPa) = 37.99579 43.61248 40.80414
# Shear Modulus (GPa) = 24.23387 32.82870 28.53129
#
# Velocity S-wave (km/s) = 3.69824 4.30437 4.01277
# Velocity P-wave (km/s) = 6.29919 7.02262 6.67072
#
# Compressibility (1/GPa) = 0.02631870
#
# Stress axis : x y z
#
# Youngs Moduli (GPa) = 60.06085 123.81825 84.09602
#
# Poissons Ratio (x) = 0.11681 0.13850
# Poissons Ratio (y) = 0.05666 0.21520
# Poissons Ratio (z) = 0.09891 0.31685
#
# Static dielectric constant tensor:
#      x y z
#    x 2.901230 0.000000 0.000000 
#    y 0.000000 3.236660 0.000000 
#    z 0.000000 0.000000 3.323140 
# 
# 
# High freq. dielectric constant tensor:
#      x y z
#    x 1.637400 0.000000 0.000000 
#    y 0.000000 1.712840 0.000000 
#    z 0.000000 0.000000 1.687440 
# 
# From -- ./inp_files/13370.got.cif
#   From: 2010.03.12/outbox.cif.g09.slc.cpg/sg35_7_cif.got.tgz:13370.got - 2010.04.14 02:02:04.
