data_PCOD8172021
_publ_section_title
;
Structure prediction by ZEFSAII (Michael W. Deem and Ramdas Pophale) SiO2 
 PCOD8172021
Probable space group: P N N 2
;
_chemical_formula_sum "Si O2"
_cell_formula_units_Z 32
_cell_length_a 9.206257
_cell_length_b 12.528691
_cell_length_c 12.236293
_cell_angle_alpha 90.000000
_cell_angle_beta 90.000000
_cell_angle_gamma 90.000000
_cell_volume 1411.362780
_symmetry_space_group_name_H-M "P N N 2"
_symmetry_group_IT_number 34
_symmetry_cell_setting 'orthorhombic'
loop_
_space_group_symop_operation_xyz
x,y,z
-x,-y,z
1/2-x,1/2+y,1/2+z
1/2+x,1/2-y,1/2+z
loop_
_atom_site_type_symbol
_atom_site_label
_atom_site_fract_x
_atom_site_fract_y
_atom_site_fract_z
Si Si1 0.467361 0.247814 0.681350
Si Si2 0.776429 0.630048 0.270867
Si Si3 0.373728 0.723970 0.464081
Si Si4 0.015601 0.218842 0.729326
Si Si5 0.276249 0.903854 0.200349
Si Si6 0.175313 0.997781 0.976513
Si Si7 0.755895 0.929265 0.629175
Si Si8 0.836332 0.536634 0.930739
O O1 0.578514 0.202340 0.772151
O O2 0.544012 0.301295 0.576970
O O3 0.363496 0.334553 0.738166
O O4 0.367935 0.157776 0.630576
O O5 0.655129 0.702950 0.209207
O O6 0.734648 0.590256 0.391877
O O7 0.805613 0.527946 0.197050
O O8 0.478742 0.724666 0.360137
O O9 0.269360 0.619108 0.447806
O O10 0.300323 0.840488 0.465800
O O11 0.084143 0.326678 0.678435
O O12 0.094139 0.114148 0.679421
O O13 0.307900 0.982570 0.301934
O O14 0.243503 0.971004 0.093475
O O15 0.000000 0.000000 0.974727
O O16 0.773781 0.964411 0.502178
O O17 0.000000 0.500000 0.959249
#
# Coordination Sequence:
#
# PCOD8172021 Si02
#       8
#     4   4   4   4   4   4   4   4
#     4  11  22  40  71 102 135 175 232 278 350 414
#     4  12  21  40  71 104 129 178 226 288 337 401
#     4  11  20  41  69  94 128 186 225 267 336 434
#     4  10  22  40  69  99 133 169 232 284 333 404
#     4  10  25  45  65 100 137 186 224 285 343 422
#     4  12  22  43  69  94 139 187 227 266 353 420
#     4  11  20  40  69 101 128 176 230 278 339 404
#     4  11  22  44  70  97 136 184 231 284 353 407
#
# _framework density 22.673123
#
# number of rings (size 3 to 8) (size 9 to 14) (size 15 to 20)
#    0.000    1.000    6.250    0.750    0.000    0.000 
#    6.750    2.500    2.750    0.000    0.000    0.000 
#    0.000    0.000    0.000    0.000    0.000    0.000 
#
# Total GULP energy -396594.226893 kJ/mol
# GULP energy per Si atom -12393.569590 kJ/mol
# Density = 2.262152 g / cm^3
# Si number density = 22.673123 Si / 1000 Ang^3
#
#
#
# Elastic Constant Matrix: (Units=GPa)
#
#
# Indices 1 2 3 4 5 6 
#
# 1 48.9480 27.5348 12.8789 0.0000 0.0000 0.0000
# 2 27.5348 75.7594 22.5869 0.0000 0.0000 0.0000
# 3 12.8789 22.5869 97.2775 0.0000 0.0000 0.0000
# 4 0.0000 0.0000 0.0000 44.1143 0.0000 0.0000
# 5 0.0000 0.0000 0.0000 0.0000 25.3453 0.0000
# 6 0.0000 0.0000 0.0000 0.0000 0.0000 15.7160
#
#
#
# Elastic Compliance Matrix: (Units=1/GPa)
#
#
# Indices 1 2 3 4 5 6 
#
# 1 0.025840 -0.008994 -0.001333 0.000000 0.000000 0.000000
# 2 -0.008994 0.017312 -0.002829 0.000000 0.000000 0.000000
# 3 -0.001333 -0.002829 0.011113 0.000000 0.000000 0.000000
# 4 0.000000 0.000000 0.000000 0.022668 0.000000 0.000000
# 5 0.000000 0.000000 0.000000 0.000000 0.039455 0.000000
# 6 0.000000 0.000000 0.000000 0.000000 0.000000 0.063629
#
#
# Mechanical properties :
#
#
# Convention : Reuss Voigt Hill
#
# Bulk Modulus (GPa) = 35.77361 38.66513 37.21937
# Shear Modulus (GPa) = 23.18596 27.63407 25.41001
#
# Velocity S-wave (km/s) = 3.20131 3.49492 3.35133
# Velocity P-wave (km/s) = 5.42925 5.77722 5.60594
#
# Compressibility (1/GPa) = 0.02795357
#
# Stress axis : x y z
#
# Youngs Moduli (GPa) = 38.69958 57.76316 89.98352
#
# Poissons Ratio (x) = 0.51954 0.11992
# Poissons Ratio (y) = 0.34807 0.25455
# Poissons Ratio (z) = 0.05157 0.16341
#
# Static dielectric constant tensor:
#      x y z
#    x 3.965230 0.000000 0.000000 
#    y 0.000000 4.570750 0.000000 
#    z 0.000000 0.000000 4.099920 
# 
# 
# High freq. dielectric constant tensor:
#      x y z
#    x 1.863210 0.000000 0.000000 
#    y 0.000000 1.906520 0.000000 
#    z 0.000000 0.000000 1.894290 
# 
# From -- ./inp_files/5114.got.cif
#   From: 2010.03.12/outbox.cif.g09.slc.cpg/sg34_3_cif.got.tgz:5114.got - 2010.04.14 01:56:33.
