data_PCOD8172820
_publ_section_title
;
Structure prediction by ZEFSAII (Michael W. Deem and Ramdas Pophale) SiO2 
 PCOD8172820
Probable space group: C M M 2
;
_chemical_formula_sum "Si O2"
_cell_formula_units_Z 64
_cell_length_a 8.752362
_cell_length_b 18.294584
_cell_length_c 20.579720
_cell_angle_alpha 90.000000
_cell_angle_beta 90.000000
_cell_angle_gamma 90.000000
_cell_volume 3295.241679
_symmetry_space_group_name_H-M "C M M 2"
_symmetry_group_IT_number 35
_symmetry_cell_setting 'orthorhombic'
loop_
_space_group_symop_operation_xyz
x,y,z
-x,-y,z
-x,y,z
x,-y,z
1/2+x,1/2+y,z
1/2-x,1/2-y,z
1/2-x,1/2+y,z
1/2+x,1/2-y,z
loop_
_atom_site_type_symbol
_atom_site_label
_atom_site_fract_x
_atom_site_fract_y
_atom_site_fract_z
Si Si1 0.679754 0.829393 0.080050
Si Si2 0.318456 0.418185 0.448522
Si Si3 0.679209 0.084141 0.953886
Si Si4 0.319668 0.670512 0.325372
Si Si5 0.679960 0.828195 0.707369
Si Si6 0.327031 0.586398 0.820629
Si Si7 0.822171 0.085050 0.196804
Si Si8 0.181408 0.171255 0.572897
O O1 0.500000 0.821000 0.079518
O O2 0.750000 0.750000 0.088695
O O3 0.725540 0.881195 0.138914
O O4 0.737378 0.866707 0.013577
O O5 0.500000 0.420831 0.444262
O O6 0.251004 0.500000 0.443677
O O7 0.253575 0.369730 0.389285
O O8 0.265468 0.383648 0.516582
O O9 0.500000 0.093195 0.941310
O O10 0.767649 0.113160 0.890589
O O11 0.720466 0.000000 0.969311
O O12 0.500000 0.678391 0.330244
O O13 0.250000 0.750000 0.318917
O O14 0.270816 0.623041 0.263429
O O15 0.500000 0.820724 0.698422
O O16 0.750000 0.750000 0.724868
O O17 0.717759 0.883055 0.765109
O O18 0.752687 0.858969 0.640768
O O19 0.500000 0.614465 0.810747
O O20 0.316897 0.500000 0.816657
O O21 0.000000 0.098477 0.182640
O O22 0.783303 0.000000 0.202878
O O23 0.250000 0.250000 0.556499
O O24 0.000000 0.177461 0.577863
#
# Coordination Sequence:
#
# PCOD8172820 Si02
#       8
#     8   8   8   8   8   8   8   8
#     4  11  23  38  57  82 113 148 185 227 274 325
#     4   9  18  33  54  79 106 139 180 224 270 322
#     4   9  19  37  58  79 106 143 185 227 274 326
#     4  10  20  35  56  81 110 144 182 224 271 324
#     4  11  22  37  57  80 110 146 184 227 275 327
#     4  10  21  37  58  84 113 145 182 224 271 326
#     4  10  21  37  58  83 111 145 185 229 276 328
#     4  10  19  33  54  78 105 139 179 223 272 326
#
# _framework density 19.421942999999999
#
# number of rings (size 3 to 8) (size 9 to 14) (size 15 to 20)
#    0.000    2.000    0.000    4.500    0.000    6.500 
#    0.000    4.375    0.000    3.750    0.000    0.000 
#    0.000    0.000    0.000    0.000    0.000    0.000 
#
# Total GULP energy -396907.963686 kJ/mol
# GULP energy per Si atom -12403.373865 kJ/mol
# Density = 1.937774 g / cm^3
# Si number density = 19.421943 Si / 1000 Ang^3
#
#
#
# Elastic Constant Matrix: (Units=GPa)
#
#
# Indices 1 2 3 4 5 6 
#
# 1 68.5420 31.8948 48.1398 0.0000 0.0000 0.0000
# 2 31.8948 115.0850 76.1168 0.0000 0.0000 0.0000
# 3 48.1398 76.1168 162.1082 0.0000 0.0000 0.0000
# 4 0.0000 0.0000 0.0000 44.5530 0.0000 0.0000
# 5 0.0000 0.0000 0.0000 0.0000 19.8698 0.0000
# 6 0.0000 0.0000 0.0000 0.0000 0.0000 24.0600
#
#
#
# Elastic Compliance Matrix: (Units=1/GPa)
#
#
# Indices 1 2 3 4 5 6 
#
# 1 0.018812 -0.002203 -0.004552 0.000000 0.000000 0.000000
# 2 -0.002203 0.012861 -0.005385 0.000000 0.000000 0.000000
# 3 -0.004552 -0.005385 0.010049 0.000000 0.000000 0.000000
# 4 0.000000 0.000000 0.000000 0.022445 0.000000 0.000000
# 5 0.000000 0.000000 0.000000 0.000000 0.050328 0.000000
# 6 0.000000 0.000000 0.000000 0.000000 0.000000 0.041563
#
#
# Mechanical properties :
#
#
# Convention : Reuss Voigt Hill
#
# Bulk Modulus (GPa) = 57.33093 73.11535 65.22314
# Shear Modulus (GPa) = 26.85996 30.33546 28.59771
#
# Velocity S-wave (km/s) = 3.72286 3.95640 3.84141
# Velocity P-wave (km/s) = 6.93270 7.65495 7.30276
#
# Compressibility (1/GPa) = 0.01744259
#
# Stress axis : x y z
#
# Youngs Moduli (GPa) = 53.15842 77.75351 99.51382
#
# Poissons Ratio (x) = 0.17128 0.45299
# Poissons Ratio (y) = 0.11710 0.53585
# Poissons Ratio (z) = 0.24198 0.41868
#
# Static dielectric constant tensor:
#      x y z
#    x 3.478500 0.000000 0.000000 
#    y 0.000000 3.542080 0.000000 
#    z 0.000000 0.000000 3.766840 
# 
# 
# High freq. dielectric constant tensor:
#      x y z
#    x 1.745780 0.000000 0.000000 
#    y 0.000000 1.758130 0.000000 
#    z 0.000000 0.000000 1.773480 
# 
# From -- ./inp_files/18431.got.cif
#   From: 2010.03.12/outbox.cif.g09.slc.cpg/sg35_10_cif.got.tgz:18431.got - 2010.04.14 02:02:04.
