data_PCOD8172000
_publ_section_title
;
Structure prediction by ZEFSAII (Michael W. Deem and Ramdas Pophale) SiO2 
 PCOD8172000
Probable space group: P N N 2
;
_chemical_formula_sum "Si O2"
_cell_formula_units_Z 30
_cell_length_a 11.327736
_cell_length_b 9.662492
_cell_length_c 13.240443
_cell_angle_alpha 90.000000
_cell_angle_beta 90.000000
_cell_angle_gamma 90.000000
_cell_volume 1449.221546
_symmetry_space_group_name_H-M "P N N 2"
_symmetry_group_IT_number 34
_symmetry_cell_setting 'orthorhombic'
loop_
_space_group_symop_operation_xyz
x,y,z
-x,-y,z
1/2-x,1/2+y,1/2+z
1/2+x,1/2-y,1/2+z
loop_
_atom_site_type_symbol
_atom_site_label
_atom_site_fract_x
_atom_site_fract_y
_atom_site_fract_z
Si Si1 0.554721 0.644610 0.148340
Si Si2 0.500000 0.500000 0.710770
Si Si3 0.636926 0.999315 0.927721
Si Si4 0.998804 0.846856 0.018326
Si Si5 0.261459 0.495024 0.815051
Si Si6 0.327921 0.295575 0.351767
Si Si7 0.743445 0.722142 0.983807
Si Si8 0.897905 0.599194 0.647445
O O1 0.500000 0.500000 0.111978
O O2 0.588622 0.637746 0.266270
O O3 0.447760 0.749181 0.127715
O O4 0.669417 0.691825 0.085025
O O5 0.475416 0.365981 0.638336
O O6 0.394606 0.525977 0.786406
O O7 0.712011 0.107794 0.861888
O O8 0.500000 0.000000 0.894026
O O9 0.684182 0.842837 0.915997
O O10 0.655111 0.038698 0.044461
O O11 0.876048 0.766323 0.009866
O O12 0.103316 0.771273 0.957870
O O13 0.000000 0.000000 0.967253
O O14 0.200569 0.642638 0.816170
O O15 0.253448 0.419788 0.922021
O O16 0.203751 0.396135 0.730756
O O17 0.000000 0.500000 0.689863
#
# Coordination Sequence:
#
# PCOD8172000 Si02
#       8
#     4   2   4   4   4   4   4   4
#     4  12  27  43  69 103 141 177 231 298 342 413
#     4  10  24  46  66  94 136 186 220 266 358 422
#     4  11  23  42  71  95 136 184 225 278 348 423
#     4  10  21  43  74  93 129 182 233 274 333 423
#     4  12  27  40  71 102 137 174 233 291 342 415
#     4  12  24  43  71 101 133 183 234 279 350 412
#     4  12  25  44  66 104 138 173 232 286 348 409
#     4  11  21  46  71  92 128 184 232 271 343 420
#
# _framework density 20.700769000000001
#
# number of rings (size 3 to 8) (size 9 to 14) (size 15 to 20)
#    0.400    0.267    5.333    3.600    6.533    0.000 
#    0.000    0.000    0.000    0.000    0.000    0.000 
#    0.000    0.000    0.000    0.000    0.000    0.000 
#
# Total GULP energy -372000.126683 kJ/mol
# GULP energy per Si atom -12400.004223 kJ/mol
# Density = 2.065365 g / cm^3
# Si number density = 20.700769 Si / 1000 Ang^3
#
#
#
# Elastic Constant Matrix: (Units=GPa)
#
#
# Indices 1 2 3 4 5 6 
#
# 1 97.3328 35.8772 15.2894 0.0000 0.0000 0.0000
# 2 35.8772 105.3412 18.4753 0.0000 0.0000 0.0000
# 3 15.2894 18.4753 56.3497 0.0000 0.0000 0.0000
# 4 0.0000 0.0000 0.0000 31.1316 0.0000 0.0000
# 5 0.0000 0.0000 0.0000 0.0000 36.7369 0.0000
# 6 0.0000 0.0000 0.0000 0.0000 0.0000 29.0187
#
#
#
# Elastic Compliance Matrix: (Units=1/GPa)
#
#
# Indices 1 2 3 4 5 6 
#
# 1 0.011963 -0.003719 -0.002027 0.000000 0.000000 0.000000
# 2 -0.003719 0.011228 -0.002672 0.000000 0.000000 0.000000
# 3 -0.002027 -0.002672 0.019172 0.000000 0.000000 0.000000
# 4 0.000000 0.000000 0.000000 0.032122 0.000000 0.000000
# 5 0.000000 0.000000 0.000000 0.000000 0.027221 0.000000
# 6 0.000000 0.000000 0.000000 0.000000 0.000000 0.034460
#
#
# Mechanical properties :
#
#
# Convention : Reuss Voigt Hill
#
# Bulk Modulus (GPa) = 39.17276 44.25638 41.71457
# Shear Modulus (GPa) = 30.95748 32.00291 31.48020
#
# Velocity S-wave (km/s) = 3.87133 3.93616 3.90388
# Velocity P-wave (km/s) = 6.24078 6.48716 6.36517
#
# Compressibility (1/GPa) = 0.02552794
#
# Stress axis : x y z
#
# Youngs Moduli (GPa) = 83.58953 89.06092 52.15842
#
# Poissons Ratio (x) = 0.33122 0.10571
# Poissons Ratio (y) = 0.31087 0.13938
# Poissons Ratio (z) = 0.16941 0.23800
#
# Static dielectric constant tensor:
#      x y z
#    x 3.846440 0.000000 0.000000 
#    y 0.000000 3.677510 0.000000 
#    z 0.000000 0.000000 3.567880 
# 
# 
# High freq. dielectric constant tensor:
#      x y z
#    x 1.821040 0.000000 0.000000 
#    y 0.000000 1.805540 0.000000 
#    z 0.000000 0.000000 1.801230 
# 
# From -- ./inp_files/6770.got.cif
#   From: 2010.03.12/outbox.cif.g09.slc.cpg/sg34_4_cif.got.tgz:6770.got - 2010.04.14 01:56:33.
