data_PCOD8172730
_publ_section_title
;
Structure prediction by ZEFSAII (Michael W. Deem and Ramdas Pophale) SiO2 
 PCOD8172730
Probable space group: C M M 2
;
_chemical_formula_sum "Si O2"
_cell_formula_units_Z 48
_cell_length_a 15.519435
_cell_length_b 8.742710
_cell_length_c 17.252811
_cell_angle_alpha 90.000000
_cell_angle_beta 90.000000
_cell_angle_gamma 90.000000
_cell_volume 2340.894514
_symmetry_space_group_name_H-M "C M M 2"
_symmetry_group_IT_number 35
_symmetry_cell_setting 'orthorhombic'
loop_
_space_group_symop_operation_xyz
x,y,z
-x,-y,z
-x,y,z
x,-y,z
1/2+x,1/2+y,z
1/2-x,1/2-y,z
1/2-x,1/2+y,z
1/2+x,1/2-y,z
loop_
_atom_site_type_symbol
_atom_site_label
_atom_site_fract_x
_atom_site_fract_y
_atom_site_fract_z
Si Si1 0.842119 0.178637 0.250000
Si Si2 0.160312 0.682245 0.774018
Si Si3 0.000000 0.181876 0.684303
Si Si4 0.903464 0.669195 0.936990
Si Si5 0.156993 0.178334 0.084407
Si Si6 0.000000 0.681340 0.515451
Si Si7 0.345819 0.317836 0.418860
O O1 0.750000 0.250000 0.243370
O O2 0.888365 0.224470 0.168011
O O3 0.883171 0.228320 0.332516
O O4 0.829570 0.000000 0.254089
O O5 0.154060 0.500000 0.760489
O O6 0.250000 0.750000 0.742176
O O7 0.084881 0.768254 0.729666
O O8 0.155214 0.724343 0.865503
O O9 0.000000 0.269630 0.603710
O O10 0.000000 0.000000 0.672004
O O11 0.874867 0.500000 0.963419
O O12 0.000000 0.668894 0.904012
O O13 0.901594 0.775606 0.012310
O O14 0.250000 0.250000 0.072911
O O15 0.170256 0.000000 0.082410
O O16 0.087187 0.747049 0.478418
O O17 0.000000 0.500000 0.507238
O O18 0.341690 0.500000 0.430509
O O19 0.250000 0.250000 0.432145
#
# Coordination Sequence:
#
# PCOD8172730 Si02
#       7
#     8   8   4   8   8   4   8
#     4   8  16  31  53  80 114 155 200 251 304 353
#     4  11  23  43  68  96 127 164 205 252 307 368
#     4  12  26  46  70  97 126 159 200 251 308 369
#     4  10  21  38  57  81 119 162 203 253 306 354
#     4  10  19  32  52  81 114 155 204 253 301 355
#     4  12  26  44  66  95 128 163 202 249 306 371
#     4  10  20  39  65  93 126 165 208 257 310 368
#
# _framework density 20.504981000000001
#
# number of rings (size 3 to 8) (size 9 to 14) (size 15 to 20)
#    0.000    1.833    0.833    3.500    0.000    5.000 
#    1.500    3.333    0.000    0.000    0.000    0.000 
#    0.000    0.000    0.000    0.000    0.000    0.000 
#
# Total GULP energy -297335.518681 kJ/mol
# GULP energy per Si atom -12388.979945 kJ/mol
# Density = 2.045831 g / cm^3
# Si number density = 20.504981 Si / 1000 Ang^3
#
#
#
# Elastic Constant Matrix: (Units=GPa)
#
#
# Indices 1 2 3 4 5 6 
#
# 1 103.5378 31.3477 42.5053 0.0000 0.0000 0.0000
# 2 31.3477 69.9674 33.4229 0.0000 0.0000 0.0000
# 3 42.5053 33.4229 113.0136 0.0000 0.0000 0.0000
# 4 0.0000 0.0000 0.0000 32.7096 0.0000 0.0000
# 5 0.0000 0.0000 0.0000 0.0000 -282.2234 0.0000
# 6 0.0000 0.0000 0.0000 0.0000 0.0000 30.7250
#
#
#
# Elastic Compliance Matrix: (Units=1/GPa)
#
#
# Indices 1 2 3 4 5 6 
#
# 1 0.012242 -0.003826 -0.003473 0.000000 0.000000 0.000000
# 2 -0.003826 0.017839 -0.003837 0.000000 0.000000 0.000000
# 3 -0.003473 -0.003837 0.011289 0.000000 0.000000 0.000000
# 4 0.000000 0.000000 0.000000 0.030572 0.000000 0.000000
# 5 0.000000 0.000000 0.000000 0.000000 -0.003543 0.000000
# 6 0.000000 0.000000 0.000000 0.000000 0.000000 0.032547
#
#
# Mechanical properties :
#
#
# Convention : Reuss Voigt Hill
#
# Bulk Modulus (GPa) = 52.35719 55.67452 54.01586
# Shear Modulus (GPa) = 38.58470 -31.80823 3.38823
#
# Velocity S-wave (km/s) = 4.34259 -3.94286 1.28685
# Velocity P-wave (km/s) = 7.12274 2.54607 5.34864
#
# Compressibility (1/GPa) = 0.01909957
#
# Stress axis : x y z
#
# Youngs Moduli (GPa) = 81.68304 56.05568 88.57846
#
# Poissons Ratio (x) = 0.21447 0.30763
# Poissons Ratio (y) = 0.31252 0.33986
# Poissons Ratio (z) = 0.28368 0.21508
#
# Static dielectric constant tensor:
#      x y z
#    x 4.250700 0.000000 0.000000 
#    y 0.000000 3.644960 0.000000 
#    z 0.000000 0.000000 4.222310 
# 
# 
# High freq. dielectric constant tensor:
#      x y z
#    x 1.786090 0.000000 0.000000 
#    y 0.000000 1.806420 0.000000 
#    z 0.000000 0.000000 1.818990 
# 
# From -- ./inp_files/17915.got.cif
#   From: 2010.03.12/outbox.cif.g09.slc.cpg/sg35_9_cif.got.tgz:17915.got - 2010.04.14 02:02:04.
