data_PCOD8172282
_publ_section_title
;
Structure prediction by ZEFSAII (Michael W. Deem and Ramdas Pophale) SiO2 
 PCOD8172282
Probable space group: C M M 2
;
_chemical_formula_sum "Si O2"
_cell_formula_units_Z 56
_cell_length_a 18.989849
_cell_length_b 14.116583
_cell_length_c 12.430558
_cell_angle_alpha 90.000000
_cell_angle_beta 90.000000
_cell_angle_gamma 90.000000
_cell_volume 3332.281804
_symmetry_space_group_name_H-M "C M M 2"
_symmetry_group_IT_number 35
_symmetry_cell_setting 'orthorhombic'
loop_
_space_group_symop_operation_xyz
x,y,z
-x,-y,z
-x,y,z
x,-y,z
1/2+x,1/2+y,z
1/2-x,1/2-y,z
1/2-x,1/2+y,z
1/2+x,1/2-y,z
loop_
_atom_site_type_symbol
_atom_site_label
_atom_site_fract_x
_atom_site_fract_y
_atom_site_fract_z
Si Si1 0.581355 0.762516 0.910560
Si Si2 0.812507 0.893259 0.961601
Si Si3 0.727032 0.393903 0.714916
Si Si4 0.917962 0.395587 0.489559
Si Si5 0.420965 0.112088 0.253501
Si Si6 0.637819 0.221419 0.678477
Si Si7 0.667569 0.888116 0.054831
O O1 0.500000 0.757982 0.942443
O O2 0.619478 0.673560 0.968937
O O3 0.587654 0.764657 0.781364
O O4 0.617822 0.856166 0.956709
O O5 0.784261 0.888723 0.841211
O O6 0.748903 0.854949 0.037840
O O7 0.835084 0.000000 0.993076
O O8 0.715217 0.500000 0.669881
O O9 0.674248 0.322613 0.653197
O O10 0.806401 0.361514 0.697708
O O11 0.886169 0.500000 0.521420
O O12 0.890182 0.362277 0.371937
O O13 0.905192 0.312490 0.575046
O O14 0.000000 0.409751 0.475552
O O15 0.500000 0.154409 0.234272
O O16 0.425530 0.000000 0.241168
O O17 0.365352 0.152662 0.165945
O O18 0.666941 0.000000 0.051434
#
# Coordination Sequence:
#
# PCOD8172282 Si02
#       7
#     8   8   8   8   8   8   8
#     4  11  21  30  45  73 103 127 157 198 244 291
#     4   9  18  33  50  66  91 130 168 198 236 282
#     4   9  17  30  47  66  91 127 163 197 238 283
#     4   9  17  29  46  69  99 130 156 191 244 300
#     4   8  15  28  45  68  97 127 158 194 243 299
#     4  10  18  29  47  69  95 126 161 196 238 290
#     4  10  18  30  50  72  95 125 160 198 245 294
#
# _framework density 16.805302000000001
#
# number of rings (size 3 to 8) (size 9 to 14) (size 15 to 20)
#    0.000    2.571    1.429    2.571    0.000    1.714 
#    0.000    0.000    6.286    1.286    0.000    0.000 
#    0.000    1.143    0.000    0.000    0.000    0.000 
#
# Total GULP energy -346983.400913 kJ/mol
# GULP energy per Si atom -12392.264318 kJ/mol
# Density = 1.676705 g / cm^3
# Si number density = 16.805302 Si / 1000 Ang^3
#
#
#
# Elastic Constant Matrix: (Units=GPa)
#
#
# Indices 1 2 3 4 5 6 
#
# 1 65.5727 23.5146 25.3505 0.0000 0.0000 0.0000
# 2 23.5146 71.1853 28.0782 0.0000 0.0000 0.0000
# 3 25.3505 28.0782 58.7279 0.0000 0.0000 0.0000
# 4 0.0000 0.0000 0.0000 12.2107 0.0000 0.0000
# 5 0.0000 0.0000 0.0000 0.0000 26.1396 0.0000
# 6 0.0000 0.0000 0.0000 0.0000 0.0000 21.9929
#
#
#
# Elastic Compliance Matrix: (Units=1/GPa)
#
#
# Indices 1 2 3 4 5 6 
#
# 1 0.019090 -0.003766 -0.006440 0.000000 0.000000 0.000000
# 2 -0.003766 0.018056 -0.007007 0.000000 0.000000 0.000000
# 3 -0.006440 -0.007007 0.023158 0.000000 0.000000 0.000000
# 4 0.000000 0.000000 0.000000 0.081896 0.000000 0.000000
# 5 0.000000 0.000000 0.000000 0.000000 0.038256 0.000000
# 6 0.000000 0.000000 0.000000 0.000000 0.000000 0.045469
#
#
# Mechanical properties :
#
#
# Convention : Reuss Voigt Hill
#
# Bulk Modulus (GPa) = 38.64302 38.81919 38.73111
# Shear Modulus (GPa) = 18.58898 19.97147 19.28023
#
# Velocity S-wave (km/s) = 3.32947 3.45106 3.39081
# Velocity P-wave (km/s) = 6.15020 6.24734 6.19896
#
# Compressibility (1/GPa) = 0.02587790
#
# Stress axis : x y z
#
# Youngs Moduli (GPa) = 52.38218 55.38434 43.18224
#
# Poissons Ratio (x) = 0.20857 0.27810
# Poissons Ratio (y) = 0.19727 0.30257
# Poissons Ratio (z) = 0.33734 0.38807
#
# Static dielectric constant tensor:
#      x y z
#    x 3.169480 0.000000 0.000000 
#    y 0.000000 3.291780 0.000000 
#    z 0.000000 0.000000 3.311120 
# 
# 
# High freq. dielectric constant tensor:
#      x y z
#    x 1.637080 0.000000 0.000000 
#    y 0.000000 1.634220 0.000000 
#    z 0.000000 0.000000 1.630020 
# 
# From -- ./inp_files/13625.got.cif
#   From: 2010.03.12/outbox.cif.g09.slc.cpg/sg35_7_cif.got.tgz:13625.got - 2010.04.14 02:02:04.
