data_PCOD8172862
_publ_section_title
;
Structure prediction by ZEFSAII (Michael W. Deem and Ramdas Pophale) SiO2 
 PCOD8172862
Probable space group: C M M 2
;
_chemical_formula_sum "Si O2"
_cell_formula_units_Z 48
_cell_length_a 11.218549
_cell_length_b 17.027612
_cell_length_c 12.805407
_cell_angle_alpha 90.000000
_cell_angle_beta 90.000000
_cell_angle_gamma 90.000000
_cell_volume 2446.154147
_symmetry_space_group_name_H-M "C M M 2"
_symmetry_group_IT_number 35
_symmetry_cell_setting 'orthorhombic'
loop_
_space_group_symop_operation_xyz
x,y,z
-x,-y,z
-x,y,z
x,-y,z
1/2+x,1/2+y,z
1/2-x,1/2-y,z
1/2-x,1/2+y,z
1/2+x,1/2-y,z
loop_
_atom_site_type_symbol
_atom_site_label
_atom_site_fract_x
_atom_site_fract_y
_atom_site_fract_z
Si Si1 0.760513 0.906489 0.416190
Si Si2 0.860214 0.689397 0.004286
Si Si3 0.863735 0.410025 0.210665
Si Si4 0.752086 0.407558 0.823909
Si Si5 0.129350 0.406670 0.614657
Si Si6 0.500000 0.406956 0.758373
Si Si7 0.000000 0.906395 0.520191
O O1 0.720807 0.875243 0.302461
O O2 0.671806 0.872723 0.504003
O O3 0.889675 0.876050 0.451179
O O4 0.755192 0.000000 0.413206
O O5 0.750000 0.750000 0.002472
O O6 0.840937 0.640063 0.108371
O O7 0.000000 0.720960 0.999668
O O8 0.838943 0.633700 0.905508
O O9 0.830420 0.500000 0.184691
O O10 0.000000 0.404160 0.249085
O O11 0.768617 0.500000 0.841013
O O12 0.785814 0.379933 0.707807
O O13 0.613426 0.381035 0.828810
O O14 0.127960 0.500000 0.608885
O O15 0.000000 0.371752 0.638105
O O16 0.500000 0.500000 0.744454
O O17 0.500000 0.372246 0.639317
O O18 0.000000 0.000000 0.528344
#
# Coordination Sequence:
#
# PCOD8172862 Si02
#       7
#     8   8   8   8   8   4   4
#     4   9  15  25  44  76 112 143 174 214 270 328
#     4  11  25  43  61  80 109 149 191 237 289 341
#     4   9  18  35  59  84 109 141 185 234 278 322
#     4  10  19  33  57  86 114 146 188 232 278 329
#     4   9  15  23  42  76 112 139 170 218 273 327
#     4   9  16  28  49  83 123 155 177 217 278 336
#     4   9  14  24  41  73 121 155 170 199 268 340
#
# _framework density 19.622640000000001
#
# number of rings (size 3 to 8) (size 9 to 14) (size 15 to 20)
#    0.000    2.500    1.667    1.500    1.167    3.667 
#    1.500    0.000    0.000    1.000    0.000    0.000 
#    0.000    0.000    0.000    0.000    0.000    0.000 
#
# Total GULP energy -297331.297235 kJ/mol
# GULP energy per Si atom -12388.804051 kJ/mol
# Density = 1.957798 g / cm^3
# Si number density = 19.622640 Si / 1000 Ang^3
#
#
#
# Elastic Constant Matrix: (Units=GPa)
#
#
# Indices 1 2 3 4 5 6 
#
# 1 141.9547 28.2123 49.2845 0.0000 0.0000 0.0000
# 2 28.2123 30.6056 24.6450 0.0000 0.0000 0.0000
# 3 49.2845 24.6450 118.7477 0.0000 0.0000 0.0000
# 4 0.0000 0.0000 0.0000 -7.1878 0.0000 0.0000
# 5 0.0000 0.0000 0.0000 0.0000 37.4512 0.0000
# 6 0.0000 0.0000 0.0000 0.0000 0.0000 18.7173
#
#
#
# Elastic Compliance Matrix: (Units=1/GPa)
#
#
# Indices 1 2 3 4 5 6 
#
# 1 0.009190 -0.006484 -0.002469 0.000000 0.000000 0.000000
# 2 -0.006484 0.043804 -0.006400 0.000000 0.000000 0.000000
# 3 -0.002469 -0.006400 0.010774 0.000000 0.000000 0.000000
# 4 0.000000 0.000000 0.000000 -0.139124 0.000000 0.000000
# 5 0.000000 0.000000 0.000000 0.000000 0.026701 0.000000
# 6 0.000000 0.000000 0.000000 0.000000 0.000000 0.053427
#
#
# Mechanical properties :
#
#
# Convention : Reuss Voigt Hill
#
# Bulk Modulus (GPa) = 30.24488 55.06572 42.65530
# Shear Modulus (GPa) = 107.53006 22.40721 64.96863
#
# Velocity S-wave (km/s) = 7.41066 3.38288 5.76029
# Velocity P-wave (km/s) = 9.41651 6.58648 8.12565
#
# Compressibility (1/GPa) = 0.03306345
#
# Stress axis : x y z
#
# Youngs Moduli (GPa) = 108.81229 22.82886 92.81537
#
# Poissons Ratio (x) = 0.14801 0.22912
# Poissons Ratio (y) = 0.70550 0.59404
# Poissons Ratio (z) = 0.26861 0.14611
#
# Static dielectric constant tensor:
#      x y z
#    x 3.977980 0.000000 0.000000 
#    y 0.000000 3.013890 0.000000 
#    z 0.000000 0.000000 3.659450 
# 
# 
# High freq. dielectric constant tensor:
#      x y z
#    x 1.780810 0.000000 0.000000 
#    y 0.000000 1.700320 0.000000 
#    z 0.000000 0.000000 1.772170 
# 
# From -- ./inp_files/12369.got.cif
#   From: 2010.03.12/outbox.cif.g09.slc.cpg/sg35_7_cif.got.tgz:12369.got - 2010.04.14 02:02:04.
