data_PCOD8172370
_publ_section_title
;
Structure prediction by ZEFSAII (Michael W. Deem and Ramdas Pophale) SiO2 
 PCOD8172370
Probable space group: C M M 2
;
_chemical_formula_sum "Si O2"
_cell_formula_units_Z 48
_cell_length_a 19.201549
_cell_length_b 8.694346
_cell_length_c 15.656373
_cell_angle_alpha 90.000000
_cell_angle_beta 90.000000
_cell_angle_gamma 90.000000
_cell_volume 2613.751793
_symmetry_space_group_name_H-M "C M M 2"
_symmetry_group_IT_number 35
_symmetry_cell_setting 'orthorhombic'
loop_
_space_group_symop_operation_xyz
x,y,z
-x,-y,z
-x,y,z
x,-y,z
1/2+x,1/2+y,z
1/2-x,1/2-y,z
1/2-x,1/2+y,z
1/2+x,1/2-y,z
loop_
_atom_site_type_symbol
_atom_site_label
_atom_site_fract_x
_atom_site_fract_y
_atom_site_fract_z
Si Si1 0.418952 0.680411 0.686070
Si Si2 0.422090 0.819339 0.045286
Si Si3 0.326713 0.816795 0.198435
Si Si4 0.082680 0.829974 0.875005
Si Si5 0.325973 0.819160 0.542945
Si Si6 0.672840 0.317032 0.371049
O O1 0.500000 0.718188 0.672779
O O2 0.404729 0.500000 0.670603
O O3 0.393478 0.728725 0.781541
O O4 0.375334 0.784354 0.622163
O O5 0.500000 0.749671 0.056078
O O6 0.373203 0.754726 0.120154
O O7 0.425415 0.000000 0.052062
O O8 0.390302 0.776163 0.952498
O O9 0.250000 0.750000 0.185693
O O10 0.362493 0.751586 0.285392
O O11 0.323095 0.000000 0.202809
O O12 0.000000 0.834591 0.873308
O O13 0.112724 0.000000 0.891522
O O14 0.250000 0.750000 0.560980
O O15 0.362246 0.743359 0.458600
O O16 0.318595 0.000000 0.528859
O O17 0.672140 0.500000 0.367705
O O18 0.750000 0.250000 0.373062
#
# Coordination Sequence:
#
# PCOD8172370 Si02
#       6
#     8   8   8   8   8   8
#     4   9  18  34  54  76 103 133 166 206 251 297
#     4   9  18  32  50  72  98 128 162 201 242 284
#     4  10  19  32  50  72  98 127 161 201 244 290
#     4   8  15  29  50  73  97 128 163 198 239 290
#     4  11  21  34  53  76 102 132 168 207 249 297
#     4  10  18  31  51  72  96 128 165 202 243 293
#
# _framework density 18.364405999999999
#
# number of rings (size 3 to 8) (size 9 to 14) (size 15 to 20)
#    0.000    2.500    0.000    6.500    0.000    2.333 
#    0.000    3.333    0.000    5.000    0.000    0.000 
#    0.000    0.000    0.000    0.000    0.000    0.000 
#
# Total GULP energy -297455.927741 kJ/mol
# GULP energy per Si atom -12393.996989 kJ/mol
# Density = 1.832261 g / cm^3
# Si number density = 18.364406 Si / 1000 Ang^3
#
#
#
# Elastic Constant Matrix: (Units=GPa)
#
#
# Indices 1 2 3 4 5 6 
#
# 1 47.1163 25.3601 51.2322 0.0000 0.0000 0.0000
# 2 25.3601 92.3668 49.9176 0.0000 0.0000 0.0000
# 3 51.2322 49.9176 178.4849 0.0000 0.0000 0.0000
# 4 0.0000 0.0000 0.0000 36.2971 0.0000 0.0000
# 5 0.0000 0.0000 0.0000 0.0000 31.7598 0.0000
# 6 0.0000 0.0000 0.0000 0.0000 0.0000 19.6236
#
#
#
# Elastic Compliance Matrix: (Units=1/GPa)
#
#
# Indices 1 2 3 4 5 6 
#
# 1 0.032406 -0.004560 -0.008027 0.000000 0.000000 0.000000
# 2 -0.004560 0.013396 -0.002438 0.000000 0.000000 0.000000
# 3 -0.008027 -0.002438 0.008588 0.000000 0.000000 0.000000
# 4 0.000000 0.000000 0.000000 0.027550 0.000000 0.000000
# 5 0.000000 0.000000 0.000000 0.000000 0.031486 0.000000
# 6 0.000000 0.000000 0.000000 0.000000 0.000000 0.050959
#
#
# Mechanical properties :
#
#
# Convention : Reuss Voigt Hill
#
# Bulk Modulus (GPa) = 41.08049 63.44309 52.26179
# Shear Modulus (GPa) = 24.68557 30.29998 27.49277
#
# Velocity S-wave (km/s) = 3.67032 4.06634 3.87339
# Velocity P-wave (km/s) = 6.35451 7.52785 6.96593
#
# Compressibility (1/GPa) = 0.02434246
#
# Stress axis : x y z
#
# Youngs Moduli (GPa) = 30.85848 74.65121 116.43594
#
# Poissons Ratio (x) = 0.34038 0.93459
# Poissons Ratio (y) = 0.14070 0.28383
# Poissons Ratio (z) = 0.24769 0.18197
#
# Static dielectric constant tensor:
#      x y z
#    x 3.197550 0.000000 0.000000 
#    y 0.000000 3.347530 0.000000 
#    z 0.000000 0.000000 4.149870 
# 
# 
# High freq. dielectric constant tensor:
#      x y z
#    x 1.662660 0.000000 0.000000 
#    y 0.000000 1.713280 0.000000 
#    z 0.000000 0.000000 1.737560 
# 
# From -- ./inp_files/14081.got.cif
#   From: 2010.03.12/outbox.cif.g09.slc.cpg/sg35_8_cif.got.tgz:14081.got - 2010.04.14 02:02:04.
