data_PCOD8172446
_publ_section_title
;
Structure prediction by ZEFSAII (Michael W. Deem and Ramdas Pophale) SiO2 
 PCOD8172446
Probable space group: C M M 2
;
_chemical_formula_sum "Si O2"
_cell_formula_units_Z 64
_cell_length_a 25.497091
_cell_length_b 15.202601
_cell_length_c 8.776909
_cell_angle_alpha 90.000000
_cell_angle_beta 90.000000
_cell_angle_gamma 90.000000
_cell_volume 3402.123908
_symmetry_space_group_name_H-M "C M M 2"
_symmetry_group_IT_number 35
_symmetry_cell_setting 'orthorhombic'
loop_
_space_group_symop_operation_xyz
x,y,z
-x,-y,z
-x,y,z
x,-y,z
1/2+x,1/2+y,z
1/2-x,1/2-y,z
1/2-x,1/2+y,z
1/2+x,1/2-y,z
loop_
_atom_site_type_symbol
_atom_site_label
_atom_site_fract_x
_atom_site_fract_y
_atom_site_fract_z
Si Si1 0.254334 0.146220 0.611660
Si Si2 0.941059 0.760357 0.030893
Si Si3 0.614087 0.738841 0.733913
Si Si4 0.861846 0.898943 0.153118
Si Si5 0.869160 0.599262 0.534878
Si Si6 0.560716 0.100486 0.242378
Si Si7 0.145238 0.901754 0.499302
Si Si8 0.286266 0.677158 0.920444
O O1 0.250000 0.250000 0.579860
O O2 0.306116 0.109534 0.528793
O O3 0.206083 0.095084 0.539607
O O4 0.250078 0.126960 0.794930
O O5 0.908496 0.841156 0.092291
O O6 0.924681 0.666370 0.104029
O O7 0.000000 0.781784 0.074534
O O8 0.934765 0.761417 0.848409
O O9 0.610080 0.834582 0.661138
O O10 0.610666 0.663095 0.604803
O O11 0.667915 0.727056 0.826622
O O12 0.854929 0.869005 0.326153
O O13 0.878098 0.000000 0.139740
O O14 0.809261 0.885190 0.051777
O O15 0.883629 0.500000 0.582992
O O16 0.898078 0.621906 0.376466
O O17 0.500000 0.114377 0.296285
O O18 0.568408 0.000000 0.185470
O O19 0.121733 0.000000 0.517895
O O20 0.250000 0.750000 0.003228
#
# Coordination Sequence:
#
# PCOD8172446 Si02
#       8
#     8   8   8   8   8   8   8   8
#     4  10  18  33  54  80 114 153 186 230 274 323
#     4  10  22  39  62  83 107 148 190 238 295 348
#     4  10  20  36  54  81 113 139 188 236 282 332
#     4  10  22  37  57  86 117 152 192 235 284 338
#     4  11  20  33  56  84 114 150 190 233 280 336
#     4   9  20  39  60  83 113 149 189 236 293 348
#     4  10  20  36  56  79 112 152 188 225 278 337
#     4   9  17  35  53  76 112 158 192 224 269 324
#
# _framework density 18.811778
#
# number of rings (size 3 to 8) (size 9 to 14) (size 15 to 20)
#    0.000    2.125    3.750    1.125    0.000    6.750 
#    2.250    0.625    0.000    0.750    0.000    0.000 
#    0.000    0.000    0.000    0.000    0.000    0.000 
#
# Total GULP energy -396568.590156 kJ/mol
# GULP energy per Si atom -12392.768442 kJ/mol
# Density = 1.876896 g / cm^3
# Si number density = 18.811778 Si / 1000 Ang^3
#
#
#
# Elastic Constant Matrix: (Units=GPa)
#
#
# Indices 1 2 3 4 5 6 
#
# 1 64.3914 28.3367 41.3728 0.0000 0.0000 0.0000
# 2 28.3367 108.2645 63.8156 0.0000 0.0000 0.0000
# 3 41.3728 63.8156 129.6770 0.0000 0.0000 0.0000
# 4 0.0000 0.0000 0.0000 -77.7066 0.0000 0.0000
# 5 0.0000 0.0000 0.0000 0.0000 26.7959 0.0000
# 6 0.0000 0.0000 0.0000 0.0000 0.0000 21.9940
#
#
#
# Elastic Compliance Matrix: (Units=1/GPa)
#
#
# Indices 1 2 3 4 5 6 
#
# 1 0.019856 -0.002061 -0.005321 0.000000 0.000000 0.000000
# 2 -0.002061 0.013224 -0.005850 0.000000 0.000000 0.000000
# 3 -0.005321 -0.005850 0.012288 0.000000 0.000000 0.000000
# 4 0.000000 0.000000 0.000000 -0.012869 0.000000 0.000000
# 5 0.000000 0.000000 0.000000 0.000000 0.037319 0.000000
# 6 0.000000 0.000000 0.000000 0.000000 0.000000 0.045467
#
#
# Mechanical properties :
#
#
# Convention : Reuss Voigt Hill
#
# Bulk Modulus (GPa) = 52.89771 63.26478 58.08124
# Shear Modulus (GPa) = 33.77223 5.47051 19.62137
#
# Velocity S-wave (km/s) = 4.24166 1.70714 3.23311
# Velocity P-wave (km/s) = 7.22284 6.13100 6.69920
#
# Compressibility (1/GPa) = 0.01890441
#
# Stress axis : x y z
#
# Youngs Moduli (GPa) = 50.36376 75.61723 81.37946
#
# Poissons Ratio (x) = 0.15582 0.43300
# Poissons Ratio (y) = 0.10378 0.47611
# Poissons Ratio (z) = 0.26797 0.44240
#
# Static dielectric constant tensor:
#      x y z
#    x 3.460010 0.000000 0.000000 
#    y 0.000000 3.478300 0.000000 
#    z 0.000000 0.000000 3.608180 
# 
# 
# High freq. dielectric constant tensor:
#      x y z
#    x 1.715850 0.000000 0.000000 
#    y 0.000000 1.736740 0.000000 
#    z 0.000000 0.000000 1.726510 
# 
# From -- ./inp_files/9885.got.cif
#   From: 2010.03.12/outbox.cif.g09.slc.cpg/sg35_5_cif.got.tgz:9885.got - 2010.04.14 02:02:04.
