data_PCOD8172940
_publ_section_title
;
Structure prediction by ZEFSAII (Michael W. Deem and Ramdas Pophale) SiO2 
 PCOD8172940
Probable space group: C M M 2
;
_chemical_formula_sum "Si O2"
_cell_formula_units_Z 64
_cell_length_a 8.763418
_cell_length_b 29.215234
_cell_length_c 12.365318
_cell_angle_alpha 90.000000
_cell_angle_beta 90.000000
_cell_angle_gamma 90.000000
_cell_volume 3165.834343
_symmetry_space_group_name_H-M "C M M 2"
_symmetry_group_IT_number 35
_symmetry_cell_setting 'orthorhombic'
loop_
_space_group_symop_operation_xyz
x,y,z
-x,-y,z
-x,y,z
x,-y,z
1/2+x,1/2+y,z
1/2-x,1/2-y,z
1/2-x,1/2+y,z
1/2+x,1/2-y,z
loop_
_atom_site_type_symbol
_atom_site_label
_atom_site_fract_x
_atom_site_fract_y
_atom_site_fract_z
Si Si1 0.319586 0.574933 0.227140
Si Si2 0.821173 0.668658 0.285737
Si Si3 0.324209 0.948949 0.006715
Si Si4 0.323311 0.049707 0.442133
Si Si5 0.672768 0.292675 0.091829
Si Si6 0.180140 0.646082 0.520539
Si Si7 0.176935 0.136645 0.911038
Si Si8 0.681719 0.800654 0.728672
O O1 0.500000 0.584245 0.222828
O O2 0.225920 0.621342 0.231943
O O3 0.276746 0.545999 0.333406
O O4 0.268086 0.549274 0.118922
O O5 0.742571 0.706862 0.212503
O O6 0.763301 0.670549 0.410097
O O7 0.000000 0.675185 0.280260
O O8 0.500000 0.935099 0.027079
O O9 0.249769 0.913741 0.920683
O O10 0.313463 0.000000 0.956203
O O11 0.500000 0.058468 0.409558
O O12 0.268155 0.092166 0.518051
O O13 0.305527 0.000000 0.501388
O O14 0.500000 0.279377 0.103808
O O15 0.750000 0.250000 0.028365
O O16 0.695946 0.339936 0.028197
O O17 0.248366 0.674008 0.621453
O O18 0.000000 0.648026 0.529679
O O19 0.267249 0.167689 0.826962
O O20 0.000000 0.133092 0.877042
O O21 0.500000 0.796550 0.727854
O O22 0.750000 0.750000 0.737616
#
# Coordination Sequence:
#
# PCOD8172940 Si02
#       8
#     8   8   8   8   8   8   8   8
#     4  11  20  31  50  81 121 162 200 241 289 345
#     4  10  19  35  58  83 118 158 197 243 295 351
#     4  11  23  38  59  87 119 159 203 243 291 351
#     4   9  17  32  55  82 114 155 201 243 291 353
#     4  11  23  37  56  85 118 154 193 238 297 362
#     4   8  18  36  58  86 116 150 193 248 301 348
#     4  11  24  42  63  88 120 153 196 249 302 355
#     4  11  23  42  66  89 116 151 201 254 304 360
#
# _framework density 20.215841000000001
#
# number of rings (size 3 to 8) (size 9 to 14) (size 15 to 20)
#    0.000    1.750    1.250    4.500    0.000    5.750 
#    0.000    8.125    0.000    2.250    0.000    0.000 
#    0.000    0.000    0.000    0.000    0.000    0.000 
#
# Total GULP energy -396634.461668 kJ/mol
# GULP energy per Si atom -12394.826927 kJ/mol
# Density = 2.016983 g / cm^3
# Si number density = 20.215841 Si / 1000 Ang^3
#
#
#
# Elastic Constant Matrix: (Units=GPa)
#
#
# Indices 1 2 3 4 5 6 
#
# 1 70.6435 32.5469 38.6449 0.0000 0.0000 0.0000
# 2 32.5469 128.3080 51.2004 0.0000 0.0000 0.0000
# 3 38.6449 51.2004 97.0366 0.0000 0.0000 0.0000
# 4 0.0000 0.0000 0.0000 25.1114 0.0000 0.0000
# 5 0.0000 0.0000 0.0000 0.0000 17.8545 0.0000
# 6 0.0000 0.0000 0.0000 0.0000 0.0000 29.3474
#
#
#
# Elastic Compliance Matrix: (Units=1/GPa)
#
#
# Indices 1 2 3 4 5 6 
#
# 1 0.018589 -0.002231 -0.006226 0.000000 0.000000 0.000000
# 2 -0.002231 0.010140 -0.004462 0.000000 0.000000 0.000000
# 3 -0.006226 -0.004462 0.015139 0.000000 0.000000 0.000000
# 4 0.000000 0.000000 0.000000 0.039823 0.000000 0.000000
# 5 0.000000 0.000000 0.000000 0.000000 0.056008 0.000000
# 6 0.000000 0.000000 0.000000 0.000000 0.000000 0.034075
#
#
# Mechanical properties :
#
#
# Convention : Reuss Voigt Hill
#
# Bulk Modulus (GPa) = 55.46039 60.08583 57.77311
# Shear Modulus (GPa) = 24.31647 26.03573 25.17610
#
# Velocity S-wave (km/s) = 3.47196 3.59261 3.53280
# Velocity P-wave (km/s) = 6.60048 6.85535 6.72912
#
# Compressibility (1/GPa) = 0.01803089
#
# Stress axis : x y z
#
# Youngs Moduli (GPa) = 53.79427 98.61812 66.05371
#
# Poissons Ratio (x) = 0.22001 0.41126
# Poissons Ratio (y) = 0.12001 0.29472
# Poissons Ratio (z) = 0.33493 0.44002
#
# Static dielectric constant tensor:
#      x y z
#    x 3.616670 0.000000 0.000000 
#    y 0.000000 3.842320 0.000000 
#    z 0.000000 0.000000 3.686500 
# 
# 
# High freq. dielectric constant tensor:
#      x y z
#    x 1.784410 0.000000 0.000000 
#    y 0.000000 1.803940 0.000000 
#    z 0.000000 0.000000 1.764110 
# 
# From -- ./inp_files/11927.got.cif
#   From: 2010.03.12/outbox.cif.g09.slc.cpg/sg35_6_cif.got.tgz:11927.got - 2010.04.14 02:02:04.
