data_PCOD8172230
_publ_section_title
;
Structure prediction by ZEFSAII (Michael W. Deem and Ramdas Pophale) SiO2 
 PCOD8172230
Probable space group: C M M 2
;
_chemical_formula_sum "Si O2"
_cell_formula_units_Z 64
_cell_length_a 19.806542
_cell_length_b 17.771684
_cell_length_c 10.085211
_cell_angle_alpha 90.000000
_cell_angle_beta 90.000000
_cell_angle_gamma 90.000000
_cell_volume 3549.949953
_symmetry_space_group_name_H-M "C M M 2"
_symmetry_group_IT_number 35
_symmetry_cell_setting 'orthorhombic'
loop_
_space_group_symop_operation_xyz
x,y,z
-x,-y,z
-x,y,z
x,-y,z
1/2+x,1/2+y,z
1/2-x,1/2-y,z
1/2-x,1/2+y,z
1/2+x,1/2-y,z
loop_
_atom_site_type_symbol
_atom_site_label
_atom_site_fract_x
_atom_site_fract_y
_atom_site_fract_z
Si Si1 0.652471 0.586358 0.776760
Si Si2 0.574994 0.410460 0.025644
Si Si3 0.577361 0.911049 0.351084
Si Si4 0.808182 0.587607 0.832645
Si Si5 0.180151 0.588916 0.129252
Si Si6 0.831633 0.662541 0.567871
Si Si7 0.819496 0.838395 0.520097
Si Si8 0.821608 0.910499 0.247721
O O1 0.635755 0.500000 0.757142
O O2 0.728269 0.599343 0.826621
O O3 0.636943 0.624599 0.636637
O O4 0.603101 0.622027 0.886970
O O5 0.500000 0.378854 0.049984
O O6 0.575965 0.500000 0.019634
O O7 0.622902 0.383595 0.143245
O O8 0.500000 0.884340 0.338435
O O9 0.616899 0.884886 0.218565
O O10 0.610253 0.874675 0.480546
O O11 0.582647 0.000000 0.367873
O O12 0.827551 0.500000 0.809285
O O13 0.844890 0.639404 0.721622
O O14 0.830919 0.617307 0.978261
O O15 0.187267 0.500000 0.121992
O O16 0.248991 0.619417 0.196332
O O17 0.830190 0.750576 0.540624
O O18 0.757702 0.631857 0.529511
O O19 0.845269 0.866724 0.378914
O O20 0.821185 0.000000 0.272753
#
# Coordination Sequence:
#
# PCOD8172230 Si02
#       8
#     8   8   8   8   8   8   8   8
#     4   9  16  29  49  74 101 133 173 215 257 308
#     4   9  17  30  49  74 104 133 165 212 264 309
#     4  10  20  35  56  80 107 140 175 217 274 328
#     4   9  16  29  53  79 100 128 170 218 265 308
#     4   9  16  29  52  80 103 127 170 223 267 311
#     4  10  20  34  50  74 108 137 171 220 261 317
#     4  10  20  32  51  75 105 136 178 220 261 305
#     4  10  17  30  53  79 103 132 174 222 261 305
#
# _framework density 18.028424000000001
#
# number of rings (size 3 to 8) (size 9 to 14) (size 15 to 20)
#    0.000    2.500    2.500    0.750    0.000    1.000 
#    0.000    3.750    2.750    5.250    0.000    0.000 
#    0.000    0.000    0.000    0.000    0.000    0.000 
#
# Total GULP energy -396695.939084 kJ/mol
# GULP energy per Si atom -12396.748096 kJ/mol
# Density = 1.798739 g / cm^3
# Si number density = 18.028424 Si / 1000 Ang^3
#
#
#
# Elastic Constant Matrix: (Units=GPa)
#
#
# Indices 1 2 3 4 5 6 
#
# 1 114.6020 29.0385 75.3505 0.0000 0.0000 0.0000
# 2 29.0385 37.9679 43.4729 0.0000 0.0000 0.0000
# 3 75.3505 43.4729 187.7143 0.0000 0.0000 0.0000
# 4 0.0000 0.0000 0.0000 8.6891 0.0000 0.0000
# 5 0.0000 0.0000 0.0000 0.0000 25.1988 0.0000
# 6 0.0000 0.0000 0.0000 0.0000 0.0000 10.8319
#
#
#
# Elastic Compliance Matrix: (Units=1/GPa)
#
#
# Indices 1 2 3 4 5 6 
#
# 1 0.012572 -0.005222 -0.003837 0.000000 0.000000 0.000000
# 2 -0.005222 0.038011 -0.006707 0.000000 0.000000 0.000000
# 3 -0.003837 -0.006707 0.008421 0.000000 0.000000 0.000000
# 4 0.000000 0.000000 0.000000 0.115087 0.000000 0.000000
# 5 0.000000 0.000000 0.000000 0.000000 0.039684 0.000000
# 6 0.000000 0.000000 0.000000 0.000000 0.000000 0.092320
#
#
# Mechanical properties :
#
#
# Convention : Reuss Voigt Hill
#
# Bulk Modulus (GPa) = 36.40055 70.66756 53.53406
# Shear Modulus (GPa) = 14.41821 21.77212 18.09517
#
# Velocity S-wave (km/s) = 2.83105 3.47890 3.17156
# Velocity P-wave (km/s) = 5.56066 7.44446 6.57042
#
# Compressibility (1/GPa) = 0.02747211
#
# Stress axis : x y z
#
# Youngs Moduli (GPa) = 79.54251 26.30812 118.75336
#
# Poissons Ratio (x) = 0.13737 0.45568
# Poissons Ratio (y) = 0.41534 0.79648
# Poissons Ratio (z) = 0.30522 0.17645
#
# Static dielectric constant tensor:
#      x y z
#    x 3.270590 0.000000 0.000000 
#    y 0.000000 2.979670 0.000000 
#    z 0.000000 0.000000 3.580600 
# 
# 
# High freq. dielectric constant tensor:
#      x y z
#    x 1.671910 0.000000 0.000000 
#    y 0.000000 1.662630 0.000000 
#    z 0.000000 0.000000 1.716640 
# 
# From -- ./inp_files/8735.got.cif
#   From: 2010.03.12/outbox.cif.g09.slc.cpg/sg35_5_cif.got.tgz:8735.got - 2010.04.14 02:02:04.
