data_PCOD8172373
_publ_section_title
;
Structure prediction by ZEFSAII (Michael W. Deem and Ramdas Pophale) SiO2 
 PCOD8172373
Probable space group: C M M 2
;
_chemical_formula_sum "Si O2"
_cell_formula_units_Z 64
_cell_length_a 28.259450
_cell_length_b 8.642921
_cell_length_c 15.516684
_cell_angle_alpha 90.000000
_cell_angle_beta 90.000000
_cell_angle_gamma 90.000000
_cell_volume 3789.859975
_symmetry_space_group_name_H-M "C M M 2"
_symmetry_group_IT_number 35
_symmetry_cell_setting 'orthorhombic'
loop_
_space_group_symop_operation_xyz
x,y,z
-x,-y,z
-x,y,z
x,-y,z
1/2+x,1/2+y,z
1/2-x,1/2-y,z
1/2-x,1/2+y,z
1/2+x,1/2-y,z
loop_
_atom_site_type_symbol
_atom_site_label
_atom_site_fract_x
_atom_site_fract_y
_atom_site_fract_z
Si Si1 0.697505 0.683268 0.228530
Si Si2 0.698344 0.818810 0.054829
Si Si3 0.301178 0.680888 0.727958
Si Si4 0.642626 0.321852 0.901639
Si Si5 0.553291 0.321533 0.646815
Si Si6 0.698067 0.817599 0.402690
Si Si7 0.858581 0.681823 0.571255
Si Si8 0.553705 0.820417 0.831101
O O1 0.697053 0.500000 0.229843
O O2 0.750000 0.750000 0.227501
O O3 0.673694 0.745042 0.140365
O O4 0.673685 0.748213 0.315983
O O5 0.750000 0.750000 0.036144
O O6 0.703812 0.000000 0.068767
O O7 0.664957 0.784957 0.974519
O O8 0.297423 0.500000 0.707719
O O9 0.250000 0.750000 0.745735
O O10 0.332369 0.715034 0.811546
O O11 0.324437 0.764949 0.647343
O O12 0.648347 0.500000 0.928297
O O13 0.587433 0.278931 0.893028
O O14 0.500000 0.296784 0.611451
O O15 0.562683 0.500000 0.670063
O O16 0.590359 0.264945 0.575183
O O17 0.562345 0.222762 0.732073
O O18 0.750000 0.750000 0.419476
O O19 0.664661 0.768842 0.481266
O O20 0.702929 0.000000 0.393120
O O21 0.866207 0.500000 0.577282
O O22 0.500000 0.781953 0.858155
O O23 0.565575 0.000000 0.842487
#
# Coordination Sequence:
#
# PCOD8172373 Si02
#       8
#     8   8   8   8   8   8   8   8
#     4  10  18  31  51  73  98 130 166 208 252 297
#     4  11  21  34  52  74 103 136 170 211 251 299
#     4  11  23  35  48  67  98 137 173 208 244 291
#     4  11  22  35  51  74 101 134 172 210 250 298
#     4  10  20  34  52  73  98 129 167 212 257 299
#     4  10  20  33  49  73 101 133 169 207 249 296
#     4  11  22  34  51  73 100 133 171 210 250 300
#     4  10  20  34  53  75  99 129 167 211 256 300
#
# _framework density 16.887167999999999
#
# number of rings (size 3 to 8) (size 9 to 14) (size 15 to 20)
#    0.000    1.500    1.250    6.750    0.000    7.000 
#    0.000    0.000    0.000    0.000    0.000    0.875 
#    0.000    3.000    0.000    0.000    0.000    0.000 
#
# Total GULP energy -396859.283313 kJ/mol
# GULP energy per Si atom -12401.852604 kJ/mol
# Density = 1.684873 g / cm^3
# Si number density = 16.887168 Si / 1000 Ang^3
#
#
#
# Elastic Constant Matrix: (Units=GPa)
#
#
# Indices 1 2 3 4 5 6 
#
# 1 90.2650 30.7046 36.9464 0.0000 0.0000 0.0000
# 2 30.7046 76.5081 38.8518 0.0000 0.0000 0.0000
# 3 36.9464 38.8518 97.8655 0.0000 0.0000 0.0000
# 4 0.0000 0.0000 0.0000 28.6935 0.0000 0.0000
# 5 0.0000 0.0000 0.0000 0.0000 8.3289 0.0000
# 6 0.0000 0.0000 0.0000 0.0000 0.0000 26.7890
#
#
#
# Elastic Compliance Matrix: (Units=1/GPa)
#
#
# Indices 1 2 3 4 5 6 
#
# 1 0.013868 -0.003641 -0.003790 0.000000 0.000000 0.000000
# 2 -0.003641 0.017327 -0.005504 0.000000 0.000000 0.000000
# 3 -0.003790 -0.005504 0.013834 0.000000 0.000000 0.000000
# 4 0.000000 0.000000 0.000000 0.034851 0.000000 0.000000
# 5 0.000000 0.000000 0.000000 0.000000 0.120064 0.000000
# 6 0.000000 0.000000 0.000000 0.000000 0.000000 0.037329
#
#
# Mechanical properties :
#
#
# Convention : Reuss Voigt Hill
#
# Bulk Modulus (GPa) = 52.19548 53.07159 52.63354
# Shear Modulus (GPa) = 18.55083 23.30466 20.92775
#
# Velocity S-wave (km/s) = 3.31798 3.71889 3.52414
# Velocity P-wave (km/s) = 6.75679 7.06651 6.91339
#
# Compressibility (1/GPa) = 0.01915875
#
# Stress axis : x y z
#
# Youngs Moduli (GPa) = 72.10643 57.71425 72.28553
#
# Poissons Ratio (x) = 0.21014 0.27397
# Poissons Ratio (y) = 0.26254 0.39786
# Poissons Ratio (z) = 0.27330 0.31766
#
# Static dielectric constant tensor:
#      x y z
#    x 3.125970 0.000000 0.000000 
#    y 0.000000 3.307660 0.000000 
#    z 0.000000 0.000000 3.474430 
# 
# 
# High freq. dielectric constant tensor:
#      x y z
#    x 1.629140 0.000000 0.000000 
#    y 0.000000 1.673890 0.000000 
#    z 0.000000 0.000000 1.643140 
# 
# From -- ./inp_files/17775.got.cif
#   From: 2010.03.12/outbox.cif.g09.slc.cpg/sg35_9_cif.got.tgz:17775.got - 2010.04.14 02:02:04.
