data_PCOD8172539
_publ_section_title
;
Structure prediction by ZEFSAII (Michael W. Deem and Ramdas Pophale) SiO2 
 PCOD8172539
Probable space group: C M M 2
;
_chemical_formula_sum "Si O2"
_cell_formula_units_Z 48
_cell_length_a 9.540759
_cell_length_b 32.808639
_cell_length_c 9.004681
_cell_angle_alpha 90.000000
_cell_angle_beta 90.000000
_cell_angle_gamma 90.000000
_cell_volume 2818.639104
_symmetry_space_group_name_H-M "C M M 2"
_symmetry_group_IT_number 35
_symmetry_cell_setting 'orthorhombic'
loop_
_space_group_symop_operation_xyz
x,y,z
-x,-y,z
-x,y,z
x,-y,z
1/2+x,1/2+y,z
1/2-x,1/2-y,z
1/2-x,1/2+y,z
1/2+x,1/2-y,z
loop_
_atom_site_type_symbol
_atom_site_label
_atom_site_fract_x
_atom_site_fract_y
_atom_site_fract_z
Si Si1 0.339246 0.954585 0.223810
Si Si2 0.333959 0.877454 0.032650
Si Si3 0.846336 0.917870 0.456070
Si Si4 0.163777 0.868598 0.735209
Si Si5 0.336793 0.289200 0.548786
Si Si6 0.155503 0.836551 0.265892
O O1 0.500000 0.948133 0.264585
O O2 0.293825 0.921688 0.100361
O O3 0.259546 0.949341 0.380207
O O4 0.309732 0.000000 0.160908
O O5 0.500000 0.870783 0.021064
O O6 0.268825 0.841498 0.134696
O O7 0.264469 0.875213 0.873184
O O8 0.801029 0.905681 0.622668
O O9 0.852802 0.877008 0.361808
O O10 0.000000 0.938334 0.458704
O O11 0.202024 0.825573 0.660620
O O12 0.000000 0.869766 0.781273
O O13 0.500000 0.278852 0.560055
O O14 0.250000 0.250000 0.598941
O O15 0.297706 0.300731 0.378366
O O16 0.000000 0.827584 0.199127
#
# Coordination Sequence:
#
# PCOD8172539 Si02
#       6
#     8   8   8   8   8   8
#     4   9  18  32  48  68  96 125 153 193 243 284
#     4  10  19  30  48  73  96 124 163 197 227 275
#     4   8  15  29  49  69  88 116 156 193 224 271
#     4   9  18  33  50  69  97 129 156 189 238 285
#     4   9  18  32  51  73  95 122 156 195 240 285
#     4   8  15  30  49  67  90 121 153 187 232 278
#
# _framework density 17.029494
#
# number of rings (size 3 to 8) (size 9 to 14) (size 15 to 20)
#    0.000    3.167    0.000    2.500    0.000    3.000 
#    0.000    5.000    0.000    3.000    0.000    0.000 
#    0.000    0.000    0.000    0.000    0.000    0.000 
#
# Total GULP energy -297462.261733 kJ/mol
# GULP energy per Si atom -12394.260906 kJ/mol
# Density = 1.699073 g / cm^3
# Si number density = 17.029494 Si / 1000 Ang^3
#
#
#
# Elastic Constant Matrix: (Units=GPa)
#
#
# Indices 1 2 3 4 5 6 
#
# 1 91.4753 45.0222 72.0889 0.0000 0.0000 0.0000
# 2 45.0222 74.2672 37.4393 0.0000 0.0000 0.0000
# 3 72.0889 37.4393 119.4791 0.0000 0.0000 0.0000
# 4 0.0000 0.0000 0.0000 16.8823 0.0000 0.0000
# 5 0.0000 0.0000 0.0000 0.0000 30.8636 0.0000
# 6 0.0000 0.0000 0.0000 0.0000 0.0000 25.2614
#
#
#
# Elastic Compliance Matrix: (Units=1/GPa)
#
#
# Indices 1 2 3 4 5 6 
#
# 1 0.025042 -0.008983 -0.012295 0.000000 0.000000 0.000000
# 2 -0.008983 0.019213 -0.000601 0.000000 0.000000 0.000000
# 3 -0.012295 -0.000601 0.015976 0.000000 0.000000 0.000000
# 4 0.000000 0.000000 0.000000 0.059234 0.000000 0.000000
# 5 0.000000 0.000000 0.000000 0.000000 0.032401 0.000000
# 6 0.000000 0.000000 0.000000 0.000000 0.000000 0.039586
#
#
# Mechanical properties :
#
#
# Convention : Reuss Voigt Hill
#
# Bulk Modulus (GPa) = 60.69801 66.03581 63.36691
# Shear Modulus (GPa) = 20.77276 23.31288 22.04282
#
# Velocity S-wave (km/s) = 3.49637 3.70397 3.60167
# Velocity P-wave (km/s) = 7.21247 7.56003 7.38829
#
# Compressibility (1/GPa) = 0.01647500
#
# Stress axis : x y z
#
# Youngs Moduli (GPa) = 39.93265 52.04708 62.59447
#
# Poissons Ratio (x) = 0.46755 0.76957
# Poissons Ratio (y) = 0.35872 0.03759
# Poissons Ratio (z) = 0.49095 0.03126
#
# Static dielectric constant tensor:
#      x y z
#    x 3.319660 0.000000 0.000000 
#    y 0.000000 3.115280 0.000000 
#    z 0.000000 0.000000 3.169330 
# 
# 
# High freq. dielectric constant tensor:
#      x y z
#    x 1.659020 0.000000 0.000000 
#    y 0.000000 1.636630 0.000000 
#    z 0.000000 0.000000 1.646350 
# 
# From -- ./inp_files/5321.got.cif
#   From: 2010.03.12/outbox.cif.g09.slc.cpg/sg35_3_cif.got.tgz:5321.got - 2010.04.14 02:02:04.
