data_PCOD8172523
_publ_section_title
;
Structure prediction by ZEFSAII (Michael W. Deem and Ramdas Pophale) SiO2 
 PCOD8172523
Probable space group: C M M 2
;
_chemical_formula_sum "Si O2"
_cell_formula_units_Z 64
_cell_length_a 28.599461
_cell_length_b 9.008918
_cell_length_c 15.639625
_cell_angle_alpha 90.000000
_cell_angle_beta 90.000000
_cell_angle_gamma 90.000000
_cell_volume 4029.552493
_symmetry_space_group_name_H-M "C M M 2"
_symmetry_group_IT_number 35
_symmetry_cell_setting 'orthorhombic'
loop_
_space_group_symop_operation_xyz
x,y,z
-x,-y,z
-x,y,z
x,-y,z
1/2+x,1/2+y,z
1/2-x,1/2-y,z
1/2-x,1/2+y,z
1/2+x,1/2-y,z
loop_
_atom_site_type_symbol
_atom_site_label
_atom_site_fract_x
_atom_site_fract_y
_atom_site_fract_z
Si Si1 0.641060 0.175637 0.301500
Si Si2 0.853808 0.173503 0.980788
Si Si3 0.200146 0.326111 0.462180
Si Si4 0.447281 0.327934 0.251568
Si Si5 0.050822 0.176183 0.057567
Si Si6 0.798518 0.328954 0.646464
Si Si7 0.700075 0.325712 0.154097
Si Si8 0.699637 0.825524 0.831880
O O1 0.665255 0.229502 0.389054
O O2 0.587388 0.228545 0.308442
O O3 0.664851 0.256761 0.222021
O O4 0.644115 0.000000 0.288765
O O5 0.906141 0.234550 0.000613
O O6 0.819792 0.206027 0.060048
O O7 0.854444 0.000000 0.958784
O O8 0.836865 0.263308 0.899269
O O9 0.208951 0.500000 0.452834
O O10 0.250000 0.250000 0.449675
O O11 0.176490 0.287655 0.555871
O O12 0.500000 0.305603 0.285869
O O13 0.432509 0.500000 0.257366
O O14 0.443274 0.268562 0.154540
O O15 0.000000 0.230233 0.021515
O O16 0.052192 0.000000 0.059799
O O17 0.786378 0.500000 0.646246
O O18 0.750000 0.250000 0.646241
O O19 0.823142 0.290171 0.737373
O O20 0.704992 0.500000 0.171826
O O21 0.750000 0.250000 0.163769
O O22 0.750000 0.750000 0.843798
O O23 0.706389 0.000000 0.847018
#
# Coordination Sequence:
#
# PCOD8172523 Si02
#       8
#     8   8   8   8   8   8   8   8
#     4  11  21  31  46  69  95 122 153 191 230 269
#     4  10  19  31  47  67  90 119 152 187 223 266
#     4   9  18  31  46  66  91 121 153 187 225 269
#     4   9  17  32  52  69  88 118 155 192 231 275
#     4   8  14  28  49  68  85 111 149 187 223 265
#     4   8  15  29  46  63  86 115 149 186 227 268
#     4  11  22  34  45  61  90 128 162 188 220 265
#     4  10  19  30  46  67  91 120 151 188 227 269
#
# _framework density 15.882657
#
# number of rings (size 3 to 8) (size 9 to 14) (size 15 to 20)
#    0.000    2.500    1.250    2.625    0.000    4.750 
#    0.000    0.000    0.000    0.375    0.000    0.875 
#    0.000    5.000    0.000    0.000    0.000    0.000 
#
# Total GULP energy -396500.581297 kJ/mol
# GULP energy per Si atom -12390.643166 kJ/mol
# Density = 1.584651 g / cm^3
# Si number density = 15.882657 Si / 1000 Ang^3
#
#
#
# Elastic Constant Matrix: (Units=GPa)
#
#
# Indices 1 2 3 4 5 6 
#
# 1 98.8050 31.4733 48.5081 0.0000 0.0000 0.0000
# 2 31.4733 49.4636 41.3449 0.0000 0.0000 0.0000
# 3 48.5081 41.3449 113.8371 0.0000 0.0000 0.0000
# 4 0.0000 0.0000 0.0000 24.5291 0.0000 0.0000
# 5 0.0000 0.0000 0.0000 0.0000 10.2565 0.0000
# 6 0.0000 0.0000 0.0000 0.0000 0.0000 22.5994
#
#
#
# Elastic Compliance Matrix: (Units=1/GPa)
#
#
# Indices 1 2 3 4 5 6 
#
# 1 0.013781 -0.005543 -0.003859 0.000000 0.000000 0.000000
# 2 -0.005543 0.031259 -0.008991 0.000000 0.000000 0.000000
# 3 -0.003859 -0.008991 0.013694 0.000000 0.000000 0.000000
# 4 0.000000 0.000000 0.000000 0.040768 0.000000 0.000000
# 5 0.000000 0.000000 0.000000 0.000000 0.097499 0.000000
# 6 0.000000 0.000000 0.000000 0.000000 0.000000 0.044249
#
#
# Mechanical properties :
#
#
# Convention : Reuss Voigt Hill
#
# Bulk Modulus (GPa) = 45.56203 56.08424 50.82314
# Shear Modulus (GPa) = 17.52209 20.86231 19.19220
#
# Velocity S-wave (km/s) = 3.32508 3.62819 3.47994
# Velocity P-wave (km/s) = 6.59473 7.27599 6.94372
#
# Compressibility (1/GPa) = 0.02194810
#
# Stress axis : x y z
#
# Youngs Moduli (GPa) = 72.56188 31.99044 73.02204
#
# Poissons Ratio (x) = 0.17733 0.28181
# Poissons Ratio (y) = 0.40222 0.65655
# Poissons Ratio (z) = 0.28003 0.28763
#
# Static dielectric constant tensor:
#      x y z
#    x 3.095480 0.000000 0.000000 
#    y 0.000000 2.869600 0.000000 
#    z 0.000000 0.000000 3.453760 
# 
# 
# High freq. dielectric constant tensor:
#      x y z
#    x 1.590870 0.000000 0.000000 
#    y 0.000000 1.606710 0.000000 
#    z 0.000000 0.000000 1.605830 
# 
# From -- ./inp_files/16192.got.cif
#   From: 2010.03.12/outbox.cif.g09.slc.cpg/sg35_9_cif.got.tgz:16192.got - 2010.04.14 02:02:04.
