data_PCOD8172754
_publ_section_title
;
Structure prediction by ZEFSAII (Michael W. Deem and Ramdas Pophale) SiO2 
 PCOD8172754
Probable space group: C M M 2
;
_chemical_formula_sum "Si O2"
_cell_formula_units_Z 64
_cell_length_a 22.919476
_cell_length_b 14.838835
_cell_length_c 9.684999
_cell_angle_alpha 90.000000
_cell_angle_beta 90.000000
_cell_angle_gamma 90.000000
_cell_volume 3293.851915
_symmetry_space_group_name_H-M "C M M 2"
_symmetry_group_IT_number 35
_symmetry_cell_setting 'orthorhombic'
loop_
_space_group_symop_operation_xyz
x,y,z
-x,-y,z
-x,y,z
x,-y,z
1/2+x,1/2+y,z
1/2-x,1/2-y,z
1/2-x,1/2+y,z
1/2+x,1/2-y,z
loop_
_atom_site_type_symbol
_atom_site_label
_atom_site_fract_x
_atom_site_fract_y
_atom_site_fract_z
Si Si1 0.137892 0.357914 0.947560
Si Si2 0.311014 0.698740 0.793797
Si Si3 0.250901 0.848968 0.322628
Si Si4 0.568139 0.234636 0.470960
Si Si5 0.381084 0.104846 0.254311
Si Si6 0.264178 0.597920 0.032376
Si Si7 0.349251 0.397070 0.515383
Si Si8 0.433269 0.097985 0.699409
O O1 0.141873 0.264315 0.863512
O O2 0.200335 0.403531 0.965608
O O3 0.097643 0.415772 0.846729
O O4 0.111645 0.352827 0.101389
O O5 0.250000 0.750000 0.765021
O O6 0.307075 0.623243 0.910970
O O7 0.332504 0.646859 0.660284
O O8 0.250000 0.750000 0.390122
O O9 0.315426 0.891205 0.316970
O O10 0.207230 0.906738 0.416764
O O11 0.228060 0.837589 0.164800
O O12 0.500000 0.257471 0.486128
O O13 0.576470 0.168002 0.342096
O O14 0.602236 0.329473 0.450921
O O15 0.592711 0.177925 0.603095
O O16 0.400633 0.000000 0.254978
O O17 0.279400 0.500000 0.090509
O O18 0.373235 0.500000 0.534234
O O19 0.500000 0.121667 0.728721
O O20 0.427252 0.000000 0.623688
#
# Coordination Sequence:
#
# PCOD8172754 Si02
#       8
#     8   8   8   8   8   8   8   8
#     4  10  19  36  56  86 122 154 190 229 287 358
#     4  10  21  35  55  86 122 158 185 236 293 357
#     4  11  20  37  59  89 125 157 192 238 298 362
#     4  11  25  43  60  84 118 159 206 256 303 347
#     4  11  22  37  62  94 128 161 193 237 298 371
#     4  10  19  32  53  86 122 155 189 229 284 358
#     4  12  24  40  62  88 117 157 207 254 297 349
#     4  10  20  36  59  85 115 152 195 242 295 354
#
# _framework density 19.430139
#
# number of rings (size 3 to 8) (size 9 to 14) (size 15 to 20)
#    0.000    1.375    2.500    6.000    0.000    1.500 
#    0.000    2.500    0.000    0.000    0.000    0.000 
#    0.000    0.000    0.000    0.000    0.000    0.000 
#
# Total GULP energy -396509.855579 kJ/mol
# GULP energy per Si atom -12390.932987 kJ/mol
# Density = 1.938592 g / cm^3
# Si number density = 19.430139 Si / 1000 Ang^3
#
#
#
# Elastic Constant Matrix: (Units=GPa)
#
#
# Indices 1 2 3 4 5 6 
#
# 1 39.8999 27.5559 25.7044 0.0000 0.0000 0.0000
# 2 27.5559 131.5423 40.0866 0.0000 0.0000 0.0000
# 3 25.7044 40.0866 99.3795 0.0000 0.0000 0.0000
# 4 0.0000 0.0000 0.0000 17.8797 0.0000 0.0000
# 5 0.0000 0.0000 0.0000 0.0000 25.1915 0.0000
# 6 0.0000 0.0000 0.0000 0.0000 0.0000 2.6799
#
#
#
# Elastic Compliance Matrix: (Units=1/GPa)
#
#
# Indices 1 2 3 4 5 6 
#
# 1 0.032583 -0.004854 -0.006470 0.000000 0.000000 0.000000
# 2 -0.004854 0.009391 -0.002532 0.000000 0.000000 0.000000
# 3 -0.006470 -0.002532 0.012757 0.000000 0.000000 0.000000
# 4 0.000000 0.000000 0.000000 0.055929 0.000000 0.000000
# 5 0.000000 0.000000 0.000000 0.000000 0.039696 0.000000
# 6 0.000000 0.000000 0.000000 0.000000 0.000000 0.373148
#
#
# Mechanical properties :
#
#
# Convention : Reuss Voigt Hill
#
# Bulk Modulus (GPa) = 37.01124 50.83508 43.92316
# Shear Modulus (GPa) = 8.92502 20.98186 14.95344
#
# Velocity S-wave (km/s) = 2.14554 3.28969 2.77718
# Velocity P-wave (km/s) = 5.02270 6.37567 5.73920
#
# Compressibility (1/GPa) = 0.02701882
#
# Stress axis : x y z
#
# Youngs Moduli (GPa) = 30.69097 106.48839 78.38656
#
# Poissons Ratio (x) = 0.51690 0.50713
# Poissons Ratio (y) = 0.14897 0.19851
# Poissons Ratio (z) = 0.19856 0.26967
#
# Static dielectric constant tensor:
#      x y z
#    x 3.267920 0.000000 0.000000 
#    y 0.000000 3.852430 0.000000 
#    z 0.000000 0.000000 3.655570 
# 
# 
# High freq. dielectric constant tensor:
#      x y z
#    x 1.721260 0.000000 0.000000 
#    y 0.000000 1.764380 0.000000 
#    z 0.000000 0.000000 1.767080 
# 
# From -- ./inp_files/7822.got.cif
#   From: 2010.03.12/outbox.cif.g09.slc.cpg/sg35_4_cif.got.tgz:7822.got - 2010.04.14 02:02:04.
