data_PCOD8172821
_publ_section_title
;
Structure prediction by ZEFSAII (Michael W. Deem and Ramdas Pophale) SiO2 
 PCOD8172821
Probable space group: C M M 2
;
_chemical_formula_sum "Si O2"
_cell_formula_units_Z 64
_cell_length_a 8.609427
_cell_length_b 18.552166
_cell_length_c 20.553558
_cell_angle_alpha 90.000000
_cell_angle_beta 90.000000
_cell_angle_gamma 90.000000
_cell_volume 3282.886609
_symmetry_space_group_name_H-M "C M M 2"
_symmetry_group_IT_number 35
_symmetry_cell_setting 'orthorhombic'
loop_
_space_group_symop_operation_xyz
x,y,z
-x,-y,z
-x,y,z
x,-y,z
1/2+x,1/2+y,z
1/2-x,1/2-y,z
1/2-x,1/2+y,z
1/2+x,1/2-y,z
loop_
_atom_site_type_symbol
_atom_site_label
_atom_site_fract_x
_atom_site_fract_y
_atom_site_fract_z
Si Si1 0.184700 0.170545 0.009950
Si Si2 0.184471 0.080682 0.886247
Si Si3 0.815784 0.671629 0.627541
Si Si4 0.318072 0.082599 0.128523
Si Si5 0.315632 0.328466 0.764042
Si Si6 0.182712 0.670851 0.383082
Si Si7 0.184753 0.419230 0.504875
Si Si8 0.181413 0.082832 0.267091
O O1 0.250000 0.250000 0.002193
O O2 0.252552 0.134732 0.074069
O O3 0.000000 0.172310 0.014184
O O4 0.245021 0.125071 0.948230
O O5 0.243688 0.118055 0.820209
O O6 0.000000 0.078359 0.886840
O O7 0.253595 0.000000 0.889468
O O8 0.750000 0.750000 0.611170
O O9 0.749269 0.642152 0.695649
O O10 0.758421 0.617942 0.571313
O O11 0.000000 0.676378 0.631968
O O12 0.500000 0.095283 0.137868
O O13 0.232292 0.103999 0.194769
O O14 0.280921 0.000000 0.109394
O O15 0.500000 0.324052 0.760698
O O16 0.250000 0.250000 0.780005
O O17 0.250000 0.750000 0.386269
O O18 0.251067 0.624695 0.443249
O O19 0.225902 0.633118 0.315953
O O20 0.000000 0.676565 0.388607
O O21 0.253112 0.500000 0.502384
O O22 0.000000 0.421086 0.502387
O O23 0.000000 0.097329 0.275146
O O24 0.224925 0.000000 0.281762
#
# Coordination Sequence:
#
# PCOD8172821 Si02
#       8
#     8   8   8   8   8   8   8   8
#     4  11  22  37  58  82 111 146 185 228 275 327
#     4   9  19  35  55  79 107 141 180 223 273 327
#     4  10  19  33  54  78 107 141 178 220 266 320
#     4  10  21  38  60  86 115 146 182 224 271 325
#     4  10  19  33  54  78 107 141 178 220 266 320
#     4  11  22  37  58  82 111 146 185 228 275 327
#     4   9  19  35  55  79 107 141 180 223 273 327
#     4  10  21  38  60  86 115 146 182 224 271 325
#
# _framework density 19.495038999999998
#
# number of rings (size 3 to 8) (size 9 to 14) (size 15 to 20)
#    0.000    2.000    0.000    4.500    0.000    3.500 
#    0.000    6.250    0.000    8.250    0.000    0.000 
#    0.000    0.000    0.000    0.000    0.000    0.000 
#
# Total GULP energy -396899.999080 kJ/mol
# GULP energy per Si atom -12403.124971 kJ/mol
# Density = 1.945067 g / cm^3
# Si number density = 19.495039 Si / 1000 Ang^3
#
#
#
# Elastic Constant Matrix: (Units=GPa)
#
#
# Indices 1 2 3 4 5 6 
#
# 1 49.8486 24.3081 18.5667 0.0000 0.0000 0.0000
# 2 24.3081 151.3442 95.9901 0.0000 0.0000 0.0000
# 3 18.5667 95.9901 144.4220 0.0000 0.0000 0.0000
# 4 0.0000 0.0000 0.0000 43.2252 0.0000 0.0000
# 5 0.0000 0.0000 0.0000 0.0000 20.4003 0.0000
# 6 0.0000 0.0000 0.0000 0.0000 0.0000 13.3408
#
#
#
# Elastic Compliance Matrix: (Units=1/GPa)
#
#
# Indices 1 2 3 4 5 6 
#
# 1 0.021822 -0.002983 -0.000823 0.000000 0.000000 0.000000
# 2 -0.002983 0.011831 -0.007480 0.000000 0.000000 0.000000
# 3 -0.000823 -0.007480 0.012001 0.000000 0.000000 0.000000
# 4 0.000000 0.000000 0.000000 0.023135 0.000000 0.000000
# 5 0.000000 0.000000 0.000000 0.000000 0.049019 0.000000
# 6 0.000000 0.000000 0.000000 0.000000 0.000000 0.074958
#
#
# Mechanical properties :
#
#
# Convention : Reuss Voigt Hill
#
# Bulk Modulus (GPa) = 43.32235 69.26048 56.29141
# Shear Modulus (GPa) = 22.41845 29.17658 25.79751
#
# Velocity S-wave (km/s) = 3.39478 3.87281 3.64165
# Velocity P-wave (km/s) = 6.13486 7.45671 6.82785
#
# Compressibility (1/GPa) = 0.02308278
#
# Stress axis : x y z
#
# Youngs Moduli (GPa) = 45.82562 84.52664 83.32437
#
# Poissons Ratio (x) = 0.25216 0.06855
# Poissons Ratio (y) = 0.13670 0.62324
# Poissons Ratio (z) = 0.03770 0.63223
#
# Static dielectric constant tensor:
#      x y z
#    x 3.424410 0.000000 0.000000 
#    y 0.000000 3.686140 0.000000 
#    z 0.000000 0.000000 3.785720 
# 
# 
# High freq. dielectric constant tensor:
#      x y z
#    x 1.748340 0.000000 0.000000 
#    y 0.000000 1.763450 0.000000 
#    z 0.000000 0.000000 1.776220 
# 
# From -- ./inp_files/18335.got.cif
#   From: 2010.03.12/outbox.cif.g09.slc.cpg/sg35_10_cif.got.tgz:18335.got - 2010.04.14 02:02:04.
