data_PCOD8172959
_publ_section_title
;
Structure prediction by ZEFSAII (Michael W. Deem and Ramdas Pophale) SiO2 
 PCOD8172959
Probable space group: C M M 2
;
_chemical_formula_sum "Si O2"
_cell_formula_units_Z 64
_cell_length_a 15.269329
_cell_length_b 17.762357
_cell_length_c 11.789437
_cell_angle_alpha 90.000000
_cell_angle_beta 90.000000
_cell_angle_gamma 90.000000
_cell_volume 3197.522530
_symmetry_space_group_name_H-M "C M M 2"
_symmetry_group_IT_number 35
_symmetry_cell_setting 'orthorhombic'
loop_
_space_group_symop_operation_xyz
x,y,z
-x,-y,z
-x,y,z
x,-y,z
1/2+x,1/2+y,z
1/2-x,1/2-y,z
1/2-x,1/2+y,z
1/2+x,1/2-y,z
loop_
_atom_site_type_symbol
_atom_site_label
_atom_site_fract_x
_atom_site_fract_y
_atom_site_fract_z
Si Si1 0.399146 0.311734 0.612150
Si Si2 0.857985 0.587786 0.830984
Si Si3 0.246578 0.160718 0.236117
Si Si4 0.404146 0.141172 0.595950
Si Si5 0.764115 0.913753 0.478265
Si Si6 0.597913 0.328957 0.068548
Si Si7 0.692889 0.324685 0.844379
Si Si8 0.096155 0.348890 0.075816
O O1 0.500000 0.336394 0.599139
O O2 0.383409 0.227845 0.564768
O O3 0.339329 0.368403 0.542471
O O4 0.374206 0.309806 0.743775
O O5 0.874915 0.500000 0.818767
O O6 0.910471 0.630348 0.731761
O O7 0.756281 0.606890 0.811003
O O8 0.889072 0.614703 0.953600
O O9 0.250000 0.250000 0.255704
O O10 0.247682 0.118264 0.353625
O O11 0.156869 0.140151 0.171281
O O12 0.328739 0.128046 0.164562
O O13 0.500000 0.119698 0.545839
O O14 0.328947 0.090098 0.542068
O O15 0.793870 0.000000 0.472774
O O16 0.500000 0.361286 0.084454
O O17 0.598209 0.239742 0.062421
O O18 0.638883 0.355759 0.950679
O O19 0.750000 0.250000 0.873892
O O20 0.000000 0.374491 0.120795
#
# Coordination Sequence:
#
# PCOD8172959 Si02
#       8
#     8   8   8   8   8   8   8   8
#     4  11  23  40  67  95 121 160 211 262 306 362
#     4  12  23  35  58  92 132 167 193 235 305 378
#     4  10  21  40  62  87 119 160 210 262 301 356
#     4  11  23  41  65  94 124 161 210 258 307 371
#     4  12  26  43  63  89 125 166 206 259 324 381
#     4  10  19  35  63  94 118 153 206 256 300 349
#     4  12  18  36  64  91 125 162 199 248 300 365
#     4  10  20  36  60  91 123 157 199 247 299 360
#
# _framework density 20.015497
#
# number of rings (size 3 to 8) (size 9 to 14) (size 15 to 20)
#    0.000    1.000    5.000    2.625    0.000    5.500 
#    0.000    2.500    0.000    1.875    0.000    0.000 
#    0.000    0.000    0.000    0.000    0.000    0.000 
#
# Total GULP energy -396809.297721 kJ/mol
# GULP energy per Si atom -12400.290554 kJ/mol
# Density = 1.996994 g / cm^3
# Si number density = 20.015497 Si / 1000 Ang^3
#
#
#
# Elastic Constant Matrix: (Units=GPa)
#
#
# Indices 1 2 3 4 5 6 
#
# 1 150.0648 42.4622 49.6313 0.0000 0.0000 0.0000
# 2 42.4622 66.4730 37.1772 0.0000 0.0000 0.0000
# 3 49.6313 37.1772 108.4064 0.0000 0.0000 0.0000
# 4 0.0000 0.0000 0.0000 4.8592 0.0000 0.0000
# 5 0.0000 0.0000 0.0000 0.0000 10.2242 0.0000
# 6 0.0000 0.0000 0.0000 0.0000 0.0000 8.0819
#
#
#
# Elastic Compliance Matrix: (Units=1/GPa)
#
#
# Indices 1 2 3 4 5 6 
#
# 1 0.008673 -0.004107 -0.002562 0.000000 0.000000 0.000000
# 2 -0.004107 0.020559 -0.005170 0.000000 0.000000 0.000000
# 3 -0.002562 -0.005170 0.012171 0.000000 0.000000 0.000000
# 4 0.000000 0.000000 0.000000 0.205795 0.000000 0.000000
# 5 0.000000 0.000000 0.000000 0.000000 0.097808 0.000000
# 6 0.000000 0.000000 0.000000 0.000000 0.000000 0.123733
#
#
# Mechanical properties :
#
#
# Convention : Reuss Voigt Hill
#
# Bulk Modulus (GPa) = 56.42227 64.83174 60.62701
# Shear Modulus (GPa) = 10.03359 17.67796 13.85577
#
# Velocity S-wave (km/s) = 2.24138 2.97511 2.63392
# Velocity P-wave (km/s) = 5.91176 6.65303 6.29332
#
# Compressibility (1/GPa) = 0.01772350
#
# Stress axis : x y z
#
# Youngs Moduli (GPa) = 115.29404 48.64040 82.16461
#
# Poissons Ratio (x) = 0.19979 0.21053
# Poissons Ratio (y) = 0.47357 0.42480
# Poissons Ratio (z) = 0.29542 0.25147
#
# Static dielectric constant tensor:
#      x y z
#    x 4.125550 0.000000 0.000000 
#    y 0.000000 3.431520 0.000000 
#    z 0.000000 0.000000 3.622740 
# 
# 
# High freq. dielectric constant tensor:
#      x y z
#    x 1.797850 0.000000 0.000000 
#    y 0.000000 1.753710 0.000000 
#    z 0.000000 0.000000 1.779990 
# 
# From -- ./inp_files/13196.got.cif
#   From: 2010.03.12/outbox.cif.g09.slc.cpg/sg35_7_cif.got.tgz:13196.got - 2010.04.14 02:02:04.
