data_PCOD8172105
_publ_section_title
;
Structure prediction by ZEFSAII (Michael W. Deem and Ramdas Pophale) SiO2 
 PCOD8172105
Probable space group: P N N 2
;
_chemical_formula_sum "Si O2"
_cell_formula_units_Z 32
_cell_length_a 16.058265
_cell_length_b 14.444578
_cell_length_c 6.345606
_cell_angle_alpha 90.000000
_cell_angle_beta 90.000000
_cell_angle_gamma 90.000000
_cell_volume 1471.894160
_symmetry_space_group_name_H-M "P N N 2"
_symmetry_group_IT_number 34
_symmetry_cell_setting 'orthorhombic'
loop_
_space_group_symop_operation_xyz
x,y,z
-x,-y,z
1/2-x,1/2+y,1/2+z
1/2+x,1/2-y,1/2+z
loop_
_atom_site_type_symbol
_atom_site_label
_atom_site_fract_x
_atom_site_fract_y
_atom_site_fract_z
Si Si1 0.202990 0.656024 0.668090
Si Si2 0.626212 0.325583 0.761378
Si Si3 0.010100 0.897344 0.555289
Si Si4 0.840295 0.195033 0.347856
Si Si5 0.541287 0.239842 0.369782
Si Si6 0.403185 0.012219 0.919425
Si Si7 0.104038 0.647405 0.061322
Si Si8 0.681239 0.170216 0.070289
O O1 0.298450 0.617972 0.647294
O O2 0.201113 0.755711 0.551208
O O3 0.135812 0.587147 0.573681
O O4 0.185131 0.661230 0.917875
O O5 0.567316 0.278505 0.593569
O O6 0.568757 0.390841 0.900566
O O7 0.678387 0.251601 0.900105
O O8 0.097703 0.885688 0.430229
O O9 0.004213 0.820315 0.736558
O O10 0.000000 0.000000 0.654145
O O11 0.897704 0.271102 0.233830
O O12 0.771102 0.155863 0.183371
O O13 0.476577 0.157191 0.412614
O O14 0.617975 0.193660 0.255477
O O15 0.395410 0.047998 0.677995
O O16 0.500000 0.000000 0.978822
O O17 0.349157 0.920016 0.944529
#
# Coordination Sequence:
#
# PCOD8172105 Si02
#       8
#     4   4   4   4   4   4   4   4
#     4  11  23  43  68  97 137 181 229 282 352 418
#     4  11  23  43  69  99 135 185 229 283 354 418
#     4  11  26  42  68 104 138 180 244 288 337 419
#     4  11  22  43  67  99 134 181 230 279 350 420
#     4  11  22  43  73  93 139 193 231 281 350 419
#     4  11  26  41  66 106 139 170 233 295 343 422
#     4  11  22  43  68  93 137 186 226 280 350 415
#     4  11  24  42  69 105 137 176 235 289 350 428
#
# _framework density 21.740691999999999
#
# number of rings (size 3 to 8) (size 9 to 14) (size 15 to 20)
#    0.000    1.000    5.000    1.500    5.250    3.000 
#    0.000    2.500    0.000    0.000    0.000    0.000 
#    0.000    0.000    0.000    0.000    0.000    0.000 
#
# Total GULP energy -396688.186980 kJ/mol
# GULP energy per Si atom -12396.505843 kJ/mol
# Density = 2.169121 g / cm^3
# Si number density = 21.740692 Si / 1000 Ang^3
#
#
#
# Elastic Constant Matrix: (Units=GPa)
#
#
# Indices 1 2 3 4 5 6 
#
# 1 143.9298 38.4666 37.0355 0.0000 0.0000 0.0000
# 2 38.4666 88.0923 31.0309 0.0000 0.0000 0.0000
# 3 37.0355 31.0309 91.9775 0.0000 0.0000 0.0000
# 4 0.0000 0.0000 0.0000 22.6089 0.0000 0.0000
# 5 0.0000 0.0000 0.0000 0.0000 36.9373 0.0000
# 6 0.0000 0.0000 0.0000 0.0000 0.0000 28.8689
#
#
#
# Elastic Compliance Matrix: (Units=1/GPa)
#
#
# Indices 1 2 3 4 5 6 
#
# 1 0.008311 -0.002781 -0.002408 0.000000 0.000000 0.000000
# 2 -0.002781 0.013813 -0.003541 0.000000 0.000000 0.000000
# 3 -0.002408 -0.003541 0.013036 0.000000 0.000000 0.000000
# 4 0.000000 0.000000 0.000000 0.044230 0.000000 0.000000
# 5 0.000000 0.000000 0.000000 0.000000 0.027073 0.000000
# 6 0.000000 0.000000 0.000000 0.000000 0.000000 0.034639
#
#
# Mechanical properties :
#
#
# Convention : Reuss Voigt Hill
#
# Bulk Modulus (GPa) = 56.49294 59.67396 58.08345
# Shear Modulus (GPa) = 30.40215 32.18080 31.29148
#
# Velocity S-wave (km/s) = 3.74357 3.85152 3.79793
# Velocity P-wave (km/s) = 6.68783 6.87653 6.78284
#
# Compressibility (1/GPa) = 0.01770133
#
# Stress axis : x y z
#
# Youngs Moduli (GPa) = 120.32732 72.39503 76.70828
#
# Poissons Ratio (x) = 0.20131 0.18473
# Poissons Ratio (y) = 0.33459 0.27159
# Poissons Ratio (z) = 0.28978 0.25632
#
# Static dielectric constant tensor:
#      x y z
#    x 4.055600 0.000000 0.000000 
#    y 0.000000 3.672910 0.000000 
#    z 0.000000 0.000000 4.061140 
# 
# 
# High freq. dielectric constant tensor:
#      x y z
#    x 1.874480 0.000000 0.000000 
#    y 0.000000 1.825750 0.000000 
#    z 0.000000 0.000000 1.863780 
# 
# From -- ./inp_files/1516.got.cif
#   From: 2010.03.12/outbox.cif.g09.slc.cpg/sg34_1_cif.got.tgz:1516.got - 2010.04.14 01:56:33.
