data_PCOD8172098
_publ_section_title
;
Structure prediction by ZEFSAII (Michael W. Deem and Ramdas Pophale) SiO2 
 PCOD8172098
Probable space group: P N N 2
;
_chemical_formula_sum "Si O2"
_cell_formula_units_Z 32
_cell_length_a 13.724950
_cell_length_b 8.550825
_cell_length_c 10.923927
_cell_angle_alpha 90.000000
_cell_angle_beta 90.000000
_cell_angle_gamma 90.000000
_cell_volume 1282.028201
_symmetry_space_group_name_H-M "P N N 2"
_symmetry_group_IT_number 34
_symmetry_cell_setting 'orthorhombic'
loop_
_space_group_symop_operation_xyz
x,y,z
-x,-y,z
1/2-x,1/2+y,1/2+z
1/2+x,1/2-y,1/2+z
loop_
_atom_site_type_symbol
_atom_site_label
_atom_site_fract_x
_atom_site_fract_y
_atom_site_fract_z
Si Si1 0.729759 0.646835 0.161050
Si Si2 0.758130 0.429223 0.934063
Si Si3 0.875521 0.867486 0.077618
Si Si4 0.214584 0.868305 0.215198
Si Si5 0.532462 0.821927 0.173955
Si Si6 0.369043 0.815994 0.007911
Si Si7 0.468539 0.176874 0.448889
Si Si8 0.721124 0.923622 0.869374
O O1 0.832502 0.736942 0.168973
O O2 0.644669 0.777909 0.153027
O O3 0.720079 0.541477 0.281040
O O4 0.725594 0.544038 0.040274
O O5 0.776015 0.521522 0.808361
O O6 0.852465 0.323473 0.968264
O O7 0.669322 0.309800 0.909687
O O8 0.873518 0.035594 0.147721
O O9 0.802990 0.862379 0.961489
O O10 0.982867 0.809422 0.035906
O O11 0.292264 0.809794 0.118848
O O12 0.173059 0.718685 0.291027
O O13 0.469171 0.746478 0.064032
O O14 0.501772 0.773069 0.311142
O O15 0.500000 0.000000 0.155294
O O16 0.366917 0.987901 0.943042
O O17 0.500000 0.000000 0.481197
#
# Coordination Sequence:
#
# PCOD8172098 Si02
#       8
#     4   4   4   4   4   4   4   4
#     4  12  24  43  78 106 146 203 245 309 383 450
#     4  12  24  44  75 103 150 196 247 314 383 452
#     4  11  23  42  75 108 146 197 257 316 375 444
#     4  11  22  43  71 104 148 199 250 308 384 448
#     4  11  24  43  76 114 141 190 257 309 368 457
#     4  11  24  43  73 103 148 192 251 314 374 443
#     4  11  21  42  72 108 140 190 259 314 367 450
#     4  11  22  43  72 106 148 207 245 309 392 448
#
# _framework density 24.960449000000001
#
# number of rings (size 3 to 8) (size 9 to 14) (size 15 to 20)
#    0.000    0.750    3.750    6.000    0.000    0.500 
#    0.000    5.000   22.000    0.000    0.000    0.000 
#    0.000    0.000    0.000    0.000    0.000    0.000 
#
# Total GULP energy -396561.791236 kJ/mol
# GULP energy per Si atom -12392.555976 kJ/mol
# Density = 2.490364 g / cm^3
# Si number density = 24.960449 Si / 1000 Ang^3
#
#
#
# Elastic Constant Matrix: (Units=GPa)
#
#
# Indices 1 2 3 4 5 6 
#
# 1 103.4187 38.1293 28.7873 0.0000 0.0000 0.0000
# 2 38.1293 110.1468 45.7898 0.0000 0.0000 0.0000
# 3 28.7873 45.7898 96.6260 0.0000 0.0000 0.0000
# 4 0.0000 0.0000 0.0000 43.5919 0.0000 0.0000
# 5 0.0000 0.0000 0.0000 0.0000 24.2401 0.0000
# 6 0.0000 0.0000 0.0000 0.0000 0.0000 37.5122
#
#
#
# Elastic Compliance Matrix: (Units=1/GPa)
#
#
# Indices 1 2 3 4 5 6 
#
# 1 0.011356 -0.003144 -0.001893 0.000000 0.000000 0.000000
# 2 -0.003144 0.012177 -0.004834 0.000000 0.000000 0.000000
# 3 -0.001893 -0.004834 0.013204 0.000000 0.000000 0.000000
# 4 0.000000 0.000000 0.000000 0.022940 0.000000 0.000000
# 5 0.000000 0.000000 0.000000 0.000000 0.041254 0.000000
# 6 0.000000 0.000000 0.000000 0.000000 0.000000 0.026658
#
#
# Mechanical properties :
#
#
# Convention : Reuss Voigt Hill
#
# Bulk Modulus (GPa) = 58.84316 59.51159 59.17738
# Shear Modulus (GPa) = 32.68096 34.23450 33.45773
#
# Velocity S-wave (km/s) = 3.62236 3.70746 3.66516
# Velocity P-wave (km/s) = 6.41257 6.49778 6.45532
#
# Compressibility (1/GPa) = 0.01699433
#
# Stress axis : x y z
#
# Youngs Moduli (GPa) = 88.06273 82.12518 75.73549
#
# Poissons Ratio (x) = 0.25819 0.14339
# Poissons Ratio (y) = 0.27686 0.36608
# Poissons Ratio (z) = 0.16673 0.39697
#
# Static dielectric constant tensor:
#      x y z
#    x 4.365720 0.000000 0.000000 
#    y 0.000000 4.910150 0.000000 
#    z 0.000000 0.000000 4.886360 
# 
# 
# High freq. dielectric constant tensor:
#      x y z
#    x 1.954450 0.000000 0.000000 
#    y 0.000000 2.005500 0.000000 
#    z 0.000000 0.000000 2.012860 
# 
# From -- ./inp_files/5683.got.cif
#   From: 2010.03.12/outbox.cif.g09.slc.cpg/sg34_3_cif.got.tgz:5683.got - 2010.04.14 01:56:33.
