data_PCOD8172362
_publ_section_title
;
Structure prediction by ZEFSAII (Michael W. Deem and Ramdas Pophale) SiO2 
 PCOD8172362
Probable space group: C M M 2
;
_chemical_formula_sum "Si O2"
_cell_formula_units_Z 56
_cell_length_a 27.795263
_cell_length_b 8.951280
_cell_length_c 15.507286
_cell_angle_alpha 90.000000
_cell_angle_beta 90.000000
_cell_angle_gamma 90.000000
_cell_volume 3858.262098
_symmetry_space_group_name_H-M "C M M 2"
_symmetry_group_IT_number 35
_symmetry_cell_setting 'orthorhombic'
loop_
_space_group_symop_operation_xyz
x,y,z
-x,-y,z
-x,y,z
x,-y,z
1/2+x,1/2+y,z
1/2-x,1/2-y,z
1/2-x,1/2+y,z
1/2+x,1/2-y,z
loop_
_atom_site_type_symbol
_atom_site_label
_atom_site_fract_x
_atom_site_fract_y
_atom_site_fract_z
Si Si1 0.122079 0.831075 0.040780
Si Si2 0.557285 0.168410 0.715102
Si Si3 0.945296 0.176741 0.888094
Si Si4 0.557293 0.331572 0.545943
Si Si5 0.556208 0.174042 0.373133
Si Si6 0.301810 0.822854 0.138785
Si Si7 0.881917 0.169234 0.229602
O O1 0.169701 0.727345 0.051215
O O2 0.094300 0.831768 0.133427
O O3 0.138204 0.000000 0.017128
O O4 0.086900 0.765801 0.967765
O O5 0.500000 0.171987 0.712086
O O6 0.575664 0.250492 0.801128
O O7 0.578308 0.252123 0.631221
O O8 0.576940 0.000000 0.714939
O O9 0.000000 0.229278 0.905120
O O10 0.942867 0.000000 0.877610
O O11 0.500000 0.329050 0.548718
O O12 0.577008 0.500000 0.542818
O O13 0.575921 0.244617 0.461751
O O14 0.500000 0.206953 0.361946
O O15 0.582533 0.247473 0.293023
O O16 0.567669 0.000000 0.375489
O O17 0.250000 0.750000 0.137468
O O18 0.330899 0.757705 0.222030
O O19 0.297827 0.000000 0.144314
O O20 0.872718 0.000000 0.261969
#
# Coordination Sequence:
#
# PCOD8172362 Si02
#       7
#     8   8   8   8   8   8   8
#     4   8  17  30  43  62  86 112 144 178 210 251
#     4   9  16  25  37  55  79 107 141 181 218 249
#     4   9  16  27  42  59  83 116 149 178 208 246
#     4   9  16  26  40  56  75 106 146 182 215 251
#     4  10  19  29  41  60  87 117 147 180 216 251
#     4  10  18  31  49  65  84 108 136 174 218 258
#     4   9  18  31  45  63  85 112 145 177 210 253
#
# _framework density 14.514305999999999
#
# number of rings (size 3 to 8) (size 9 to 14) (size 15 to 20)
#    0.857    2.000    0.000    2.571    0.000    5.429 
#    0.000    1.429    0.000    0.000    0.000    0.000 
#    0.000    1.143    0.000    8.000    0.000    6.857 
#
# Total GULP energy -346974.304743 kJ/mol
# GULP energy per Si atom -12391.939455 kJ/mol
# Density = 1.448127 g / cm^3
# Si number density = 14.514306 Si / 1000 Ang^3
#
#
#
# Elastic Constant Matrix: (Units=GPa)
#
#
# Indices 1 2 3 4 5 6 
#
# 1 47.5331 46.9613 42.3291 0.0000 0.0000 0.0000
# 2 46.9613 108.5638 56.0921 0.0000 0.0000 0.0000
# 3 42.3291 56.0921 108.4484 0.0000 0.0000 0.0000
# 4 0.0000 0.0000 0.0000 27.1629 0.0000 0.0000
# 5 0.0000 0.0000 0.0000 0.0000 0.8038 0.0000
# 6 0.0000 0.0000 0.0000 0.0000 0.0000 18.0491
#
#
#
# Elastic Compliance Matrix: (Units=1/GPa)
#
#
# Indices 1 2 3 4 5 6 
#
# 1 0.043267 -0.013634 -0.009836 0.000000 0.000000 0.000000
# 2 -0.013634 0.016867 -0.003402 0.000000 0.000000 0.000000
# 3 -0.009836 -0.003402 0.014820 0.000000 0.000000 0.000000
# 4 0.000000 0.000000 0.000000 0.036815 0.000000 0.000000
# 5 0.000000 0.000000 0.000000 0.000000 1.244036 0.000000
# 6 0.000000 0.000000 0.000000 0.000000 0.000000 0.055404
#
#
# Mechanical properties :
#
#
# Convention : Reuss Voigt Hill
#
# Bulk Modulus (GPa) = 47.14965 61.70116 54.42540
# Shear Modulus (GPa) = 3.39669 17.14736 10.27202
#
# Velocity S-wave (km/s) = 1.53144 3.44089 2.66318
# Velocity P-wave (km/s) = 5.97349 7.64128 6.85827
#
# Compressibility (1/GPa) = 0.02120907
#
# Stress axis : x y z
#
# Youngs Moduli (GPa) = 23.11228 59.28855 67.47696
#
# Poissons Ratio (x) = 0.80834 0.66370
# Poissons Ratio (y) = 0.31511 0.22958
# Poissons Ratio (z) = 0.22733 0.20172
#
# Static dielectric constant tensor:
#      x y z
#    x 2.420810 0.000000 0.000000 
#    y 0.000000 2.950310 0.000000 
#    z 0.000000 0.000000 2.869620 
# 
# 
# High freq. dielectric constant tensor:
#      x y z
#    x 1.498240 0.000000 0.000000 
#    y 0.000000 1.570890 0.000000 
#    z 0.000000 0.000000 1.552590 
# 
# From -- ./inp_files/17687.got.cif
#   From: 2010.03.12/outbox.cif.g09.slc.cpg/sg35_9_cif.got.tgz:17687.got - 2010.04.14 02:02:04.
