data_PCOD8172530
_publ_section_title
;
Structure prediction by ZEFSAII (Michael W. Deem and Ramdas Pophale) SiO2 
 PCOD8172530
Probable space group: C M M 2
;
_chemical_formula_sum "Si O2"
_cell_formula_units_Z 64
_cell_length_a 28.361644
_cell_length_b 8.965135
_cell_length_c 15.547769
_cell_angle_alpha 90.000000
_cell_angle_beta 90.000000
_cell_angle_gamma 90.000000
_cell_volume 3953.268524
_symmetry_space_group_name_H-M "C M M 2"
_symmetry_group_IT_number 35
_symmetry_cell_setting 'orthorhombic'
loop_
_space_group_symop_operation_xyz
x,y,z
-x,-y,z
-x,y,z
x,-y,z
1/2+x,1/2+y,z
1/2-x,1/2-y,z
1/2-x,1/2+y,z
1/2+x,1/2-y,z
loop_
_atom_site_type_symbol
_atom_site_label
_atom_site_fract_x
_atom_site_fract_y
_atom_site_fract_z
Si Si1 0.052709 0.675038 0.774770
Si Si2 0.553724 0.827216 0.577985
Si Si3 0.142073 0.824375 0.837355
Si Si4 0.698786 0.322992 0.004949
Si Si5 0.859380 0.175244 0.506180
Si Si6 0.800390 0.175749 0.673062
Si Si7 0.699902 0.173090 0.170131
Si Si8 0.199415 0.326667 0.360799
O O1 0.060134 0.500000 0.782960
O O2 0.060280 0.725461 0.676312
O O3 0.089815 0.756558 0.836054
O O4 0.000000 0.719630 0.804702
O O5 0.500000 0.800807 0.548417
O O6 0.586890 0.728146 0.517462
O O7 0.567539 0.000000 0.568345
O O8 0.166877 0.773662 0.925003
O O9 0.172644 0.763386 0.757243
O O10 0.137022 0.000000 0.831062
O O11 0.703865 0.500000 0.011148
O O12 0.750000 0.250000 0.992813
O O13 0.673322 0.257908 0.091621
O O14 0.829841 0.223555 0.589681
O O15 0.838395 0.255259 0.423444
O O16 0.858162 0.000000 0.490815
O O17 0.750000 0.250000 0.666951
O O18 0.793286 0.000000 0.678310
O O19 0.750000 0.250000 0.175818
O O20 0.677289 0.193807 0.264689
O O21 0.705114 0.000000 0.146131
O O22 0.206587 0.500000 0.382513
O O23 0.250000 0.250000 0.372175
#
# Coordination Sequence:
#
# PCOD8172530 Si02
#       8
#     8   8   8   8   8   8   8   8
#     4   9  18  32  50  71  92 119 158 200 240 280
#     4   9  18  33  51  70  93 122 158 201 245 285
#     4  10  20  33  46  67  96 126 160 195 234 279
#     4  10  19  30  47  69  96 127 160 197 235 279
#     4  11  21  32  48  70  96 128 163 198 235 281
#     4  10  21  33  43  61  92 128 163 192 223 267
#     4   9  17  30  48  68  92 122 157 197 240 281
#     4  10  20  33  49  70  97 128 161 199 240 284
#
# _framework density 16.189136000000001
#
# number of rings (size 3 to 8) (size 9 to 14) (size 15 to 20)
#    0.000    2.250    1.250    3.750    0.000    5.500 
#    0.000    1.250    0.000    0.000    0.000    0.875 
#    0.000    5.000    0.000    0.000    0.000    0.000 
#
# Total GULP energy -396732.557318 kJ/mol
# GULP energy per Si atom -12397.892416 kJ/mol
# Density = 1.615229 g / cm^3
# Si number density = 16.189136 Si / 1000 Ang^3
#
#
#
# Elastic Constant Matrix: (Units=GPa)
#
#
# Indices 1 2 3 4 5 6 
#
# 1 97.7181 41.4746 56.1209 0.0000 0.0000 0.0000
# 2 41.4746 69.0871 53.0459 0.0000 0.0000 0.0000
# 3 56.1209 53.0459 126.8667 0.0000 0.0000 0.0000
# 4 0.0000 0.0000 0.0000 25.8439 0.0000 0.0000
# 5 0.0000 0.0000 0.0000 0.0000 11.0557 0.0000
# 6 0.0000 0.0000 0.0000 0.0000 0.0000 28.0902
#
#
#
# Elastic Compliance Matrix: (Units=1/GPa)
#
#
# Indices 1 2 3 4 5 6 
#
# 1 0.015157 -0.005819 -0.004272 0.000000 0.000000 0.000000
# 2 -0.005819 0.023553 -0.007274 0.000000 0.000000 0.000000
# 3 -0.004272 -0.007274 0.012813 0.000000 0.000000 0.000000
# 4 0.000000 0.000000 0.000000 0.038694 0.000000 0.000000
# 5 0.000000 0.000000 0.000000 0.000000 0.090451 0.000000
# 6 0.000000 0.000000 0.000000 0.000000 0.000000 0.035600
#
#
# Mechanical properties :
#
#
# Convention : Reuss Voigt Hill
#
# Bulk Modulus (GPa) = 59.54655 66.10607 62.82631
# Shear Modulus (GPa) = 19.48606 22.53333 21.00969
#
# Velocity S-wave (km/s) = 3.47313 3.73484 3.60636
# Velocity P-wave (km/s) = 7.27634 7.71498 7.49887
#
# Compressibility (1/GPa) = 0.01679358
#
# Stress axis : x y z
#
# Youngs Moduli (GPa) = 65.97806 42.45792 78.04437
#
# Poissons Ratio (x) = 0.24707 0.33337
# Poissons Ratio (y) = 0.38393 0.56768
# Poissons Ratio (z) = 0.28183 0.30883
#
# Static dielectric constant tensor:
#      x y z
#    x 2.897060 0.000000 0.000000 
#    y 0.000000 3.084740 0.000000 
#    z 0.000000 0.000000 3.498680 
# 
# 
# High freq. dielectric constant tensor:
#      x y z
#    x 1.598920 0.000000 0.000000 
#    y 0.000000 1.631360 0.000000 
#    z 0.000000 0.000000 1.618230 
# 
# From -- ./inp_files/17748.got.cif
#   From: 2010.03.12/outbox.cif.g09.slc.cpg/sg35_9_cif.got.tgz:17748.got - 2010.04.14 02:02:04.
