data_PCOD8172178
_publ_section_title
;
Structure prediction by ZEFSAII (Michael W. Deem and Ramdas Pophale) SiO2 
 PCOD8172178
Probable space group: C M M 2
;
_chemical_formula_sum "Si O2"
_cell_formula_units_Z 56
_cell_length_a 8.840414
_cell_length_b 19.319872
_cell_length_c 18.358041
_cell_angle_alpha 90.000000
_cell_angle_beta 90.000000
_cell_angle_gamma 90.000000
_cell_volume 3135.473856
_symmetry_space_group_name_H-M "C M M 2"
_symmetry_group_IT_number 35
_symmetry_cell_setting 'orthorhombic'
loop_
_space_group_symop_operation_xyz
x,y,z
-x,-y,z
-x,y,z
x,-y,z
1/2+x,1/2+y,z
1/2-x,1/2-y,z
1/2-x,1/2+y,z
1/2+x,1/2-y,z
loop_
_atom_site_type_symbol
_atom_site_label
_atom_site_fract_x
_atom_site_fract_y
_atom_site_fract_z
Si Si1 0.176184 0.824330 0.157250
Si Si2 0.179718 0.825206 0.603865
Si Si3 0.823323 0.824699 0.317248
Si Si4 0.180238 0.673441 0.457937
Si Si5 0.829351 0.417746 0.883580
Si Si6 0.177431 0.078752 0.737515
Si Si7 0.679185 0.578426 0.029769
O O1 0.250000 0.750000 0.147465
O O2 0.204081 0.858635 0.237578
O O3 0.242266 0.876971 0.097362
O O4 0.000000 0.812725 0.144780
O O5 0.250000 0.750000 0.618480
O O6 0.251694 0.860501 0.531249
O O7 0.227463 0.874784 0.669656
O O8 0.000000 0.818653 0.594829
O O9 0.750000 0.750000 0.310818
O O10 0.739305 0.865312 0.384002
O O11 0.000000 0.818798 0.335996
O O12 0.250000 0.750000 0.454947
O O13 0.000000 0.674076 0.460868
O O14 0.818056 0.500000 0.882723
O O15 0.753596 0.389338 0.809799
O O16 0.000000 0.390695 0.886421
O O17 0.743684 0.389364 0.954908
O O18 0.000000 0.081529 0.750219
O O19 0.231184 0.000000 0.722671
O O20 0.500000 0.580705 0.025362
O O21 0.737093 0.500000 0.041035
#
# Coordination Sequence:
#
# PCOD8172178 Si02
#       7
#     8   8   8   8   8   8   8
#     4   9  18  30  46  69  94 121 151 187 231 272
#     4  10  19  31  48  70  96 122 150 187 229 272
#     4   9  15  25  41  62  88 116 150 189 226 266
#     4  10  17  26  42  64  90 120 154 188 224 266
#     4   9  17  29  47  71  94 117 150 190 228 267
#     4   9  18  33  52  71  91 119 154 189 226 269
#     4   9  17  31  50  69  91 120 154 189 225 269
#
# _framework density 17.860140000000001
#
# number of rings (size 3 to 8) (size 9 to 14) (size 15 to 20)
#    0.000    2.714    0.000    4.286    0.000    4.000 
#    0.000    0.714    0.000    0.857    0.000    4.000 
#    0.000    0.000    0.000    0.000    0.000    0.000 
#
# Total GULP energy -346994.237280 kJ/mol
# GULP energy per Si atom -12392.651331 kJ/mol
# Density = 1.781949 g / cm^3
# Si number density = 17.860140 Si / 1000 Ang^3
#
#
#
# Elastic Constant Matrix: (Units=GPa)
#
#
# Indices 1 2 3 4 5 6 
#
# 1 81.1490 23.3527 66.0760 0.0000 0.0000 0.0000
# 2 23.3527 44.5344 56.4237 0.0000 0.0000 0.0000
# 3 66.0760 56.4237 207.1760 0.0000 0.0000 0.0000
# 4 0.0000 0.0000 0.0000 16.3171 0.0000 0.0000
# 5 0.0000 0.0000 0.0000 0.0000 29.5690 0.0000
# 6 0.0000 0.0000 0.0000 0.0000 0.0000 15.1572
#
#
#
# Elastic Compliance Matrix: (Units=1/GPa)
#
#
# Indices 1 2 3 4 5 6 
#
# 1 0.016923 -0.003108 -0.004551 0.000000 0.000000 0.000000
# 2 -0.003108 0.034855 -0.008501 0.000000 0.000000 0.000000
# 3 -0.004551 -0.008501 0.008594 0.000000 0.000000 0.000000
# 4 0.000000 0.000000 0.000000 0.061285 0.000000 0.000000
# 5 0.000000 0.000000 0.000000 0.000000 0.033819 0.000000
# 6 0.000000 0.000000 0.000000 0.000000 0.000000 0.065975
#
#
# Mechanical properties :
#
#
# Convention : Reuss Voigt Hill
#
# Bulk Modulus (GPa) = 35.64927 69.39602 52.52265
# Shear Modulus (GPa) = 19.00249 24.67579 21.83914
#
# Velocity S-wave (km/s) = 3.26538 3.72104 3.50063
# Velocity P-wave (km/s) = 5.84983 7.57635 6.76837
#
# Compressibility (1/GPa) = 0.02805106
#
# Stress axis : x y z
#
# Youngs Moduli (GPa) = 59.09104 28.68990 116.36578
#
# Poissons Ratio (x) = 0.08917 0.52957
# Poissons Ratio (y) = 0.18367 0.98928
# Poissons Ratio (z) = 0.26892 0.24391
#
# Static dielectric constant tensor:
#      x y z
#    x 3.332340 0.000000 0.000000 
#    y 0.000000 2.879700 0.000000 
#    z 0.000000 0.000000 4.279810 
# 
# 
# High freq. dielectric constant tensor:
#      x y z
#    x 1.696890 0.000000 0.000000 
#    y 0.000000 1.625160 0.000000 
#    z 0.000000 0.000000 1.720960 
# 
# From -- ./inp_files/18198.got.cif
#   From: 2010.03.12/outbox.cif.g09.slc.cpg/sg35_10_cif.got.tgz:18198.got - 2010.04.14 02:02:04.
