data_PCOD8172287
_publ_section_title
;
Structure prediction by ZEFSAII (Michael W. Deem and Ramdas Pophale) SiO2 
 PCOD8172287
Probable space group: C M M 2
;
_chemical_formula_sum "Si O2"
_cell_formula_units_Z 56
_cell_length_a 8.961917
_cell_length_b 19.258931
_cell_length_c 18.245099
_cell_angle_alpha 90.000000
_cell_angle_beta 90.000000
_cell_angle_gamma 90.000000
_cell_volume 3149.048278
_symmetry_space_group_name_H-M "C M M 2"
_symmetry_group_IT_number 35
_symmetry_cell_setting 'orthorhombic'
loop_
_space_group_symop_operation_xyz
x,y,z
-x,-y,z
-x,y,z
x,-y,z
1/2+x,1/2+y,z
1/2-x,1/2-y,z
1/2-x,1/2+y,z
1/2+x,1/2-y,z
loop_
_atom_site_type_symbol
_atom_site_label
_atom_site_fract_x
_atom_site_fract_y
_atom_site_fract_z
Si Si1 0.673123 0.418612 0.845160
Si Si2 0.333937 0.582682 0.558136
Si Si3 0.178032 0.825627 0.267224
Si Si4 0.673325 0.824435 0.963694
Si Si5 0.666672 0.082621 0.699152
Si Si6 0.326530 0.823828 0.125995
Si Si7 0.322361 0.422755 0.397746
O O1 0.500000 0.400409 0.849244
O O2 0.703913 0.500000 0.854718
O O3 0.757903 0.380118 0.909610
O O4 0.733870 0.391656 0.767113
O O5 0.500000 0.613151 0.569093
O O6 0.340666 0.500000 0.562168
O O7 0.231550 0.613169 0.623095
O O8 0.268403 0.603893 0.478130
O O9 0.250000 0.750000 0.275610
O O10 0.240687 0.862894 0.192673
O O11 0.235859 0.870869 0.335527
O O12 0.000000 0.820864 0.264108
O O13 0.500000 0.813862 0.945993
O O14 0.750000 0.750000 0.954371
O O15 0.694563 0.857356 0.045511
O O16 0.500000 0.111585 0.709455
O O17 0.667359 0.000000 0.695713
O O18 0.500000 0.816388 0.146498
O O19 0.250000 0.750000 0.120557
O O20 0.500000 0.425751 0.398642
O O21 0.259153 0.500000 0.381586
#
# Coordination Sequence:
#
# PCOD8172287 Si02
#       7
#     8   8   8   8   8   8   8
#     4  10  20  33  50  73 100 129 162 199 239 284
#     4   8  13  24  43  64  86 114 152 195 233 272
#     4  10  18  29  48  70  93 121 154 192 231 275
#     4  10  20  34  53  74  97 126 160 199 242 288
#     4   9  16  26  42  66  95 124 155 192 235 281
#     4   9  17  30  48  69  92 120 156 194 230 273
#     4   8  15  28  46  68  92 120 155 193 232 274
#
# _framework density 17.783152000000001
#
# number of rings (size 3 to 8) (size 9 to 14) (size 15 to 20)
#    0.000    2.857    0.000    3.857    0.000    4.286 
#    0.000    2.143    0.000    6.857    0.000    4.000 
#    0.000    0.000    0.000    0.000    0.000    0.000 
#
# Total GULP energy -346979.017105 kJ/mol
# GULP energy per Si atom -12392.107754 kJ/mol
# Density = 1.774268 g / cm^3
# Si number density = 17.783152 Si / 1000 Ang^3
#
#
#
# Elastic Constant Matrix: (Units=GPa)
#
#
# Indices 1 2 3 4 5 6 
#
# 1 111.5422 31.0163 74.9201 0.0000 0.0000 0.0000
# 2 31.0163 36.4601 49.0004 0.0000 0.0000 0.0000
# 3 74.9201 49.0004 184.9049 0.0000 0.0000 0.0000
# 4 0.0000 0.0000 0.0000 3.5132 0.0000 0.0000
# 5 0.0000 0.0000 0.0000 0.0000 31.4495 0.0000
# 6 0.0000 0.0000 0.0000 0.0000 0.0000 18.3447
#
#
#
# Elastic Compliance Matrix: (Units=1/GPa)
#
#
# Indices 1 2 3 4 5 6 
#
# 1 0.013179 -0.006267 -0.003679 0.000000 0.000000 0.000000
# 2 -0.006267 0.045579 -0.009539 0.000000 0.000000 0.000000
# 3 -0.003679 -0.009539 0.009427 0.000000 0.000000 0.000000
# 4 0.000000 0.000000 0.000000 0.284637 0.000000 0.000000
# 5 0.000000 0.000000 0.000000 0.000000 0.031797 0.000000
# 6 0.000000 0.000000 0.000000 0.000000 0.000000 0.054512
#
#
# Mechanical properties :
#
#
# Convention : Reuss Voigt Hill
#
# Bulk Modulus (GPa) = 34.23004 71.42009 52.82507
# Shear Modulus (GPa) = 10.24929 22.52619 16.38774
#
# Velocity S-wave (km/s) = 2.40333 3.56296 3.03897
# Velocity P-wave (km/s) = 5.19535 7.56142 6.48717
#
# Compressibility (1/GPa) = 0.02921410
#
# Stress axis : x y z
#
# Youngs Moduli (GPa) = 75.87841 21.94017 106.07933
#
# Poissons Ratio (x) = 0.13749 0.39029
# Poissons Ratio (y) = 0.47550 1.01193
# Poissons Ratio (z) = 0.27917 0.20930
#
# Static dielectric constant tensor:
#      x y z
#    x 3.347760 0.000000 0.000000 
#    y 0.000000 2.837530 0.000000 
#    z 0.000000 0.000000 4.031900 
# 
# 
# High freq. dielectric constant tensor:
#      x y z
#    x 1.688650 0.000000 0.000000 
#    y 0.000000 1.626670 0.000000 
#    z 0.000000 0.000000 1.713080 
# 
# From -- ./inp_files/18206.got.cif
#   From: 2010.03.12/outbox.cif.g09.slc.cpg/sg35_10_cif.got.tgz:18206.got - 2010.04.14 02:02:04.
