data_PCOD8172978
_publ_section_title
;
Structure prediction by ZEFSAII (Michael W. Deem and Ramdas Pophale) SiO2 
 PCOD8172978
Probable space group: C M M 2
;
_chemical_formula_sum "Si O2"
_cell_formula_units_Z 32
_cell_length_a 16.265038
_cell_length_b 10.521719
_cell_length_c 8.810464
_cell_angle_alpha 90.000000
_cell_angle_beta 90.000000
_cell_angle_gamma 90.000000
_cell_volume 1507.788971
_symmetry_space_group_name_H-M "C M M 2"
_symmetry_group_IT_number 35
_symmetry_cell_setting 'orthorhombic'
loop_
_space_group_symop_operation_xyz
x,y,z
-x,-y,z
-x,y,z
x,-y,z
1/2+x,1/2+y,z
1/2-x,1/2-y,z
1/2-x,1/2+y,z
1/2+x,1/2-y,z
loop_
_atom_site_type_symbol
_atom_site_label
_atom_site_fract_x
_atom_site_fract_y
_atom_site_fract_z
Si Si1 0.163753 0.000000 0.974061
Si Si2 0.906116 0.000000 0.648770
Si Si3 0.906049 0.741429 0.942073
Si Si4 0.344412 0.240218 0.610382
Si Si5 0.845751 0.500000 0.104565
Si Si6 0.094800 0.500000 0.430344
O O1 0.157149 0.000000 0.790757
O O2 0.120230 0.129619 0.031477
O O3 0.256058 0.000000 0.032921
O O4 0.887965 0.871603 0.554753
O O5 0.000000 0.000000 0.706771
O O6 0.851933 0.721226 0.791437
O O7 0.000000 0.752881 0.890378
O O8 0.894741 0.624543 0.054180
O O9 0.250000 0.250000 0.562756
O O10 0.388433 0.123882 0.529659
O O11 0.844287 0.500000 0.286525
O O12 0.000000 0.500000 0.377703
#
# Coordination Sequence:
#
# PCOD8172978 Si02
#       6
#     4   4   8   8   4   4
#     4  10  20  37  61  89 120 152 193 250 303 351
#     4  10  19  37  64  96 122 150 194 254 309 357
#     4  11  21  39  65  94 121 155 198 250 304 358
#     4  11  22  39  64  92 121 156 199 251 304 356
#     4  12  25  40  59  87 125 165 204 245 293 355
#     4  12  26  44  60  86 125 167 205 245 293 357
#
# _framework density 21.223130000000001
#
# number of rings (size 3 to 8) (size 9 to 14) (size 15 to 20)
#    0.000    1.000    0.000   11.250    0.000    2.000 
#    0.000    1.250    0.000    0.000    0.000    0.000 
#    0.000    0.000    0.000    0.000    0.000    0.000 
#
# Total GULP energy -198412.958835 kJ/mol
# GULP energy per Si atom -12400.809927 kJ/mol
# Density = 2.117482 g / cm^3
# Si number density = 21.223130 Si / 1000 Ang^3
#
#
#
# Elastic Constant Matrix: (Units=GPa)
#
#
# Indices 1 2 3 4 5 6 
#
# 1 139.1847 41.5824 25.7194 0.0000 0.0000 0.0000
# 2 41.5824 223.8106 53.1846 0.0000 0.0000 0.0000
# 3 25.7194 53.1846 65.5597 0.0000 0.0000 0.0000
# 4 0.0000 0.0000 0.0000 -1.1938 0.0000 0.0000
# 5 0.0000 0.0000 0.0000 0.0000 1.0086 0.0000
# 6 0.0000 0.0000 0.0000 0.0000 0.0000 34.5820
#
#
#
# Elastic Compliance Matrix: (Units=1/GPa)
#
#
# Indices 1 2 3 4 5 6 
#
# 1 0.007891 -0.000905 -0.002362 0.000000 0.000000 0.000000
# 2 -0.000905 0.005639 -0.004219 0.000000 0.000000 0.000000
# 3 -0.002362 -0.004219 0.019603 0.000000 0.000000 0.000000
# 4 0.000000 0.000000 0.000000 -0.837671 0.000000 0.000000
# 5 0.000000 0.000000 0.000000 0.000000 0.991455 0.000000
# 6 0.000000 0.000000 0.000000 0.000000 0.000000 0.028917
#
#
# Mechanical properties :
#
#
# Convention : Reuss Voigt Hill
#
# Bulk Modulus (GPa) = 55.06352 74.39196 64.72774
# Shear Modulus (GPa) = 21.10949 27.41728 24.26338
#
# Velocity S-wave (km/s) = 3.15722 3.59814 3.38487
# Velocity P-wave (km/s) = 6.26834 7.23813 6.77062
#
# Compressibility (1/GPa) = 0.01816084
#
# Stress axis : x y z
#
# Youngs Moduli (GPa) = 126.71912 177.34028 51.01322
#
# Poissons Ratio (x) = 0.16049 0.12048
# Poissons Ratio (y) = 0.11468 0.21525
# Poissons Ratio (z) = 0.29928 0.74828
#
# Static dielectric constant tensor:
#      x y z
#    x 3.845250 0.000000 0.000000 
#    y 0.000000 4.529780 0.000000 
#    z 0.000000 0.000000 3.330940 
# 
# 
# High freq. dielectric constant tensor:
#      x y z
#    x 1.843710 0.000000 0.000000 
#    y 0.000000 1.868720 0.000000 
#    z 0.000000 0.000000 1.781230 
# 
# From -- ./inp_files/8172.got.cif
#   From: 2010.03.12/outbox.cif.g09.slc.cpg/sg35_5_cif.got.tgz:8172.got - 2010.04.14 02:02:04.
