data_PCOD8172725
_publ_section_title
;
Structure prediction by ZEFSAII (Michael W. Deem and Ramdas Pophale) SiO2 
 PCOD8172725
Probable space group: C M M 2
;
_chemical_formula_sum "Si O2"
_cell_formula_units_Z 64
_cell_length_a 9.218491
_cell_length_b 29.231407
_cell_length_c 12.326843
_cell_angle_alpha 90.000000
_cell_angle_beta 90.000000
_cell_angle_gamma 90.000000
_cell_volume 3321.707756
_symmetry_space_group_name_H-M "C M M 2"
_symmetry_group_IT_number 35
_symmetry_cell_setting 'orthorhombic'
loop_
_space_group_symop_operation_xyz
x,y,z
-x,-y,z
-x,y,z
x,-y,z
1/2+x,1/2+y,z
1/2-x,1/2-y,z
1/2-x,1/2+y,z
1/2+x,1/2-y,z
loop_
_atom_site_type_symbol
_atom_site_label
_atom_site_fract_x
_atom_site_fract_y
_atom_site_fract_z
Si Si1 0.332467 0.793700 0.230900
Si Si2 0.663994 0.823208 0.469787
Si Si3 0.665585 0.410518 0.523201
Si Si4 0.670320 0.387719 0.765360
Si Si5 0.828547 0.553944 0.944856
Si Si6 0.161798 0.550292 0.350359
Si Si7 0.327689 0.891381 0.156213
Si Si8 0.169209 0.704822 0.709572
O O1 0.500000 0.786615 0.206024
O O2 0.250000 0.750000 0.182410
O O3 0.303415 0.795224 0.360417
O O4 0.276476 0.838620 0.165497
O O5 0.500000 0.842595 0.465775
O O6 0.776519 0.864072 0.470931
O O7 0.685401 0.793717 0.578929
O O8 0.500000 0.414959 0.492528
O O9 0.691971 0.412686 0.650826
O O10 0.749966 0.451169 0.463099
O O11 0.500000 0.379077 0.790164
O O12 0.740140 0.423701 0.847153
O O13 0.754439 0.339285 0.763990
O O14 0.790298 0.500000 0.956637
O O15 0.000000 0.560294 0.925492
O O16 0.773076 0.582560 0.049129
O O17 0.159814 0.500000 0.299097
O O18 0.236363 0.583085 0.261586
O O19 0.000000 0.567252 0.377378
O O20 0.500000 0.894904 0.160921
O O21 0.250000 0.750000 0.754728
O O22 0.000000 0.705191 0.743954
#
# Coordination Sequence:
#
# PCOD8172725 Si02
#       8
#     8   8   8   8   8   8   8   8
#     4  10  19  32  52  79 113 149 183 222 268 326
#     4   9  17  31  51  76 110 152 191 227 267 323
#     4  10  20  33  51  77 113 150 182 225 276 331
#     4  10  22  39  57  80 113 152 192 235 287 341
#     4  10  21  39  64  88 106 136 190 247 294 344
#     4  10  19  33  56  82 109 144 183 222 275 344
#     4   9  18  36  59  82 111 143 182 232 283 335
#     4  10  19  32  54  84 118 154 193 235 279 332
#
# _framework density 19.267196999999999
#
# number of rings (size 3 to 8) (size 9 to 14) (size 15 to 20)
#    0.000    2.250    1.250    1.875    0.000    5.000 
#    0.000    4.375    0.000    3.000    0.000    0.000 
#    0.000    0.000    0.000    0.000    0.000    0.000 
#
# Total GULP energy -396627.881118 kJ/mol
# GULP energy per Si atom -12394.621285 kJ/mol
# Density = 1.922334 g / cm^3
# Si number density = 19.267197 Si / 1000 Ang^3
#
#
#
# Elastic Constant Matrix: (Units=GPa)
#
#
# Indices 1 2 3 4 5 6 
#
# 1 86.3409 57.5196 55.0062 0.0000 0.0000 0.0000
# 2 57.5196 146.9531 63.6469 0.0000 0.0000 0.0000
# 3 55.0062 63.6469 89.0396 0.0000 0.0000 0.0000
# 4 0.0000 0.0000 0.0000 25.0231 0.0000 0.0000
# 5 0.0000 0.0000 0.0000 0.0000 18.9503 0.0000
# 6 0.0000 0.0000 0.0000 0.0000 0.0000 32.3371
#
#
#
# Elastic Compliance Matrix: (Units=1/GPa)
#
#
# Indices 1 2 3 4 5 6 
#
# 1 0.020369 -0.003654 -0.009971 0.000000 0.000000 0.000000
# 2 -0.003654 0.010512 -0.005257 0.000000 0.000000 0.000000
# 3 -0.009971 -0.005257 0.021149 0.000000 0.000000 0.000000
# 4 0.000000 0.000000 0.000000 0.039963 0.000000 0.000000
# 5 0.000000 0.000000 0.000000 0.000000 0.052770 0.000000
# 6 0.000000 0.000000 0.000000 0.000000 0.000000 0.030924
#
#
# Mechanical properties :
#
#
# Convention : Reuss Voigt Hill
#
# Bulk Modulus (GPa) = 70.10100 74.96434 72.53267
# Shear Modulus (GPa) = 22.91421 25.00617 23.96019
#
# Velocity S-wave (km/s) = 3.45234 3.60649 3.53026
# Velocity P-wave (km/s) = 7.23562 7.50564 7.37186
#
# Compressibility (1/GPa) = 0.01426513
#
# Stress axis : x y z
#
# Youngs Moduli (GPa) = 49.09469 95.13085 47.28447
#
# Poissons Ratio (x) = 0.34760 0.47149
# Poissons Ratio (y) = 0.17939 0.24856
# Poissons Ratio (z) = 0.48954 0.50008
#
# Static dielectric constant tensor:
#      x y z
#    x 3.467850 0.000000 0.000000 
#    y 0.000000 3.515620 0.000000 
#    z 0.000000 0.000000 3.488770 
# 
# 
# High freq. dielectric constant tensor:
#      x y z
#    x 1.735000 0.000000 0.000000 
#    y 0.000000 1.754430 0.000000 
#    z 0.000000 0.000000 1.734100 
# 
# From -- ./inp_files/12033.got.cif
#   From: 2010.03.12/outbox.cif.g09.slc.cpg/sg35_7_cif.got.tgz:12033.got - 2010.04.14 02:02:04.
