data_PCOD8172342
_publ_section_title
;
Structure prediction by ZEFSAII (Michael W. Deem and Ramdas Pophale) SiO2 
 PCOD8172342
Probable space group: C M M 2
;
_chemical_formula_sum "Si O2"
_cell_formula_units_Z 40
_cell_length_a 25.828825
_cell_length_b 8.555038
_cell_length_c 9.793634
_cell_angle_alpha 90.000000
_cell_angle_beta 90.000000
_cell_angle_gamma 90.000000
_cell_volume 2164.065805
_symmetry_space_group_name_H-M "C M M 2"
_symmetry_group_IT_number 35
_symmetry_cell_setting 'orthorhombic'
loop_
_space_group_symop_operation_xyz
x,y,z
-x,-y,z
-x,y,z
x,-y,z
1/2+x,1/2+y,z
1/2-x,1/2-y,z
1/2-x,1/2+y,z
1/2+x,1/2-y,z
loop_
_atom_site_type_symbol
_atom_site_label
_atom_site_fract_x
_atom_site_fract_y
_atom_site_fract_z
Si Si1 0.604253 0.184229 0.980620
Si Si2 0.000000 0.817026 0.966489
Si Si3 0.605983 0.315813 0.680602
Si Si4 0.000000 0.682649 0.669400
Si Si5 0.694988 0.315649 0.473282
Si Si6 0.805165 0.684541 0.179333
O O1 0.552883 0.268758 0.043577
O O2 0.614791 0.232438 0.825018
O O3 0.596443 0.000000 0.990397
O O4 0.652379 0.241648 0.070861
O O5 0.000000 0.712935 0.830533
O O6 0.000000 0.000000 0.931798
O O7 0.604381 0.500000 0.704876
O O8 0.552202 0.260887 0.609292
O O9 0.652326 0.263504 0.582553
O O10 0.000000 0.500000 0.636223
O O11 0.698958 0.500000 0.459900
O O12 0.750000 0.250000 0.523311
O O13 0.678909 0.247335 0.327365
O O14 0.801437 0.500000 0.186511
O O15 0.750000 0.750000 0.130979
#
# Coordination Sequence:
#
# PCOD8172342 Si02
#       6
#     8   4   8   4   8   8
#     4  10  20  34  53  78 105 135 170 210 253 301
#     4  10  18  30  51  76 103 136 168 206 254 302
#     4  10  20  34  53  78 105 135 170 210 253 301
#     4  10  18  30  51  76 103 136 168 206 254 302
#     4  10  21  36  55  76 102 136 172 210 255 304
#     4  10  21  36  55  76 102 136 172 210 255 304
#
# _framework density 18.483726999999998
#
# number of rings (size 3 to 8) (size 9 to 14) (size 15 to 20)
#    0.000    2.000    0.000    7.800    0.000    7.200 
#    0.000    5.000    0.000    0.000    0.000    0.000 
#    0.000    0.000    0.000    0.000    0.000    0.000 
#
# Total GULP energy -247982.570700 kJ/mol
# GULP energy per Si atom -12399.128535 kJ/mol
# Density = 1.844166 g / cm^3
# Si number density = 18.483727 Si / 1000 Ang^3
#
#
#
# Elastic Constant Matrix: (Units=GPa)
#
#
# Indices 1 2 3 4 5 6 
#
# 1 188.8816 50.2426 89.3710 0.0000 0.0000 0.0000
# 2 50.2426 65.8077 27.5723 0.0000 0.0000 0.0000
# 3 89.3710 27.5723 77.2187 0.0000 0.0000 0.0000
# 4 0.0000 0.0000 0.0000 25.3608 0.0000 0.0000
# 5 0.0000 0.0000 0.0000 0.0000 11.7391 0.0000
# 6 0.0000 0.0000 0.0000 0.0000 0.0000 31.2145
#
#
#
# Elastic Compliance Matrix: (Units=1/GPa)
#
#
# Indices 1 2 3 4 5 6 
#
# 1 0.012588 -0.004123 -0.013097 0.000000 0.000000 0.000000
# 2 -0.004123 0.019220 -0.002091 0.000000 0.000000 0.000000
# 3 -0.013097 -0.002091 0.028854 0.000000 0.000000 0.000000
# 4 0.000000 0.000000 0.000000 0.039431 0.000000 0.000000
# 5 0.000000 0.000000 0.000000 0.000000 0.085186 0.000000
# 6 0.000000 0.000000 0.000000 0.000000 0.000000 0.032036
#
#
# Mechanical properties :
#
#
# Convention : Reuss Voigt Hill
#
# Bulk Modulus (GPa) = 45.36975 74.03108 59.70041
# Shear Modulus (GPa) = 18.99096 24.64434 21.81765
#
# Velocity S-wave (km/s) = 3.20885 3.65540 3.43938
# Velocity P-wave (km/s) = 6.19096 7.61281 6.93841
#
# Compressibility (1/GPa) = 0.02204112
#
# Stress axis : x y z
#
# Youngs Moduli (GPa) = 79.44123 52.02982 34.65673
#
# Poissons Ratio (x) = 0.21454 0.45389
# Poissons Ratio (y) = 0.32756 0.07245
# Poissons Ratio (z) = 1.04041 0.10877
#
# Static dielectric constant tensor:
#      x y z
#    x 4.111350 0.000000 0.000000 
#    y 0.000000 3.460370 0.000000 
#    z 0.000000 0.000000 3.192490 
# 
# 
# High freq. dielectric constant tensor:
#      x y z
#    x 1.738160 0.000000 0.000000 
#    y 0.000000 1.734850 0.000000 
#    z 0.000000 0.000000 1.682900 
# 
# From -- ./inp_files/10081.got.cif
#   From: 2010.03.12/outbox.cif.g09.slc.cpg/sg35_6_cif.got.tgz:10081.got - 2010.04.14 02:02:04.
