data_PCOD8172036
_publ_section_title
;
Structure prediction by ZEFSAII (Michael W. Deem and Ramdas Pophale) SiO2 
 PCOD8172036
Probable space group: P N N 2
;
_chemical_formula_sum "Si O2"
_cell_formula_units_Z 32
_cell_length_a 11.243119
_cell_length_b 9.187255
_cell_length_c 15.351833
_cell_angle_alpha 90.000000
_cell_angle_beta 90.000000
_cell_angle_gamma 90.000000
_cell_volume 1585.743046
_symmetry_space_group_name_H-M "P N N 2"
_symmetry_group_IT_number 34
_symmetry_cell_setting 'orthorhombic'
loop_
_space_group_symop_operation_xyz
x,y,z
-x,-y,z
1/2-x,1/2+y,1/2+z
1/2+x,1/2-y,1/2+z
loop_
_atom_site_type_symbol
_atom_site_label
_atom_site_fract_x
_atom_site_fract_y
_atom_site_fract_z
Si Si1 0.362718 0.825352 0.217660
Si Si2 0.527737 0.670324 0.097316
Si Si3 0.737281 0.863122 0.163013
Si Si4 0.498951 0.159955 0.932645
Si Si5 0.394333 0.615220 0.491559
Si Si6 0.477780 0.162778 0.384140
Si Si7 0.223865 0.607023 0.327943
Si Si8 0.728365 0.213778 0.828454
O O1 0.408885 0.749661 0.130321
O O2 0.466430 0.815086 0.288992
O O3 0.256013 0.732181 0.259135
O O4 0.327522 0.986980 0.189176
O O5 0.500000 0.500000 0.108781
O O6 0.642755 0.732177 0.147962
O O7 0.548118 0.715301 0.997137
O O8 0.810902 0.816943 0.248613
O O9 0.828034 0.882023 0.083878
O O10 0.412021 0.144720 0.850150
O O11 0.627923 0.209964 0.901752
O O12 0.500000 0.000000 0.979555
O O13 0.500000 0.500000 0.492981
O O14 0.457802 0.764099 0.466082
O O15 0.297773 0.589443 0.417006
O O16 0.343426 0.219682 0.376856
O O17 0.500000 0.000000 0.412448
O O18 0.242997 0.447593 0.286521
#
# Coordination Sequence:
#
# PCOD8172036 Si02
#       8
#     4   4   4   4   4   4   4   4
#     4  11  23  37  68  92 129 171 223 273 332 396
#     4  12  24  38  63  97 128 168 224 276 326 396
#     4  12  24  43  63  98 139 170 221 281 342 394
#     4  10  23  42  65  92 132 176 215 269 340 407
#     4  11  24  40  68  97 130 176 221 287 337 403
#     4  11  21  40  66  98 125 173 229 277 332 400
#     4  10  22  43  66  95 130 175 225 267 335 407
#     4  11  22  40  68  95 132 175 221 276 336 406
#
# _framework density 20.179812999999999
#
# number of rings (size 3 to 8) (size 9 to 14) (size 15 to 20)
#    0.000    1.000    5.000    1.875    1.750    3.000 
#    0.000    3.125    0.000    0.000    0.000    0.000 
#    0.000    0.000    0.000    0.000    0.000    0.000 
#
# Total GULP energy -396549.007666 kJ/mol
# GULP energy per Si atom -12392.156490 kJ/mol
# Density = 2.013388 g / cm^3
# Si number density = 20.179813 Si / 1000 Ang^3
#
#
#
# Elastic Constant Matrix: (Units=GPa)
#
#
# Indices 1 2 3 4 5 6 
#
# 1 102.5092 44.7934 25.9522 0.0000 0.0000 0.0000
# 2 44.7934 145.2808 31.2809 0.0000 0.0000 0.0000
# 3 25.9522 31.2809 71.8915 0.0000 0.0000 0.0000
# 4 0.0000 0.0000 0.0000 35.6003 0.0000 0.0000
# 5 0.0000 0.0000 0.0000 0.0000 36.1778 0.0000
# 6 0.0000 0.0000 0.0000 0.0000 0.0000 26.8775
#
#
#
# Elastic Compliance Matrix: (Units=1/GPa)
#
#
# Indices 1 2 3 4 5 6 
#
# 1 0.011818 -0.003007 -0.002958 0.000000 0.000000 0.000000
# 2 -0.003007 0.008360 -0.002552 0.000000 0.000000 0.000000
# 3 -0.002958 -0.002552 0.016088 0.000000 0.000000 0.000000
# 4 0.000000 0.000000 0.000000 0.028090 0.000000 0.000000
# 5 0.000000 0.000000 0.000000 0.000000 0.027641 0.000000
# 6 0.000000 0.000000 0.000000 0.000000 0.000000 0.037206
#
#
# Mechanical properties :
#
#
# Convention : Reuss Voigt Hill
#
# Bulk Modulus (GPa) = 51.99580 58.19273 55.09426
# Shear Modulus (GPa) = 32.75537 34.24146 33.49841
#
# Velocity S-wave (km/s) = 4.03324 4.12371 4.07873
# Velocity P-wave (km/s) = 6.89286 7.18144 7.03863
#
# Compressibility (1/GPa) = 0.01923232
#
# Stress axis : x y z
#
# Youngs Moduli (GPa) = 84.61681 119.62018 62.15808
#
# Poissons Ratio (x) = 0.35969 0.18385
# Poissons Ratio (y) = 0.25443 0.15863
# Poissons Ratio (z) = 0.25028 0.30527
#
# Static dielectric constant tensor:
#      x y z
#    x 3.628420 0.000000 0.000000 
#    y 0.000000 3.858840 0.000000 
#    z 0.000000 0.000000 3.547580 
# 
# 
# High freq. dielectric constant tensor:
#      x y z
#    x 1.787520 0.000000 0.000000 
#    y 0.000000 1.800110 0.000000 
#    z 0.000000 0.000000 1.780430 
# 
# From -- ./inp_files/6591.got.cif
#   From: 2010.03.12/outbox.cif.g09.slc.cpg/sg34_4_cif.got.tgz:6591.got - 2010.04.14 01:56:33.
