data_PCOD8172381
_publ_section_title
;
Structure prediction by ZEFSAII (Michael W. Deem and Ramdas Pophale) SiO2 
 PCOD8172381
Probable space group: C M M 2
;
_chemical_formula_sum "Si O2"
_cell_formula_units_Z 56
_cell_length_a 17.106488
_cell_length_b 19.481502
_cell_length_c 9.561056
_cell_angle_alpha 90.000000
_cell_angle_beta 90.000000
_cell_angle_gamma 90.000000
_cell_volume 3186.318289
_symmetry_space_group_name_H-M "C M M 2"
_symmetry_group_IT_number 35
_symmetry_cell_setting 'orthorhombic'
loop_
_space_group_symop_operation_xyz
x,y,z
-x,-y,z
-x,y,z
x,-y,z
1/2+x,1/2+y,z
1/2-x,1/2-y,z
1/2-x,1/2+y,z
1/2+x,1/2-y,z
loop_
_atom_site_type_symbol
_atom_site_label
_atom_site_fract_x
_atom_site_fract_y
_atom_site_fract_z
Si Si1 0.588620 0.206776 0.412810
Si Si2 0.207551 0.684089 0.206559
Si Si3 0.247648 0.078843 0.709536
Si Si4 0.322677 0.338357 0.456033
Si Si5 0.721597 0.579416 0.023177
Si Si6 0.588180 0.579297 0.235285
Si Si7 0.086539 0.422387 0.603945
O O1 0.500000 0.232840 0.411040
O O2 0.618551 0.201235 0.251283
O O3 0.641914 0.263367 0.493374
O O4 0.596227 0.131693 0.479795
O O5 0.250000 0.750000 0.137481
O O6 0.248435 0.665449 0.354334
O O7 0.208799 0.622136 0.096406
O O8 0.203154 0.126009 0.598939
O O9 0.342047 0.089856 0.711810
O O10 0.227528 0.000000 0.674245
O O11 0.214620 0.099614 0.861174
O O12 0.389712 0.380577 0.375787
O O13 0.743443 0.500000 0.040023
O O14 0.641315 0.599480 0.101790
O O15 0.500000 0.597443 0.192234
O O16 0.598967 0.500000 0.271622
O O17 0.092880 0.500000 0.542282
O O18 0.000000 0.412667 0.675015
#
# Coordination Sequence:
#
# PCOD8172381 Si02
#       7
#     8   8   8   8   8   8   8
#     4  10  19  32  51  76 105 134 171 220 269 311
#     4   9  18  33  49  73  99 133 172 211 258 312
#     4  10  19  33  53  79 107 137 177 222 262 316
#     4  10  18  31  52  77 101 134 172 217 259 309
#     4   9  19  34  52  76 104 137 177 219 266 318
#     4   9  17  31  51  74 102 138 174 211 261 317
#     4   9  18  32  50  73 102 136 170 211 267 317
#
# _framework density 17.575144000000002
#
# number of rings (size 3 to 8) (size 9 to 14) (size 15 to 20)
#    0.000    2.571    1.429    0.857    0.000    1.143 
#    2.571    2.143    0.000    4.286    0.000    0.000 
#    0.000    0.000    0.000    0.000    0.000    0.000 
#
# Total GULP energy -347026.675737 kJ/mol
# GULP energy per Si atom -12393.809848 kJ/mol
# Density = 1.753514 g / cm^3
# Si number density = 17.575144 Si / 1000 Ang^3
#
#
#
# Elastic Constant Matrix: (Units=GPa)
#
#
# Indices 1 2 3 4 5 6 
#
# 1 82.9217 39.1739 42.3289 0.0000 0.0000 0.0000
# 2 39.1739 91.0159 57.5012 0.0000 0.0000 0.0000
# 3 42.3289 57.5012 99.9556 0.0000 0.0000 0.0000
# 4 0.0000 0.0000 0.0000 26.3112 0.0000 0.0000
# 5 0.0000 0.0000 0.0000 0.0000 18.2646 0.0000
# 6 0.0000 0.0000 0.0000 0.0000 0.0000 24.5797
#
#
#
# Elastic Compliance Matrix: (Units=1/GPa)
#
#
# Indices 1 2 3 4 5 6 
#
# 1 0.016339 -0.004180 -0.004514 0.000000 0.000000 0.000000
# 2 -0.004180 0.018330 -0.008774 0.000000 0.000000 0.000000
# 3 -0.004514 -0.008774 0.016964 0.000000 0.000000 0.000000
# 4 0.000000 0.000000 0.000000 0.038007 0.000000 0.000000
# 5 0.000000 0.000000 0.000000 0.000000 0.054751 0.000000
# 6 0.000000 0.000000 0.000000 0.000000 0.000000 0.040684
#
#
# Mechanical properties :
#
#
# Convention : Reuss Voigt Hill
#
# Bulk Modulus (GPa) = 59.90002 61.32234 60.61118
# Shear Modulus (GPa) = 22.16550 22.82371 22.49461
#
# Velocity S-wave (km/s) = 3.55517 3.60757 3.58146
# Velocity P-wave (km/s) = 7.14203 7.23326 7.18779
#
# Compressibility (1/GPa) = 0.01669448
#
# Stress axis : x y z
#
# Youngs Moduli (GPa) = 61.20374 54.55661 58.94966
#
# Poissons Ratio (x) = 0.22807 0.26612
# Poissons Ratio (y) = 0.25585 0.51723
# Poissons Ratio (z) = 0.27629 0.47869
#
# Static dielectric constant tensor:
#      x y z
#    x 3.455960 0.000000 0.000000 
#    y 0.000000 3.448820 0.000000 
#    z 0.000000 0.000000 2.962100 
# 
# 
# High freq. dielectric constant tensor:
#      x y z
#    x 1.680270 0.000000 0.000000 
#    y 0.000000 1.695180 0.000000 
#    z 0.000000 0.000000 1.639150 
# 
# From -- ./inp_files/8670.got.cif
#   From: 2010.03.12/outbox.cif.g09.slc.cpg/sg35_5_cif.got.tgz:8670.got - 2010.04.14 02:02:04.
