data_PCOD8172236
_publ_section_title
;
Structure prediction by ZEFSAII (Michael W. Deem and Ramdas Pophale) SiO2 
 PCOD8172236
Probable space group: C M M 2
;
_chemical_formula_sum "Si O2"
_cell_formula_units_Z 48
_cell_length_a 18.617786
_cell_length_b 14.432710
_cell_length_c 9.761729
_cell_angle_alpha 90.000000
_cell_angle_beta 90.000000
_cell_angle_gamma 90.000000
_cell_volume 2623.026427
_symmetry_space_group_name_H-M "C M M 2"
_symmetry_group_IT_number 35
_symmetry_cell_setting 'orthorhombic'
loop_
_space_group_symop_operation_xyz
x,y,z
-x,-y,z
-x,y,z
x,-y,z
1/2+x,1/2+y,z
1/2-x,1/2-y,z
1/2-x,1/2+y,z
1/2+x,1/2-y,z
loop_
_atom_site_type_symbol
_atom_site_label
_atom_site_fract_x
_atom_site_fract_y
_atom_site_fract_z
Si Si1 0.919477 0.105119 0.527230
Si Si2 0.218267 0.346937 0.975055
Si Si3 0.363558 0.279760 0.293129
Si Si4 0.849747 0.105265 0.804155
Si Si5 0.581390 0.251754 0.992522
Si Si6 0.724238 0.102533 0.267753
O O1 0.916984 0.183783 0.409949
O O2 0.862390 0.132784 0.646013
O O3 0.000000 0.108681 0.588332
O O4 0.903572 0.000000 0.473288
O O5 0.250000 0.250000 0.034272
O O6 0.265620 0.378545 0.844766
O O7 0.134629 0.329667 0.936469
O O8 0.221450 0.415308 0.103515
O O9 0.403620 0.281372 0.148324
O O10 0.337290 0.173824 0.319596
O O11 0.300448 0.354866 0.305103
O O12 0.870737 0.000000 0.826446
O O13 0.904746 0.158777 0.900762
O O14 0.500000 0.216549 0.976516
O O15 0.714170 0.000000 0.335147
#
# Coordination Sequence:
#
# PCOD8172236 Si02
#       6
#     8   8   8   8   8   8
#     4  10  21  35  51  77 114 148 178 223 285 343
#     4   9  16  32  50  76 105 143 181 223 264 317
#     4  10  19  34  51  79 109 145 179 224 279 330
#     4  10  19  33  54  77 105 141 182 226 273 324
#     4  10  19  32  52  78 108 142 181 220 272 332
#     4  10  17  31  54  78 105 139 185 231 266 313
#
# _framework density 18.299472999999999
#
# number of rings (size 3 to 8) (size 9 to 14) (size 15 to 20)
#    0.000    2.167    5.000    2.000    0.000    1.667 
#    9.000    0.000    0.000   17.000    0.000    0.000 
#    0.000   24.000    0.000    0.000    0.000    0.000 
#
# Total GULP energy -297384.152796 kJ/mol
# GULP energy per Si atom -12391.006367 kJ/mol
# Density = 1.825782 g / cm^3
# Si number density = 18.299473 Si / 1000 Ang^3
#
#
#
# Elastic Constant Matrix: (Units=GPa)
#
#
# Indices 1 2 3 4 5 6 
#
# 1 101.0478 24.8308 32.6016 0.0000 0.0000 0.0000
# 2 24.8308 98.4562 27.5048 0.0000 0.0000 0.0000
# 3 32.6016 27.5048 74.9382 0.0000 0.0000 0.0000
# 4 0.0000 0.0000 0.0000 20.2948 0.0000 0.0000
# 5 0.0000 0.0000 0.0000 0.0000 22.6160 0.0000
# 6 0.0000 0.0000 0.0000 0.0000 0.0000 19.1062
#
#
#
# Elastic Compliance Matrix: (Units=1/GPa)
#
#
# Indices 1 2 3 4 5 6 
#
# 1 0.011766 -0.001713 -0.004490 0.000000 0.000000 0.000000
# 2 -0.001713 0.011567 -0.003500 0.000000 0.000000 0.000000
# 3 -0.004490 -0.003500 0.016582 0.000000 0.000000 0.000000
# 4 0.000000 0.000000 0.000000 0.049274 0.000000 0.000000
# 5 0.000000 0.000000 0.000000 0.000000 0.044217 0.000000
# 6 0.000000 0.000000 0.000000 0.000000 0.000000 0.052339
#
#
# Mechanical properties :
#
#
# Convention : Reuss Voigt Hill
#
# Bulk Modulus (GPa) = 48.75994 49.36852 49.06423
# Shear Modulus (GPa) = 23.58641 25.03707 24.31174
#
# Velocity S-wave (km/s) = 3.59404 3.70291 3.64888
# Velocity P-wave (km/s) = 6.62768 6.73192 6.68001
#
# Compressibility (1/GPa) = 0.02050864
#
# Stress axis : x y z
#
# Youngs Moduli (GPa) = 84.99155 86.45575 60.30521
#
# Poissons Ratio (x) = 0.14810 0.27077
# Poissons Ratio (y) = 0.14559 0.21107
# Poissons Ratio (z) = 0.38161 0.30260
#
# Static dielectric constant tensor:
#      x y z
#    x 3.482930 0.000000 0.000000 
#    y 0.000000 3.292100 0.000000 
#    z 0.000000 0.000000 3.196870 
# 
# 
# High freq. dielectric constant tensor:
#      x y z
#    x 1.702160 0.000000 0.000000 
#    y 0.000000 1.697320 0.000000 
#    z 0.000000 0.000000 1.688170 
# 
# From -- ./inp_files/9179.got.cif
#   From: 2010.03.12/outbox.cif.g09.slc.cpg/sg35_5_cif.got.tgz:9179.got - 2010.04.14 02:02:04.
