data_PCOD8172138
_publ_section_title
;
Structure prediction by ZEFSAII (Michael W. Deem and Ramdas Pophale) SiO2 
 PCOD8172138
Probable space group: P N N 2
;
_chemical_formula_sum "Si O2"
_cell_formula_units_Z 32
_cell_length_a 14.015148
_cell_length_b 8.992193
_cell_length_c 11.569550
_cell_angle_alpha 90.000000
_cell_angle_beta 90.000000
_cell_angle_gamma 90.000000
_cell_volume 1458.074703
_symmetry_space_group_name_H-M "P N N 2"
_symmetry_group_IT_number 34
_symmetry_cell_setting 'orthorhombic'
loop_
_space_group_symop_operation_xyz
x,y,z
-x,-y,z
1/2-x,1/2+y,1/2+z
1/2+x,1/2-y,1/2+z
loop_
_atom_site_type_symbol
_atom_site_label
_atom_site_fract_x
_atom_site_fract_y
_atom_site_fract_z
Si Si1 0.265204 0.967490 0.681510
Si Si2 0.459845 0.836457 0.156635
Si Si3 0.569297 0.632679 0.566938
Si Si4 0.613930 0.716013 0.317792
Si Si5 0.751895 0.959790 0.414707
Si Si6 0.955388 0.841842 0.430076
Si Si7 0.537310 0.159161 0.714418
Si Si8 0.257465 0.303366 0.725709
O O1 0.269762 0.996485 0.545500
O O2 0.276930 0.127498 0.744453
O O3 0.170229 0.886519 0.726074
O O4 0.348883 0.850973 0.708543
O O5 0.512500 0.752628 0.261057
O O6 0.347349 0.831593 0.176275
O O7 0.500000 0.000000 0.148024
O O8 0.485017 0.760740 0.035931
O O9 0.500000 0.500000 0.605888
O O10 0.593175 0.620715 0.432084
O O11 0.512201 0.785739 0.595577
O O12 0.668706 0.624357 0.635397
O O13 0.666661 0.868933 0.353684
O O14 0.841990 0.851359 0.416148
O O15 0.770605 0.113443 0.347426
O O16 0.997699 0.773495 0.312657
O O17 0.000000 0.000000 0.454396
O O18 0.500000 0.000000 0.749443
#
# Coordination Sequence:
#
# PCOD8172138 Si02
#       8
#     4   4   4   4   4   4   4   4
#     4  12  27  47  76 111 150 194 255 312 377 453
#     4  12  27  47  76 108 150 196 250 311 384 453
#     4  12  28  47  76 109 153 197 256 309 373 453
#     4  12  27  49  74 112 148 199 251 314 371 451
#     4  12  24  49  73 103 153 194 243 315 377 451
#     4  12  25  46  73 106 151 192 252 311 379 448
#     4  12  24  45  73 107 143 198 249 304 375 451
#     4  12  26  50  73 110 152 197 245 314 380 445
#
# _framework density 21.946749000000001
#
# number of rings (size 3 to 8) (size 9 to 14) (size 15 to 20)
#    0.000    0.000    6.250    3.000    3.500    0.500 
#    2.250    0.000    0.000    0.000    0.000    0.000 
#    0.000    0.000    0.000    0.000    0.000    0.000 
#
# Total GULP energy -396961.562612 kJ/mol
# GULP energy per Si atom -12405.048832 kJ/mol
# Density = 2.189680 g / cm^3
# Si number density = 21.946749 Si / 1000 Ang^3
#
#
#
# Elastic Constant Matrix: (Units=GPa)
#
#
# Indices 1 2 3 4 5 6 
#
# 1 133.9664 29.0141 25.4622 0.0000 0.0000 0.0000
# 2 29.0141 77.0629 35.8522 0.0000 0.0000 0.0000
# 3 25.4622 35.8522 102.6967 0.0000 0.0000 0.0000
# 4 0.0000 0.0000 0.0000 -118.6406 0.0000 0.0000
# 5 0.0000 0.0000 0.0000 0.0000 34.3910 0.0000
# 6 0.0000 0.0000 0.0000 0.0000 0.0000 40.3319
#
#
#
# Elastic Compliance Matrix: (Units=1/GPa)
#
#
# Indices 1 2 3 4 5 6 
#
# 1 0.008239 -0.002569 -0.001146 0.000000 0.000000 0.000000
# 2 -0.002569 0.016294 -0.005051 0.000000 0.000000 0.000000
# 3 -0.001146 -0.005051 0.011785 0.000000 0.000000 0.000000
# 4 0.000000 0.000000 0.000000 -0.008429 0.000000 0.000000
# 5 0.000000 0.000000 0.000000 0.000000 0.029077 0.000000
# 6 0.000000 0.000000 0.000000 0.000000 0.000000 0.024794
#
#
# Mechanical properties :
#
#
# Convention : Reuss Voigt Hill
#
# Bulk Modulus (GPa) = 53.23310 54.93143 54.08227
# Shear Modulus (GPa) = 47.36923 6.10963 26.73943
#
# Velocity S-wave (km/s) = 4.65087 1.67029 3.49431
# Velocity P-wave (km/s) = 7.29034 5.36690 6.40127
#
# Compressibility (1/GPa) = 0.01878530
#
# Stress axis : x y z
#
# Youngs Moduli (GPa) = 121.37858 61.37388 84.85387
#
# Poissons Ratio (x) = 0.15765 0.09723
# Poissons Ratio (y) = 0.31179 0.42862
# Poissons Ratio (z) = 0.13909 0.31002
#
# Static dielectric constant tensor:
#      x y z
#    x 4.314130 0.000000 0.000000 
#    y 0.000000 8.526860 0.000000 
#    z 0.000000 0.000000 3.988470 
# 
# 
# High freq. dielectric constant tensor:
#      x y z
#    x 1.879670 0.000000 0.000000 
#    y 0.000000 1.870710 0.000000 
#    z 0.000000 0.000000 1.868750 
# 
# From -- ./inp_files/5687.got.cif
#   From: 2010.03.12/outbox.cif.g09.slc.cpg/sg34_3_cif.got.tgz:5687.got - 2010.04.14 01:56:33.
