data_PCOD8172056
_publ_section_title
;
Structure prediction by ZEFSAII (Michael W. Deem and Ramdas Pophale) SiO2 
 PCOD8172056
Probable space group: P N N 2
;
_chemical_formula_sum "Si O2"
_cell_formula_units_Z 14
_cell_length_a 6.473899
_cell_length_b 5.179832
_cell_length_c 17.900706
_cell_angle_alpha 90.000000
_cell_angle_beta 90.000000
_cell_angle_gamma 90.000000
_cell_volume 600.277070
_symmetry_space_group_name_H-M "P N N 2"
_symmetry_group_IT_number 34
_symmetry_cell_setting 'orthorhombic'
loop_
_space_group_symop_operation_xyz
x,y,z
-x,-y,z
1/2-x,1/2+y,1/2+z
1/2+x,1/2-y,1/2+z
loop_
_atom_site_type_symbol
_atom_site_label
_atom_site_fract_x
_atom_site_fract_y
_atom_site_fract_z
Si Si1 0.625890 0.749157 0.553760
Si Si2 0.500000 0.500000 0.332452
Si Si3 0.629604 0.246944 0.915280
Si Si4 0.377859 0.738431 0.190307
O O1 0.500000 0.500000 0.528240
O O2 0.835746 0.758954 0.504673
O O3 0.667471 0.736631 0.642980
O O4 0.500000 0.000000 0.531839
O O5 0.641643 0.703402 0.378428
O O6 0.347214 0.671030 0.278336
O O7 0.500000 0.500000 0.888361
O O8 0.500000 0.000000 0.892015
O O9 0.500000 0.500000 0.151937
O O10 0.500000 0.000000 0.179649
#
# Coordination Sequence:
#
# PCOD8172056 Si02
#       4
#     4   2   4   4
#     4  12  24  44  75 105 142 188 247 305 365 440
#     4  10  28  48  70 108 158 188 242 320 362 456
#     4  12  27  46  77 106 146 195 249 300 380 440
#     4  10  23  44  68  96 148 182 233 298 368 421
#
# _framework density 23.322562999999999
#
# number of rings (size 3 to 8) (size 9 to 14) (size 15 to 20)
#    0.857    0.000    1.429    5.143    4.000    1.143 
#    0.000    0.000    0.000    0.000    0.000    0.000 
#    0.000    0.000    0.000    0.000    0.000    0.000 
#
# Total GULP energy -173452.350352 kJ/mol
# GULP energy per Si atom -12389.453597 kJ/mol
# Density = 2.326948 g / cm^3
# Si number density = 23.322563 Si / 1000 Ang^3
#
#
#
# Elastic Constant Matrix: (Units=GPa)
#
#
# Indices 1 2 3 4 5 6 
#
# 1 85.1591 53.4941 42.9689 0.0000 0.0000 0.0000
# 2 53.4941 207.7386 30.0310 0.0000 0.0000 0.0000
# 3 42.9689 30.0310 108.6728 0.0000 0.0000 0.0000
# 4 0.0000 0.0000 0.0000 54.8423 0.0000 0.0000
# 5 0.0000 0.0000 0.0000 0.0000 51.4104 0.0000
# 6 0.0000 0.0000 0.0000 0.0000 0.0000 43.6688
#
#
#
# Elastic Compliance Matrix: (Units=1/GPa)
#
#
# Indices 1 2 3 4 5 6 
#
# 1 0.016811 -0.003508 -0.005678 0.000000 0.000000 0.000000
# 2 -0.003508 0.005746 -0.000201 0.000000 0.000000 0.000000
# 3 -0.005678 -0.000201 0.011502 0.000000 0.000000 0.000000
# 4 0.000000 0.000000 0.000000 0.018234 0.000000 0.000000
# 5 0.000000 0.000000 0.000000 0.000000 0.019451 0.000000
# 6 0.000000 0.000000 0.000000 0.000000 0.000000 0.022900
#
#
# Mechanical properties :
#
#
# Convention : Reuss Voigt Hill
#
# Bulk Modulus (GPa) = 65.41738 72.72873 69.07305
# Shear Modulus (GPa) = 42.18924 48.32273 45.25598
#
# Velocity S-wave (km/s) = 4.25778 4.55678 4.40982
# Velocity P-wave (km/s) = 7.23059 7.67706 7.45717
#
# Compressibility (1/GPa) = 0.01528646
#
# Stress axis : x y z
#
# Youngs Moduli (GPa) = 59.48392 174.02915 86.93890
#
# Poissons Ratio (x) = 0.61054 0.49361
# Poissons Ratio (y) = 0.20868 0.01745
# Poissons Ratio (z) = 0.33773 0.03494
#
# Static dielectric constant tensor:
#      x y z
#    x 3.821480 0.000000 0.000000 
#    y 0.000000 4.208020 0.000000 
#    z 0.000000 0.000000 4.099010 
# 
# 
# High freq. dielectric constant tensor:
#      x y z
#    x 1.895880 0.000000 0.000000 
#    y 0.000000 1.940070 0.000000 
#    z 0.000000 0.000000 1.925120 
# 
# From -- ./inp_files/7829.got.cif
#   From: 2010.03.12/outbox.cif.g09.slc.cpg/sg34_4_cif.got.tgz:7829.got - 2010.04.14 01:56:33.
