data_PCOD8172638
_publ_section_title
;
Structure prediction by ZEFSAII (Michael W. Deem and Ramdas Pophale) SiO2 
 PCOD8172638
Probable space group: C M M 2
;
_chemical_formula_sum "Si O2"
_cell_formula_units_Z 64
_cell_length_a 28.471216
_cell_length_b 8.710118
_cell_length_c 15.648650
_cell_angle_alpha 90.000000
_cell_angle_beta 90.000000
_cell_angle_gamma 90.000000
_cell_volume 3880.671954
_symmetry_space_group_name_H-M "C M M 2"
_symmetry_group_IT_number 35
_symmetry_cell_setting 'orthorhombic'
loop_
_space_group_symop_operation_xyz
x,y,z
-x,-y,z
-x,y,z
x,-y,z
1/2+x,1/2+y,z
1/2-x,1/2-y,z
1/2-x,1/2+y,z
1/2+x,1/2-y,z
loop_
_atom_site_type_symbol
_atom_site_label
_atom_site_fract_x
_atom_site_fract_y
_atom_site_fract_z
Si Si1 0.052358 0.317018 0.184870
Si Si2 0.798875 0.181623 0.414071
Si Si3 0.445149 0.677378 0.497974
Si Si4 0.447406 0.319308 0.828414
Si Si5 0.110974 0.180510 0.667997
Si Si6 0.110587 0.319205 0.345854
Si Si7 0.055908 0.670709 0.999243
Si Si8 0.298908 0.818404 0.598923
O O1 0.049760 0.500000 0.185016
O O2 0.086322 0.257523 0.259413
O O3 0.000000 0.250441 0.201474
O O4 0.072234 0.262841 0.091849
O O5 0.750000 0.250000 0.379487
O O6 0.840104 0.230705 0.350392
O O7 0.811215 0.247712 0.506962
O O8 0.794952 0.000000 0.420372
O O9 0.500000 0.713720 0.505008
O O10 0.435624 0.500000 0.474904
O O11 0.422015 0.720310 0.588065
O O12 0.422933 0.782923 0.425344
O O13 0.500000 0.250102 0.817986
O O14 0.449993 0.500000 0.821778
O O15 0.414747 0.256189 0.752673
O O16 0.425767 0.273657 0.920569
O O17 0.159922 0.271417 0.663382
O O18 0.121516 0.000000 0.673192
O O19 0.120000 0.500000 0.343249
O O20 0.076067 0.500000 0.985080
O O21 0.000000 0.667496 0.001829
O O22 0.250000 0.750000 0.633750
O O23 0.294581 0.000000 0.590491
#
# Coordination Sequence:
#
# PCOD8172638 Si02
#       8
#     8   8   8   8   8   8   8   8
#     4   8  15  28  46  68  96 129 162 196 236 280
#     4  11  21  35  52  70  93 122 157 199 243 287
#     4  10  20  32  45  63  93 133 168 195 229 276
#     4   9  17  29  46  69  97 129 162 196 236 280
#     4  10  19  32  48  67  96 131 162 194 236 285
#     4  11  20  31  48  71  96 126 162 200 239 283
#     4   8  14  27  46  66  90 123 161 200 239 277
#     4  11  21  34  52  72  93 120 157 200 242 284
#
# _framework density 16.491987999999999
#
# number of rings (size 3 to 8) (size 9 to 14) (size 15 to 20)
#    0.000    2.250    1.250    4.875    0.000    2.750 
#    0.000    1.250    0.000    5.250    0.000    0.875 
#    0.000    6.000    0.000    0.000    0.000    0.000 
#
# Total GULP energy -396753.365619 kJ/mol
# GULP energy per Si atom -12398.542676 kJ/mol
# Density = 1.645445 g / cm^3
# Si number density = 16.491988 Si / 1000 Ang^3
#
#
#
# Elastic Constant Matrix: (Units=GPa)
#
#
# Indices 1 2 3 4 5 6 
#
# 1 109.2318 34.8531 63.0369 0.0000 0.0000 0.0000
# 2 34.8531 69.7831 33.3721 0.0000 0.0000 0.0000
# 3 63.0369 33.3721 131.4519 0.0000 0.0000 0.0000
# 4 0.0000 0.0000 0.0000 21.9284 0.0000 0.0000
# 5 0.0000 0.0000 0.0000 0.0000 13.0909 0.0000
# 6 0.0000 0.0000 0.0000 0.0000 0.0000 21.9996
#
#
#
# Elastic Compliance Matrix: (Units=1/GPa)
#
#
# Indices 1 2 3 4 5 6 
#
# 1 0.013660 -0.004200 -0.005484 0.000000 0.000000 0.000000
# 2 -0.004200 0.017601 -0.002455 0.000000 0.000000 0.000000
# 3 -0.005484 -0.002455 0.010860 0.000000 0.000000 0.000000
# 4 0.000000 0.000000 0.000000 0.045603 0.000000 0.000000
# 5 0.000000 0.000000 0.000000 0.000000 0.076389 0.000000
# 6 0.000000 0.000000 0.000000 0.000000 0.000000 0.045455
#
#
# Mechanical properties :
#
#
# Convention : Reuss Voigt Hill
#
# Bulk Modulus (GPa) = 56.03928 63.66564 59.85246
# Shear Modulus (GPa) = 20.85121 23.35076 22.10099
#
# Velocity S-wave (km/s) = 3.55959 3.76691 3.66471
# Velocity P-wave (km/s) = 7.13777 7.58994 7.36732
#
# Compressibility (1/GPa) = 0.01784463
#
# Stress axis : x y z
#
# Youngs Moduli (GPa) = 73.20759 56.81338 92.07710
#
# Poissons Ratio (x) = 0.23860 0.50498
# Poissons Ratio (y) = 0.30745 0.22602
# Poissons Ratio (z) = 0.40149 0.13946
#
# Static dielectric constant tensor:
#      x y z
#    x 3.129930 0.000000 0.000000 
#    y 0.000000 3.001620 0.000000 
#    z 0.000000 0.000000 3.278010 
# 
# 
# High freq. dielectric constant tensor:
#      x y z
#    x 1.618640 0.000000 0.000000 
#    y 0.000000 1.627510 0.000000 
#    z 0.000000 0.000000 1.624650 
# 
# From -- ./inp_files/17720.got.cif
#   From: 2010.03.12/outbox.cif.g09.slc.cpg/sg35_9_cif.got.tgz:17720.got - 2010.04.14 02:02:04.
