data_PCOD8172556
_publ_section_title
;
Structure prediction by ZEFSAII (Michael W. Deem and Ramdas Pophale) SiO2 
 PCOD8172556
Probable space group: C M M 2
;
_chemical_formula_sum "Si O2"
_cell_formula_units_Z 64
_cell_length_a 27.487374
_cell_length_b 14.800443
_cell_length_c 9.068406
_cell_angle_alpha 90.000000
_cell_angle_beta 90.000000
_cell_angle_gamma 90.000000
_cell_volume 3689.257101
_symmetry_space_group_name_H-M "C M M 2"
_symmetry_group_IT_number 35
_symmetry_cell_setting 'orthorhombic'
loop_
_space_group_symop_operation_xyz
x,y,z
-x,-y,z
-x,y,z
x,-y,z
1/2+x,1/2+y,z
1/2-x,1/2-y,z
1/2-x,1/2+y,z
1/2+x,1/2-y,z
loop_
_atom_site_type_symbol
_atom_site_label
_atom_site_fract_x
_atom_site_fract_y
_atom_site_fract_z
Si Si1 0.728539 0.655275 0.416870
Si Si2 0.716804 0.399614 0.100240
Si Si3 0.831663 0.400476 0.448229
Si Si4 0.141283 0.776744 0.599862
Si Si5 0.859248 0.775025 0.949681
Si Si6 0.669904 0.897976 0.105157
Si Si7 0.054050 0.101006 0.949529
Si Si8 0.554015 0.398945 0.599168
O O1 0.750000 0.750000 0.360098
O O2 0.705177 0.607372 0.274749
O O3 0.773711 0.599071 0.483993
O O4 0.688335 0.668856 0.542924
O O5 0.701276 0.500000 0.048311
O O6 0.773538 0.383802 0.069941
O O7 0.688349 0.325322 0.008033
O O8 0.851793 0.500000 0.489729
O O9 0.860353 0.325824 0.541609
O O10 0.840009 0.379177 0.276626
O O11 0.142998 0.774118 0.774654
O O12 0.093422 0.827753 0.538676
O O13 0.906903 0.827275 0.010491
O O14 0.861299 0.672652 0.009475
O O15 0.653812 0.000000 0.063318
O O16 0.055250 0.100949 0.774357
O O17 0.000000 0.128569 0.004925
O O18 0.066988 0.000000 0.006770
O O19 0.500000 0.370691 0.544018
O O20 0.566567 0.500000 0.541871
#
# Coordination Sequence:
#
# PCOD8172556 Si02
#       8
#     8   8   8   8   8   8   8   8
#     4   9  17  31  47  64  91 128 163 186 217 269
#     4  10  19  31  47  66  91 128 164 188 218 269
#     4   9  18  34  50  64  89 128 166 190 217 269
#     4  10  20  29  46  75  97 117 149 195 241 275
#     4  11  19  29  47  73  99 117 148 196 241 275
#     4   9  19  34  50  65  88 128 167 190 217 269
#     4   8  15  29  47  67  93 124 152 178 220 280
#     4   8  15  29  47  66  92 124 152 180 222 279
#
# _framework density 17.347667000000001
#
# number of rings (size 3 to 8) (size 9 to 14) (size 15 to 20)
#    0.000    2.750    0.000    4.875    0.000    5.000 
#    0.000    1.250    0.000    3.750    0.000   12.250 
#    0.000    0.000    0.000    0.000    0.000    0.000 
#
# Total GULP energy -396672.974277 kJ/mol
# GULP energy per Si atom -12396.030446 kJ/mol
# Density = 1.730818 g / cm^3
# Si number density = 17.347667 Si / 1000 Ang^3
#
#
#
# Elastic Constant Matrix: (Units=GPa)
#
#
# Indices 1 2 3 4 5 6 
#
# 1 90.6402 68.4350 36.4862 0.0000 0.0000 0.0000
# 2 68.4350 133.5861 41.8226 0.0000 0.0000 0.0000
# 3 36.4862 41.8226 48.4784 0.0000 0.0000 0.0000
# 4 0.0000 0.0000 0.0000 15.1741 0.0000 0.0000
# 5 0.0000 0.0000 0.0000 0.0000 2.7667 0.0000
# 6 0.0000 0.0000 0.0000 0.0000 0.0000 29.2625
#
#
#
# Elastic Compliance Matrix: (Units=1/GPa)
#
#
# Indices 1 2 3 4 5 6 
#
# 1 0.020337 -0.007709 -0.008656 0.000000 0.000000 0.000000
# 2 -0.007709 0.013178 -0.005567 0.000000 0.000000 0.000000
# 3 -0.008656 -0.005567 0.031945 0.000000 0.000000 0.000000
# 4 0.000000 0.000000 0.000000 0.065902 0.000000 0.000000
# 5 0.000000 0.000000 0.000000 0.000000 0.361444 0.000000
# 6 0.000000 0.000000 0.000000 0.000000 0.000000 0.034173
#
#
# Mechanical properties :
#
#
# Convention : Reuss Voigt Hill
#
# Bulk Modulus (GPa) = 46.30268 62.91027 54.60647
# Shear Modulus (GPa) = 8.64991 17.83806 13.24398
#
# Velocity S-wave (km/s) = 2.23540 3.21014 2.76605
# Velocity P-wave (km/s) = 5.78028 7.07694 6.46122
#
# Compressibility (1/GPa) = 0.02159702
#
# Stress axis : x y z
#
# Youngs Moduli (GPa) = 49.17114 75.88611 31.30369
#
# Poissons Ratio (x) = 0.58497 0.27097
# Poissons Ratio (y) = 0.37904 0.17426
# Poissons Ratio (z) = 0.42563 0.42244
#
# Static dielectric constant tensor:
#      x y z
#    x 3.277150 0.000000 0.000000 
#    y 0.000000 3.481300 0.000000 
#    z 0.000000 0.000000 2.907580 
# 
# 
# High freq. dielectric constant tensor:
#      x y z
#    x 1.646750 0.000000 0.000000 
#    y 0.000000 1.679800 0.000000 
#    z 0.000000 0.000000 1.642900 
# 
# From -- ./inp_files/10664.got.cif
#   From: 2010.03.12/outbox.cif.g09.slc.cpg/sg35_6_cif.got.tgz:10664.got - 2010.04.14 02:02:04.
