data_PCOD8172005
_publ_section_title
;
Structure prediction by ZEFSAII (Michael W. Deem and Ramdas Pophale) SiO2 
 PCOD8172005
Probable space group: P N N 2
;
_chemical_formula_sum "Si O2"
_cell_formula_units_Z 14
_cell_length_a 5.068799
_cell_length_b 6.155206
_cell_length_c 18.195556
_cell_angle_alpha 90.000000
_cell_angle_beta 90.000000
_cell_angle_gamma 90.000000
_cell_volume 567.692286
_symmetry_space_group_name_H-M "P N N 2"
_symmetry_group_IT_number 34
_symmetry_cell_setting 'orthorhombic'
loop_
_space_group_symop_operation_xyz
x,y,z
-x,-y,z
1/2-x,1/2+y,1/2+z
1/2+x,1/2-y,1/2+z
loop_
_atom_site_type_symbol
_atom_site_label
_atom_site_fract_x
_atom_site_fract_y
_atom_site_fract_z
Si Si1 0.500000 0.000000 0.219561
Si Si2 0.245971 0.648749 0.119868
Si Si3 0.749609 0.136534 0.809064
Si Si4 0.757107 0.355414 0.955297
O O1 0.698398 0.144394 0.170609
O O2 0.289366 0.132094 0.269301
O O3 0.500000 0.500000 0.120037
O O4 0.000000 0.500000 0.146924
O O5 0.191469 0.737478 0.037105
O O6 0.727877 0.160097 0.897243
O O7 0.500000 0.000000 0.779933
O O8 0.000000 0.000000 0.784471
O O9 0.500000 0.500000 0.952578
O O10 0.000000 0.500000 0.928294
#
# Coordination Sequence:
#
# PCOD8172005 Si02
#       4
#     2   4   4   4
#     4  12  28  50  72 110 154 206 232 322 374 438
#     4  10  25  48  75 107 146 190 250 302 369 446
#     4  12  28  46  75 109 147 192 251 298 370 445
#     4  10  21  47  76 106 141 188 246 308 359 441
#
# _framework density 24.661248000000001
#
# number of rings (size 3 to 8) (size 9 to 14) (size 15 to 20)
#    0.000    1.143    1.429    2.571    2.000    8.000 
#    0.000    0.000    0.000    0.000    0.000    0.000 
#    0.000    0.000    0.000    0.000    0.000    0.000 
#
# Total GULP energy -173618.393474 kJ/mol
# GULP energy per Si atom -12401.313820 kJ/mol
# Density = 2.460512 g / cm^3
# Si number density = 24.661248 Si / 1000 Ang^3
#
#
#
# Elastic Constant Matrix: (Units=GPa)
#
#
# Indices 1 2 3 4 5 6 
#
# 1 192.6718 65.8940 32.1919 0.0000 0.0000 0.0000
# 2 65.8940 133.6074 77.9507 0.0000 0.0000 0.0000
# 3 32.1919 77.9507 157.1150 0.0000 0.0000 0.0000
# 4 0.0000 0.0000 0.0000 61.4854 0.0000 0.0000
# 5 0.0000 0.0000 0.0000 0.0000 40.9476 0.0000
# 6 0.0000 0.0000 0.0000 0.0000 0.0000 50.2139
#
#
#
# Elastic Compliance Matrix: (Units=1/GPa)
#
#
# Indices 1 2 3 4 5 6 
#
# 1 0.006257 -0.003290 0.000350 0.000000 0.000000 0.000000
# 2 -0.003290 0.012264 -0.005410 0.000000 0.000000 0.000000
# 3 0.000350 -0.005410 0.008977 0.000000 0.000000 0.000000
# 4 0.000000 0.000000 0.000000 0.016264 0.000000 0.000000
# 5 0.000000 0.000000 0.000000 0.000000 0.024421 0.000000
# 6 0.000000 0.000000 0.000000 0.000000 0.000000 0.019915
#
#
# Mechanical properties :
#
#
# Convention : Reuss Voigt Hill
#
# Bulk Modulus (GPa) = 92.61370 92.82970 92.72170
# Shear Modulus (GPa) = 46.12616 51.01989 48.57302
#
# Velocity S-wave (km/s) = 4.32949 4.55337 4.44284
# Velocity P-wave (km/s) = 7.91382 8.08504 7.99989
#
# Compressibility (1/GPa) = 0.01079754
#
# Stress axis : x y z
#
# Youngs Moduli (GPa) = 159.82324 81.53944 111.39209
#
# Poissons Ratio (x) = 0.26829 -0.03904
# Poissons Ratio (y) = 0.52587 0.60268
# Poissons Ratio (z) = -0.05601 0.44117
#
# Static dielectric constant tensor:
#      x y z
#    x 4.330260 0.000000 0.000000 
#    y 0.000000 4.188890 0.000000 
#    z 0.000000 0.000000 5.114740 
# 
# 
# High freq. dielectric constant tensor:
#      x y z
#    x 1.994400 0.000000 0.000000 
#    y 0.000000 1.962000 0.000000 
#    z 0.000000 0.000000 2.012660 
# 
# From -- ./inp_files/7831.got.cif
#   From: 2010.03.12/outbox.cif.g09.slc.cpg/sg34_4_cif.got.tgz:7831.got - 2010.04.14 01:56:33.
