data_PCOD8172544
_publ_section_title
;
Structure prediction by ZEFSAII (Michael W. Deem and Ramdas Pophale) SiO2 
 PCOD8172544
Probable space group: C M M 2
;
_chemical_formula_sum "Si O2"
_cell_formula_units_Z 40
_cell_length_a 18.055517
_cell_length_b 8.214490
_cell_length_c 14.557980
_cell_angle_alpha 90.000000
_cell_angle_beta 90.000000
_cell_angle_gamma 90.000000
_cell_volume 2159.193937
_symmetry_space_group_name_H-M "C M M 2"
_symmetry_group_IT_number 35
_symmetry_cell_setting 'orthorhombic'
loop_
_space_group_symop_operation_xyz
x,y,z
-x,-y,z
-x,y,z
x,-y,z
1/2+x,1/2+y,z
1/2-x,1/2-y,z
1/2-x,1/2+y,z
1/2+x,1/2-y,z
loop_
_atom_site_type_symbol
_atom_site_label
_atom_site_fract_x
_atom_site_fract_y
_atom_site_fract_z
Si Si1 0.412382 0.500000 0.109620
Si Si2 0.587388 0.316656 0.614927
Si Si3 0.587984 0.500000 0.319742
Si Si4 0.828310 0.178536 0.967426
Si Si5 0.917579 0.687384 0.803661
Si Si6 0.088240 0.681221 0.426349
O O1 0.500000 0.500000 0.100268
O O2 0.386243 0.500000 0.214518
O O3 0.379381 0.661162 0.058995
O O4 0.500000 0.294546 0.624175
O O5 0.609612 0.500000 0.590062
O O6 0.620987 0.268794 0.714166
O O7 0.616543 0.205046 0.531261
O O8 0.500000 0.500000 0.329303
O O9 0.619463 0.332216 0.365262
O O10 0.750000 0.250000 0.998333
O O11 0.867161 0.291158 0.892717
O O12 0.816650 0.000000 0.922567
O O13 0.924483 0.500000 0.780420
O O14 0.000000 0.760629 0.822956
O O15 0.114987 0.500000 0.392841
O O16 0.000000 0.688463 0.423156
#
# Coordination Sequence:
#
# PCOD8172544 Si02
#       6
#     4   8   4   8   8   8
#     4   9  20  36  59  81 108 144 185 236 293 339
#     4   9  15  24  40  68 105 146 183 218 270 334
#     4   9  16  30  47  73 105 140 179 228 286 337
#     4  10  21  36  56  76 106 142 188 227 283 340
#     4  10  19  30  48  77 113 147 186 232 277 329
#     4   9  15  24  41  67 105 144 177 219 277 337
#
# _framework density 18.525431000000001
#
# number of rings (size 3 to 8) (size 9 to 14) (size 15 to 20)
#    0.600    2.000    1.000    2.400    0.000    3.200 
#    0.000    2.000    0.000    4.800    0.000    1.400 
#    0.000    0.000    0.000    0.000    0.000    0.000 
#
# Total GULP energy -247793.846647 kJ/mol
# GULP energy per Si atom -12389.692332 kJ/mol
# Density = 1.848327 g / cm^3
# Si number density = 18.525431 Si / 1000 Ang^3
#
#
#
# Elastic Constant Matrix: (Units=GPa)
#
#
# Indices 1 2 3 4 5 6 
#
# 1 50.4419 14.0733 32.6805 0.0000 0.0000 0.0000
# 2 14.0733 106.5416 52.6218 0.0000 0.0000 0.0000
# 3 32.6805 52.6218 144.7536 0.0000 0.0000 0.0000
# 4 0.0000 0.0000 0.0000 22.5384 0.0000 0.0000
# 5 0.0000 0.0000 0.0000 0.0000 1.6983 0.0000
# 6 0.0000 0.0000 0.0000 0.0000 0.0000 18.0900
#
#
#
# Elastic Compliance Matrix: (Units=1/GPa)
#
#
# Indices 1 2 3 4 5 6 
#
# 1 0.023251 -0.000583 -0.005037 0.000000 0.000000 0.000000
# 2 -0.000583 0.011455 -0.004032 0.000000 0.000000 0.000000
# 3 -0.005037 -0.004032 0.009511 0.000000 0.000000 0.000000
# 4 0.000000 0.000000 0.000000 0.044369 0.000000 0.000000
# 5 0.000000 0.000000 0.000000 0.000000 0.588815 0.000000
# 6 0.000000 0.000000 0.000000 0.000000 0.000000 0.055279
#
#
# Mechanical properties :
#
#
# Convention : Reuss Voigt Hill
#
# Bulk Modulus (GPa) = 40.14254 55.60981 47.87618
# Shear Modulus (GPa) = 6.57644 21.95612 14.26628
#
# Velocity S-wave (km/s) = 1.88618 3.44639 2.77806
# Velocity P-wave (km/s) = 5.14388 6.77643 6.01579
#
# Compressibility (1/GPa) = 0.02491123
#
# Stress axis : x y z
#
# Youngs Moduli (GPa) = 43.00877 87.30050 105.13687
#
# Poissons Ratio (x) = 0.05093 0.52960
# Poissons Ratio (y) = 0.02509 0.42395
# Poissons Ratio (z) = 0.21665 0.35203
#
# Static dielectric constant tensor:
#      x y z
#    x 2.828880 0.000000 0.000000 
#    y 0.000000 3.507340 0.000000 
#    z 0.000000 0.000000 3.391310 
# 
# 
# High freq. dielectric constant tensor:
#      x y z
#    x 1.655410 0.000000 0.000000 
#    y 0.000000 1.724360 0.000000 
#    z 0.000000 0.000000 1.717090 
# 
# From -- ./inp_files/17252.got.cif
#   From: 2010.03.12/outbox.cif.g09.slc.cpg/sg35_9_cif.got.tgz:17252.got - 2010.04.14 02:02:04.
