data_PCOD8172682
_publ_section_title
;
Structure prediction by ZEFSAII (Michael W. Deem and Ramdas Pophale) SiO2 
 PCOD8172682
Probable space group: C M M 2
;
_chemical_formula_sum "Si O2"
_cell_formula_units_Z 40
_cell_length_a 27.291978
_cell_length_b 8.792127
_cell_length_c 10.277454
_cell_angle_alpha 90.000000
_cell_angle_beta 90.000000
_cell_angle_gamma 90.000000
_cell_volume 2466.121713
_symmetry_space_group_name_H-M "C M M 2"
_symmetry_group_IT_number 35
_symmetry_cell_setting 'orthorhombic'
loop_
_space_group_symop_operation_xyz
x,y,z
-x,-y,z
-x,y,z
x,-y,z
1/2+x,1/2+y,z
1/2-x,1/2-y,z
1/2-x,1/2+y,z
1/2+x,1/2-y,z
loop_
_atom_site_type_symbol
_atom_site_label
_atom_site_fract_x
_atom_site_fract_y
_atom_site_fract_z
Si Si1 0.612982 0.179161 0.189340
Si Si2 0.943090 0.823601 0.955909
Si Si3 0.943695 0.323841 0.686344
Si Si4 0.199163 0.828328 0.305194
Si Si5 0.894838 0.828205 0.446427
O O1 0.669680 0.237926 0.191219
O O2 0.583966 0.256307 0.311512
O O3 0.611462 0.000000 0.206218
O O4 0.588156 0.225257 0.055414
O O5 0.928027 0.773439 0.811362
O O6 0.000000 0.788561 0.980486
O O7 0.930705 0.000000 0.974327
O O8 0.934621 0.500000 0.717274
O O9 0.910057 0.273812 0.567245
O O10 0.000000 0.292023 0.649092
O O11 0.250000 0.750000 0.340043
O O12 0.164713 0.827102 0.434743
O O13 0.208677 0.000000 0.257369
O O14 0.915015 0.000000 0.462312
#
# Coordination Sequence:
#
# PCOD8172682 Si02
#       5
#     8   8   8   8   8
#     4  10  19  32  51  75 101 130 166 209 250 291
#     4  10  20  34  51  71 100 137 171 204 247 298
#     4  10  20  33  50  73 101 134 170 205 246 296
#     4   9  18  32  52  76 100 128 163 203 251 301
#     4   9  19  33  50  74 100 130 167 205 247 295
#
# _framework density 16.219801
#
# number of rings (size 3 to 8) (size 9 to 14) (size 15 to 20)
#    1.200    1.200    0.000    3.600    0.000    3.200 
#    0.000    0.000    0.000    1.200    0.000    5.600 
#    0.000    0.000    0.000    0.000    0.000    0.000 
#
# Total GULP energy -247876.603070 kJ/mol
# GULP energy per Si atom -12393.830154 kJ/mol
# Density = 1.618288 g / cm^3
# Si number density = 16.219801 Si / 1000 Ang^3
#
#
#
# Elastic Constant Matrix: (Units=GPa)
#
#
# Indices 1 2 3 4 5 6 
#
# 1 60.5270 30.1413 37.3990 0.0000 0.0000 0.0000
# 2 30.1413 100.2207 25.7385 0.0000 0.0000 0.0000
# 3 37.3990 25.7385 79.3096 0.0000 0.0000 0.0000
# 4 0.0000 0.0000 0.0000 33.3811 0.0000 0.0000
# 5 0.0000 0.0000 0.0000 0.0000 -4.5583 0.0000
# 6 0.0000 0.0000 0.0000 0.0000 0.0000 21.9151
#
#
#
# Elastic Compliance Matrix: (Units=1/GPa)
#
#
# Indices 1 2 3 4 5 6 
#
# 1 0.025405 -0.004979 -0.010364 0.000000 0.000000 0.000000
# 2 -0.004979 0.011861 -0.001501 0.000000 0.000000 0.000000
# 3 -0.010364 -0.001501 0.017983 0.000000 0.000000 0.000000
# 4 0.000000 0.000000 0.000000 0.029957 0.000000 0.000000
# 5 0.000000 0.000000 0.000000 0.000000 -0.219378 0.000000
# 6 0.000000 0.000000 0.000000 0.000000 0.000000 0.045631
#
#
# Mechanical properties :
#
#
# Convention : Reuss Voigt Hill
#
# Bulk Modulus (GPa) = 46.38119 47.40163 46.89141
# Shear Modulus (GPa) = -104.89739 19.93280 -42.48230
#
# Velocity S-wave (km/s) = -8.05064 3.50939 -5.12333
# Velocity P-wave (km/s) = 7.59997 6.76085 2.45464
#
# Compressibility (1/GPa) = 0.02156046
#
# Stress axis : x y z
#
# Youngs Moduli (GPa) = 39.36278 84.31031 55.60709
#
# Poissons Ratio (x) = 0.41976 0.57631
# Poissons Ratio (y) = 0.19598 0.08349
# Poissons Ratio (z) = 0.40796 0.12659
#
# Static dielectric constant tensor:
#      x y z
#    x 2.844070 0.000000 0.000000 
#    y 0.000000 3.205160 0.000000 
#    z 0.000000 0.000000 2.863630 
# 
# 
# High freq. dielectric constant tensor:
#      x y z
#    x 1.598760 0.000000 0.000000 
#    y 0.000000 1.647720 0.000000 
#    z 0.000000 0.000000 1.607510 
# 
# From -- ./inp_files/4978.got.cif
#   From: 2010.03.12/outbox.cif.g09.slc.cpg/sg35_3_cif.got.tgz:4978.got - 2010.04.14 02:02:04.
