data_PCOD8172553
_publ_section_title
;
Structure prediction by ZEFSAII (Michael W. Deem and Ramdas Pophale) SiO2 
 PCOD8172553
Probable space group: C M M 2
;
_chemical_formula_sum "Si O2"
_cell_formula_units_Z 64
_cell_length_a 28.470369
_cell_length_b 8.810983
_cell_length_c 15.812368
_cell_angle_alpha 90.000000
_cell_angle_beta 90.000000
_cell_angle_gamma 90.000000
_cell_volume 3966.563146
_symmetry_space_group_name_H-M "C M M 2"
_symmetry_group_IT_number 35
_symmetry_cell_setting 'orthorhombic'
loop_
_space_group_symop_operation_xyz
x,y,z
-x,-y,z
-x,y,z
x,-y,z
1/2+x,1/2+y,z
1/2-x,1/2-y,z
1/2-x,1/2+y,z
1/2+x,1/2-y,z
loop_
_atom_site_type_symbol
_atom_site_label
_atom_site_fract_x
_atom_site_fract_y
_atom_site_fract_z
Si Si1 0.857811 0.678768 0.772370
Si Si2 0.648150 0.822922 0.463539
Si Si3 0.446960 0.324079 0.717528
Si Si4 0.800918 0.321135 0.933353
Si Si5 0.699042 0.178808 0.297519
Si Si6 0.947977 0.326365 0.540655
Si Si7 0.800216 0.677561 0.115425
Si Si8 0.300876 0.320347 0.620116
O O1 0.851920 0.500000 0.759515
O O2 0.912565 0.724382 0.775783
O O3 0.835226 0.736959 0.859891
O O4 0.834573 0.764427 0.694245
O O5 0.663300 0.766955 0.370289
O O6 0.592294 0.790449 0.471826
O O7 0.678066 0.728995 0.530643
O O8 0.659348 0.000000 0.477715
O O9 0.500000 0.287548 0.746437
O O10 0.434781 0.500000 0.728644
O O11 0.439741 0.282751 0.619633
O O12 0.794406 0.500000 0.926654
O O13 0.750000 0.250000 0.919825
O O14 0.824139 0.275350 0.025474
O O15 0.750000 0.250000 0.312407
O O16 0.676205 0.226318 0.205395
O O17 0.706150 0.000000 0.302272
O O18 0.943426 0.500000 0.572558
O O19 0.000000 0.298389 0.500908
O O20 0.793079 0.500000 0.115768
O O21 0.750000 0.750000 0.114576
O O22 0.296645 0.500000 0.623175
O O23 0.250000 0.250000 0.634204
#
# Coordination Sequence:
#
# PCOD8172553 Si02
#       8
#     8   8   8   8   8   8   8   8
#     4  11  21  33  48  68  92 121 156 190 228 276
#     4  10  19  31  46  67  92 120 155 189 225 273
#     4  10  20  33  49  69  91 116 151 193 235 274
#     4   9  18  30  46  67  91 120 153 189 227 271
#     4   9  17  28  44  65  90 120 151 186 225 268
#     4   9  17  30  48  66  87 117 152 191 231 270
#     4   8  14  27  44  63  87 115 148 186 228 267
#     4  12  24  35  46  62  90 127 159 189 224 266
#
# _framework density 16.134875000000001
#
# number of rings (size 3 to 8) (size 9 to 14) (size 15 to 20)
#    0.000    2.250    1.250    2.625    0.000    4.250 
#    0.000    0.000    0.000    0.000    0.000    0.875 
#    0.000    5.000    0.000    3.375    0.000    3.125 
#
# Total GULP energy -396519.297193 kJ/mol
# GULP energy per Si atom -12391.228037 kJ/mol
# Density = 1.609815 g / cm^3
# Si number density = 16.134875 Si / 1000 Ang^3
#
#
#
# Elastic Constant Matrix: (Units=GPa)
#
#
# Indices 1 2 3 4 5 6 
#
# 1 92.8992 25.2353 53.5639 0.0000 0.0000 0.0000
# 2 25.2353 48.3387 30.8662 0.0000 0.0000 0.0000
# 3 53.5639 30.8662 136.0053 0.0000 0.0000 0.0000
# 4 0.0000 0.0000 0.0000 10.5555 0.0000 0.0000
# 5 0.0000 0.0000 0.0000 0.0000 12.4787 0.0000
# 6 0.0000 0.0000 0.0000 0.0000 0.0000 20.2224
#
#
#
# Elastic Compliance Matrix: (Units=1/GPa)
#
#
# Indices 1 2 3 4 5 6 
#
# 1 0.014779 -0.004676 -0.004759 0.000000 0.000000 0.000000
# 2 -0.004676 0.025673 -0.003985 0.000000 0.000000 0.000000
# 3 -0.004759 -0.003985 0.010131 0.000000 0.000000 0.000000
# 4 0.000000 0.000000 0.000000 0.094737 0.000000 0.000000
# 5 0.000000 0.000000 0.000000 0.000000 0.080136 0.000000
# 6 0.000000 0.000000 0.000000 0.000000 0.000000 0.049450
#
#
# Mechanical properties :
#
#
# Convention : Reuss Voigt Hill
#
# Bulk Modulus (GPa) = 42.11833 55.17490 48.64662
# Shear Modulus (GPa) = 16.14666 19.82317 17.98492
#
# Velocity S-wave (km/s) = 3.16686 3.50893 3.34228
# Velocity P-wave (km/s) = 6.28750 7.11949 6.71639
#
# Compressibility (1/GPa) = 0.02374263
#
# Stress axis : x y z
#
# Youngs Moduli (GPa) = 67.66517 38.95133 98.70421
#
# Poissons Ratio (x) = 0.18215 0.46974
# Poissons Ratio (y) = 0.31643 0.39331
# Poissons Ratio (z) = 0.32202 0.15521
#
# Static dielectric constant tensor:
#      x y z
#    x 3.136490 0.000000 0.000000 
#    y 0.000000 3.146250 0.000000 
#    z 0.000000 0.000000 3.564050 
# 
# 
# High freq. dielectric constant tensor:
#      x y z
#    x 1.599570 0.000000 0.000000 
#    y 0.000000 1.624410 0.000000 
#    z 0.000000 0.000000 1.615370 
# 
# From -- ./inp_files/16223.got.cif
#   From: 2010.03.12/outbox.cif.g09.slc.cpg/sg35_9_cif.got.tgz:16223.got - 2010.04.14 02:02:04.
