data_PCOD8172507
_publ_section_title
;
Structure prediction by ZEFSAII (Michael W. Deem and Ramdas Pophale) SiO2 
 PCOD8172507
Probable space group: C M M 2
;
_chemical_formula_sum "Si O2"
_cell_formula_units_Z 64
_cell_length_a 9.206280
_cell_length_b 30.092122
_cell_length_c 15.194552
_cell_angle_alpha 90.000000
_cell_angle_beta 90.000000
_cell_angle_gamma 90.000000
_cell_volume 4209.445519
_symmetry_space_group_name_H-M "C M M 2"
_symmetry_group_IT_number 35
_symmetry_cell_setting 'orthorhombic'
loop_
_space_group_symop_operation_xyz
x,y,z
-x,-y,z
-x,y,z
x,-y,z
1/2+x,1/2+y,z
1/2-x,1/2-y,z
1/2-x,1/2+y,z
1/2+x,1/2-y,z
loop_
_atom_site_type_symbol
_atom_site_label
_atom_site_fract_x
_atom_site_fract_y
_atom_site_fract_z
Si Si1 0.171478 0.880949 0.830580
Si Si2 0.173413 0.387808 0.011878
Si Si3 0.837556 0.447034 0.507887
Si Si4 0.832615 0.947836 0.147235
Si Si5 0.660993 0.447202 0.343941
Si Si6 0.664038 0.207808 0.816589
Si Si7 0.332292 0.449438 0.677675
Si Si8 0.341071 0.790348 0.025253
O O1 0.244762 0.897093 0.920712
O O2 0.245972 0.836426 0.793108
O O3 0.202782 0.920141 0.762300
O O4 0.000000 0.872535 0.844773
O O5 0.000000 0.389659 0.996046
O O6 0.222686 0.424109 0.081553
O O7 0.220782 0.339175 0.048798
O O8 0.833326 0.500000 0.504841
O O9 0.766163 0.427389 0.418785
O O10 0.753993 0.430037 0.594143
O O11 0.000000 0.428469 0.512412
O O12 0.787531 0.933294 0.246145
O O13 0.000000 0.934606 0.128269
O O14 0.811604 0.000000 0.133832
O O15 0.500000 0.428373 0.361694
O O16 0.657045 0.500000 0.349148
O O17 0.500000 0.205175 0.777519
O O18 0.750000 0.250000 0.775798
O O19 0.653991 0.213565 0.920621
O O20 0.500000 0.447210 0.651584
O O21 0.285211 0.500000 0.699424
O O22 0.500000 0.784938 0.066197
O O23 0.250000 0.750000 0.067076
#
# Coordination Sequence:
#
# PCOD8172507 Si02
#       8
#     8   8   8   8   8   8   8   8
#     4  10  19  30  44  61  83 114 150 183 213 248
#     4  10  20  31  42  60  86 114 144 178 215 253
#     4   9  16  25  40  62  83 103 131 170 215 257
#     4   9  18  31  45  61  82 112 149 181 208 245
#     4   8  14  26  43  60  79 104 134 170 211 252
#     4   9  16  27  43  62  83 106 135 173 217 260
#     4   9  18  31  44  58  80 113 149 180 210 247
#     4   8  15  26  40  58  78 101 131 167 208 251
#
# _framework density 15.203903
#
# number of rings (size 3 to 8) (size 9 to 14) (size 15 to 20)
#    0.000    3.000    0.000    3.000    0.000    7.250 
#    0.000    2.500    0.000    0.000    0.000    0.000 
#    0.000    1.000    0.000    7.000    0.000    5.375 
#
# Total GULP energy -396631.684683 kJ/mol
# GULP energy per Si atom -12394.740146 kJ/mol
# Density = 1.516930 g / cm^3
# Si number density = 15.203903 Si / 1000 Ang^3
#
#
#
# Elastic Constant Matrix: (Units=GPa)
#
#
# Indices 1 2 3 4 5 6 
#
# 1 101.5044 44.0334 57.1729 0.0000 0.0000 0.0000
# 2 44.0334 64.1594 42.1901 0.0000 0.0000 0.0000
# 3 57.1729 42.1901 84.2867 0.0000 0.0000 0.0000
# 4 0.0000 0.0000 0.0000 -0.1495 0.0000 0.0000
# 5 0.0000 0.0000 0.0000 0.0000 15.3611 0.0000
# 6 0.0000 0.0000 0.0000 0.0000 0.0000 23.4593
#
#
#
# Elastic Compliance Matrix: (Units=1/GPa)
#
#
# Indices 1 2 3 4 5 6 
#
# 1 0.017482 -0.006261 -0.008724 0.000000 0.000000 0.000000
# 2 -0.006261 0.025476 -0.008505 0.000000 0.000000 0.000000
# 3 -0.008724 -0.008505 0.022039 0.000000 0.000000 0.000000
# 4 0.000000 0.000000 0.000000 -6.690121 0.000000 0.000000
# 5 0.000000 0.000000 0.000000 0.000000 0.065100 0.000000
# 6 0.000000 0.000000 0.000000 0.000000 0.000000 0.042627
#
#
# Mechanical properties :
#
#
# Convention : Reuss Voigt Hill
#
# Bulk Modulus (GPa) = 55.50518 59.63816 57.57167
# Shear Modulus (GPa) = -0.77347 14.83779 7.03216
#
# Velocity S-wave (km/s) = -0.71403 3.12736 2.15297
# Velocity P-wave (km/s) = 5.99222 7.23541 6.64296
#
# Compressibility (1/GPa) = 0.01801634
#
# Stress axis : x y z
#
# Youngs Moduli (GPa) = 57.20217 39.25235 45.37353
#
# Poissons Ratio (x) = 0.24577 0.39584
# Poissons Ratio (y) = 0.35815 0.38591
# Poissons Ratio (z) = 0.49904 0.33385
#
# Static dielectric constant tensor:
#      x y z
#    x 3.133660 0.000000 0.000000 
#    y 0.000000 2.807350 0.000000 
#    z 0.000000 0.000000 2.749260 
# 
# 
# High freq. dielectric constant tensor:
#      x y z
#    x 1.595200 0.000000 0.000000 
#    y 0.000000 1.553670 0.000000 
#    z 0.000000 0.000000 1.552960 
# 
# From -- ./inp_files/16161.got.cif
#   From: 2010.03.12/outbox.cif.g09.slc.cpg/sg35_9_cif.got.tgz:16161.got - 2010.04.14 02:02:04.
