data_PCOD8172346
_publ_section_title
;
Structure prediction by ZEFSAII (Michael W. Deem and Ramdas Pophale) SiO2 
 PCOD8172346
Probable space group: C M M 2
;
_chemical_formula_sum "Si O2"
_cell_formula_units_Z 40
_cell_length_a 25.797632
_cell_length_b 8.916786
_cell_length_c 9.459003
_cell_angle_alpha 90.000000
_cell_angle_beta 90.000000
_cell_angle_gamma 90.000000
_cell_volume 2175.873036
_symmetry_space_group_name_H-M "C M M 2"
_symmetry_group_IT_number 35
_symmetry_cell_setting 'orthorhombic'
loop_
_space_group_symop_operation_xyz
x,y,z
-x,-y,z
-x,y,z
x,-y,z
1/2+x,1/2+y,z
1/2-x,1/2-y,z
1/2-x,1/2+y,z
1/2+x,1/2-y,z
loop_
_atom_site_type_symbol
_atom_site_label
_atom_site_fract_x
_atom_site_fract_y
_atom_site_fract_z
Si Si1 0.395106 0.174071 0.852660
Si Si2 0.696670 0.322788 0.683187
Si Si3 0.500000 0.676216 0.864057
Si Si4 0.000000 0.670663 0.152756
Si Si5 0.387965 0.167975 0.186543
Si Si6 0.802290 0.825529 0.360196
O O1 0.348926 0.258641 0.776810
O O2 0.448673 0.247780 0.798026
O O3 0.394773 0.000000 0.811022
O O4 0.388039 0.197925 0.019583
O O5 0.700090 0.500000 0.702645
O O6 0.750000 0.250000 0.737311
O O7 0.686515 0.275753 0.520803
O O8 0.500000 0.500000 0.831535
O O9 0.500000 0.705096 0.031303
O O10 0.052713 0.690581 0.243800
O O11 0.000000 0.500000 0.085861
O O12 0.350946 0.283549 0.263987
O O13 0.368579 0.000000 0.220292
O O14 0.750000 0.750000 0.301648
O O15 0.793067 0.000000 0.348799
#
# Coordination Sequence:
#
# PCOD8172346 Si02
#       6
#     8   8   4   4   8   8
#     4  10  20  35  55  79 106 138 174 213 256 307
#     4  10  21  37  55  76 102 136 175 216 262 312
#     4  10  18  30  51  78 107 138 170 210 258 306
#     4   8  16  32  51  74 105 138 170 206 252 308
#     4   9  18  33  54  78 104 134 171 211 251 300
#     4  10  21  36  54  75 102 136 173 212 258 308
#
# _framework density 18.383424999999999
#
# number of rings (size 3 to 8) (size 9 to 14) (size 15 to 20)
#    0.000    2.400    0.000    3.900    0.000    7.200 
#    0.000    1.000    0.000    4.800    0.000    0.000 
#    0.000    0.000    0.000    0.000    0.000    0.000 
#
# Total GULP energy -247974.782205 kJ/mol
# GULP energy per Si atom -12398.739110 kJ/mol
# Density = 1.834158 g / cm^3
# Si number density = 18.383425 Si / 1000 Ang^3
#
#
#
# Elastic Constant Matrix: (Units=GPa)
#
#
# Indices 1 2 3 4 5 6 
#
# 1 168.7181 58.5120 48.4291 0.0000 0.0000 0.0000
# 2 58.5120 92.2838 27.0866 0.0000 0.0000 0.0000
# 3 48.4291 27.0866 38.3535 0.0000 0.0000 0.0000
# 4 0.0000 0.0000 0.0000 26.2931 0.0000 0.0000
# 5 0.0000 0.0000 0.0000 0.0000 25.7733 0.0000
# 6 0.0000 0.0000 0.0000 0.0000 0.0000 39.5937
#
#
#
# Elastic Compliance Matrix: (Units=1/GPa)
#
#
# Indices 1 2 3 4 5 6 
#
# 1 0.010051 -0.003340 -0.010333 0.000000 0.000000 0.000000
# 2 -0.003340 0.014780 -0.006220 0.000000 0.000000 0.000000
# 3 -0.010333 -0.006220 0.043514 0.000000 0.000000 0.000000
# 4 0.000000 0.000000 0.000000 0.038033 0.000000 0.000000
# 5 0.000000 0.000000 0.000000 0.000000 0.038800 0.000000
# 6 0.000000 0.000000 0.000000 0.000000 0.000000 0.025257
#
#
# Mechanical properties :
#
#
# Convention : Reuss Voigt Hill
#
# Bulk Modulus (GPa) = 35.01661 63.04565 49.03113
# Shear Modulus (GPa) = 22.75413 29.35387 26.05400
#
# Velocity S-wave (km/s) = 3.52199 4.00028 3.76873
# Velocity P-wave (km/s) = 5.96896 7.46362 6.75774
#
# Compressibility (1/GPa) = 0.02855787
#
# Stress axis : x y z
#
# Youngs Moduli (GPa) = 99.48833 67.66039 22.98123
#
# Poissons Ratio (x) = 0.22600 0.23747
# Poissons Ratio (y) = 0.33231 0.14295
# Poissons Ratio (z) = 1.02802 0.42087
#
# Static dielectric constant tensor:
#      x y z
#    x 3.625370 0.000000 0.000000 
#    y 0.000000 3.407370 0.000000 
#    z 0.000000 0.000000 3.076180 
# 
# 
# High freq. dielectric constant tensor:
#      x y z
#    x 1.733340 0.000000 0.000000 
#    y 0.000000 1.723200 0.000000 
#    z 0.000000 0.000000 1.673720 
# 
# From -- ./inp_files/5022.got.cif
#   From: 2010.03.12/outbox.cif.g09.slc.cpg/sg35_3_cif.got.tgz:5022.got - 2010.04.14 02:02:04.
