data_PCOD8172961
_publ_section_title
;
Structure prediction by ZEFSAII (Michael W. Deem and Ramdas Pophale) SiO2 
 PCOD8172961
Probable space group: C M M 2
;
_chemical_formula_sum "Si O2"
_cell_formula_units_Z 48
_cell_length_a 16.503748
_cell_length_b 10.056932
_cell_length_c 14.024032
_cell_angle_alpha 90.000000
_cell_angle_beta 90.000000
_cell_angle_gamma 90.000000
_cell_volume 2327.667760
_symmetry_space_group_name_H-M "C M M 2"
_symmetry_group_IT_number 35
_symmetry_cell_setting 'orthorhombic'
loop_
_space_group_symop_operation_xyz
x,y,z
-x,-y,z
-x,y,z
x,-y,z
1/2+x,1/2+y,z
1/2-x,1/2-y,z
1/2-x,1/2+y,z
1/2+x,1/2-y,z
loop_
_atom_site_type_symbol
_atom_site_label
_atom_site_fract_x
_atom_site_fract_y
_atom_site_fract_z
Si Si1 0.835625 0.000000 0.854220
Si Si2 0.903520 0.350257 0.364462
Si Si3 0.591968 0.252595 0.160377
Si Si4 0.904843 0.149023 0.522726
Si Si5 0.323394 0.500000 0.069057
Si Si6 0.368269 0.000000 0.042955
Si Si7 0.654246 0.739309 0.725271
Si Si8 0.355486 0.000000 0.828377
O O1 0.870759 0.870934 0.802377
O O2 0.739744 0.000000 0.845680
O O3 0.863749 0.000000 0.964038
O O4 0.869437 0.500000 0.381034
O O5 0.874586 0.296502 0.262196
O O6 0.867687 0.250091 0.444395
O O7 0.000000 0.354707 0.368475
O O8 0.500000 0.306313 0.168753
O O9 0.649987 0.369496 0.125415
O O10 0.592860 0.130490 0.087890
O O11 0.886880 0.207087 0.625881
O O12 0.000000 0.140086 0.507468
O O13 0.867402 0.000000 0.511259
O O14 0.227472 0.500000 0.059311
O O15 0.395340 0.000000 0.932539
O O16 0.750000 0.750000 0.709770
O O17 0.616791 0.874344 0.766420
#
# Coordination Sequence:
#
# PCOD8172961 Si02
#       8
#     4   8   8   8   4   4   8   4
#     4   9  18  37  56  77 114 158 195 225 276 353
#     4   9  19  37  60  82 110 153 194 228 282 358
#     4  11  22  39  62  89 120 156 198 246 296 351
#     4  10  21  37  59  85 113 146 188 237 288 342
#     4  11  23  37  62  91 120 156 201 245 292 349
#     4  11  21  41  62  85 120 160 203 243 290 347
#     4  10  19  36  58  81 112 150 193 232 279 339
#     4   9  20  33  58  83 106 156 199 227 272 351
#
# _framework density 20.621499
#
# number of rings (size 3 to 8) (size 9 to 14) (size 15 to 20)
#    0.000    2.000    1.667    2.000    2.333    2.667 
#    0.000    6.667    0.000    0.000    0.000    0.000 
#    0.000    0.000    0.000    0.000    0.000    0.000 
#
# Total GULP energy -297627.140859 kJ/mol
# GULP energy per Si atom -12401.130869 kJ/mol
# Density = 2.057456 g / cm^3
# Si number density = 20.621499 Si / 1000 Ang^3
#
#
#
# Elastic Constant Matrix: (Units=GPa)
#
#
# Indices 1 2 3 4 5 6 
#
# 1 26.2066 8.7594 5.3426 0.0000 0.0000 0.0000
# 2 8.7594 187.3416 93.9624 0.0000 0.0000 0.0000
# 3 5.3426 93.9624 175.4780 0.0000 0.0000 0.0000
# 4 0.0000 0.0000 0.0000 0.6588 0.0000 0.0000
# 5 0.0000 0.0000 0.0000 0.0000 33.9990 0.0000
# 6 0.0000 0.0000 0.0000 0.0000 0.0000 -34.0588
#
#
#
# Elastic Compliance Matrix: (Units=1/GPa)
#
#
# Indices 1 2 3 4 5 6 
#
# 1 0.038775 -0.001669 -0.000287 0.000000 0.000000 0.000000
# 2 -0.001669 0.007370 -0.003895 0.000000 0.000000 0.000000
# 3 -0.000287 -0.003895 0.007793 0.000000 0.000000 0.000000
# 4 0.000000 0.000000 0.000000 1.517972 0.000000 0.000000
# 5 0.000000 0.000000 0.000000 0.000000 0.029413 0.000000
# 6 0.000000 0.000000 0.000000 0.000000 0.000000 -0.029361
#
#
# Mechanical properties :
#
#
# Convention : Reuss Voigt Hill
#
# Bulk Modulus (GPa) = 23.67699 67.23941 45.45820
# Shear Modulus (GPa) = 3.12942 18.85059 10.99000
#
# Velocity S-wave (km/s) = 1.23323 3.02673 2.31105
# Velocity P-wave (km/s) = 3.67892 6.70015 5.40493
#
# Compressibility (1/GPa) = 0.04223509
#
# Stress axis : x y z
#
# Youngs Moduli (GPa) = 25.79002 135.69199 128.31558
#
# Poissons Ratio (x) = 0.22649 0.03680
# Poissons Ratio (y) = 0.04305 0.49984
# Poissons Ratio (z) = 0.00740 0.52857
#
# Static dielectric constant tensor:
#      x y z
#    x 3.225430 0.000000 0.000000 
#    y 0.000000 5.010160 0.000000 
#    z 0.000000 0.000000 3.902190 
# 
# 
# High freq. dielectric constant tensor:
#      x y z
#    x 1.767540 0.000000 0.000000 
#    y 0.000000 1.824610 0.000000 
#    z 0.000000 0.000000 1.819490 
# 
# From -- ./inp_files/17138.got.cif
#   From: 2010.03.12/outbox.cif.g09.slc.cpg/sg35_9_cif.got.tgz:17138.got - 2010.04.14 02:02:04.
