data_PCOD8172031
_publ_section_title
;
Structure prediction by ZEFSAII (Michael W. Deem and Ramdas Pophale) SiO2 
 PCOD8172031
Probable space group: P N N 2
;
_chemical_formula_sum "Si O2"
_cell_formula_units_Z 26
_cell_length_a 7.847874
_cell_length_b 14.970359
_cell_length_c 11.107007
_cell_angle_alpha 90.000000
_cell_angle_beta 90.000000
_cell_angle_gamma 90.000000
_cell_volume 1304.912173
_symmetry_space_group_name_H-M "P N N 2"
_symmetry_group_IT_number 34
_symmetry_cell_setting 'orthorhombic'
loop_
_space_group_symop_operation_xyz
x,y,z
-x,-y,z
1/2-x,1/2+y,1/2+z
1/2+x,1/2-y,1/2+z
loop_
_atom_site_type_symbol
_atom_site_label
_atom_site_fract_x
_atom_site_fract_y
_atom_site_fract_z
Si Si1 0.499998 0.855321 0.524800
Si Si2 0.849125 0.215202 0.616170
Si Si3 0.000000 0.500000 0.217902
Si Si4 0.771268 0.106280 0.842617
Si Si5 0.228734 0.106281 0.206984
Si Si6 0.500000 0.000000 0.331700
Si Si7 0.349123 0.715202 0.933431
Si Si8 0.500000 0.500000 0.524801
O O1 0.336640 0.795675 0.555779
O O2 0.553221 0.915576 0.637770
O O3 0.446774 0.915576 0.411831
O O4 0.663357 0.795676 0.493819
O O5 0.874679 0.149273 0.730203
O O6 0.857751 0.318430 0.655837
O O7 0.000002 0.192300 0.524801
O O8 0.838589 0.522112 0.299834
O O9 0.642251 0.181569 0.893764
O O10 0.894201 0.068108 0.943469
O O11 0.125322 0.149275 0.319396
O O12 0.338590 0.022113 0.249768
O O13 0.105802 0.068107 0.106132
#
# Coordination Sequence:
#
# PCOD8172031 Si02
#       8
#     4   4   2   4   4   2   4   2
#     4   9  19  40  63  93 120 154 212 257 297 360
#     4  10  22  42  67  90 122 165 208 251 305 372
#     4   9  20  39  62  86 126 157 199 262 306 350
#     4  10  24  41  58  95 124 162 209 247 311 369
#     4  10  24  41  58  95 124 162 209 247 311 369
#     4   9  20  39  62  86 126 157 199 262 306 350
#     4  10  22  42  67  90 122 165 208 251 305 372
#     4  12  26  38  60  92 132 160 204 262 296 376
#
# _framework density 19.924712
#
# number of rings (size 3 to 8) (size 9 to 14) (size 15 to 20)
#    0.000    2.154    0.000    0.923    8.615    0.000 
#    0.000    6.154    0.000    0.000    0.000    0.000 
#    0.000    0.000    0.000    0.000    0.000    0.000 
#
# Total GULP energy -322425.297530 kJ/mol
# GULP energy per Si atom -12400.972982 kJ/mol
# Density = 1.987936 g / cm^3
# Si number density = 19.924712 Si / 1000 Ang^3
#
#
#
# Elastic Constant Matrix: (Units=GPa)
#
#
# Indices 1 2 3 4 5 6 
#
# 1 108.1918 51.9120 78.3910 0.0000 0.0000 0.0000
# 2 51.9120 91.8913 51.8440 0.0000 0.0000 0.0000
# 3 78.3910 51.8440 140.9862 0.0000 0.0000 0.0000
# 4 0.0000 0.0000 0.0000 2.8924 0.0000 0.0000
# 5 0.0000 0.0000 0.0000 0.0000 49.6390 0.0000
# 6 0.0000 0.0000 0.0000 0.0000 0.0000 20.7321
#
#
#
# Elastic Compliance Matrix: (Units=1/GPa)
#
#
# Indices 1 2 3 4 5 6 
#
# 1 0.017456 -0.005533 -0.007671 0.000000 0.000000 0.000000
# 2 -0.005533 0.015485 -0.002618 0.000000 0.000000 0.000000
# 3 -0.007671 -0.002618 0.012321 0.000000 0.000000 0.000000
# 4 0.000000 0.000000 0.000000 0.345732 0.000000 0.000000
# 5 0.000000 0.000000 0.000000 0.000000 0.020145 0.000000
# 6 0.000000 0.000000 0.000000 0.000000 0.000000 0.048234
#
#
# Mechanical properties :
#
#
# Convention : Reuss Voigt Hill
#
# Bulk Modulus (GPa) = 73.43383 78.37369 75.90376
# Shear Modulus (GPa) = 10.08965 25.24752 17.66859
#
# Velocity S-wave (km/s) = 2.25275 3.56356 2.98109
# Velocity P-wave (km/s) = 6.61076 7.50682 7.07299
#
# Compressibility (1/GPa) = 0.01361770
#
# Stress axis : x y z
#
# Youngs Moduli (GPa) = 57.28689 64.57760 81.16419
#
# Poissons Ratio (x) = 0.35734 0.62262
# Poissons Ratio (y) = 0.31699 0.21245
# Poissons Ratio (z) = 0.43945 0.16904
#
# Static dielectric constant tensor:
#      x y z
#    x 3.394140 0.000000 0.000000 
#    y 0.000000 3.670800 0.000000 
#    z 0.000000 0.000000 3.889220 
# 
# 
# High freq. dielectric constant tensor:
#      x y z
#    x 1.757970 0.000000 0.000000 
#    y 0.000000 1.785760 0.000000 
#    z 0.000000 0.000000 1.794110 
# 
# From -- ./inp_files/4986.got.cif
#   From: 2010.03.12/outbox.cif.g09.slc.cpg/sg34_3_cif.got.tgz:4986.got - 2010.04.14 01:56:33.
