data_PCOD8172625
_publ_section_title
;
Structure prediction by ZEFSAII (Michael W. Deem and Ramdas Pophale) SiO2 
 PCOD8172625
Probable space group: C M M 2
;
_chemical_formula_sum "Si O2"
_cell_formula_units_Z 64
_cell_length_a 28.993573
_cell_length_b 9.280662
_cell_length_c 12.396687
_cell_angle_alpha 90.000000
_cell_angle_beta 90.000000
_cell_angle_gamma 90.000000
_cell_volume 3335.694974
_symmetry_space_group_name_H-M "C M M 2"
_symmetry_group_IT_number 35
_symmetry_cell_setting 'orthorhombic'
loop_
_space_group_symop_operation_xyz
x,y,z
-x,-y,z
-x,y,z
x,-y,z
1/2+x,1/2+y,z
1/2-x,1/2-y,z
1/2-x,1/2+y,z
1/2+x,1/2-y,z
loop_
_atom_site_type_symbol
_atom_site_label
_atom_site_fract_x
_atom_site_fract_y
_atom_site_fract_z
Si Si1 0.093220 0.839325 0.479950
Si Si2 0.887356 0.831683 0.247075
Si Si3 0.295053 0.169313 0.304751
Si Si4 0.946554 0.170346 0.041928
Si Si5 0.321410 0.165808 0.544175
Si Si6 0.106475 0.668476 0.852955
Si Si7 0.793288 0.667780 0.776521
Si Si8 0.550985 0.662032 0.690925
O O1 0.083081 0.797781 0.355841
O O2 0.129846 0.738848 0.535549
O O3 0.049398 0.826825 0.559593
O O4 0.114015 0.000000 0.479818
O O5 0.840284 0.739232 0.249933
O O6 0.920966 0.782272 0.151560
O O7 0.874206 0.000000 0.236383
O O8 0.250000 0.250000 0.257226
O O9 0.293273 0.193419 0.434083
O O10 0.293872 0.000000 0.275508
O O11 0.000000 0.221685 0.044992
O O12 0.944290 0.000000 0.024644
O O13 0.918392 0.245272 0.947299
O O14 0.296944 0.224635 0.652375
O O15 0.331969 0.000000 0.562837
O O16 0.097096 0.500000 0.868399
O O17 0.161082 0.701853 0.847044
O O18 0.085105 0.720490 0.740234
O O19 0.782220 0.500000 0.779352
O O20 0.750000 0.750000 0.830253
O O21 0.500000 0.692861 0.735343
O O22 0.566427 0.500000 0.724787
#
# Coordination Sequence:
#
# PCOD8172625 Si02
#       8
#     8   8   8   8   8   8   8   8
#     4   9  17  30  51  79 111 147 182 221 271 329
#     4   9  19  36  57  82 112 145 185 232 283 334
#     4  10  19  31  52  81 115 153 190 229 273 326
#     4  10  22  41  64  86 108 141 187 237 286 335
#     4   9  17  31  49  74 111 150 185 224 268 321
#     4  11  23  39  58  81 112 146 186 234 280 331
#     4  10  21  35  53  79 110 145 184 225 272 328
#     4  10  20  33  52  81 114 147 183 224 275 336
#
# _framework density 19.186406999999999
#
# number of rings (size 3 to 8) (size 9 to 14) (size 15 to 20)
#    0.000    2.250    1.250    1.500    0.000    5.000 
#    0.000    3.125    0.000    1.500    0.000    5.250 
#    0.000    0.000    0.000    0.000    0.000    0.000 
#
# Total GULP energy -396566.497608 kJ/mol
# GULP energy per Si atom -12392.703050 kJ/mol
# Density = 1.914274 g / cm^3
# Si number density = 19.186407 Si / 1000 Ang^3
#
#
#
# Elastic Constant Matrix: (Units=GPa)
#
#
# Indices 1 2 3 4 5 6 
#
# 1 121.7142 52.7068 59.9297 0.0000 0.0000 0.0000
# 2 52.7068 50.9232 35.7958 0.0000 0.0000 0.0000
# 3 59.9297 35.7958 104.3808 0.0000 0.0000 0.0000
# 4 0.0000 0.0000 0.0000 20.6766 0.0000 0.0000
# 5 0.0000 0.0000 0.0000 0.0000 19.9298 0.0000
# 6 0.0000 0.0000 0.0000 0.0000 0.0000 28.5738
#
#
#
# Elastic Compliance Matrix: (Units=1/GPa)
#
#
# Indices 1 2 3 4 5 6 
#
# 1 0.016514 -0.013740 -0.004770 0.000000 0.000000 0.000000
# 2 -0.013740 0.037307 -0.004905 0.000000 0.000000 0.000000
# 3 -0.004770 -0.004905 0.014001 0.000000 0.000000 0.000000
# 4 0.000000 0.000000 0.000000 0.048364 0.000000 0.000000
# 5 0.000000 0.000000 0.000000 0.000000 0.050176 0.000000
# 6 0.000000 0.000000 0.000000 0.000000 0.000000 0.034997
#
#
# Mechanical properties :
#
#
# Convention : Reuss Voigt Hill
#
# Bulk Modulus (GPa) = 47.63617 63.76475 55.70046
# Shear Modulus (GPa) = 19.59355 22.40842 21.00098
#
# Velocity S-wave (km/s) = 3.19912 3.42121 3.31203
# Velocity P-wave (km/s) = 6.20708 6.99376 6.61213
#
# Compressibility (1/GPa) = 0.02099245
#
# Stress axis : x y z
#
# Youngs Moduli (GPa) = 60.55307 26.80493 71.42390
#
# Poissons Ratio (x) = 0.36830 0.34067
# Poissons Ratio (y) = 0.83200 0.35033
# Poissons Ratio (z) = 0.28882 0.13148
#
# Static dielectric constant tensor:
#      x y z
#    x 3.484980 0.000000 0.000000 
#    y 0.000000 3.498550 0.000000 
#    z 0.000000 0.000000 3.521560 
# 
# 
# High freq. dielectric constant tensor:
#      x y z
#    x 1.741440 0.000000 0.000000 
#    y 0.000000 1.742310 0.000000 
#    z 0.000000 0.000000 1.736810 
# 
# From -- ./inp_files/14521.got.cif
#   From: 2010.03.12/outbox.cif.g09.slc.cpg/sg35_8_cif.got.tgz:14521.got - 2010.04.14 02:02:04.
