data_PCOD8172830
_publ_section_title
;
Structure prediction by ZEFSAII (Michael W. Deem and Ramdas Pophale) SiO2 
 PCOD8172830
Probable space group: C M M 2
;
_chemical_formula_sum "Si O2"
_cell_formula_units_Z 64
_cell_length_a 28.922794
_cell_length_b 9.259253
_cell_length_c 12.384586
_cell_angle_alpha 90.000000
_cell_angle_beta 90.000000
_cell_angle_gamma 90.000000
_cell_volume 3316.635070
_symmetry_space_group_name_H-M "C M M 2"
_symmetry_group_IT_number 35
_symmetry_cell_setting 'orthorhombic'
loop_
_space_group_symop_operation_xyz
x,y,z
-x,-y,z
-x,y,z
x,-y,z
1/2+x,1/2+y,z
1/2-x,1/2-y,z
1/2-x,1/2+y,z
1/2+x,1/2-y,z
loop_
_atom_site_type_symbol
_atom_site_label
_atom_site_fract_x
_atom_site_fract_y
_atom_site_fract_z
Si Si1 0.947964 0.668402 0.815960
Si Si2 0.174245 0.336176 0.510688
Si Si3 0.549738 0.666394 0.370270
Si Si4 0.069785 0.338370 0.576778
Si Si5 0.636737 0.333511 0.891151
Si Si6 0.701362 0.669830 0.084919
Si Si7 0.351080 0.330739 0.302969
Si Si8 0.207680 0.168004 0.707746
O O1 0.935572 0.500000 0.819016
O O2 0.943409 0.726821 0.693434
O O3 0.911754 0.749069 0.893718
O O4 0.000000 0.698100 0.858229
O O5 0.193360 0.500000 0.499712
O O6 0.124257 0.337383 0.563203
O O7 0.175031 0.260965 0.394006
O O8 0.205181 0.241036 0.590210
O O9 0.500000 0.694506 0.310176
O O10 0.555862 0.500000 0.398501
O O11 0.546382 0.744887 0.484530
O O12 0.594226 0.715185 0.299457
O O13 0.049834 0.500000 0.567432
O O14 0.625228 0.500000 0.912775
O O15 0.661124 0.309388 0.775858
O O16 0.670971 0.275652 0.984003
O O17 0.711333 0.500000 0.076966
O O18 0.750000 0.750000 0.086846
O O19 0.671890 0.710598 0.190309
O O20 0.345511 0.500000 0.329043
O O21 0.250000 0.250000 0.768360
O O22 0.219549 0.000000 0.695426
#
# Coordination Sequence:
#
# PCOD8172830 Si02
#       8
#     8   8   8   8   8   8   8   8
#     4  10  20  34  54  81 114 152 190 227 274 329
#     4  10  19  33  54  80 112 148 185 223 273 331
#     4   9  17  29  48  76 108 144 184 222 266 322
#     4   9  17  30  49  74 108 148 185 222 264 316
#     4  10  22  39  58  82 112 144 185 235 282 331
#     4  10  22  41  63  85 107 140 186 237 288 337
#     4   9  19  36  56  79 112 145 181 230 281 332
#     4  11  22  35  54  80 111 145 182 226 280 340
#
# _framework density 19.296665999999998
#
# number of rings (size 3 to 8) (size 9 to 14) (size 15 to 20)
#    0.000    2.250    1.250    1.500    0.000    4.000 
#    0.000    1.875    0.000    2.250    0.000    0.000 
#    0.000    0.000    0.000    0.000    0.000    0.000 
#
# Total GULP energy -396708.371872 kJ/mol
# GULP energy per Si atom -12397.136621 kJ/mol
# Density = 1.925275 g / cm^3
# Si number density = 19.296666 Si / 1000 Ang^3
#
#
#
# Elastic Constant Matrix: (Units=GPa)
#
#
# Indices 1 2 3 4 5 6 
#
# 1 131.3322 52.7366 56.5639 0.0000 0.0000 0.0000
# 2 52.7366 79.4902 45.6367 0.0000 0.0000 0.0000
# 3 56.5639 45.6367 101.0206 0.0000 0.0000 0.0000
# 4 0.0000 0.0000 0.0000 22.7055 0.0000 0.0000
# 5 0.0000 0.0000 0.0000 0.0000 21.7411 0.0000
# 6 0.0000 0.0000 0.0000 0.0000 0.0000 28.9102
#
#
#
# Elastic Compliance Matrix: (Units=1/GPa)
#
#
# Indices 1 2 3 4 5 6 
#
# 1 0.011480 -0.005301 -0.004033 0.000000 0.000000 0.000000
# 2 -0.005301 0.019433 -0.005811 0.000000 0.000000 0.000000
# 3 -0.004033 -0.005811 0.014782 0.000000 0.000000 0.000000
# 4 0.000000 0.000000 0.000000 0.044042 0.000000 0.000000
# 5 0.000000 0.000000 0.000000 0.000000 0.045996 0.000000
# 6 0.000000 0.000000 0.000000 0.000000 0.000000 0.034590
#
#
# Mechanical properties :
#
#
# Convention : Reuss Voigt Hill
#
# Bulk Modulus (GPa) = 64.91184 69.07970 66.99577
# Shear Modulus (GPa) = 24.30156 25.13175 24.71665
#
# Velocity S-wave (km/s) = 3.55260 3.61278 3.58282
# Velocity P-wave (km/s) = 7.10914 7.29927 7.20483
#
# Compressibility (1/GPa) = 0.01540551
#
# Stress axis : x y z
#
# Youngs Moduli (GPa) = 87.10927 51.45897 67.64759
#
# Poissons Ratio (x) = 0.27276 0.27284
# Poissons Ratio (y) = 0.46173 0.39310
# Poissons Ratio (z) = 0.35134 0.29903
#
# Static dielectric constant tensor:
#      x y z
#    x 3.720070 0.000000 0.000000 
#    y 0.000000 3.516600 0.000000 
#    z 0.000000 0.000000 3.317330 
# 
# 
# High freq. dielectric constant tensor:
#      x y z
#    x 1.765500 0.000000 0.000000 
#    y 0.000000 1.745580 0.000000 
#    z 0.000000 0.000000 1.724800 
# 
# From -- ./inp_files/11923.got.cif
#   From: 2010.03.12/outbox.cif.g09.slc.cpg/sg35_6_cif.got.tgz:11923.got - 2010.04.14 02:02:04.
