data_PCOD8172461
_publ_section_title
;
Structure prediction by ZEFSAII (Michael W. Deem and Ramdas Pophale) SiO2 
 PCOD8172461
Probable space group: C M M 2
;
_chemical_formula_sum "Si O2"
_cell_formula_units_Z 48
_cell_length_a 16.717755
_cell_length_b 10.104674
_cell_length_c 13.916409
_cell_angle_alpha 90.000000
_cell_angle_beta 90.000000
_cell_angle_gamma 90.000000
_cell_volume 2350.863684
_symmetry_space_group_name_H-M "C M M 2"
_symmetry_group_IT_number 35
_symmetry_cell_setting 'orthorhombic'
loop_
_space_group_symop_operation_xyz
x,y,z
-x,-y,z
-x,y,z
x,-y,z
1/2+x,1/2+y,z
1/2-x,1/2-y,z
1/2-x,1/2+y,z
1/2+x,1/2-y,z
loop_
_atom_site_type_symbol
_atom_site_label
_atom_site_fract_x
_atom_site_fract_y
_atom_site_fract_z
Si Si1 0.356390 0.500000 0.226560
Si Si2 0.905068 0.500000 0.055755
Si Si3 0.594622 0.230115 0.917742
Si Si4 0.095152 0.852225 0.551912
Si Si5 0.404576 0.149391 0.710203
Si Si6 0.905307 0.000000 0.011731
Si Si7 0.671503 0.000000 0.263252
Si Si8 0.091997 0.243995 0.344698
O O1 0.359097 0.500000 0.111819
O O2 0.266212 0.500000 0.261793
O O3 0.400754 0.369479 0.264578
O O4 0.863735 0.500000 0.157528
O O5 0.000000 0.500000 0.071331
O O6 0.874721 0.372379 0.997534
O O7 0.500000 0.219792 0.911143
O O8 0.630407 0.194738 0.813358
O O9 0.622509 0.375113 0.949083
O O10 0.130156 0.748728 0.629572
O O11 0.123977 0.810539 0.446190
O O12 0.000000 0.852381 0.555563
O O13 0.127352 0.000000 0.574989
O O14 0.500000 0.155574 0.711302
O O15 0.375935 0.000000 0.687303
O O16 0.000000 0.000000 0.031797
O O17 0.644502 0.129805 0.319333
O O18 0.000000 0.288999 0.350876
#
# Coordination Sequence:
#
# PCOD8172461 Si02
#       8
#     4   4   8   8   8   4   4   8
#     4  12  24  42  59  84 120 158 201 246 303 352
#     4  10  18  34  53  76 112 150 187 232 287 344
#     4   9  17  29  48  77 112 146 183 229 287 344
#     4   9  18  31  51  80 112 148 187 233 290 348
#     4   9  16  27  46  77 117 147 175 231 297 343
#     4  10  20  32  53  80 108 152 199 236 279 348
#     4  12  26  38  59  90 118 152 203 252 299 348
#     4  11  22  40  62  86 119 158 198 244 296 355
#
# _framework density 20.418028
#
# number of rings (size 3 to 8) (size 9 to 14) (size 15 to 20)
#    0.000    2.000    1.667    3.000    2.333    1.333 
#    0.000    0.000    0.000    0.000    0.000    7.000 
#    0.000    0.000    0.000    0.000    0.000    0.000 
#
# Total GULP energy -297645.518970 kJ/mol
# GULP energy per Si atom -12401.896624 kJ/mol
# Density = 2.037156 g / cm^3
# Si number density = 20.418028 Si / 1000 Ang^3
#
#
#
# Elastic Constant Matrix: (Units=GPa)
#
#
# Indices 1 2 3 4 5 6 
#
# 1 37.8187 13.8925 9.0332 0.0000 0.0000 0.0000
# 2 13.8925 193.4645 82.0985 0.0000 0.0000 0.0000
# 3 9.0332 82.0985 146.9021 0.0000 0.0000 0.0000
# 4 0.0000 0.0000 0.0000 44.6493 0.0000 0.0000
# 5 0.0000 0.0000 0.0000 0.0000 1.3173 0.0000
# 6 0.0000 0.0000 0.0000 0.0000 0.0000 10.6190
#
#
#
# Elastic Compliance Matrix: (Units=1/GPa)
#
#
# Indices 1 2 3 4 5 6 
#
# 1 0.027223 -0.001631 -0.000762 0.000000 0.000000 0.000000
# 2 -0.001631 0.006874 -0.003741 0.000000 0.000000 0.000000
# 3 -0.000762 -0.003741 0.008945 0.000000 0.000000 0.000000
# 4 0.000000 0.000000 0.000000 0.022397 0.000000 0.000000
# 5 0.000000 0.000000 0.000000 0.000000 0.759153 0.000000
# 6 0.000000 0.000000 0.000000 0.000000 0.000000 0.094171
#
#
# Mechanical properties :
#
#
# Convention : Reuss Voigt Hill
#
# Bulk Modulus (GPa) = 32.49681 65.35931 48.92806
# Shear Modulus (GPa) = 5.31186 29.52786 17.41986
#
# Velocity S-wave (km/s) = 1.61468 3.80697 2.92406
# Velocity P-wave (km/s) = 4.40756 7.16967 5.95108
#
# Compressibility (1/GPa) = 0.03077225
#
# Stress axis : x y z
#
# Youngs Moduli (GPa) = 36.73328 145.48341 111.79546
#
# Poissons Ratio (x) = 0.23734 0.08522
# Poissons Ratio (y) = 0.05993 0.41824
# Poissons Ratio (z) = 0.02800 0.54427
#
# Static dielectric constant tensor:
#      x y z
#    x 3.115460 0.000000 0.000000 
#    y 0.000000 4.013690 0.000000 
#    z 0.000000 0.000000 3.873930 
# 
# 
# High freq. dielectric constant tensor:
#      x y z
#    x 1.740410 0.000000 0.000000 
#    y 0.000000 1.816740 0.000000 
#    z 0.000000 0.000000 1.810490 
# 
# From -- ./inp_files/17161.got.cif
#   From: 2010.03.12/outbox.cif.g09.slc.cpg/sg35_9_cif.got.tgz:17161.got - 2010.04.14 02:02:04.
