data_PCOD8172596
_publ_section_title
;
Structure prediction by ZEFSAII (Michael W. Deem and Ramdas Pophale) SiO2 
 PCOD8172596
Probable space group: C M M 2
;
_chemical_formula_sum "Si O2"
_cell_formula_units_Z 48
_cell_length_a 8.945047
_cell_length_b 18.947332
_cell_length_c 15.595443
_cell_angle_alpha 90.000000
_cell_angle_beta 90.000000
_cell_angle_gamma 90.000000
_cell_volume 2643.190152
_symmetry_space_group_name_H-M "C M M 2"
_symmetry_group_IT_number 35
_symmetry_cell_setting 'orthorhombic'
loop_
_space_group_symop_operation_xyz
x,y,z
-x,-y,z
-x,y,z
x,-y,z
1/2+x,1/2+y,z
1/2-x,1/2-y,z
1/2-x,1/2+y,z
1/2+x,1/2-y,z
loop_
_atom_site_type_symbol
_atom_site_label
_atom_site_fract_x
_atom_site_fract_y
_atom_site_fract_z
Si Si1 0.826112 0.325752 0.026690
Si Si2 0.172334 0.916729 0.169159
Si Si3 0.668557 0.083944 0.339733
Si Si4 0.673779 0.174790 0.836909
Si Si5 0.174781 0.919062 0.510345
Si Si6 0.822756 0.826635 0.671758
O O1 0.750000 0.250000 0.037499
O O2 0.756809 0.381935 0.090403
O O3 0.000000 0.315467 0.046905
O O4 0.803400 0.359166 0.931054
O O5 0.240149 0.887422 0.258062
O O6 0.000000 0.895177 0.166363
O O7 0.195784 0.000000 0.161408
O O8 0.500000 0.112439 0.333535
O O9 0.741891 0.112461 0.427218
O O10 0.674429 0.000000 0.340326
O O11 0.500000 0.182203 0.813935
O O12 0.750000 0.250000 0.841992
O O13 0.757507 0.135164 0.758173
O O14 0.226175 0.874547 0.592181
O O15 0.000000 0.911991 0.492475
O O16 0.220249 0.000000 0.527353
O O17 0.750000 0.750000 0.659468
O O18 0.000000 0.819925 0.679140
#
# Coordination Sequence:
#
# PCOD8172596 Si02
#       6
#     8   8   8   8   8   8
#     4  10  20  34  53  76 102 132 167 208 251 297
#     4  10  20  34  53  76 102 133 168 206 248 296
#     4   9  17  30  50  74  98 127 163 202 245 294
#     4   9  17  30  49  71  96 128 164 200 239 288
#     4   9  18  33  51  71  96 127 163 201 242 289
#     4  10  19  31  50  73  98 128 161 200 242 287
#
# _framework density 18.159873999999999
#
# number of rings (size 3 to 8) (size 9 to 14) (size 15 to 20)
#    0.000    2.500    0.000    3.500    0.000    6.333 
#    0.000    1.667    0.000    5.000    0.000    0.000 
#    0.000    0.000    0.000    0.000    0.000    0.000 
#
# Total GULP energy -297498.339934 kJ/mol
# GULP energy per Si atom -12395.764164 kJ/mol
# Density = 1.811854 g / cm^3
# Si number density = 18.159874 Si / 1000 Ang^3
#
#
#
# Elastic Constant Matrix: (Units=GPa)
#
#
# Indices 1 2 3 4 5 6 
#
# 1 129.7596 34.7529 91.1104 0.0000 0.0000 0.0000
# 2 34.7529 35.5808 47.0900 0.0000 0.0000 0.0000
# 3 91.1104 47.0900 191.0963 0.0000 0.0000 0.0000
# 4 0.0000 0.0000 0.0000 148.5874 0.0000 0.0000
# 5 0.0000 0.0000 0.0000 0.0000 39.6915 0.0000
# 6 0.0000 0.0000 0.0000 0.0000 0.0000 22.9569
#
#
#
# Elastic Compliance Matrix: (Units=1/GPa)
#
#
# Indices 1 2 3 4 5 6 
#
# 1 0.012499 -0.006412 -0.004379 0.000000 0.000000 0.000000
# 2 -0.006412 0.044997 -0.008031 0.000000 0.000000 0.000000
# 3 -0.004379 -0.008031 0.009300 0.000000 0.000000 0.000000
# 4 0.000000 0.000000 0.000000 0.006730 0.000000 0.000000
# 5 0.000000 0.000000 0.000000 0.000000 0.025194 0.000000
# 6 0.000000 0.000000 0.000000 0.000000 0.000000 0.043560
#
#
# Mechanical properties :
#
#
# Convention : Reuss Voigt Hill
#
# Bulk Modulus (GPa) = 34.30447 78.03816 56.17131
# Shear Modulus (GPa) = 26.36568 54.47939 40.42254
#
# Velocity S-wave (km/s) = 3.81447 5.48316 4.72309
# Velocity P-wave (km/s) = 6.19124 9.11882 7.79372
#
# Compressibility (1/GPa) = 0.02915072
#
# Stress axis : x y z
#
# Youngs Moduli (GPa) = 80.00889 22.22383 107.53080
#
# Poissons Ratio (x) = 0.14251 0.47087
# Poissons Ratio (y) = 0.51306 0.86355
# Poissons Ratio (z) = 0.35035 0.17847
#
# Static dielectric constant tensor:
#      x y z
#    x 3.508680 0.000000 0.000000 
#    y 0.000000 2.653620 0.000000 
#    z 0.000000 0.000000 4.008800 
# 
# 
# High freq. dielectric constant tensor:
#      x y z
#    x 1.720120 0.000000 0.000000 
#    y 0.000000 1.652210 0.000000 
#    z 0.000000 0.000000 1.727400 
# 
# From -- ./inp_files/11373.got.cif
#   From: 2010.03.12/outbox.cif.g09.slc.cpg/sg35_6_cif.got.tgz:11373.got - 2010.04.14 02:02:04.
