data_PCOD8172528
_publ_section_title
;
Structure prediction by ZEFSAII (Michael W. Deem and Ramdas Pophale) SiO2 
 PCOD8172528
Probable space group: C M M 2
;
_chemical_formula_sum "Si O2"
_cell_formula_units_Z 40
_cell_length_a 15.106757
_cell_length_b 16.927928
_cell_length_c 9.310387
_cell_angle_alpha 90.000000
_cell_angle_beta 90.000000
_cell_angle_gamma 90.000000
_cell_volume 2380.908909
_symmetry_space_group_name_H-M "C M M 2"
_symmetry_group_IT_number 35
_symmetry_cell_setting 'orthorhombic'
loop_
_space_group_symop_operation_xyz
x,y,z
-x,-y,z
-x,y,z
x,-y,z
1/2+x,1/2+y,z
1/2-x,1/2-y,z
1/2-x,1/2+y,z
1/2+x,1/2-y,z
loop_
_atom_site_type_symbol
_atom_site_label
_atom_site_fract_x
_atom_site_fract_y
_atom_site_fract_z
Si Si1 0.098927 0.215386 0.738690
Si Si2 0.244162 0.911945 0.714723
Si Si3 0.601303 0.865728 0.914082
Si Si4 0.896593 0.412418 0.229368
Si Si5 0.820254 0.311327 0.479036
O O1 0.167311 0.145522 0.772750
O O2 0.106091 0.273222 0.875205
O O3 0.119495 0.264737 0.594161
O O4 0.000000 0.180406 0.724415
O O5 0.331080 0.913691 0.814426
O O6 0.270382 0.883422 0.556372
O O7 0.205338 0.000000 0.705007
O O8 0.500000 0.896884 0.890921
O O9 0.634210 0.877733 0.076621
O O10 0.853901 0.500000 0.254804
O O11 0.874906 0.348683 0.350555
O O12 0.000000 0.423083 0.229055
O O13 0.750000 0.250000 0.412535
#
# Coordination Sequence:
#
# PCOD8172528 Si02
#       5
#     8   8   8   8   8
#     4   9  18  33  50  67  90 122 158 191 225 269
#     4  10  19  31  48  70  94 120 153 192 231 269
#     4   9  18  32  48  67  94 124 152 184 226 277
#     4  10  19  30  46  70  96 119 147 185 228 272
#     4   9  18  31  47  67  92 122 153 185 224 272
#
# _framework density 16.800305999999999
#
# number of rings (size 3 to 8) (size 9 to 14) (size 15 to 20)
#    0.000    2.600    0.000    3.600    0.000    4.000 
#    0.000    0.000    0.000    0.000    0.000    0.000 
#    0.000    9.600    0.000    0.000    0.000    0.000 
#
# Total GULP energy -247887.410328 kJ/mol
# GULP energy per Si atom -12394.370516 kJ/mol
# Density = 1.676207 g / cm^3
# Si number density = 16.800306 Si / 1000 Ang^3
#
#
#
# Elastic Constant Matrix: (Units=GPa)
#
#
# Indices 1 2 3 4 5 6 
#
# 1 67.2527 39.1773 18.1109 0.0000 0.0000 0.0000
# 2 39.1773 113.5139 45.6702 0.0000 0.0000 0.0000
# 3 18.1109 45.6702 82.3438 0.0000 0.0000 0.0000
# 4 0.0000 0.0000 0.0000 -4.9544 0.0000 0.0000
# 5 0.0000 0.0000 0.0000 0.0000 23.6306 0.0000
# 6 0.0000 0.0000 0.0000 0.0000 0.0000 19.2522
#
#
#
# Elastic Compliance Matrix: (Units=1/GPa)
#
#
# Indices 1 2 3 4 5 6 
#
# 1 0.018641 -0.006158 -0.000684 0.000000 0.000000 0.000000
# 2 -0.006158 0.013374 -0.006063 0.000000 0.000000 0.000000
# 3 -0.000684 -0.006063 0.015658 0.000000 0.000000 0.000000
# 4 0.000000 0.000000 0.000000 -0.201841 0.000000 0.000000
# 5 0.000000 0.000000 0.000000 0.000000 0.042318 0.000000
# 6 0.000000 0.000000 0.000000 0.000000 0.000000 0.051942
#
#
# Mechanical properties :
#
#
# Convention : Reuss Voigt Hill
#
# Bulk Modulus (GPa) = 45.74355 52.11414 48.92885
# Shear Modulus (GPa) = -186.50315 18.26249 -84.12033
#
# Velocity S-wave (km/s) = -10.54764 3.30060 -7.08374
# Velocity P-wave (km/s) = 11.00228 6.75369 6.14157
#
# Compressibility (1/GPa) = 0.02186101
#
# Stress axis : x y z
#
# Youngs Moduli (GPa) = 53.64513 74.76979 63.86655
#
# Poissons Ratio (x) = 0.46045 0.04371
# Poissons Ratio (y) = 0.33036 0.38725
# Poissons Ratio (z) = 0.03672 0.45336
#
# Static dielectric constant tensor:
#      x y z
#    x 3.130350 0.000000 0.000000 
#    y 0.000000 3.240380 0.000000 
#    z 0.000000 0.000000 3.069640 
# 
# 
# High freq. dielectric constant tensor:
#      x y z
#    x 1.638420 0.000000 0.000000 
#    y 0.000000 1.647160 0.000000 
#    z 0.000000 0.000000 1.636810 
# 
# From -- ./inp_files/6975.got.cif
#   From: 2010.03.12/outbox.cif.g09.slc.cpg/sg35_4_cif.got.tgz:6975.got - 2010.04.14 02:02:04.
