data_PCOD8172994
_publ_section_title
;
Structure prediction by ZEFSAII (Michael W. Deem and Ramdas Pophale) SiO2 
 PCOD8172994
Probable space group: C M M 2
;
_chemical_formula_sum "Si O2"
_cell_formula_units_Z 64
_cell_length_a 8.885869
_cell_length_b 29.755698
_cell_length_c 15.291277
_cell_angle_alpha 90.000000
_cell_angle_beta 90.000000
_cell_angle_gamma 90.000000
_cell_volume 4043.093680
_symmetry_space_group_name_H-M "C M M 2"
_symmetry_group_IT_number 35
_symmetry_cell_setting 'orthorhombic'
loop_
_space_group_symop_operation_xyz
x,y,z
-x,-y,z
-x,y,z
x,-y,z
1/2+x,1/2+y,z
1/2-x,1/2-y,z
1/2-x,1/2+y,z
1/2+x,1/2-y,z
loop_
_atom_site_type_symbol
_atom_site_label
_atom_site_fract_x
_atom_site_fract_y
_atom_site_fract_z
Si Si1 0.330050 0.553532 0.501360
Si Si2 0.678342 0.886294 0.993078
Si Si3 0.668249 0.706179 0.983977
Si Si4 0.173351 0.946884 0.851427
Si Si5 0.328361 0.053260 0.325723
Si Si6 0.664626 0.292509 0.191313
Si Si7 0.169567 0.553415 0.674667
Si Si8 0.320337 0.609674 0.178875
O O1 0.500000 0.572212 0.498270
O O2 0.330908 0.500000 0.503558
O O3 0.240757 0.571034 0.416534
O O4 0.247506 0.572788 0.587270
O O5 0.500000 0.883811 0.001578
O O6 0.739065 0.838326 0.959424
O O7 0.725267 0.924360 0.925119
O O8 0.747540 0.900842 0.085604
O O9 0.500000 0.702432 0.944655
O O10 0.750000 0.750000 0.943314
O O11 0.658595 0.711831 0.087442
O O12 0.233529 0.930452 0.757412
O O13 0.000000 0.932163 0.860920
O O14 0.192028 0.000000 0.861664
O O15 0.500000 0.069912 0.318846
O O16 0.230836 0.072102 0.246276
O O17 0.318027 0.000000 0.320307
O O18 0.500000 0.290126 0.232810
O O19 0.750000 0.250000 0.233087
O O20 0.736325 0.341257 0.213505
O O21 0.165992 0.500000 0.670034
O O22 0.000000 0.572485 0.681609
O O23 0.500000 0.609664 0.167344
#
# Coordination Sequence:
#
# PCOD8172994 Si02
#       8
#     8   8   8   8   8   8   8   8
#     4   9  16  27  44  64  85 111 142 177 220 266
#     4  11  21  32  46  64  88 119 153 188 225 264
#     4   9  16  28  45  65  87 111 142 180 223 267
#     4  10  20  33  47  63  86 118 154 189 224 264
#     4  10  20  32  45  63  87 116 151 188 223 260
#     4   8  15  26  42  62  82 105 135 173 216 260
#     4   9  16  27  44  65  87 110 139 179 224 266
#     4  10  20  33  46  62  86 117 152 186 220 262
#
# _framework density 15.829463000000001
#
# number of rings (size 3 to 8) (size 9 to 14) (size 15 to 20)
#    0.000    2.500    0.000    4.125    0.000    8.500 
#    0.000    0.000    0.000    0.000    0.000    0.000 
#    0.000    1.000    0.000    8.500    0.000    6.250 
#
# Total GULP energy -396722.605355 kJ/mol
# GULP energy per Si atom -12397.581417 kJ/mol
# Density = 1.579343 g / cm^3
# Si number density = 15.829463 Si / 1000 Ang^3
#
#
#
# Elastic Constant Matrix: (Units=GPa)
#
#
# Indices 1 2 3 4 5 6 
#
# 1 121.4394 31.9464 45.0460 0.0000 0.0000 0.0000
# 2 31.9464 38.8473 32.6697 0.0000 0.0000 0.0000
# 3 45.0460 32.6697 89.0675 0.0000 0.0000 0.0000
# 4 0.0000 0.0000 0.0000 -0.0444 0.0000 0.0000
# 5 0.0000 0.0000 0.0000 0.0000 26.6162 0.0000
# 6 0.0000 0.0000 0.0000 0.0000 0.0000 23.6302
#
#
#
# Elastic Compliance Matrix: (Units=1/GPa)
#
#
# Indices 1 2 3 4 5 6 
#
# 1 0.011136 -0.006393 -0.003287 0.000000 0.000000 0.000000
# 2 -0.006393 0.040895 -0.011767 0.000000 0.000000 0.000000
# 3 -0.003287 -0.011767 0.017206 0.000000 0.000000 0.000000
# 4 0.000000 0.000000 0.000000-22.539598 0.000000 0.000000
# 5 0.000000 0.000000 0.000000 0.000000 0.037571 0.000000
# 6 0.000000 0.000000 0.000000 0.000000 0.000000 0.042319
#
#
# Mechanical properties :
#
#
# Convention : Reuss Voigt Hill
#
# Bulk Modulus (GPa) = 37.96132 52.07537 45.01835
# Shear Modulus (GPa) = -0.22383 19.35323 9.56470
#
# Velocity S-wave (km/s) = -0.37644 3.50037 2.46078
# Velocity P-wave (km/s) = 4.88309 7.02182 6.04775
#
# Compressibility (1/GPa) = 0.02634260
#
# Stress axis : x y z
#
# Youngs Moduli (GPa) = 89.80218 24.45292 58.12016
#
# Poissons Ratio (x) = 0.15634 0.19103
# Poissons Ratio (y) = 0.57413 0.68388
# Poissons Ratio (z) = 0.29516 0.28773
#
# Static dielectric constant tensor:
#      x y z
#    x 3.279610 0.000000 0.000000 
#    y 0.000000 2.871330 0.000000 
#    z 0.000000 0.000000 2.846030 
# 
# 
# High freq. dielectric constant tensor:
#      x y z
#    x 1.628980 0.000000 0.000000 
#    y 0.000000 1.575160 0.000000 
#    z 0.000000 0.000000 1.580030 
# 
# From -- ./inp_files/16260.got.cif
#   From: 2010.03.12/outbox.cif.g09.slc.cpg/sg35_9_cif.got.tgz:16260.got - 2010.04.14 02:02:04.
