data_PCOD8172245
_publ_section_title
;
Structure prediction by ZEFSAII (Michael W. Deem and Ramdas Pophale) SiO2 
 PCOD8172245
Probable space group: C M M 2
;
_chemical_formula_sum "Si O2"
_cell_formula_units_Z 64
_cell_length_a 14.203924
_cell_length_b 17.143473
_cell_length_c 15.688314
_cell_angle_alpha 90.000000
_cell_angle_beta 90.000000
_cell_angle_gamma 90.000000
_cell_volume 3820.176431
_symmetry_space_group_name_H-M "C M M 2"
_symmetry_group_IT_number 35
_symmetry_cell_setting 'orthorhombic'
loop_
_space_group_symop_operation_xyz
x,y,z
-x,-y,z
-x,y,z
x,-y,z
1/2+x,1/2+y,z
1/2-x,1/2-y,z
1/2-x,1/2+y,z
1/2+x,1/2-y,z
loop_
_atom_site_type_symbol
_atom_site_label
_atom_site_fract_x
_atom_site_fract_y
_atom_site_fract_z
Si Si1 0.893582 0.815640 0.016220
Si Si2 0.605329 0.906717 0.785550
Si Si3 0.264185 0.911568 0.937667
Si Si4 0.397464 0.589402 0.186327
Si Si5 0.889512 0.643623 0.079803
Si Si6 0.111879 0.585582 0.602334
Si Si7 0.394415 0.906760 0.420640
Si Si8 0.799114 0.591426 0.250902
O O1 0.879522 0.863164 0.101818
O O2 0.867005 0.727497 0.039068
O O3 0.000000 0.821746 0.981153
O O4 0.823840 0.852886 0.946670
O O5 0.500000 0.876335 0.808060
O O6 0.676709 0.877871 0.857820
O O7 0.638274 0.872434 0.692348
O O8 0.603354 0.000000 0.780853
O O9 0.228629 0.000000 0.921005
O O10 0.331327 0.915866 0.020947
O O11 0.500000 0.610500 0.227111
O O12 0.394816 0.500000 0.157943
O O13 0.313096 0.607416 0.251397
O O14 0.852227 0.638675 0.176536
O O15 0.000000 0.623594 0.078554
O O16 0.158607 0.500000 0.604193
O O17 0.143154 0.626999 0.512749
O O18 0.000000 0.577085 0.598572
O O19 0.500000 0.877464 0.402777
O O20 0.331828 0.875981 0.342373
O O21 0.391563 0.000000 0.425814
O O22 0.823299 0.500000 0.239610
#
# Coordination Sequence:
#
# PCOD8172245 Si02
#       8
#     8   8   8   8   8   8   8   8
#     4  10  21  35  47  59  82 117 159 195 220 253
#     4   8  14  24  39  62  91 118 143 173 219 277
#     4  11  20  30  46  67  89 116 149 187 226 263
#     4   9  17  30  46  61  79 109 153 197 226 251
#     4  11  22  32  43  62  93 123 146 176 222 275
#     4   7  10  19  35  55  84 120 146 169 208 262
#     4   8  13  21  35  58  89 120 148 175 210 266
#     4  10  18  27  42  65  90 121 152 183 224 267
#
# _framework density 16.753153000000001
#
# number of rings (size 3 to 8) (size 9 to 14) (size 15 to 20)
#    0.000    2.750    1.250    3.375    0.000    2.750 
#    0.000    0.000    0.000    0.000    0.000    0.875 
#    7.500    5.000    3.000    0.000    0.750    0.000 
#
# Total GULP energy -396436.965569 kJ/mol
# GULP energy per Si atom -12388.655174 kJ/mol
# Density = 1.671502 g / cm^3
# Si number density = 16.753153 Si / 1000 Ang^3
#
#
#
# Elastic Constant Matrix: (Units=GPa)
#
#
# Indices 1 2 3 4 5 6 
#
# 1 92.3068 25.8424 54.4777 0.0000 0.0000 0.0000
# 2 25.8424 33.1798 19.5456 0.0000 0.0000 0.0000
# 3 54.4777 19.5456 133.3419 0.0000 0.0000 0.0000
# 4 0.0000 0.0000 0.0000 1.6486 0.0000 0.0000
# 5 0.0000 0.0000 0.0000 0.0000 18.4728 0.0000
# 6 0.0000 0.0000 0.0000 0.0000 0.0000 17.5721
#
#
#
# Elastic Compliance Matrix: (Units=1/GPa)
#
#
# Indices 1 2 3 4 5 6 
#
# 1 0.016798 -0.009895 -0.005413 0.000000 0.000000 0.000000
# 2 -0.009895 0.038816 -0.001647 0.000000 0.000000 0.000000
# 3 -0.005413 -0.001647 0.009952 0.000000 0.000000 0.000000
# 4 0.000000 0.000000 0.000000 0.606589 0.000000 0.000000
# 5 0.000000 0.000000 0.000000 0.000000 0.054134 0.000000
# 6 0.000000 0.000000 0.000000 0.000000 0.000000 0.056908
#
#
# Mechanical properties :
#
#
# Convention : Reuss Voigt Hill
#
# Bulk Modulus (GPa) = 31.58851 50.95111 41.26981
# Shear Modulus (GPa) = 6.04114 18.13622 12.08868
#
# Velocity S-wave (km/s) = 1.90100 3.29379 2.68913
# Velocity P-wave (km/s) = 4.86976 6.70405 5.85913
#
# Compressibility (1/GPa) = 0.03165708
#
# Stress axis : x y z
#
# Youngs Moduli (GPa) = 59.53097 25.76270 100.47964
#
# Poissons Ratio (x) = 0.25492 0.54385
# Poissons Ratio (y) = 0.58905 0.16550
# Poissons Ratio (z) = 0.32221 0.04243
#
# Static dielectric constant tensor:
#      x y z
#    x 3.240810 0.000000 0.000000 
#    y 0.000000 2.869010 0.000000 
#    z 0.000000 0.000000 3.467200 
# 
# 
# High freq. dielectric constant tensor:
#      x y z
#    x 1.635610 0.000000 0.000000 
#    y 0.000000 1.602330 0.000000 
#    z 0.000000 0.000000 1.639210 
# 
# From -- ./inp_files/16889.got.cif
#   From: 2010.03.12/outbox.cif.g09.slc.cpg/sg35_9_cif.got.tgz:16889.got - 2010.04.14 02:02:04.
