data_PCOD8172187
_publ_section_title
;
Structure prediction by ZEFSAII (Michael W. Deem and Ramdas Pophale) SiO2 
 PCOD8172187
Probable space group: C M M 2
;
_chemical_formula_sum "Si O2"
_cell_formula_units_Z 56
_cell_length_a 8.817379
_cell_length_b 18.231696
_cell_length_c 18.155836
_cell_angle_alpha 90.000000
_cell_angle_beta 90.000000
_cell_angle_gamma 90.000000
_cell_volume 2918.655459
_symmetry_space_group_name_H-M "C M M 2"
_symmetry_group_IT_number 35
_symmetry_cell_setting 'orthorhombic'
loop_
_space_group_symop_operation_xyz
x,y,z
-x,-y,z
-x,y,z
x,-y,z
1/2+x,1/2+y,z
1/2-x,1/2-y,z
1/2-x,1/2+y,z
1/2+x,1/2-y,z
loop_
_atom_site_type_symbol
_atom_site_label
_atom_site_fract_x
_atom_site_fract_y
_atom_site_fract_z
Si Si1 0.819860 0.831258 0.314510
Si Si2 0.824253 0.328776 0.172609
Si Si3 0.821086 0.083680 0.880757
Si Si4 0.675659 0.829309 0.009785
Si Si5 0.822152 0.671107 0.461131
Si Si6 0.321623 0.670742 0.738389
Si Si7 0.825325 0.414807 0.608123
O O1 0.750000 0.750000 0.312342
O O2 0.760248 0.872204 0.239733
O O3 0.754486 0.867274 0.389254
O O4 0.000000 0.830817 0.316221
O O5 0.750000 0.250000 0.165547
O O6 0.000000 0.321371 0.193261
O O7 0.801469 0.364312 0.091793
O O8 0.746044 0.112142 0.955012
O O9 0.760769 0.130745 0.811723
O O10 0.000000 0.090723 0.889023
O O11 0.771143 0.000000 0.867726
O O12 0.500000 0.818494 0.991912
O O13 0.750000 0.750000 0.999656
O O14 0.750000 0.750000 0.478310
O O15 0.787047 0.617969 0.528614
O O16 0.000000 0.681500 0.446887
O O17 0.500000 0.679939 0.741339
O O18 0.250000 0.750000 0.731755
O O19 0.280103 0.622801 0.668013
O O20 0.785603 0.500000 0.605752
O O21 0.000000 0.400506 0.628977
#
# Coordination Sequence:
#
# PCOD8172187 Si02
#       7
#     8   8   8   8   8   8   8
#     4  10  17  26  44  71 102 135 173 216 264 314
#     4   9  16  27  44  70 103 135 171 216 265 313
#     4  10  22  39  57  79 109 143 178 218 266 318
#     4  10  20  33  53  80 108 141 181 224 269 318
#     4  10  19  32  51  75 105 138 175 219 265 314
#     4  11  23  39  60  85 111 140 176 218 265 315
#     4  10  22  39  58  81 109 142 179 219 266 318
#
# _framework density 19.186916
#
# number of rings (size 3 to 8) (size 9 to 14) (size 15 to 20)
#    0.000    2.000    0.000    6.000    0.000    7.429 
#    0.000    0.000    0.000    0.857    0.000    2.000 
#    0.000    0.000    0.000    0.000    0.000    0.000 
#
# Total GULP energy -347119.819038 kJ/mol
# GULP energy per Si atom -12397.136394 kJ/mol
# Density = 1.914325 g / cm^3
# Si number density = 19.186916 Si / 1000 Ang^3
#
#
#
# Elastic Constant Matrix: (Units=GPa)
#
#
# Indices 1 2 3 4 5 6 
#
# 1 94.2976 33.1532 60.0829 0.0000 0.0000 0.0000
# 2 33.1532 84.0553 55.2093 0.0000 0.0000 0.0000
# 3 60.0829 55.2093 158.6701 0.0000 0.0000 0.0000
# 4 0.0000 0.0000 0.0000 0.4032 0.0000 0.0000
# 5 0.0000 0.0000 0.0000 0.0000 40.2681 0.0000
# 6 0.0000 0.0000 0.0000 0.0000 0.0000 13.7438
#
#
#
# Elastic Compliance Matrix: (Units=1/GPa)
#
#
# Indices 1 2 3 4 5 6 
#
# 1 0.014444 -0.002728 -0.004520 0.000000 0.000000 0.000000
# 2 -0.002728 0.015937 -0.004512 0.000000 0.000000 0.000000
# 3 -0.004520 -0.004512 0.009584 0.000000 0.000000 0.000000
# 4 0.000000 0.000000 0.000000 2.479973 0.000000 0.000000
# 5 0.000000 0.000000 0.000000 0.000000 0.024834 0.000000
# 6 0.000000 0.000000 0.000000 0.000000 0.000000 0.072760
#
#
# Mechanical properties :
#
#
# Convention : Reuss Voigt Hill
#
# Bulk Modulus (GPa) = 60.81307 70.43484 65.62396
# Shear Modulus (GPa) = 1.88926 23.45489 12.67208
#
# Velocity S-wave (km/s) = 0.99338 3.50014 2.57272
# Velocity P-wave (km/s) = 5.75149 7.28863 6.56520
#
# Compressibility (1/GPa) = 0.01644383
#
# Stress axis : x y z
#
# Youngs Moduli (GPa) = 69.23315 62.74870 104.34038
#
# Poissons Ratio (x) = 0.17118 0.47164
# Poissons Ratio (y) = 0.18887 0.47080
# Poissons Ratio (z) = 0.31295 0.28313
#
# Static dielectric constant tensor:
#      x y z
#    x 3.577160 0.000000 0.000000 
#    y 0.000000 3.181570 0.000000 
#    z 0.000000 0.000000 4.395410 
# 
# 
# High freq. dielectric constant tensor:
#      x y z
#    x 1.756830 0.000000 0.000000 
#    y 0.000000 1.703000 0.000000 
#    z 0.000000 0.000000 1.775880 
# 
# From -- ./inp_files/18246.got.cif
#   From: 2010.03.12/outbox.cif.g09.slc.cpg/sg35_10_cif.got.tgz:18246.got - 2010.04.14 02:02:04.
