data_PCOD8172082
_publ_section_title
;
Structure prediction by ZEFSAII (Michael W. Deem and Ramdas Pophale) SiO2 
 PCOD8172082
Probable space group: P N N 2
;
_chemical_formula_sum "Si O2"
_cell_formula_units_Z 20
_cell_length_a 8.950361
_cell_length_b 17.093924
_cell_length_c 5.014336
_cell_angle_alpha 90.000000
_cell_angle_beta 90.000000
_cell_angle_gamma 90.000000
_cell_volume 767.177316
_symmetry_space_group_name_H-M "P N N 2"
_symmetry_group_IT_number 34
_symmetry_cell_setting 'orthorhombic'
loop_
_space_group_symop_operation_xyz
x,y,z
-x,-y,z
1/2-x,1/2+y,1/2+z
1/2+x,1/2-y,1/2+z
loop_
_atom_site_type_symbol
_atom_site_label
_atom_site_fract_x
_atom_site_fract_y
_atom_site_fract_z
Si Si1 0.159094 0.337315 0.529980
Si Si2 0.331869 0.657567 0.972199
Si Si3 0.160670 0.607479 0.460493
Si Si4 0.150403 0.473986 0.863926
Si Si5 0.096537 0.931330 0.699487
O O1 0.186257 0.246372 0.570559
O O2 0.144125 0.380165 0.816461
O O3 0.300614 0.378036 0.386178
O O4 0.997239 0.350822 0.398193
O O5 0.232628 0.604456 0.169055
O O6 0.501626 0.627344 0.008868
O O7 0.270259 0.653032 0.669839
O O8 0.146462 0.519790 0.579177
O O9 0.000000 0.500000 0.026967
O O10 0.302947 0.489027 0.017516
O O11 0.000000 0.000000 0.853205
#
# Coordination Sequence:
#
# PCOD8172082 Si02
#       5
#     4   4   4   4   4
#     4  11  28  45  78 110 158 207 255 328 401 472
#     4  12  28  48  79 117 158 197 264 327 397 465
#     4  11  27  52  75 108 156 208 256 317 396 478
#     4  10  25  47  75 110 151 212 259 317 391 476
#     4  12  26  47  81 116 158 208 271 330 390 478
#
# _framework density 26.069595
#
# number of rings (size 3 to 8) (size 9 to 14) (size 15 to 20)
#    0.000    0.800    2.000    2.400   14.000    1.600 
#    0.000    0.000    0.000    0.000    0.000    0.000 
#    0.000    0.000    0.000    0.000    0.000    0.000 
#
# Total GULP energy -247792.358690 kJ/mol
# GULP energy per Si atom -12389.617935 kJ/mol
# Density = 2.601026 g / cm^3
# Si number density = 26.069595 Si / 1000 Ang^3
#
#
#
# Elastic Constant Matrix: (Units=GPa)
#
#
# Indices 1 2 3 4 5 6 
#
# 1 192.5643 58.6204 30.7270 0.0000 0.0000 0.0000
# 2 58.6204 162.8817 -2.5191 0.0000 0.0000 0.0000
# 3 30.7270 -2.5191 40.2031 0.0000 0.0000 0.0000
# 4 0.0000 0.0000 0.0000 27.5054 0.0000 0.0000
# 5 0.0000 0.0000 0.0000 0.0000 37.4951 0.0000
# 6 0.0000 0.0000 0.0000 0.0000 0.0000 32.9225
#
#
#
# Elastic Compliance Matrix: (Units=1/GPa)
#
#
# Indices 1 2 3 4 5 6 
#
# 1 0.006824 -0.002539 -0.005374 0.000000 0.000000 0.000000
# 2 -0.002539 0.007090 0.002385 0.000000 0.000000 0.000000
# 3 -0.005374 0.002385 0.029131 0.000000 0.000000 0.000000
# 4 0.000000 0.000000 0.000000 0.036356 0.000000 0.000000
# 5 0.000000 0.000000 0.000000 0.000000 0.026670 0.000000
# 6 0.000000 0.000000 0.000000 0.000000 0.000000 0.030374
#
#
# Mechanical properties :
#
#
# Convention : Reuss Voigt Hill
#
# Bulk Modulus (GPa) = 31.26240 63.25621 47.25931
# Shear Modulus (GPa) = 31.61267 40.17265 35.89266
#
# Velocity S-wave (km/s) = 3.48606 3.92979 3.71455
# Velocity P-wave (km/s) = 5.31238 6.70134 6.04687
#
# Compressibility (1/GPa) = 0.03198730
#
# Stress axis : x y z
#
# Youngs Moduli (GPa) = 146.55216 141.04310 34.32815
#
# Poissons Ratio (x) = 0.35809 0.18449
# Poissons Ratio (y) = 0.37208 -0.08186
# Poissons Ratio (z) = 0.78761 -0.33634
#
# Static dielectric constant tensor:
#      x y z
#    x 5.355480 0.000000 0.000000 
#    y 0.000000 4.742900 0.000000 
#    z 0.000000 0.000000 4.222440 
# 
# 
# High freq. dielectric constant tensor:
#      x y z
#    x 2.074780 0.000000 0.000000 
#    y 0.000000 2.060280 0.000000 
#    z 0.000000 0.000000 2.013620 
# 
# From -- ./inp_files/409.got.cif
#   From: 2010.03.12/outbox.cif.g09.slc.cpg/sg34_1_cif.got.tgz:409.got - 2010.04.14 01:56:33.
