data_PCOD8172489
_publ_section_title
;
Structure prediction by ZEFSAII (Michael W. Deem and Ramdas Pophale) SiO2 
 PCOD8172489
Probable space group: C M M 2
;
_chemical_formula_sum "Si O2"
_cell_formula_units_Z 64
_cell_length_a 30.236078
_cell_length_b 9.181415
_cell_length_c 15.403694
_cell_angle_alpha 90.000000
_cell_angle_beta 90.000000
_cell_angle_gamma 90.000000
_cell_volume 4276.219185
_symmetry_space_group_name_H-M "C M M 2"
_symmetry_group_IT_number 35
_symmetry_cell_setting 'orthorhombic'
loop_
_space_group_symop_operation_xyz
x,y,z
-x,-y,z
-x,y,z
x,-y,z
1/2+x,1/2+y,z
1/2-x,1/2-y,z
1/2-x,1/2+y,z
1/2+x,1/2-y,z
loop_
_atom_site_type_symbol
_atom_site_label
_atom_site_fract_x
_atom_site_fract_y
_atom_site_fract_z
Si Si1 0.948380 0.327933 0.082860
Si Si2 0.052450 0.337877 0.894764
Si Si3 0.052522 0.665983 0.708813
Si Si4 0.707316 0.165255 0.199971
Si Si5 0.119431 0.828952 0.202669
Si Si6 0.050130 0.829469 0.542062
Si Si7 0.121595 0.831192 0.403642
Si Si8 0.707831 0.836209 0.406613
O O1 0.938282 0.500000 0.091380
O O2 0.922522 0.236170 0.153892
O O3 0.000000 0.297746 0.098266
O O4 0.932934 0.267375 0.986910
O O5 0.071905 0.500000 0.892788
O O6 0.067903 0.264688 0.802922
O O7 0.000000 0.346173 0.896326
O O8 0.069091 0.500000 0.700542
O O9 0.071543 0.757359 0.628207
O O10 0.000000 0.672662 0.704383
O O11 0.750000 0.250000 0.162370
O O12 0.663634 0.249840 0.168452
O O13 0.709444 0.164405 0.303213
O O14 0.706701 0.000000 0.163903
O O15 0.111354 0.795804 0.303810
O O16 0.124004 0.000000 0.184441
O O17 0.078811 0.784095 0.458705
O O18 0.000000 0.775533 0.524605
O O19 0.051302 0.000000 0.558177
O O20 0.163250 0.740934 0.439039
O O21 0.133318 0.000000 0.415999
O O22 0.750000 0.750000 0.444337
O O23 0.708954 0.000000 0.443103
#
# Coordination Sequence:
#
# PCOD8172489 Si02
#       8
#     8   8   8   8   8   8   8   8
#     4   9  17  29  43  58  79 109 142 173 205 242
#     4   7  11  22  40  58  75  98 128 162 204 250
#     4   8  13  23  40  59  76  96 126 165 206 245
#     4   9  16  27  43  61  80 102 130 166 208 249
#     4  10  19  29  41  58  81 110 143 175 204 236
#     4   9  17  28  40  55  78 109 141 170 201 236
#     4   9  18  30  41  54  78 112 144 170 198 235
#     4   9  16  26  42  61  79  99 127 165 207 246
#
# _framework density 14.966493
#
# number of rings (size 3 to 8) (size 9 to 14) (size 15 to 20)
#    0.000    3.250    0.000    2.625    0.000    4.750 
#    0.000    1.875    0.000    3.750    0.000    0.000 
#    0.000    1.000    0.000    5.250    0.000    4.750 
#
# Total GULP energy -396466.999970 kJ/mol
# GULP energy per Si atom -12389.593749 kJ/mol
# Density = 1.493243 g / cm^3
# Si number density = 14.966493 Si / 1000 Ang^3
#
#
#
# Elastic Constant Matrix: (Units=GPa)
#
#
# Indices 1 2 3 4 5 6 
#
# 1 81.0854 47.7032 47.6066 0.0000 0.0000 0.0000
# 2 47.7032 74.7328 40.3878 0.0000 0.0000 0.0000
# 3 47.6066 40.3878 79.6071 0.0000 0.0000 0.0000
# 4 0.0000 0.0000 0.0000 17.1910 0.0000 0.0000
# 5 0.0000 0.0000 0.0000 0.0000 1.1123 0.0000
# 6 0.0000 0.0000 0.0000 0.0000 0.0000 24.5735
#
#
#
# Elastic Compliance Matrix: (Units=1/GPa)
#
#
# Indices 1 2 3 4 5 6 
#
# 1 0.023590 -0.010242 -0.008911 0.000000 0.000000 0.000000
# 2 -0.010242 0.022883 -0.005484 0.000000 0.000000 0.000000
# 3 -0.008911 -0.005484 0.020673 0.000000 0.000000 0.000000
# 4 0.000000 0.000000 0.000000 0.058170 0.000000 0.000000
# 5 0.000000 0.000000 0.000000 0.000000 0.899009 0.000000
# 6 0.000000 0.000000 0.000000 0.000000 0.000000 0.040694
#
#
# Mechanical properties :
#
#
# Convention : Reuss Voigt Hill
#
# Bulk Modulus (GPa) = 55.95716 56.31336 56.13526
# Shear Modulus (GPa) = 4.46329 15.22389 9.84359
#
# Velocity S-wave (km/s) = 1.72877 3.19281 2.56736
# Velocity P-wave (km/s) = 6.43850 7.16241 6.81008
#
# Compressibility (1/GPa) = 0.01787081
#
# Stress axis : x y z
#
# Youngs Moduli (GPa) = 42.39079 43.70143 48.37212
#
# Poissons Ratio (x) = 0.44759 0.43105
# Poissons Ratio (y) = 0.43417 0.26528
# Poissons Ratio (z) = 0.37775 0.23967
#
# Static dielectric constant tensor:
#      x y z
#    x 2.746780 0.000000 0.000000 
#    y 0.000000 2.893810 0.000000 
#    z 0.000000 0.000000 3.003790 
# 
# 
# High freq. dielectric constant tensor:
#      x y z
#    x 1.545270 0.000000 0.000000 
#    y 0.000000 1.568270 0.000000 
#    z 0.000000 0.000000 1.550620 
# 
# From -- ./inp_files/17723.got.cif
#   From: 2010.03.12/outbox.cif.g09.slc.cpg/sg35_9_cif.got.tgz:17723.got - 2010.04.14 02:02:04.
