data_PCOD8172433
_publ_section_title
;
Structure prediction by ZEFSAII (Michael W. Deem and Ramdas Pophale) SiO2 
 PCOD8172433
Probable space group: C M M 2
;
_chemical_formula_sum "Si O2"
_cell_formula_units_Z 40
_cell_length_a 21.342767
_cell_length_b 13.522685
_cell_length_c 7.709014
_cell_angle_alpha 90.000000
_cell_angle_beta 90.000000
_cell_angle_gamma 90.000000
_cell_volume 2224.910211
_symmetry_space_group_name_H-M "C M M 2"
_symmetry_group_IT_number 35
_symmetry_cell_setting 'orthorhombic'
loop_
_space_group_symop_operation_xyz
x,y,z
-x,-y,z
-x,y,z
x,-y,z
1/2+x,1/2+y,z
1/2-x,1/2-y,z
1/2-x,1/2+y,z
1/2+x,1/2-y,z
loop_
_atom_site_type_symbol
_atom_site_label
_atom_site_fract_x
_atom_site_fract_y
_atom_site_fract_z
Si Si1 0.278023 0.111929 0.125000
Si Si2 0.573972 0.613507 0.922637
Si Si3 0.150745 0.202942 0.616469
Si Si4 0.778024 0.388071 0.720272
Si Si5 0.849256 0.202943 0.228804
O O1 0.213329 0.137333 0.219413
O O2 0.333491 0.182408 0.190726
O O3 0.297950 0.000000 0.167564
O O4 0.266143 0.129430 0.922636
O O5 0.500000 0.622885 0.922634
O O6 0.596422 0.500000 0.922644
O O7 0.598953 0.665912 0.095057
O O8 0.598954 0.665907 0.750215
O O9 0.166507 0.317592 0.654550
O O10 0.213330 0.137334 0.625856
O O11 0.123006 0.193436 0.422636
O O12 0.797951 0.500000 0.677708
#
# Coordination Sequence:
#
# PCOD8172433 Si02
#       5
#     8   8   8   8   8
#     4  10  18  32  57  85 114 145 173 211 270 329
#     4  11  24  41  57  75 105 143 185 228 264 309
#     4  11  21  35  56  82 113 143 176 220 269 320
#     4  10  18  32  57  85 114 145 173 211 270 329
#     4  11  21  35  56  82 113 143 176 220 269 320
#
# _framework density 17.978252999999999
#
# number of rings (size 3 to 8) (size 9 to 14) (size 15 to 20)
#    0.000    1.400    4.000    4.800    0.000    6.400 
#    0.000    2.000    0.000    2.400    0.000    2.800 
#    0.000    0.000    0.000    0.000    0.000    0.000 
#
# Total GULP energy -248061.776631 kJ/mol
# GULP energy per Si atom -12403.088832 kJ/mol
# Density = 1.793733 g / cm^3
# Si number density = 17.978253 Si / 1000 Ang^3
#
#
#
# Elastic Constant Matrix: (Units=GPa)
#
#
# Indices 1 2 3 4 5 6 
#
# 1 60.2279 44.5603 34.3831 0.0000 0.0000 0.0000
# 2 44.5603 133.1287 65.7898 0.0000 0.0000 0.0000
# 3 34.3831 65.7898 150.2183 0.0000 0.0000 0.0000
# 4 0.0000 0.0000 0.0000 10.8861 0.0000 0.0000
# 5 0.0000 0.0000 0.0000 0.0000 6.1659 0.0000
# 6 0.0000 0.0000 0.0000 0.0000 0.0000 21.5926
#
#
#
# Elastic Compliance Matrix: (Units=1/GPa)
#
#
# Indices 1 2 3 4 5 6 
#
# 1 0.022720 -0.006425 -0.002386 0.000000 0.000000 0.000000
# 2 -0.006425 0.011404 -0.003524 0.000000 0.000000 0.000000
# 3 -0.002386 -0.003524 0.008746 0.000000 0.000000 0.000000
# 4 0.000000 0.000000 0.000000 0.091860 0.000000 0.000000
# 5 0.000000 0.000000 0.000000 0.000000 0.162183 0.000000
# 6 0.000000 0.000000 0.000000 0.000000 0.000000 0.046312
#
#
# Mechanical properties :
#
#
# Convention : Reuss Voigt Hill
#
# Bulk Modulus (GPa) = 54.94751 70.33792 62.64272
# Shear Modulus (GPa) = 13.37034 20.98502 17.17768
#
# Velocity S-wave (km/s) = 2.73004 3.42020 3.09442
# Velocity P-wave (km/s) = 6.36923 7.40310 6.90554
#
# Compressibility (1/GPa) = 0.01819919
#
# Stress axis : x y z
#
# Youngs Moduli (GPa) = 44.01451 87.69217 114.33353
#
# Poissons Ratio (x) = 0.56346 0.27282
# Poissons Ratio (y) = 0.28281 0.40286
# Poissons Ratio (z) = 0.10503 0.30899
#
# Static dielectric constant tensor:
#      x y z
#    x 2.892770 0.000000 0.000000 
#    y 0.000000 3.572240 0.000000 
#    z 0.000000 0.000000 3.518070 
# 
# 
# High freq. dielectric constant tensor:
#      x y z
#    x 1.647090 0.000000 0.000000 
#    y 0.000000 1.709470 0.000000 
#    z 0.000000 0.000000 1.715240 
# 
# From -- ./inp_files/9137.got.cif
#   From: 2010.03.12/outbox.cif.g09.slc.cpg/sg35_5_cif.got.tgz:9137.got - 2010.04.14 02:02:04.
