data_PCOD8172549
_publ_section_title
;
Structure prediction by ZEFSAII (Michael W. Deem and Ramdas Pophale) SiO2 
 PCOD8172549
Probable space group: C M M 2
;
_chemical_formula_sum "Si O2"
_cell_formula_units_Z 64
_cell_length_a 28.538059
_cell_length_b 9.086682
_cell_length_c 15.620001
_cell_angle_alpha 90.000000
_cell_angle_beta 90.000000
_cell_angle_gamma 90.000000
_cell_volume 4050.520350
_symmetry_space_group_name_H-M "C M M 2"
_symmetry_group_IT_number 35
_symmetry_cell_setting 'orthorhombic'
loop_
_space_group_symop_operation_xyz
x,y,z
-x,-y,z
-x,y,z
x,-y,z
1/2+x,1/2+y,z
1/2-x,1/2-y,z
1/2-x,1/2+y,z
1/2+x,1/2-y,z
loop_
_atom_site_type_symbol
_atom_site_label
_atom_site_fract_x
_atom_site_fract_y
_atom_site_fract_z
Si Si1 0.052140 0.325022 0.184870
Si Si2 0.797531 0.172663 0.402229
Si Si3 0.444675 0.669568 0.494306
Si Si4 0.446280 0.326328 0.832347
Si Si5 0.105132 0.174740 0.665597
Si Si6 0.110676 0.324905 0.346805
Si Si7 0.055769 0.663554 0.998327
Si Si8 0.296594 0.670827 0.601569
O O1 0.048838 0.500000 0.183157
O O2 0.087356 0.271519 0.258136
O O3 0.000000 0.260704 0.203250
O O4 0.071114 0.272097 0.091402
O O5 0.750000 0.250000 0.371278
O O6 0.839333 0.246270 0.349691
O O7 0.806255 0.204252 0.502179
O O8 0.794889 0.000000 0.382361
O O9 0.500000 0.686624 0.491711
O O10 0.429148 0.500000 0.478445
O O11 0.426599 0.726486 0.586111
O O12 0.422610 0.773353 0.423104
O O13 0.500000 0.276956 0.818879
O O14 0.442086 0.500000 0.836456
O O15 0.416249 0.260775 0.753373
O O16 0.425270 0.264077 0.921053
O O17 0.158530 0.230882 0.653921
O O18 0.104363 0.000000 0.668867
O O19 0.116882 0.500000 0.351711
O O20 0.076228 0.500000 0.984593
O O21 0.000000 0.659301 0.997541
O O22 0.288709 0.500000 0.617423
O O23 0.250000 0.750000 0.635347
#
# Coordination Sequence:
#
# PCOD8172549 Si02
#       8
#     8   8   8   8   8   8   8   8
#     4   8  15  28  45  64  89 123 157 185 220 271
#     4  10  19  33  50  68  90 117 153 192 232 274
#     4  10  19  31  45  61  88 127 163 188 217 264
#     4   9  16  26  43  66  89 114 147 184 221 264
#     4   9  16  29  45  63  87 120 152 181 220 270
#     4  11  20  30  46  68  93 121 154 191 230 270
#     4   8  14  27  45  62  84 116 150 184 223 263
#     4   9  17  30  47  63  84 112 147 186 223 263
#
# _framework density 15.800439000000001
#
# number of rings (size 3 to 8) (size 9 to 14) (size 15 to 20)
#    0.000    2.750    1.250    2.250    0.000    2.750 
#    0.000    2.500    0.000    4.500    0.000    0.875 
#    0.000    4.000    0.000    0.000    0.000    0.000 
#
# Total GULP energy -396691.320182 kJ/mol
# GULP energy per Si atom -12396.603756 kJ/mol
# Density = 1.576448 g / cm^3
# Si number density = 15.800439 Si / 1000 Ang^3
#
#
#
# Elastic Constant Matrix: (Units=GPa)
#
#
# Indices 1 2 3 4 5 6 
#
# 1 107.0251 36.6652 66.3007 0.0000 0.0000 0.0000
# 2 36.6652 43.5759 35.9445 0.0000 0.0000 0.0000
# 3 66.3007 35.9445 132.9399 0.0000 0.0000 0.0000
# 4 0.0000 0.0000 0.0000 21.6754 0.0000 0.0000
# 5 0.0000 0.0000 0.0000 0.0000 11.5446 0.0000
# 6 0.0000 0.0000 0.0000 0.0000 0.0000 23.3236
#
#
#
# Elastic Compliance Matrix: (Units=1/GPa)
#
#
# Indices 1 2 3 4 5 6 
#
# 1 0.015726 -0.008704 -0.005490 0.000000 0.000000 0.000000
# 2 -0.008704 0.034353 -0.004948 0.000000 0.000000 0.000000
# 3 -0.005490 -0.004948 0.011598 0.000000 0.000000 0.000000
# 4 0.000000 0.000000 0.000000 0.046135 0.000000 0.000000
# 5 0.000000 0.000000 0.000000 0.000000 0.086621 0.000000
# 6 0.000000 0.000000 0.000000 0.000000 0.000000 0.042875
#
#
# Mechanical properties :
#
#
# Convention : Reuss Voigt Hill
#
# Bulk Modulus (GPa) = 42.74463 62.37352 52.55908
# Shear Modulus (GPa) = 17.64360 20.95075 19.29718
#
# Velocity S-wave (km/s) = 3.34526 3.64532 3.49851
# Velocity P-wave (km/s) = 6.48325 7.56831 7.04670
#
# Compressibility (1/GPa) = 0.02339475
#
# Stress axis : x y z
#
# Youngs Moduli (GPa) = 63.58798 29.10946 86.22321
#
# Poissons Ratio (x) = 0.25337 0.47334
# Poissons Ratio (y) = 0.55346 0.42660
# Poissons Ratio (z) = 0.34908 0.14402
#
# Static dielectric constant tensor:
#      x y z
#    x 3.025370 0.000000 0.000000 
#    y 0.000000 2.868590 0.000000 
#    z 0.000000 0.000000 3.239690 
# 
# 
# High freq. dielectric constant tensor:
#      x y z
#    x 1.591630 0.000000 0.000000 
#    y 0.000000 1.588180 0.000000 
#    z 0.000000 0.000000 1.598660 
# 
# From -- ./inp_files/16217.got.cif
#   From: 2010.03.12/outbox.cif.g09.slc.cpg/sg35_9_cif.got.tgz:16217.got - 2010.04.14 02:02:04.
