data_PCOD8172861
_publ_section_title
;
Structure prediction by ZEFSAII (Michael W. Deem and Ramdas Pophale) SiO2 
 PCOD8172861
Probable space group: C M M 2
;
_chemical_formula_sum "Si O2"
_cell_formula_units_Z 48
_cell_length_a 8.707604
_cell_length_b 15.819538
_cell_length_c 17.272534
_cell_angle_alpha 90.000000
_cell_angle_beta 90.000000
_cell_angle_gamma 90.000000
_cell_volume 2379.296263
_symmetry_space_group_name_H-M "C M M 2"
_symmetry_group_IT_number 35
_symmetry_cell_setting 'orthorhombic'
loop_
_space_group_symop_operation_xyz
x,y,z
-x,-y,z
-x,y,z
x,-y,z
1/2+x,1/2+y,z
1/2-x,1/2-y,z
1/2-x,1/2+y,z
1/2+x,1/2-y,z
loop_
_atom_site_type_symbol
_atom_site_label
_atom_site_fract_x
_atom_site_fract_y
_atom_site_fract_z
Si Si1 0.317756 0.342048 0.922150
Si Si2 0.182847 0.000000 0.197112
Si Si3 0.317940 0.662723 0.290616
Si Si4 0.820782 0.661417 0.760442
Si Si5 0.817423 0.905900 0.450443
Si Si6 0.817561 0.000000 0.022554
Si Si7 0.667981 0.402812 0.616369
O O1 0.500000 0.334220 0.922274
O O2 0.250000 0.250000 0.944237
O O3 0.262516 0.372199 0.837399
O O4 0.258351 0.414250 0.980863
O O5 0.244016 0.084274 0.239505
O O6 0.246805 0.000000 0.109511
O O7 0.000000 0.000000 0.197537
O O8 0.500000 0.666957 0.285418
O O9 0.250000 0.750000 0.257324
O O10 0.258318 0.651022 0.379039
O O11 0.750000 0.750000 0.735711
O O12 0.788606 0.603340 0.686287
O O13 0.000000 0.667382 0.778017
O O14 0.769203 0.864908 0.534233
O O15 0.000000 0.911158 0.446837
O O16 0.747940 0.000000 0.439408
O O17 0.000000 0.000000 0.020247
O O18 0.500000 0.363565 0.638935
O O19 0.643102 0.500000 0.596913
#
# Coordination Sequence:
#
# PCOD8172861 Si02
#       7
#     8   4   8   8   8   4   8
#     4  10  20  37  58  82 111 144 183 228 276 329
#     4   9  18  36  59  82 111 146 182 221 265 333
#     4  10  19  33  57  84 111 145 186 225 270 322
#     4  11  22  36  53  75 106 142 182 226 275 324
#     4   8  14  29  52  76 103 143 189 226 261 316
#     4   9  20  36  59  86 109 142 184 221 271 333
#     4   9  18  32  52  77 107 143 184 225 268 318
#
# _framework density 20.174033000000001
#
# number of rings (size 3 to 8) (size 9 to 14) (size 15 to 20)
#    0.000    2.500    0.833    4.000    1.167    1.667 
#    0.000    4.167    0.000    4.000    0.000    0.000 
#    0.000    0.000    0.000    0.000    0.000    0.000 
#
# Total GULP energy -297419.702764 kJ/mol
# GULP energy per Si atom -12392.487615 kJ/mol
# Density = 2.012812 g / cm^3
# Si number density = 20.174033 Si / 1000 Ang^3
#
#
#
# Elastic Constant Matrix: (Units=GPa)
#
#
# Indices 1 2 3 4 5 6 
#
# 1 56.1952 26.0886 28.2399 0.0000 0.0000 0.0000
# 2 26.0886 123.3540 79.0983 0.0000 0.0000 0.0000
# 3 28.2399 79.0983 167.9830 0.0000 0.0000 0.0000
# 4 0.0000 0.0000 0.0000 19.3102 0.0000 0.0000
# 5 0.0000 0.0000 0.0000 0.0000 9.8329 0.0000
# 6 0.0000 0.0000 0.0000 0.0000 0.0000 25.9765
#
#
#
# Elastic Compliance Matrix: (Units=1/GPa)
#
#
# Indices 1 2 3 4 5 6 
#
# 1 0.020183 -0.002998 -0.001981 0.000000 0.000000 0.000000
# 2 -0.002998 0.012059 -0.005174 0.000000 0.000000 0.000000
# 3 -0.001981 -0.005174 0.008722 0.000000 0.000000 0.000000
# 4 0.000000 0.000000 0.000000 0.051786 0.000000 0.000000
# 5 0.000000 0.000000 0.000000 0.000000 0.101700 0.000000
# 6 0.000000 0.000000 0.000000 0.000000 0.000000 0.038496
#
#
# Mechanical properties :
#
#
# Convention : Reuss Voigt Hill
#
# Bulk Modulus (GPa) = 48.41003 68.26509 58.33756
# Shear Modulus (GPa) = 19.22057 25.29761 22.25909
#
# Velocity S-wave (km/s) = 3.08999 3.54498 3.32528
# Velocity P-wave (km/s) = 6.06457 7.11811 6.61236
#
# Compressibility (1/GPa) = 0.02065688
#
# Stress axis : x y z
#
# Youngs Moduli (GPa) = 49.54763 82.92873 114.64817
#
# Poissons Ratio (x) = 0.24863 0.22714
# Poissons Ratio (y) = 0.14855 0.59319
# Poissons Ratio (z) = 0.09816 0.42907
#
# Static dielectric constant tensor:
#      x y z
#    x 3.238210 0.000000 0.000000 
#    y 0.000000 3.638900 0.000000 
#    z 0.000000 0.000000 3.929170 
# 
# 
# High freq. dielectric constant tensor:
#      x y z
#    x 1.747060 0.000000 0.000000 
#    y 0.000000 1.780810 0.000000 
#    z 0.000000 0.000000 1.796750 
# 
# From -- ./inp_files/17858.got.cif
#   From: 2010.03.12/outbox.cif.g09.slc.cpg/sg35_9_cif.got.tgz:17858.got - 2010.04.14 02:02:04.
