data_PCOD8172891
_publ_section_title
;
Structure prediction by ZEFSAII (Michael W. Deem and Ramdas Pophale) SiO2 
 PCOD8172891
Probable space group: C M M 2
;
_chemical_formula_sum "Si O2"
_cell_formula_units_Z 64
_cell_length_a 8.633766
_cell_length_b 29.359368
_cell_length_c 12.469102
_cell_angle_alpha 90.000000
_cell_angle_beta 90.000000
_cell_angle_gamma 90.000000
_cell_volume 3160.691831
_symmetry_space_group_name_H-M "C M M 2"
_symmetry_group_IT_number 35
_symmetry_cell_setting 'orthorhombic'
loop_
_space_group_symop_operation_xyz
x,y,z
-x,-y,z
-x,y,z
x,-y,z
1/2+x,1/2+y,z
1/2-x,1/2-y,z
1/2-x,1/2+y,z
1/2+x,1/2-y,z
loop_
_atom_site_type_symbol
_atom_site_label
_atom_site_fract_x
_atom_site_fract_y
_atom_site_fract_z
Si Si1 0.174711 0.930176 0.026940
Si Si2 0.825321 0.173398 0.086571
Si Si3 0.817934 0.143264 0.706578
Si Si4 0.816743 0.950171 0.792087
Si Si5 0.682131 0.203638 0.880598
Si Si6 0.315555 0.146987 0.304132
Si Si7 0.681848 0.951142 0.244980
Si Si8 0.817924 0.300390 0.513748
O O1 0.176296 0.876407 0.037497
O O2 0.278082 0.951977 0.119554
O O3 0.000000 0.949094 0.038366
O O4 0.249686 0.943696 0.912430
O O5 0.752651 0.175091 0.204736
O O6 0.000000 0.192926 0.091159
O O7 0.720512 0.203545 0.007276
O O8 0.764061 0.089967 0.710645
O O9 0.772989 0.163003 0.822350
O O10 0.724978 0.169883 0.616341
O O11 0.000000 0.148490 0.685261
O O12 0.000000 0.946474 0.803086
O O13 0.765166 0.000000 0.747435
O O14 0.500000 0.200077 0.859611
O O15 0.750000 0.250000 0.829982
O O16 0.500000 0.147185 0.295995
O O17 0.250285 0.094414 0.302900
O O18 0.254970 0.172238 0.410350
O O19 0.500000 0.948937 0.257465
O O20 0.741636 0.000000 0.294337
O O21 0.750000 0.250000 0.519731
O O22 0.000000 0.295130 0.508183
#
# Coordination Sequence:
#
# PCOD8172891 Si02
#       8
#     8   8   8   8   8   8   8   8
#     4   9  16  29  50  77 113 154 194 231 272 328
#     4  10  19  34  56  85 119 154 192 234 286 341
#     4  11  22  40  62  86 118 150 192 243 292 343
#     4   9  17  31  54  83 116 154 192 231 280 336
#     4  12  24  38  58  84 117 154 192 234 290 353
#     4   9  20  38  58  82 115 151 191 239 291 347
#     4   9  17  30  50  79 114 152 192 232 279 335
#     4  11  24  43  65  87 110 145 195 246 300 355
#
# _framework density 20.248729999999998
#
# number of rings (size 3 to 8) (size 9 to 14) (size 15 to 20)
#    0.000    2.000    1.250    3.000    0.000    2.750 
#    0.000    1.875    0.000    3.000    0.000    0.000 
#    0.000    0.000    0.000    0.000    0.000    0.000 
#
# Total GULP energy -396630.473805 kJ/mol
# GULP energy per Si atom -12394.702306 kJ/mol
# Density = 2.020264 g / cm^3
# Si number density = 20.248730 Si / 1000 Ang^3
#
#
#
# Elastic Constant Matrix: (Units=GPa)
#
#
# Indices 1 2 3 4 5 6 
#
# 1 32.9277 18.0801 10.2712 0.0000 0.0000 0.0000
# 2 18.0801 142.4425 57.6707 0.0000 0.0000 0.0000
# 3 10.2712 57.6707 104.6122 0.0000 0.0000 0.0000
# 4 0.0000 0.0000 0.0000 22.6029 0.0000 0.0000
# 5 0.0000 0.0000 0.0000 0.0000 26.1345 0.0000
# 6 0.0000 0.0000 0.0000 0.0000 0.0000 11.1990
#
#
#
# Elastic Compliance Matrix: (Units=1/GPa)
#
#
# Indices 1 2 3 4 5 6 
#
# 1 0.032759 -0.003676 -0.001190 0.000000 0.000000 0.000000
# 2 -0.003676 0.009450 -0.004849 0.000000 0.000000 0.000000
# 3 -0.001190 -0.004849 0.012349 0.000000 0.000000 0.000000
# 4 0.000000 0.000000 0.000000 0.044242 0.000000 0.000000
# 5 0.000000 0.000000 0.000000 0.000000 0.038264 0.000000
# 6 0.000000 0.000000 0.000000 0.000000 0.000000 0.089294
#
#
# Mechanical properties :
#
#
# Convention : Reuss Voigt Hill
#
# Bulk Modulus (GPa) = 28.46673 50.22514 39.34593
# Shear Modulus (GPa) = 19.41770 24.91796 22.16783
#
# Velocity S-wave (km/s) = 3.10007 3.51179 3.31233
# Velocity P-wave (km/s) = 5.18680 6.42662 5.83971
#
# Compressibility (1/GPa) = 0.03512873
#
# Stress axis : x y z
#
# Youngs Moduli (GPa) = 30.52565 105.81872 80.97875
#
# Poissons Ratio (x) = 0.38904 0.09634
# Poissons Ratio (y) = 0.11223 0.39264
# Poissons Ratio (z) = 0.03631 0.51308
#
# Static dielectric constant tensor:
#      x y z
#    x 3.475050 0.000000 0.000000 
#    y 0.000000 4.147610 0.000000 
#    z 0.000000 0.000000 3.536320 
# 
# 
# High freq. dielectric constant tensor:
#      x y z
#    x 1.771800 0.000000 0.000000 
#    y 0.000000 1.809270 0.000000 
#    z 0.000000 0.000000 1.768240 
# 
# From -- ./inp_files/11924.got.cif
#   From: 2010.03.12/outbox.cif.g09.slc.cpg/sg35_6_cif.got.tgz:11924.got - 2010.04.14 02:02:04.
