data_PCOD8172434
_publ_section_title
;
Structure prediction by ZEFSAII (Michael W. Deem and Ramdas Pophale) SiO2 
 PCOD8172434
Probable space group: C M M 2
;
_chemical_formula_sum "Si O2"
_cell_formula_units_Z 26
_cell_length_a 7.804930
_cell_length_b 15.316523
_cell_length_c 10.984210
_cell_angle_alpha 90.000000
_cell_angle_beta 90.000000
_cell_angle_gamma 90.000000
_cell_volume 1313.100683
_symmetry_space_group_name_H-M "C M M 2"
_symmetry_group_IT_number 35
_symmetry_cell_setting 'orthorhombic'
loop_
_space_group_symop_operation_xyz
x,y,z
-x,-y,z
-x,y,z
x,-y,z
1/2+x,1/2+y,z
1/2-x,1/2-y,z
1/2-x,1/2+y,z
1/2+x,1/2-y,z
loop_
_atom_site_type_symbol
_atom_site_label
_atom_site_fract_x
_atom_site_fract_y
_atom_site_fract_z
Si Si1 0.689908 0.603440 0.957670
Si Si2 0.000000 0.596905 0.806123
Si Si3 0.201138 0.654983 0.221022
Si Si4 0.309223 0.500000 0.388655
Si Si5 0.500000 0.000000 0.573577
O O1 0.500000 0.630941 0.913082
O O2 0.700481 0.500000 0.974711
O O3 0.825851 0.640948 0.857922
O O4 0.726962 0.648587 0.085476
O O5 0.000000 0.587693 0.658716
O O6 0.000000 0.500000 0.864409
O O7 0.250000 0.750000 0.272698
O O8 0.291375 0.585217 0.306602
O O9 0.000000 0.637202 0.222858
O O10 0.500000 0.500000 0.446285
O O11 0.171611 0.500000 0.495990
#
# Coordination Sequence:
#
# PCOD8172434 Si02
#       5
#     8   4   8   4   2
#     4  10  18  32  57  89 123 153 187 245 310 368
#     4   8  18  33  56  87 112 156 202 247 292 357
#     4  12  23  38  61  95 129 163 201 255 321 381
#     4  12  24  41  61  90 127 163 213 258 304 369
#     4  10  22  38  62  88 112 172 220 252 298 354
#
# _framework density 19.800462
#
# number of rings (size 3 to 8) (size 9 to 14) (size 15 to 20)
#    0.462    0.923    4.615    2.769    0.000    1.231 
#    0.000    0.000    0.000    1.846    0.000    0.000 
#    0.000    0.000    0.000    0.000    0.000    0.000 
#
# Total GULP energy -161148.509758 kJ/mol
# GULP energy per Si atom -12396.039212 kJ/mol
# Density = 1.975540 g / cm^3
# Si number density = 19.800462 Si / 1000 Ang^3
#
#
#
# Elastic Constant Matrix: (Units=GPa)
#
#
# Indices 1 2 3 4 5 6 
#
# 1 196.9466 31.4481 63.3966 0.0000 0.0000 0.0000
# 2 31.4481 79.0514 31.8776 0.0000 0.0000 0.0000
# 3 63.3966 31.8776 126.1022 0.0000 0.0000 0.0000
# 4 0.0000 0.0000 0.0000 -16.3430 0.0000 0.0000
# 5 0.0000 0.0000 0.0000 0.0000 11.4621 0.0000
# 6 0.0000 0.0000 0.0000 0.0000 0.0000 19.9873
#
#
#
# Elastic Compliance Matrix: (Units=1/GPa)
#
#
# Indices 1 2 3 4 5 6 
#
# 1 0.006183 -0.001343 -0.002769 0.000000 0.000000 0.000000
# 2 -0.001343 0.014378 -0.002959 0.000000 0.000000 0.000000
# 3 -0.002769 -0.002959 0.010070 0.000000 0.000000 0.000000
# 4 0.000000 0.000000 0.000000 -0.061188 0.000000 0.000000
# 5 0.000000 0.000000 0.000000 0.000000 0.087244 0.000000
# 6 0.000000 0.000000 0.000000 0.000000 0.000000 0.050032
#
#
# Mechanical properties :
#
#
# Convention : Reuss Voigt Hill
#
# Bulk Modulus (GPa) = 60.64943 72.83832 66.74388
# Shear Modulus (GPa) = 39.57020 21.37982 30.47501
#
# Velocity S-wave (km/s) = 4.47525 3.28954 3.92740
# Velocity P-wave (km/s) = 7.57632 7.16199 7.37207
#
# Compressibility (1/GPa) = 0.01648820
#
# Stress axis : x y z
#
# Youngs Moduli (GPa) = 161.72443 69.55226 99.30215
#
# Poissons Ratio (x) = 0.09342 0.27497
# Poissons Ratio (y) = 0.21723 0.29386
# Poissons Ratio (z) = 0.44783 0.20582
#
# Static dielectric constant tensor:
#      x y z
#    x 4.037750 0.000000 0.000000 
#    y 0.000000 3.435280 0.000000 
#    z 0.000000 0.000000 3.315720 
# 
# 
# High freq. dielectric constant tensor:
#      x y z
#    x 1.801460 0.000000 0.000000 
#    y 0.000000 1.750140 0.000000 
#    z 0.000000 0.000000 1.739590 
# 
# From -- ./inp_files/4462.got.cif
#   From: 2010.03.12/outbox.cif.g09.slc.cpg/sg35_3_cif.got.tgz:4462.got - 2010.04.14 02:02:04.
