data_PCOD8172778
_publ_section_title
;
Structure prediction by ZEFSAII (Michael W. Deem and Ramdas Pophale) SiO2 
 PCOD8172778
Probable space group: C M M 2
;
_chemical_formula_sum "Si O2"
_cell_formula_units_Z 64
_cell_length_a 9.042871
_cell_length_b 28.331839
_cell_length_c 15.370409
_cell_angle_alpha 90.000000
_cell_angle_beta 90.000000
_cell_angle_gamma 90.000000
_cell_volume 3937.916696
_symmetry_space_group_name_H-M "C M M 2"
_symmetry_group_IT_number 35
_symmetry_cell_setting 'orthorhombic'
loop_
_space_group_symop_operation_xyz
x,y,z
-x,-y,z
-x,y,z
x,-y,z
1/2+x,1/2+y,z
1/2-x,1/2-y,z
1/2-x,1/2+y,z
1/2+x,1/2-y,z
loop_
_atom_site_type_symbol
_atom_site_label
_atom_site_fract_x
_atom_site_fract_y
_atom_site_fract_z
Si Si1 0.327889 0.444876 0.937500
Si Si2 0.826268 0.446054 0.575064
Si Si3 0.336857 0.444064 0.744007
Si Si4 0.828109 0.203142 0.343687
Si Si5 0.825060 0.390499 0.088526
Si Si6 0.174562 0.798038 0.142872
Si Si7 0.673211 0.604239 0.418077
Si Si8 0.830834 0.944351 0.240664
O O1 0.500000 0.435229 0.959440
O O2 0.292951 0.500000 0.948407
O O3 0.289214 0.426606 0.840008
O O4 0.221048 0.416812 0.001023
O O5 0.772124 0.500000 0.561111
O O6 0.775408 0.426815 0.669501
O O7 0.759079 0.412986 0.501965
O O8 0.000000 0.442395 0.570259
O O9 0.500000 0.424500 0.720920
O O10 0.342141 0.500000 0.748351
O O11 0.750000 0.250000 0.380043
O O12 0.785643 0.193081 0.243796
O O13 0.778264 0.158092 0.399836
O O14 0.000000 0.212392 0.352581
O O15 0.744964 0.340095 0.087666
O O16 0.776161 0.420934 0.171260
O O17 0.000000 0.383477 0.091275
O O18 0.250000 0.750000 0.110108
O O19 0.000000 0.795592 0.126676
O O20 0.500000 0.600283 0.436645
O O21 0.717910 0.571764 0.336498
O O22 0.000000 0.928032 0.222343
O O23 0.814523 0.000000 0.233566
#
# Coordination Sequence:
#
# PCOD8172778 Si02
#       8
#     8   8   8   8   8   8   8   8
#     4   9  18  33  52  72  96 129 168 207 245 287
#     4  10  20  31  45  70 102 131 159 198 246 289
#     4   8  15  30  51  71  91 122 164 204 242 287
#     4   9  18  32  51  71  92 119 157 202 247 287
#     4  12  23  32  46  71 101 133 165 199 244 294
#     4  10  19  35  54  72  95 123 162 207 250 292
#     4  10  19  33  50  69  92 127 168 201 237 287
#     4  10  20  34  49  64  91 133 173 206 240 280
#
# _framework density 16.252248999999999
#
# number of rings (size 3 to 8) (size 9 to 14) (size 15 to 20)
#    0.000    2.250    1.250    3.375    0.000    5.250 
#    0.000    1.250    0.000    0.000    0.000    0.875 
#    0.000    4.000    0.000    0.000    0.000    0.000 
#
# Total GULP energy -396810.250984 kJ/mol
# GULP energy per Si atom -12400.320343 kJ/mol
# Density = 1.621526 g / cm^3
# Si number density = 16.252249 Si / 1000 Ang^3
#
#
#
# Elastic Constant Matrix: (Units=GPa)
#
#
# Indices 1 2 3 4 5 6 
#
# 1 77.4357 45.5608 45.6758 0.0000 0.0000 0.0000
# 2 45.5608 84.6255 41.8315 0.0000 0.0000 0.0000
# 3 45.6758 41.8315 93.2982 0.0000 0.0000 0.0000
# 4 0.0000 0.0000 0.0000 3.6158 0.0000 0.0000
# 5 0.0000 0.0000 0.0000 0.0000 16.6464 0.0000
# 6 0.0000 0.0000 0.0000 0.0000 0.0000 27.5505
#
#
#
# Elastic Compliance Matrix: (Units=1/GPa)
#
#
# Indices 1 2 3 4 5 6 
#
# 1 0.021966 -0.008364 -0.007004 0.000000 0.000000 0.000000
# 2 -0.008364 0.018366 -0.004140 0.000000 0.000000 0.000000
# 3 -0.007004 -0.004140 0.016003 0.000000 0.000000 0.000000
# 4 0.000000 0.000000 0.000000 0.276564 0.000000 0.000000
# 5 0.000000 0.000000 0.000000 0.000000 0.060073 0.000000
# 6 0.000000 0.000000 0.000000 0.000000 0.000000 0.036297
#
#
# Mechanical properties :
#
#
# Convention : Reuss Voigt Hill
#
# Bulk Modulus (GPa) = 57.73628 57.94395 57.84012
# Shear Modulus (GPa) = 10.54720 17.71529 14.13125
#
# Velocity S-wave (km/s) = 2.55025 3.30513 2.95192
# Velocity P-wave (km/s) = 6.65387 7.09193 6.87639
#
# Compressibility (1/GPa) = 0.01732013
#
# Stress axis : x y z
#
# Youngs Moduli (GPa) = 45.52400 54.44742 62.48680
#
# Poissons Ratio (x) = 0.45541 0.43765
# Poissons Ratio (y) = 0.38077 0.25869
# Poissons Ratio (z) = 0.31884 0.22541
#
# Static dielectric constant tensor:
#      x y z
#    x 3.071270 0.000000 0.000000 
#    y 0.000000 3.048280 0.000000 
#    z 0.000000 0.000000 3.084990 
# 
# 
# High freq. dielectric constant tensor:
#      x y z
#    x 1.626080 0.000000 0.000000 
#    y 0.000000 1.608910 0.000000 
#    z 0.000000 0.000000 1.614280 
# 
# From -- ./inp_files/16183.got.cif
#   From: 2010.03.12/outbox.cif.g09.slc.cpg/sg35_9_cif.got.tgz:16183.got - 2010.04.14 02:02:04.
