data_PCOD8172334
_publ_section_title
;
Structure prediction by ZEFSAII (Michael W. Deem and Ramdas Pophale) SiO2 
 PCOD8172334
Probable space group: C M M 2
;
_chemical_formula_sum "Si O2"
_cell_formula_units_Z 64
_cell_length_a 29.394912
_cell_length_b 8.969468
_cell_length_c 12.323390
_cell_angle_alpha 90.000000
_cell_angle_beta 90.000000
_cell_angle_gamma 90.000000
_cell_volume 3249.144618
_symmetry_space_group_name_H-M "C M M 2"
_symmetry_group_IT_number 35
_symmetry_cell_setting 'orthorhombic'
loop_
_space_group_symop_operation_xyz
x,y,z
-x,-y,z
-x,y,z
x,-y,z
1/2+x,1/2+y,z
1/2-x,1/2-y,z
1/2-x,1/2+y,z
1/2+x,1/2-y,z
loop_
_atom_site_type_symbol
_atom_site_label
_atom_site_fract_x
_atom_site_fract_y
_atom_site_fract_z
Si Si1 0.799446 0.823676 0.291350
Si Si2 0.078327 0.328157 0.789223
Si Si3 0.449877 0.171281 0.548947
Si Si4 0.641244 0.675462 0.492806
Si Si5 0.855781 0.827375 0.081235
Si Si6 0.206377 0.674572 0.918750
Si Si7 0.332528 0.326082 0.729634
Si Si8 0.450540 0.330475 0.996254
O O1 0.750000 0.750000 0.282641
O O2 0.826446 0.764545 0.397046
O O3 0.831565 0.775184 0.191552
O O4 0.792288 0.000000 0.296167
O O5 0.094756 0.500000 0.801489
O O6 0.050079 0.307543 0.678868
O O7 0.120191 0.215108 0.785706
O O8 0.049357 0.280416 0.893463
O O9 0.500000 0.225526 0.508826
O O10 0.409729 0.259197 0.487866
O O11 0.442388 0.000000 0.518557
O O12 0.634969 0.500000 0.484616
O O13 0.666553 0.722369 0.603850
O O14 0.844531 0.000000 0.058484
O O15 0.838125 0.727324 0.982387
O O16 0.910336 0.797791 0.083748
O O17 0.211560 0.500000 0.923503
O O18 0.250000 0.750000 0.976424
O O19 0.205365 0.731534 0.793836
O O20 0.322376 0.500000 0.744129
O O21 0.500000 0.308823 0.053514
O O22 0.445272 0.500000 0.953656
#
# Coordination Sequence:
#
# PCOD8172334 Si02
#       8
#     8   8   8   8   8   8   8   8
#     4  10  22  41  63  86 109 142 188 240 291 340
#     4  10  18  30  50  78 112 152 191 233 277 326
#     4   9  18  32  51  79 116 155 193 231 276 330
#     4   9  20  37  57  83 114 146 187 238 285 334
#     4  10  21  39  60  82 115 149 185 235 284 336
#     4  12  24  37  56  83 114 149 187 229 283 345
#     4  10  19  34  54  79 115 152 184 228 282 339
#     4  10  20  33  52  79 112 152 192 229 277 335
#
# _framework density 19.697490999999999
#
# number of rings (size 3 to 8) (size 9 to 14) (size 15 to 20)
#    0.000    2.000    1.250    2.625    0.000    4.500 
#    0.000    1.875    0.000    2.250    0.000    0.000 
#    0.000    0.000    0.000    0.000    0.000    0.000 
#
# Total GULP energy -396678.923667 kJ/mol
# GULP energy per Si atom -12396.216365 kJ/mol
# Density = 1.965266 g / cm^3
# Si number density = 19.697491 Si / 1000 Ang^3
#
#
#
# Elastic Constant Matrix: (Units=GPa)
#
#
# Indices 1 2 3 4 5 6 
#
# 1 151.5857 42.0988 67.2294 0.0000 0.0000 0.0000
# 2 42.0988 72.8696 37.9143 0.0000 0.0000 0.0000
# 3 67.2294 37.9143 106.4743 0.0000 0.0000 0.0000
# 4 0.0000 0.0000 0.0000 17.7756 0.0000 0.0000
# 5 0.0000 0.0000 0.0000 0.0000 26.5955 0.0000
# 6 0.0000 0.0000 0.0000 0.0000 0.0000 28.9063
#
#
#
# Elastic Compliance Matrix: (Units=1/GPa)
#
#
# Indices 1 2 3 4 5 6 
#
# 1 0.009654 -0.002953 -0.005044 0.000000 0.000000 0.000000
# 2 -0.002953 0.017747 -0.004455 0.000000 0.000000 0.000000
# 3 -0.005044 -0.004455 0.014163 0.000000 0.000000 0.000000
# 4 0.000000 0.000000 0.000000 0.056257 0.000000 0.000000
# 5 0.000000 0.000000 0.000000 0.000000 0.037600 0.000000
# 6 0.000000 0.000000 0.000000 0.000000 0.000000 0.034595
#
#
# Mechanical properties :
#
#
# Convention : Reuss Voigt Hill
#
# Bulk Modulus (GPa) = 60.02341 69.49051 64.75696
# Shear Modulus (GPa) = 24.94083 26.90127 25.92105
#
# Velocity S-wave (km/s) = 3.56222 3.69957 3.63155
# Velocity P-wave (km/s) = 6.88898 7.32152 7.10854
#
# Compressibility (1/GPa) = 0.01666017
#
# Stress axis : x y z
#
# Youngs Moduli (GPa) = 103.58174 56.34729 70.60470
#
# Poissons Ratio (x) = 0.16639 0.35615
# Poissons Ratio (y) = 0.30587 0.31454
# Poissons Ratio (z) = 0.52250 0.25103
#
# Static dielectric constant tensor:
#      x y z
#    x 3.774010 0.000000 0.000000 
#    y 0.000000 3.461540 0.000000 
#    z 0.000000 0.000000 3.555830 
# 
# 
# High freq. dielectric constant tensor:
#      x y z
#    x 1.778320 0.000000 0.000000 
#    y 0.000000 1.760530 0.000000 
#    z 0.000000 0.000000 1.743360 
# 
# From -- ./inp_files/11878.got.cif
#   From: 2010.03.12/outbox.cif.g09.slc.cpg/sg35_6_cif.got.tgz:11878.got - 2010.04.14 02:02:04.
