data_PCOD8172726
_publ_section_title
;
Structure prediction by ZEFSAII (Michael W. Deem and Ramdas Pophale) SiO2 
 PCOD8172726
Probable space group: C M M 2
;
_chemical_formula_sum "Si O2"
_cell_formula_units_Z 56
_cell_length_a 14.444865
_cell_length_b 22.401993
_cell_length_c 8.803601
_cell_angle_alpha 90.000000
_cell_angle_beta 90.000000
_cell_angle_gamma 90.000000
_cell_volume 2848.790390
_symmetry_space_group_name_H-M "C M M 2"
_symmetry_group_IT_number 35
_symmetry_cell_setting 'orthorhombic'
loop_
_space_group_symop_operation_xyz
x,y,z
-x,-y,z
-x,y,z
x,-y,z
1/2+x,1/2+y,z
1/2-x,1/2-y,z
1/2-x,1/2+y,z
1/2+x,1/2-y,z
loop_
_atom_site_type_symbol
_atom_site_label
_atom_site_fract_x
_atom_site_fract_y
_atom_site_fract_z
Si Si1 0.100343 0.660618 0.620210
Si Si2 0.294841 0.388305 0.628521
Si Si3 0.102547 0.214927 0.132413
Si Si4 0.605390 0.500000 0.771217
Si Si5 0.103825 0.660378 0.272669
Si Si6 0.208737 0.890623 0.275442
Si Si7 0.349656 0.726424 0.798043
Si Si8 0.604859 0.500000 0.129608
O O1 0.184494 0.616591 0.666331
O O2 0.114451 0.681693 0.446715
O O3 0.094672 0.719907 0.721406
O O4 0.000000 0.627902 0.639161
O O5 0.338369 0.442436 0.719539
O O6 0.312731 0.399880 0.451899
O O7 0.345149 0.327509 0.678018
O O8 0.126645 0.283751 0.165097
O O9 0.173443 0.173527 0.221447
O O10 0.000000 0.199731 0.193035
O O11 0.102598 0.203738 0.951698
O O12 0.500000 0.500000 0.706000
O O13 0.601686 0.500000 0.950555
O O14 0.180241 0.608711 0.242230
O O15 0.000000 0.635402 0.240276
O O16 0.159192 0.941993 0.182816
O O17 0.250000 0.750000 0.845941
O O18 0.500000 0.500000 0.195156
#
# Coordination Sequence:
#
# PCOD8172726 Si02
#       8
#     8   8   8   4   8   8   8   4
#     4   9  18  35  57  82 112 143 176 218 265 318
#     4  10  22  37  57  82 107 140 183 223 268 317
#     4  11  21  32  51  81 114 148 182 219 267 320
#     4  11  25  43  60  77 104 140 179 223 268 317
#     4   9  19  35  56  82 111 143 179 218 265 318
#     4  11  21  37  58  80 108 142 180 226 268 314
#     4  10  19  32  52  80 114 148 179 217 265 318
#     4  11  25  43  60  79 104 140 181 221 268 319
#
# _framework density 19.657464999999998
#
# number of rings (size 3 to 8) (size 9 to 14) (size 15 to 20)
#    0.000    1.857    0.000    4.286    0.000    7.429 
#    0.000    0.714    0.000    4.286    0.000    0.000 
#    0.000    0.000    0.000    0.000    0.000    0.000 
#
# Total GULP energy -347167.321962 kJ/mol
# GULP energy per Si atom -12398.832927 kJ/mol
# Density = 1.961272 g / cm^3
# Si number density = 19.657465 Si / 1000 Ang^3
#
#
#
# Elastic Constant Matrix: (Units=GPa)
#
#
# Indices 1 2 3 4 5 6 
#
# 1 147.8738 63.9330 39.8196 0.0000 0.0000 0.0000
# 2 63.9330 81.5742 24.0786 0.0000 0.0000 0.0000
# 3 39.8196 24.0786 70.7971 0.0000 0.0000 0.0000
# 4 0.0000 0.0000 0.0000 34.5867 0.0000 0.0000
# 5 0.0000 0.0000 0.0000 0.0000 26.9480 0.0000
# 6 0.0000 0.0000 0.0000 0.0000 0.0000 23.8206
#
#
#
# Elastic Compliance Matrix: (Units=1/GPa)
#
#
# Indices 1 2 3 4 5 6 
#
# 1 0.011004 -0.007556 -0.003619 0.000000 0.000000 0.000000
# 2 -0.007556 0.018815 -0.002149 0.000000 0.000000 0.000000
# 3 -0.003619 -0.002149 0.016892 0.000000 0.000000 0.000000
# 4 0.000000 0.000000 0.000000 0.028913 0.000000 0.000000
# 5 0.000000 0.000000 0.000000 0.000000 0.037108 0.000000
# 6 0.000000 0.000000 0.000000 0.000000 0.000000 0.041980
#
#
# Mechanical properties :
#
#
# Convention : Reuss Voigt Hill
#
# Bulk Modulus (GPa) = 49.84689 61.76751 55.80720
# Shear Modulus (GPa) = 26.58887 28.56532 27.57710
#
# Velocity S-wave (km/s) = 3.68177 3.81616 3.74957
# Velocity P-wave (km/s) = 6.59445 7.13495 6.87002
#
# Compressibility (1/GPa) = 0.02006143
#
# Stress axis : x y z
#
# Youngs Moduli (GPa) = 90.87680 53.14884 59.20119
#
# Poissons Ratio (x) = 0.40159 0.21427
# Poissons Ratio (y) = 0.68666 0.12725
# Poissons Ratio (z) = 0.32891 0.11424
#
# Static dielectric constant tensor:
#      x y z
#    x 3.923600 0.000000 0.000000 
#    y 0.000000 3.354470 0.000000 
#    z 0.000000 0.000000 3.569700 
# 
# 
# High freq. dielectric constant tensor:
#      x y z
#    x 1.787490 0.000000 0.000000 
#    y 0.000000 1.733850 0.000000 
#    z 0.000000 0.000000 1.771450 
# 
# From -- ./inp_files/7678.got.cif
#   From: 2010.03.12/outbox.cif.g09.slc.cpg/sg35_4_cif.got.tgz:7678.got - 2010.04.14 02:02:04.
