data_PCOD8172049
_publ_section_title
;
Structure prediction by ZEFSAII (Michael W. Deem and Ramdas Pophale) SiO2 
 PCOD8172049
Probable space group: P N N 2
;
_chemical_formula_sum "Si O2"
_cell_formula_units_Z 24
_cell_length_a 12.594767
_cell_length_b 13.345346
_cell_length_c 6.312723
_cell_angle_alpha 90.000000
_cell_angle_beta 90.000000
_cell_angle_gamma 90.000000
_cell_volume 1061.052099
_symmetry_space_group_name_H-M "P N N 2"
_symmetry_group_IT_number 34
_symmetry_cell_setting 'orthorhombic'
loop_
_space_group_symop_operation_xyz
x,y,z
-x,-y,z
1/2-x,1/2+y,1/2+z
1/2+x,1/2-y,1/2+z
loop_
_atom_site_type_symbol
_atom_site_label
_atom_site_fract_x
_atom_site_fract_y
_atom_site_fract_z
Si Si1 0.871351 0.398620 0.413970
Si Si2 0.000000 0.500000 0.743463
Si Si3 0.619441 0.630963 0.641296
Si Si4 0.000000 0.000000 0.455636
Si Si5 0.511016 0.184016 0.557723
Si Si6 0.684575 0.517362 0.253646
Si Si7 0.750053 0.706292 0.001960
O O1 0.786598 0.445399 0.250168
O O2 0.819425 0.305488 0.536093
O O3 0.899176 0.481057 0.591077
O O4 0.976518 0.366006 0.281830
O O5 0.014811 0.400803 0.879584
O O6 0.533477 0.595649 0.816397
O O7 0.570697 0.725117 0.511398
O O8 0.641870 0.535753 0.491553
O O9 0.727221 0.664719 0.763494
O O10 0.903246 0.964408 0.606419
O O11 0.627947 0.231872 0.552226
O O12 0.714376 0.626547 0.173926
#
# Coordination Sequence:
#
# PCOD8172049 Si02
#       7
#     4   2   4   2   4   4   4
#     4  11  25  42  69 102 133 180 229 276 351 407
#     4  12  22  42  72  96 132 182 222 278 342 408
#     4  10  23  43  65  97 130 175 222 277 337 404
#     4  10  24  40  66  94 130 172 224 276 340 400
#     4  11  24  44  66  98 139 173 226 280 339 407
#     4  11  22  43  66  93 135 171 224 280 336 410
#     4  10  23  42  62 100 132 173 225 276 340 410
#
# _framework density 22.619060000000001
#
# number of rings (size 3 to 8) (size 9 to 14) (size 15 to 20)
#    0.000    1.333    0.000    5.000    4.667    1.333 
#    6.000    0.000    0.000    0.000    0.000    0.000 
#    0.000    0.000    0.000    0.000    0.000    0.000 
#
# Total GULP energy -297589.868589 kJ/mol
# GULP energy per Si atom -12399.577858 kJ/mol
# Density = 2.256758 g / cm^3
# Si number density = 22.619060 Si / 1000 Ang^3
#
#
#
# Elastic Constant Matrix: (Units=GPa)
#
#
# Indices 1 2 3 4 5 6 
#
# 1 105.6456 19.5888 25.3954 0.0000 0.0000 0.0000
# 2 19.5888 85.0546 16.5181 0.0000 0.0000 0.0000
# 3 25.3954 16.5181 58.1583 0.0000 0.0000 0.0000
# 4 0.0000 0.0000 0.0000 44.6106 0.0000 0.0000
# 5 0.0000 0.0000 0.0000 0.0000 32.7792 0.0000
# 6 0.0000 0.0000 0.0000 0.0000 0.0000 36.6019
#
#
#
# Elastic Compliance Matrix: (Units=1/GPa)
#
#
# Indices 1 2 3 4 5 6 
#
# 1 0.010793 -0.001662 -0.004241 0.000000 0.000000 0.000000
# 2 -0.001662 0.012699 -0.002881 0.000000 0.000000 0.000000
# 3 -0.004241 -0.002881 0.019865 0.000000 0.000000 0.000000
# 4 0.000000 0.000000 0.000000 0.022416 0.000000 0.000000
# 5 0.000000 0.000000 0.000000 0.000000 0.030507 0.000000
# 6 0.000000 0.000000 0.000000 0.000000 0.000000 0.027321
#
#
# Mechanical properties :
#
#
# Convention : Reuss Voigt Hill
#
# Bulk Modulus (GPa) = 38.77623 41.31811 40.04717
# Shear Modulus (GPa) = 33.38535 35.28875 34.33705
#
# Velocity S-wave (km/s) = 3.84602 3.95414 3.90045
# Velocity P-wave (km/s) = 6.07477 6.25728 6.16670
#
# Compressibility (1/GPa) = 0.02578899
#
# Stress axis : x y z
#
# Youngs Moduli (GPa) = 92.65056 78.74326 50.34088
#
# Poissons Ratio (x) = 0.13088 0.21349
# Poissons Ratio (y) = 0.15400 0.14504
# Poissons Ratio (z) = 0.39292 0.22687
#
# Static dielectric constant tensor:
#      x y z
#    x 4.211420 0.000000 0.000000 
#    y 0.000000 4.063600 0.000000 
#    z 0.000000 0.000000 4.047240 
# 
# 
# High freq. dielectric constant tensor:
#      x y z
#    x 1.892360 0.000000 0.000000 
#    y 0.000000 1.893540 0.000000 
#    z 0.000000 0.000000 1.890150 
# 
# From -- ./inp_files/1262.got.cif
#   From: 2010.03.12/outbox.cif.g09.slc.cpg/sg34_1_cif.got.tgz:1262.got - 2010.04.14 01:56:33.
