data_PCOD8172964
_publ_section_title
;
Structure prediction by ZEFSAII (Michael W. Deem and Ramdas Pophale) SiO2 
 PCOD8172964
Probable space group: C M M 2
;
_chemical_formula_sum "Si O2"
_cell_formula_units_Z 64
_cell_length_a 29.531205
_cell_length_b 8.680022
_cell_length_c 12.346613
_cell_angle_alpha 90.000000
_cell_angle_beta 90.000000
_cell_angle_gamma 90.000000
_cell_volume 3164.825942
_symmetry_space_group_name_H-M "C M M 2"
_symmetry_group_IT_number 35
_symmetry_cell_setting 'orthorhombic'
loop_
_space_group_symop_operation_xyz
x,y,z
-x,-y,z
-x,y,z
x,-y,z
1/2+x,1/2+y,z
1/2-x,1/2-y,z
1/2-x,1/2+y,z
1/2+x,1/2-y,z
loop_
_atom_site_type_symbol
_atom_site_label
_atom_site_fract_x
_atom_site_fract_y
_atom_site_fract_z
Si Si1 0.550197 0.318397 0.323580
Si Si2 0.800264 0.817499 0.574154
Si Si3 0.950966 0.182593 0.856685
Si Si4 0.431199 0.671264 0.089637
Si Si5 0.168401 0.173210 0.159533
Si Si6 0.858135 0.681215 0.381899
Si Si7 0.143681 0.182102 0.781926
Si Si8 0.295084 0.181338 0.957797
O O1 0.500000 0.288093 0.373669
O O2 0.561889 0.500000 0.321134
O O3 0.550813 0.249549 0.200689
O O4 0.589530 0.237482 0.393947
O O5 0.750000 0.750000 0.581228
O O6 0.826157 0.761439 0.468565
O O7 0.830203 0.759317 0.675703
O O8 0.796416 0.000000 0.571763
O O9 0.909671 0.232206 0.777610
O O10 0.000000 0.233506 0.807903
O O11 0.948282 0.000000 0.869635
O O12 0.946479 0.255441 0.978391
O O13 0.451749 0.500000 0.089211
O O14 0.377319 0.667880 0.090789
O O15 0.162524 0.274749 0.266324
O O16 0.184068 0.000000 0.190684
O O17 0.204115 0.253519 0.080304
O O18 0.856504 0.500000 0.399001
O O19 0.162614 0.265246 0.887507
O O20 0.149360 0.000000 0.795885
O O21 0.250000 0.250000 0.901820
O O22 0.292814 0.000000 0.961383
#
# Coordination Sequence:
#
# PCOD8172964 Si02
#       8
#     8   8   8   8   8   8   8   8
#     4   9  17  31  54  86 122 163 208 248 290 345
#     4  11  24  43  66  88 112 148 201 256 309 365
#     4   9  15  26  51  87 121 154 194 237 283 336
#     4   8  13  24  48  80 116 153 193 237 279 329
#     4  10  19  36  59  84 119 157 196 241 294 351
#     4  11  23  39  60  88 122 155 197 248 308 367
#     4  10  21  39  61  88 121 155 198 250 298 349
#     4  12  24  37  57  86 120 157 196 239 298 364
#
# _framework density 20.222282
#
# number of rings (size 3 to 8) (size 9 to 14) (size 15 to 20)
#    0.000    2.000    1.250    4.500    0.000    4.250 
#    0.000    3.125    0.000    2.625    0.000    0.000 
#    0.000    0.000    0.000    0.000    0.000    0.000 
#
# Total GULP energy -396592.405268 kJ/mol
# GULP energy per Si atom -12393.512665 kJ/mol
# Density = 2.017625 g / cm^3
# Si number density = 20.222282 Si / 1000 Ang^3
#
#
#
# Elastic Constant Matrix: (Units=GPa)
#
#
# Indices 1 2 3 4 5 6 
#
# 1 163.1021 31.9522 63.6348 0.0000 0.0000 0.0000
# 2 31.9522 57.0328 22.0427 0.0000 0.0000 0.0000
# 3 63.6348 22.0427 85.0765 0.0000 0.0000 0.0000
# 4 0.0000 0.0000 0.0000 17.8608 0.0000 0.0000
# 5 0.0000 0.0000 0.0000 0.0000 31.8481 0.0000
# 6 0.0000 0.0000 0.0000 0.0000 0.0000 24.2773
#
#
#
# Elastic Compliance Matrix: (Units=1/GPa)
#
#
# Indices 1 2 3 4 5 6 
#
# 1 0.009022 -0.002719 -0.006044 0.000000 0.000000 0.000000
# 2 -0.002719 0.020304 -0.003227 0.000000 0.000000 0.000000
# 3 -0.006044 -0.003227 0.017111 0.000000 0.000000 0.000000
# 4 0.000000 0.000000 0.000000 0.055989 0.000000 0.000000
# 5 0.000000 0.000000 0.000000 0.000000 0.031399 0.000000
# 6 0.000000 0.000000 0.000000 0.000000 0.000000 0.041191
#
#
# Mechanical properties :
#
#
# Convention : Reuss Voigt Hill
#
# Bulk Modulus (GPa) = 44.52812 60.05232 52.29022
# Shear Modulus (GPa) = 24.21548 27.30267 25.75907
#
# Velocity S-wave (km/s) = 3.46420 3.67840 3.57290
# Velocity P-wave (km/s) = 6.16993 6.91385 6.55246
#
# Compressibility (1/GPa) = 0.02245772
#
# Stress axis : x y z
#
# Youngs Moduli (GPa) = 110.84505 49.25108 58.44293
#
# Poissons Ratio (x) = 0.13389 0.35320
# Poissons Ratio (y) = 0.30133 0.18861
# Poissons Ratio (z) = 0.66990 0.15895
#
# Static dielectric constant tensor:
#      x y z
#    x 3.960650 0.000000 0.000000 
#    y 0.000000 3.359480 0.000000 
#    z 0.000000 0.000000 3.559310 
# 
# 
# High freq. dielectric constant tensor:
#      x y z
#    x 1.806300 0.000000 0.000000 
#    y 0.000000 1.755970 0.000000 
#    z 0.000000 0.000000 1.770120 
# 
# From -- ./inp_files/14589.got.cif
#   From: 2010.03.12/outbox.cif.g09.slc.cpg/sg35_8_cif.got.tgz:14589.got - 2010.04.14 02:02:04.
