data_PCOD8172502
_publ_section_title
;
Structure prediction by ZEFSAII (Michael W. Deem and Ramdas Pophale) SiO2 
 PCOD8172502
Probable space group: C M M 2
;
_chemical_formula_sum "Si O2"
_cell_formula_units_Z 48
_cell_length_a 8.699930
_cell_length_b 26.371735
_cell_length_c 11.530328
_cell_angle_alpha 90.000000
_cell_angle_beta 90.000000
_cell_angle_gamma 90.000000
_cell_volume 2645.429079
_symmetry_space_group_name_H-M "C M M 2"
_symmetry_group_IT_number 35
_symmetry_cell_setting 'orthorhombic'
loop_
_space_group_symop_operation_xyz
x,y,z
-x,-y,z
-x,y,z
x,-y,z
1/2+x,1/2+y,z
1/2-x,1/2-y,z
1/2-x,1/2+y,z
1/2+x,1/2-y,z
loop_
_atom_site_type_symbol
_atom_site_label
_atom_site_fract_x
_atom_site_fract_y
_atom_site_fract_z
Si Si1 0.169118 0.878436 0.964100
Si Si2 0.180599 0.442179 0.151478
Si Si3 0.167618 0.203167 0.158311
Si Si4 0.321122 0.139164 0.337108
Si Si5 0.682343 0.803563 0.788791
Si Si6 0.682281 0.696593 0.536954
O O1 0.271805 0.852427 0.865288
O O2 0.000000 0.893720 0.914664
O O3 0.248919 0.926490 0.026460
O O4 0.144684 0.839254 0.065334
O O5 0.226383 0.500000 0.176347
O O6 0.238749 0.409862 0.263641
O O7 0.000000 0.433851 0.139261
O O8 0.250000 0.250000 0.094762
O O9 0.285309 0.188116 0.259523
O O10 0.000000 0.216762 0.211116
O O11 0.500000 0.134659 0.366359
O O12 0.228895 0.148479 0.456526
O O13 0.500000 0.798615 0.786359
O O14 0.750000 0.750000 0.836342
O O15 0.747054 0.814717 0.662015
O O16 0.500000 0.700827 0.546364
O O17 0.750000 0.750000 0.489040
#
# Coordination Sequence:
#
# PCOD8172502 Si02
#       6
#     8   8   8   8   8   8
#     4  10  20  33  50  74 102 133 169 209 254 303
#     4   9  19  36  57  79 102 131 168 212 263 314
#     4  10  19  29  43  66  97 130 163 199 243 295
#     4  10  19  32  50  72  99 130 166 207 252 302
#     4  11  21  34  52  75 105 140 176 211 249 298
#     4  11  21  34  51  73 104 139 175 210 247 297
#
# _framework density 18.144504000000001
#
# number of rings (size 3 to 8) (size 9 to 14) (size 15 to 20)
#    0.000    1.833    0.000    6.500    0.000    4.333 
#    0.000    0.000    0.000    1.000    0.000    2.333 
#    0.000    0.000    0.000    0.000    0.000    0.000 
#
# Total GULP energy -297425.156629 kJ/mol
# GULP energy per Si atom -12392.714860 kJ/mol
# Density = 1.810321 g / cm^3
# Si number density = 18.144504 Si / 1000 Ang^3
#
#
#
# Elastic Constant Matrix: (Units=GPa)
#
#
# Indices 1 2 3 4 5 6 
#
# 1 123.5242 46.7091 43.1248 0.0000 0.0000 0.0000
# 2 46.7091 89.2870 43.4906 0.0000 0.0000 0.0000
# 3 43.1248 43.4906 89.5187 0.0000 0.0000 0.0000
# 4 0.0000 0.0000 0.0000 28.0080 0.0000 0.0000
# 5 0.0000 0.0000 0.0000 0.0000 31.9598 0.0000
# 6 0.0000 0.0000 0.0000 0.0000 0.0000 21.9717
#
#
#
# Elastic Compliance Matrix: (Units=1/GPa)
#
#
# Indices 1 2 3 4 5 6 
#
# 1 0.010751 -0.004063 -0.003205 0.000000 0.000000 0.000000
# 2 -0.004063 0.016207 -0.005917 0.000000 0.000000 0.000000
# 3 -0.003205 -0.005917 0.015589 0.000000 0.000000 0.000000
# 4 0.000000 0.000000 0.000000 0.035704 0.000000 0.000000
# 5 0.000000 0.000000 0.000000 0.000000 0.031289 0.000000
# 6 0.000000 0.000000 0.000000 0.000000 0.000000 0.045513
#
#
# Mechanical properties :
#
#
# Convention : Reuss Voigt Hill
#
# Bulk Modulus (GPa) = 61.81270 63.21986 62.51628
# Shear Modulus (GPa) = 26.76423 27.65491 27.20957
#
# Velocity S-wave (km/s) = 3.84482 3.90827 3.87667
# Velocity P-wave (km/s) = 7.33832 7.43533 7.38699
#
# Compressibility (1/GPa) = 0.01617791
#
# Stress axis : x y z
#
# Youngs Moduli (GPa) = 93.01493 61.70090 64.14605
#
# Poissons Ratio (x) = 0.25069 0.20561
# Poissons Ratio (y) = 0.37791 0.37953
# Poissons Ratio (z) = 0.29814 0.36506
#
# Static dielectric constant tensor:
#      x y z
#    x 3.661370 0.000000 0.000000 
#    y 0.000000 3.525950 0.000000 
#    z 0.000000 0.000000 3.415820 
# 
# 
# High freq. dielectric constant tensor:
#      x y z
#    x 1.720130 0.000000 0.000000 
#    y 0.000000 1.672440 0.000000 
#    z 0.000000 0.000000 1.694500 
# 
# From -- ./inp_files/11375.got.cif
#   From: 2010.03.12/outbox.cif.g09.slc.cpg/sg35_6_cif.got.tgz:11375.got - 2010.04.14 02:02:04.
