data_PCOD8172445
_publ_section_title
;
Structure prediction by ZEFSAII (Michael W. Deem and Ramdas Pophale) SiO2 
 PCOD8172445
Probable space group: C M M 2
;
_chemical_formula_sum "Si O2"
_cell_formula_units_Z 40
_cell_length_a 10.026450
_cell_length_b 18.760904
_cell_length_c 11.345939
_cell_angle_alpha 90.000000
_cell_angle_beta 90.000000
_cell_angle_gamma 90.000000
_cell_volume 2134.230873
_symmetry_space_group_name_H-M "C M M 2"
_symmetry_group_IT_number 35
_symmetry_cell_setting 'orthorhombic'
loop_
_space_group_symop_operation_xyz
x,y,z
-x,-y,z
-x,y,z
x,-y,z
1/2+x,1/2+y,z
1/2-x,1/2-y,z
1/2-x,1/2+y,z
1/2+x,1/2-y,z
loop_
_atom_site_type_symbol
_atom_site_label
_atom_site_fract_x
_atom_site_fract_y
_atom_site_fract_z
Si Si1 0.500000 0.844845 0.176311
Si Si2 0.746465 0.580241 0.578043
Si Si3 0.500000 0.577043 0.408275
Si Si4 0.740645 0.334359 0.042710
Si Si5 0.500000 0.675835 0.197374
Si Si6 0.839400 0.179650 0.790125
Si Si7 0.000000 0.415389 0.432889
O O1 0.375562 0.868061 0.094872
O O2 0.500000 0.760894 0.201953
O O3 0.500000 0.883139 0.301897
O O4 0.775971 0.500000 0.622867
O O5 0.628648 0.581495 0.486896
O O6 0.704433 0.627194 0.687943
O O7 0.873709 0.611588 0.508331
O O8 0.500000 0.500000 0.341054
O O9 0.500000 0.646168 0.327933
O O10 0.750000 0.250000 0.035425
O O11 0.627074 0.357020 0.132965
O O12 0.701881 0.360410 0.911609
O O13 0.750000 0.250000 0.774370
O O14 0.000000 0.196110 0.788528
O O15 0.000000 0.500000 0.416943
#
# Coordination Sequence:
#
# PCOD8172445 Si02
#       7
#     4   8   4   8   4   8   4
#     4  10  20  35  58  82 112 151 187 232 283 346
#     4  10  22  40  60  81 116 159 193 237 295 346
#     4  10  20  35  56  80 110 151 191 234 289 340
#     4   9  19  34  55  82 113 146 182 230 291 338
#     4  10  18  33  54  80 110 143 189 230 279 342
#     4  11  23  38  61  89 118 150 195 245 289 347
#     4  10  22  39  58  84 118 155 195 240 291 344
#
# _framework density 18.742115999999999
#
# number of rings (size 3 to 8) (size 9 to 14) (size 15 to 20)
#    0.000    2.000    2.000    1.200    5.600    1.600 
#    0.000    2.000    0.000    0.000    0.000    0.000 
#    0.000    0.000    0.000    0.000    0.000    0.000 
#
# Total GULP energy -247886.278279 kJ/mol
# GULP energy per Si atom -12394.313914 kJ/mol
# Density = 1.869946 g / cm^3
# Si number density = 18.742116 Si / 1000 Ang^3
#
#
#
# Elastic Constant Matrix: (Units=GPa)
#
#
# Indices 1 2 3 4 5 6 
#
# 1 176.5691 33.4687 67.6649 0.0000 0.0000 0.0000
# 2 33.4687 50.7080 49.6545 0.0000 0.0000 0.0000
# 3 67.6649 49.6545 131.9891 0.0000 0.0000 0.0000
# 4 0.0000 0.0000 0.0000 -14.6998 0.0000 0.0000
# 5 0.0000 0.0000 0.0000 0.0000 0.8927 0.0000
# 6 0.0000 0.0000 0.0000 0.0000 0.0000 19.6068
#
#
#
# Elastic Compliance Matrix: (Units=1/GPa)
#
#
# Indices 1 2 3 4 5 6 
#
# 1 0.007149 -0.001789 -0.002992 0.000000 0.000000 0.000000
# 2 -0.001789 0.031670 -0.010997 0.000000 0.000000 0.000000
# 3 -0.002992 -0.010997 0.013248 0.000000 0.000000 0.000000
# 4 0.000000 0.000000 0.000000 -0.068028 0.000000 0.000000
# 5 0.000000 0.000000 0.000000 0.000000 1.120161 0.000000
# 6 0.000000 0.000000 0.000000 0.000000 0.000000 0.051003
#
#
# Mechanical properties :
#
#
# Convention : Reuss Voigt Hill
#
# Bulk Modulus (GPa) = 48.75549 73.42693 61.09121
# Shear Modulus (GPa) = 4.18902 15.05849 9.62376
#
# Velocity S-wave (km/s) = 1.49664 2.83761 2.26847
# Velocity P-wave (km/s) = 5.39045 7.07097 6.28711
#
# Compressibility (1/GPa) = 0.02051051
#
# Stress axis : x y z
#
# Youngs Moduli (GPa) = 139.87560 31.57537 75.48544
#
# Poissons Ratio (x) = 0.05648 0.22587
# Poissons Ratio (y) = 0.25019 0.83015
# Poissons Ratio (z) = 0.41853 0.34725
#
# Static dielectric constant tensor:
#      x y z
#    x 3.923730 0.000000 0.000000 
#    y 0.000000 3.253270 0.000000 
#    z 0.000000 0.000000 3.571540 
# 
# 
# High freq. dielectric constant tensor:
#      x y z
#    x 1.753950 0.000000 0.000000 
#    y 0.000000 1.694780 0.000000 
#    z 0.000000 0.000000 1.738110 
# 
# From -- ./inp_files/11243.got.cif
#   From: 2010.03.12/outbox.cif.g09.slc.cpg/sg35_6_cif.got.tgz:11243.got - 2010.04.14 02:02:04.
