data_PCOD8172139
_publ_section_title
;
Structure prediction by ZEFSAII (Michael W. Deem and Ramdas Pophale) SiO2 
 PCOD8172139
Probable space group: P N N 2
;
_chemical_formula_sum "Si O2"
_cell_formula_units_Z 18
_cell_length_a 5.015641
_cell_length_b 23.353566
_cell_length_c 6.227660
_cell_angle_alpha 90.000000
_cell_angle_beta 90.000000
_cell_angle_gamma 90.000000
_cell_volume 729.465141
_symmetry_space_group_name_H-M "P N N 2"
_symmetry_group_IT_number 34
_symmetry_cell_setting 'orthorhombic'
loop_
_space_group_symop_operation_xyz
x,y,z
-x,-y,z
1/2-x,1/2+y,1/2+z
1/2+x,1/2-y,1/2+z
loop_
_atom_site_type_symbol
_atom_site_label
_atom_site_fract_x
_atom_site_fract_y
_atom_site_fract_z
Si Si1 0.000000 0.500000 0.592830
Si Si2 0.751349 0.573081 0.235086
Si Si3 0.299126 0.810220 0.950769
Si Si4 0.251057 0.073036 0.450431
Si Si5 0.698544 0.310191 0.731068
O O1 0.206435 0.460876 0.457628
O O2 0.207187 0.538877 0.728399
O O3 0.729011 0.640591 0.280945
O O4 0.500856 0.552950 0.092173
O O5 0.001069 0.557292 0.093721
O O6 0.602576 0.817405 0.029450
O O7 0.105342 0.815100 0.154714
O O8 0.243192 0.750170 0.839177
O O9 0.241635 0.140644 0.405830
#
# Coordination Sequence:
#
# PCOD8172139 Si02
#       5
#     2   4   4   4   4
#     4  12  30  54  76 112 164 202 270 318 390 460
#     4  12  28  51  78 113 152 204 259 315 387 457
#     4  12  24  46  76 112 154 194 248 319 380 458
#     4  12  28  51  78 113 152 204 259 315 387 457
#     4  12  24  46  76 112 154 194 248 319 380 458
#
# _framework density 24.675613999999999
#
# number of rings (size 3 to 8) (size 9 to 14) (size 15 to 20)
#    0.000    0.000    2.222    7.333    0.000    5.333 
#    0.000    0.000    0.000    0.000    0.000    0.000 
#    0.000    0.000    0.000    0.000    0.000    0.000 
#
# Total GULP energy -223331.947483 kJ/mol
# GULP energy per Si atom -12407.330416 kJ/mol
# Density = 2.461945 g / cm^3
# Si number density = 24.675614 Si / 1000 Ang^3
#
#
#
# Elastic Constant Matrix: (Units=GPa)
#
#
# Indices 1 2 3 4 5 6 
#
# 1 166.6030 35.8090 63.8282 0.0000 0.0000 0.0000
# 2 35.8090 171.8481 68.2314 0.0000 0.0000 0.0000
# 3 63.8282 68.2314 137.3652 0.0000 0.0000 0.0000
# 4 0.0000 0.0000 0.0000 30.7500 0.0000 0.0000
# 5 0.0000 0.0000 0.0000 0.0000 48.6161 0.0000
# 6 0.0000 0.0000 0.0000 0.0000 0.0000 33.3622
#
#
#
# Elastic Compliance Matrix: (Units=1/GPa)
#
#
# Indices 1 2 3 4 5 6 
#
# 1 0.007309 -0.000217 -0.003288 0.000000 0.000000 0.000000
# 2 -0.000217 0.007255 -0.003503 0.000000 0.000000 0.000000
# 3 -0.003288 -0.003503 0.010548 0.000000 0.000000 0.000000
# 4 0.000000 0.000000 0.000000 0.032520 0.000000 0.000000
# 5 0.000000 0.000000 0.000000 0.000000 0.020569 0.000000
# 6 0.000000 0.000000 0.000000 0.000000 0.000000 0.029974
#
#
# Mechanical properties :
#
#
# Convention : Reuss Voigt Hill
#
# Bulk Modulus (GPa) = 90.13085 90.17260 90.15173
# Shear Modulus (GPa) = 39.71724 43.07549 41.39637
#
# Velocity S-wave (km/s) = 4.01630 4.18265 4.10032
# Velocity P-wave (km/s) = 7.62320 7.74265 7.68316
#
# Compressibility (1/GPa) = 0.01109498
#
# Stress axis : x y z
#
# Youngs Moduli (GPa) = 136.82237 137.83347 94.80877
#
# Poissons Ratio (x) = 0.02997 0.31174
# Poissons Ratio (y) = 0.02975 0.33209
# Poissons Ratio (z) = 0.44988 0.48279
#
# Static dielectric constant tensor:
#      x y z
#    x 4.404510 0.000000 0.000000 
#    y 0.000000 4.799230 0.000000 
#    z 0.000000 0.000000 4.458050 
# 
# 
# High freq. dielectric constant tensor:
#      x y z
#    x 1.989730 0.000000 0.000000 
#    y 0.000000 2.012130 0.000000 
#    z 0.000000 0.000000 1.986560 
# 
# From -- ./inp_files/141.got.cif
#   From: 2010.03.12/outbox.cif.g09.slc.cpg/sg34_1_cif.got.tgz:141.got - 2010.04.14 01:56:33.
