data_PCOD8172176
_publ_section_title
;
Structure prediction by ZEFSAII (Michael W. Deem and Ramdas Pophale) SiO2 
 PCOD8172176
Probable space group: C M M 2
;
_chemical_formula_sum "Si O2"
_cell_formula_units_Z 56
_cell_length_a 30.646786
_cell_length_b 9.001684
_cell_length_c 12.675701
_cell_angle_alpha 90.000000
_cell_angle_beta 90.000000
_cell_angle_gamma 90.000000
_cell_volume 3496.879646
_symmetry_space_group_name_H-M "C M M 2"
_symmetry_group_IT_number 35
_symmetry_cell_setting 'orthorhombic'
loop_
_space_group_symop_operation_xyz
x,y,z
-x,-y,z
-x,y,z
x,-y,z
1/2+x,1/2+y,z
1/2-x,1/2-y,z
1/2-x,1/2+y,z
1/2+x,1/2-y,z
loop_
_atom_site_type_symbol
_atom_site_label
_atom_site_fract_x
_atom_site_fract_y
_atom_site_fract_z
Si Si1 0.120631 0.325275 0.608010
Si Si2 0.613304 0.830724 0.364863
Si Si3 0.209731 0.327029 0.376211
Si Si4 0.051853 0.835464 0.979445
Si Si5 0.451225 0.323708 0.209667
Si Si6 0.950938 0.325266 0.773394
Si Si7 0.292647 0.676911 0.602500
O O1 0.130422 0.500000 0.617434
O O2 0.110863 0.282257 0.487020
O O3 0.079094 0.274217 0.676346
O O4 0.162522 0.237144 0.653993
O O5 0.662779 0.811530 0.319559
O O6 0.581228 0.728321 0.299732
O O7 0.597876 0.000000 0.352310
O O8 0.219617 0.500000 0.400210
O O9 0.250000 0.250000 0.310649
O O10 0.206939 0.233095 0.482837
O O11 0.065576 0.768788 0.094026
O O12 0.000000 0.842687 0.978296
O O13 0.071568 0.000000 0.963985
O O14 0.068961 0.735205 0.883239
O O15 0.500000 0.262265 0.233197
O O16 0.452350 0.500000 0.208180
O O17 0.951578 0.500000 0.783355
O O18 0.000000 0.264221 0.752903
O O19 0.290400 0.500000 0.610277
O O20 0.250000 0.750000 0.659216
#
# Coordination Sequence:
#
# PCOD8172176 Si02
#       7
#     8   8   8   8   8   8   8
#     4   9  18  31  43  61  92 121 145 176 215 258
#     4   9  18  29  42  63  90 118 146 176 211 256
#     4   9  16  27  42  61  85 112 143 178 216 255
#     4   8  15  29  46  62  82 108 141 184 226 257
#     4   9  18  31  45  62  86 116 148 182 218 254
#     4   9  17  29  46  66  87 114 147 181 216 255
#     4  10  17  26  42  62  84 112 146 180 215 254
#
# _framework density 16.014275999999999
#
# number of rings (size 3 to 8) (size 9 to 14) (size 15 to 20)
#    0.000    3.000    0.000    4.286    0.000    4.857 
#    0.000    2.857    0.000    1.714    0.000    1.000 
#    0.000    4.571    0.000    0.000    0.000    0.000 
#
# Total GULP energy -346926.533753 kJ/mol
# GULP energy per Si atom -12390.233348 kJ/mol
# Density = 1.597783 g / cm^3
# Si number density = 16.014276 Si / 1000 Ang^3
#
#
#
# Elastic Constant Matrix: (Units=GPa)
#
#
# Indices 1 2 3 4 5 6 
#
# 1 108.7212 44.6491 55.4481 0.0000 0.0000 0.0000
# 2 44.6491 61.1598 29.2159 0.0000 0.0000 0.0000
# 3 55.4481 29.2159 77.2313 0.0000 0.0000 0.0000
# 4 0.0000 0.0000 0.0000 22.6388 0.0000 0.0000
# 5 0.0000 0.0000 0.0000 0.0000 0.9187 0.0000
# 6 0.0000 0.0000 0.0000 0.0000 0.0000 27.2688
#
#
#
# Elastic Compliance Matrix: (Units=1/GPa)
#
#
# Indices 1 2 3 4 5 6 
#
# 1 0.017323 -0.008184 -0.009341 0.000000 0.000000 0.000000
# 2 -0.008184 0.023824 -0.003136 0.000000 0.000000 0.000000
# 3 -0.009341 -0.003136 0.020841 0.000000 0.000000 0.000000
# 4 0.000000 0.000000 0.000000 0.044172 0.000000 0.000000
# 5 0.000000 0.000000 0.000000 0.000000 1.088507 0.000000
# 6 0.000000 0.000000 0.000000 0.000000 0.000000 0.036672
#
#
# Mechanical properties :
#
#
# Convention : Reuss Voigt Hill
#
# Bulk Modulus (GPa) = 48.39258 56.19316 52.29287
# Shear Modulus (GPa) = 3.90763 18.01854 10.96308
#
# Velocity S-wave (km/s) = 1.56377 3.35797 2.61929
# Velocity P-wave (km/s) = 5.79176 7.08521 6.47089
#
# Compressibility (1/GPa) = 0.02066432
#
# Stress axis : x y z
#
# Youngs Moduli (GPa) = 57.72762 41.97505 47.98271
#
# Poissons Ratio (x) = 0.34353 0.44820
# Poissons Ratio (y) = 0.47245 0.15049
# Poissons Ratio (z) = 0.53922 0.13165
#
# Static dielectric constant tensor:
#      x y z
#    x 3.579360 0.000000 0.000000 
#    y 0.000000 3.058720 0.000000 
#    z 0.000000 0.000000 2.895680 
# 
# 
# High freq. dielectric constant tensor:
#      x y z
#    x 1.613400 0.000000 0.000000 
#    y 0.000000 1.616010 0.000000 
#    z 0.000000 0.000000 1.574500 
# 
# From -- ./inp_files/16072.got.cif
#   From: 2010.03.12/outbox.cif.g09.slc.cpg/sg35_9_cif.got.tgz:16072.got - 2010.04.14 02:02:04.
