data_PCOD8172175
_publ_section_title
;
Structure prediction by ZEFSAII (Michael W. Deem and Ramdas Pophale) SiO2 
 PCOD8172175
Probable space group: C M M 2
;
_chemical_formula_sum "Si O2"
_cell_formula_units_Z 64
_cell_length_a 9.007456
_cell_length_b 30.350565
_cell_length_c 15.216908
_cell_angle_alpha 90.000000
_cell_angle_beta 90.000000
_cell_angle_gamma 90.000000
_cell_volume 4160.019290
_symmetry_space_group_name_H-M "C M M 2"
_symmetry_group_IT_number 35
_symmetry_cell_setting 'orthorhombic'
loop_
_space_group_symop_operation_xyz
x,y,z
-x,-y,z
-x,y,z
x,-y,z
1/2+x,1/2+y,z
1/2-x,1/2-y,z
1/2-x,1/2+y,z
1/2+x,1/2-y,z
loop_
_atom_site_type_symbol
_atom_site_label
_atom_site_fract_x
_atom_site_fract_y
_atom_site_fract_z
Si Si1 0.332808 0.552492 0.528300
Si Si2 0.669537 0.888342 0.008384
Si Si3 0.827130 0.709222 0.017123
Si Si4 0.173775 0.949431 0.874378
Si Si5 0.327006 0.050007 0.354387
Si Si6 0.676486 0.292826 0.205729
Si Si7 0.167061 0.552451 0.699213
Si Si8 0.172918 0.620411 0.210939
O O1 0.500000 0.570276 0.530903
O O2 0.327028 0.500000 0.530597
O O3 0.256502 0.569577 0.439220
O O4 0.248221 0.571863 0.613232
O O5 0.500000 0.903980 0.995630
O O6 0.688823 0.838361 0.970488
O O7 0.777217 0.920941 0.957426
O O8 0.714992 0.890686 0.110596
O O9 0.750000 0.750000 0.962850
O O10 0.000000 0.719384 0.036139
O O11 0.735031 0.706378 0.106551
O O12 0.251867 0.930752 0.786953
O O13 0.000000 0.944673 0.859940
O O14 0.219310 0.000000 0.892144
O O15 0.500000 0.052352 0.376168
O O16 0.285041 0.078234 0.269109
O O17 0.277009 0.000000 0.334368
O O18 0.500000 0.289876 0.210824
O O19 0.750000 0.250000 0.253392
O O20 0.733608 0.338303 0.249092
O O21 0.170995 0.500000 0.696200
O O22 0.000000 0.570597 0.700285
O O23 0.000000 0.632822 0.217156
#
# Coordination Sequence:
#
# PCOD8172175 Si02
#       8
#     8   8   8   8   8   8   8   8
#     4   9  16  26  41  61  84 107 133 171 216 256
#     4   9  18  30  43  60  83 113 147 179 210 248
#     4   9  16  27  43  62  82 104 134 172 214 256
#     4  10  20  31  42  59  84 113 145 180 215 250
#     4   9  17  29  44  61  83 114 149 180 210 247
#     4  10  17  26  42  61  81 105 135 172 216 260
#     4   9  16  27  44  62  79 103 136 173 214 258
#     4   9  18  31  44  60  84 113 147 183 213 245
#
# _framework density 15.384543000000001
#
# number of rings (size 3 to 8) (size 9 to 14) (size 15 to 20)
#    0.000    2.750    0.000    4.125    0.000    7.250 
#    0.000    1.250    0.000    1.500    0.000    0.000 
#    0.000    1.000    0.000    8.250    0.000    5.750 
#
# Total GULP energy -396634.357917 kJ/mol
# GULP energy per Si atom -12394.823685 kJ/mol
# Density = 1.534953 g / cm^3
# Si number density = 15.384543 Si / 1000 Ang^3
#
#
#
# Elastic Constant Matrix: (Units=GPa)
#
#
# Indices 1 2 3 4 5 6 
#
# 1 101.2125 45.7018 45.4243 0.0000 0.0000 0.0000
# 2 45.7018 75.1048 44.3340 0.0000 0.0000 0.0000
# 3 45.4243 44.3340 83.2477 0.0000 0.0000 0.0000
# 4 0.0000 0.0000 0.0000 0.9813 0.0000 0.0000
# 5 0.0000 0.0000 0.0000 0.0000 22.0899 0.0000
# 6 0.0000 0.0000 0.0000 0.0000 0.0000 24.0644
#
#
#
# Elastic Compliance Matrix: (Units=1/GPa)
#
#
# Indices 1 2 3 4 5 6 
#
# 1 0.014828 -0.006194 -0.004792 0.000000 0.000000 0.000000
# 2 -0.006194 0.022007 -0.008340 0.000000 0.000000 0.000000
# 3 -0.004792 -0.008340 0.019069 0.000000 0.000000 0.000000
# 4 0.000000 0.000000 0.000000 1.019042 0.000000 0.000000
# 5 0.000000 0.000000 0.000000 0.000000 0.045269 0.000000
# 6 0.000000 0.000000 0.000000 0.000000 0.000000 0.041555
#
#
# Mechanical properties :
#
#
# Convention : Reuss Voigt Hill
#
# Bulk Modulus (GPa) = 57.96799 58.94278 58.45539
# Shear Modulus (GPa) = 4.14534 17.70078 10.92306
#
# Velocity S-wave (km/s) = 1.64327 3.39567 2.66748
# Velocity P-wave (km/s) = 6.43130 7.33282 6.89680
#
# Compressibility (1/GPa) = 0.01725090
#
# Stress axis : x y z
#
# Youngs Moduli (GPa) = 67.44087 45.44011 52.44175
#
# Poissons Ratio (x) = 0.28146 0.25131
# Poissons Ratio (y) = 0.41773 0.43737
# Poissons Ratio (z) = 0.32319 0.37898
#
# Static dielectric constant tensor:
#      x y z
#    x 3.077910 0.000000 0.000000 
#    y 0.000000 3.195940 0.000000 
#    z 0.000000 0.000000 2.760810 
# 
# 
# High freq. dielectric constant tensor:
#      x y z
#    x 1.603150 0.000000 0.000000 
#    y 0.000000 1.565250 0.000000 
#    z 0.000000 0.000000 1.556880 
# 
# From -- ./inp_files/16134.got.cif
#   From: 2010.03.12/outbox.cif.g09.slc.cpg/sg35_9_cif.got.tgz:16134.got - 2010.04.14 02:02:04.
