data_PCOD8172728
_publ_section_title
;
Structure prediction by ZEFSAII (Michael W. Deem and Ramdas Pophale) SiO2 
 PCOD8172728
Probable space group: C M M 2
;
_chemical_formula_sum "Si O2"
_cell_formula_units_Z 64
_cell_length_a 29.107922
_cell_length_b 8.869385
_cell_length_c 12.426865
_cell_angle_alpha 90.000000
_cell_angle_beta 90.000000
_cell_angle_gamma 90.000000
_cell_volume 3208.235868
_symmetry_space_group_name_H-M "C M M 2"
_symmetry_group_IT_number 35
_symmetry_cell_setting 'orthorhombic'
loop_
_space_group_symop_operation_xyz
x,y,z
-x,-y,z
-x,y,z
x,-y,z
1/2+x,1/2+y,z
1/2-x,1/2-y,z
1/2-x,1/2+y,z
1/2+x,1/2-y,z
loop_
_atom_site_type_symbol
_atom_site_label
_atom_site_fract_x
_atom_site_fract_y
_atom_site_fract_z
Si Si1 0.320267 0.326962 0.470430
Si Si2 0.205119 0.170948 0.231791
Si Si3 0.886864 0.176729 0.766333
Si Si4 0.896286 0.820773 0.179156
Si Si5 0.796363 0.678805 0.690297
Si Si6 0.550734 0.830238 0.606765
Si Si7 0.447758 0.679109 0.965149
Si Si8 0.090247 0.671514 0.389923
O O1 0.322415 0.500000 0.510150
O O2 0.291263 0.312387 0.360834
O O3 0.299126 0.226941 0.565302
O O4 0.370469 0.268611 0.445255
O O5 0.250000 0.250000 0.180626
O O6 0.156839 0.237413 0.185690
O O7 0.207793 0.000000 0.194305
O O8 0.838268 0.261329 0.763085
O O9 0.913816 0.211483 0.656408
O O10 0.918183 0.238537 0.864222
O O11 0.877545 0.000000 0.776787
O O12 0.924706 0.746816 0.277416
O O13 0.897921 0.000000 0.192067
O O14 0.920985 0.764579 0.071123
O O15 0.794518 0.500000 0.696860
O O16 0.750000 0.750000 0.739710
O O17 0.500000 0.791941 0.649649
O O18 0.549269 0.820853 0.476675
O O19 0.565485 0.000000 0.641264
O O20 0.500000 0.744083 0.962104
O O21 0.449995 0.500000 0.963210
O O22 0.106475 0.500000 0.369291
#
# Coordination Sequence:
#
# PCOD8172728 Si02
#       8
#     8   8   8   8   8   8   8   8
#     4  10  19  33  53  80 114 153 196 240 284 339
#     4   9  18  30  48  76 110 148 185 225 274 331
#     4  11  22  38  61  87 115 147 194 251 299 352
#     4   9  19  36  56  80 113 147 188 243 297 345
#     4  12  24  38  57  84 118 157 197 238 290 349
#     4  10  21  36  54  80 117 157 191 232 294 359
#     4   9  19  38  64  89 111 144 194 249 301 352
#     4  10  19  32  52  80 117 158 193 233 289 351
#
# _framework density 19.948657999999998
#
# number of rings (size 3 to 8) (size 9 to 14) (size 15 to 20)
#    0.000    2.000    1.250    3.750    0.000    5.250 
#    0.000    1.875    0.000    3.000    0.000    0.000 
#    0.000    0.000    0.000    0.000    0.000    0.000 
#
# Total GULP energy -396687.575711 kJ/mol
# GULP energy per Si atom -12396.486741 kJ/mol
# Density = 1.990325 g / cm^3
# Si number density = 19.948658 Si / 1000 Ang^3
#
#
#
# Elastic Constant Matrix: (Units=GPa)
#
#
# Indices 1 2 3 4 5 6 
#
# 1 132.5493 48.0147 59.8944 0.0000 0.0000 0.0000
# 2 48.0147 88.1360 31.6989 0.0000 0.0000 0.0000
# 3 59.8944 31.6989 110.4014 0.0000 0.0000 0.0000
# 4 0.0000 0.0000 0.0000 19.8858 0.0000 0.0000
# 5 0.0000 0.0000 0.0000 0.0000 15.0687 0.0000
# 6 0.0000 0.0000 0.0000 0.0000 0.0000 23.5261
#
#
#
# Elastic Compliance Matrix: (Units=1/GPa)
#
#
# Indices 1 2 3 4 5 6 
#
# 1 0.011359 -0.004429 -0.004891 0.000000 0.000000 0.000000
# 2 -0.004429 0.014380 -0.001726 0.000000 0.000000 0.000000
# 3 -0.004891 -0.001726 0.012207 0.000000 0.000000 0.000000
# 4 0.000000 0.000000 0.000000 0.050287 0.000000 0.000000
# 5 0.000000 0.000000 0.000000 0.000000 0.066363 0.000000
# 6 0.000000 0.000000 0.000000 0.000000 0.000000 0.042506
#
#
# Mechanical properties :
#
#
# Convention : Reuss Voigt Hill
#
# Bulk Modulus (GPa) = 63.07595 67.81140 65.44368
# Shear Modulus (GPa) = 22.27408 24.46138 23.36773
#
# Velocity S-wave (km/s) = 3.34514 3.50554 3.42628
# Velocity P-wave (km/s) = 6.82698 7.10294 6.96633
#
# Compressibility (1/GPa) = 0.01585390
#
# Stress axis : x y z
#
# Youngs Moduli (GPa) = 88.03912 69.54256 81.92288
#
# Poissons Ratio (x) = 0.30800 0.40065
# Poissons Ratio (y) = 0.38993 0.14140
# Poissons Ratio (z) = 0.43056 0.12003
#
# Static dielectric constant tensor:
#      x y z
#    x 3.781270 0.000000 0.000000 
#    y 0.000000 3.470730 0.000000 
#    z 0.000000 0.000000 3.667290 
# 
# 
# High freq. dielectric constant tensor:
#      x y z
#    x 1.782830 0.000000 0.000000 
#    y 0.000000 1.766130 0.000000 
#    z 0.000000 0.000000 1.757730 
# 
# From -- ./inp_files/12008.got.cif
#   From: 2010.03.12/outbox.cif.g09.slc.cpg/sg35_7_cif.got.tgz:12008.got - 2010.04.14 02:02:04.
