data_PCOD8172248
_publ_section_title
;
Structure prediction by ZEFSAII (Michael W. Deem and Ramdas Pophale) SiO2 
 PCOD8172248
Probable space group: C M M 2
;
_chemical_formula_sum "Si O2"
_cell_formula_units_Z 64
_cell_length_a 21.101459
_cell_length_b 27.868496
_cell_length_c 7.718595
_cell_angle_alpha 90.000000
_cell_angle_beta 90.000000
_cell_angle_gamma 90.000000
_cell_volume 4539.042714
_symmetry_space_group_name_H-M "C M M 2"
_symmetry_group_IT_number 35
_symmetry_cell_setting 'orthorhombic'
loop_
_space_group_symop_operation_xyz
x,y,z
-x,-y,z
-x,y,z
x,-y,z
1/2+x,1/2+y,z
1/2-x,1/2-y,z
1/2-x,1/2+y,z
1/2+x,1/2-y,z
loop_
_atom_site_type_symbol
_atom_site_label
_atom_site_fract_x
_atom_site_fract_y
_atom_site_fract_z
Si Si1 0.847415 0.359385 0.028470
Si Si2 0.926130 0.266008 0.022847
Si Si3 0.428227 0.054557 0.518274
Si Si4 0.271020 0.826407 0.720593
Si Si5 0.426130 0.766007 0.418338
Si Si6 0.347416 0.140615 0.412715
Si Si7 0.428227 0.054557 0.922912
Si Si8 0.349467 0.729255 0.720593
O O1 0.900136 0.319284 0.986402
O O2 0.818888 0.351642 0.220593
O O3 0.790030 0.356355 0.891726
O O4 0.880833 0.410931 0.024159
O O5 0.912817 0.249874 0.220593
O O6 0.000000 0.266868 0.980317
O O7 0.892409 0.228406 0.893800
O O8 0.500000 0.063042 0.453449
O O9 0.380833 0.089069 0.417027
O O10 0.423594 0.066052 0.720593
O O11 0.407707 0.000000 0.479428
O O12 0.290030 0.856355 0.549460
O O13 0.306096 0.775940 0.720593
O O14 0.195321 0.817777 0.720593
O O15 0.500000 0.766868 0.460868
O O16 0.400136 0.819284 0.454783
O O17 0.392409 0.728406 0.547386
O O18 0.500000 0.063042 0.987737
O O19 0.407708 0.000000 0.961758
#
# Coordination Sequence:
#
# PCOD8172248 Si02
#       8
#     8   8   8   8   8   8   8   8
#     4  10  18  28  42  57  76 103 133 165 199 232
#     4   9  17  27  40  60  80  98 126 162 198 236
#     4   9  17  28  41  57  78 103 131 167 206 236
#     4   9  18  30  39  55  74  96 132 167 195 230
#     4   9  17  27  40  60  80  98 126 162 198 236
#     4  10  18  28  42  57  76 103 133 165 199 232
#     4   9  17  28  41  57  78 103 131 167 206 236
#     4   9  17  28  42  54  73 101 127 158 201 236
#
# _framework density 14.099888999999999
#
# number of rings (size 3 to 8) (size 9 to 14) (size 15 to 20)
#    0.000    2.750    1.250    1.875    0.000    3.000 
#    0.000    6.250    0.000    0.000    0.000    0.000 
#    0.000    0.000    0.000    0.000    0.000   10.000 
#
# Total GULP energy -396740.892567 kJ/mol
# GULP energy per Si atom -12398.152893 kJ/mol
# Density = 1.406780 g / cm^3
# Si number density = 14.099889 Si / 1000 Ang^3
#
#
#
# Elastic Constant Matrix: (Units=GPa)
#
#
# Indices 1 2 3 4 5 6 
#
# 1 70.4588 37.7330 50.6351 0.0000 0.0000 0.0000
# 2 37.7330 46.8861 33.3164 0.0000 0.0000 0.0000
# 3 50.6351 33.3164 100.6017 0.0000 0.0000 0.0000
# 4 0.0000 0.0000 0.0000 13.5967 0.0000 0.0000
# 5 0.0000 0.0000 0.0000 0.0000 12.2733 0.0000
# 6 0.0000 0.0000 0.0000 0.0000 0.0000 22.9846
#
#
#
# Elastic Compliance Matrix: (Units=1/GPa)
#
#
# Indices 1 2 3 4 5 6 
#
# 1 0.030567 -0.017874 -0.009466 0.000000 0.000000 0.000000
# 2 -0.017874 0.038343 -0.003702 0.000000 0.000000 0.000000
# 3 -0.009466 -0.003702 0.015931 0.000000 0.000000 0.000000
# 4 0.000000 0.000000 0.000000 0.073547 0.000000 0.000000
# 5 0.000000 0.000000 0.000000 0.000000 0.081478 0.000000
# 6 0.000000 0.000000 0.000000 0.000000 0.000000 0.043507
#
#
# Mechanical properties :
#
#
# Convention : Reuss Voigt Hill
#
# Bulk Modulus (GPa) = 43.94068 51.25730 47.59899
# Shear Modulus (GPa) = 14.16261 16.18840 15.17550
#
# Velocity S-wave (km/s) = 3.17274 3.39207 3.28424
# Velocity P-wave (km/s) = 6.68231 7.19538 6.94358
#
# Compressibility (1/GPa) = 0.02275795
#
# Stress axis : x y z
#
# Youngs Moduli (GPa) = 32.71467 26.08033 62.77212
#
# Poissons Ratio (x) = 0.46615 0.59420
# Poissons Ratio (y) = 0.58473 0.23238
# Poissons Ratio (z) = 0.30968 0.09655
#
# Static dielectric constant tensor:
#      x y z
#    x 2.669910 0.000000 0.000000 
#    y 0.000000 2.527120 0.000000 
#    z 0.000000 0.000000 2.917450 
# 
# 
# High freq. dielectric constant tensor:
#      x y z
#    x 1.507180 0.000000 0.000000 
#    y 0.000000 1.496400 0.000000 
#    z 0.000000 0.000000 1.556720 
# 
# From -- ./inp_files/8863.got.cif
#   From: 2010.03.12/outbox.cif.g09.slc.cpg/sg35_5_cif.got.tgz:8863.got - 2010.04.14 02:02:04.
