data_PCOD8172924
_publ_section_title
;
Structure prediction by ZEFSAII (Michael W. Deem and Ramdas Pophale) SiO2 
 PCOD8172924
Probable space group: C M M 2
;
_chemical_formula_sum "Si O2"
_cell_formula_units_Z 48
_cell_length_a 34.712515
_cell_length_b 8.577365
_cell_length_c 8.022887
_cell_angle_alpha 90.000000
_cell_angle_beta 90.000000
_cell_angle_gamma 90.000000
_cell_volume 2388.749709
_symmetry_space_group_name_H-M "C M M 2"
_symmetry_group_IT_number 35
_symmetry_cell_setting 'orthorhombic'
loop_
_space_group_symop_operation_xyz
x,y,z
-x,-y,z
-x,y,z
x,-y,z
1/2+x,1/2+y,z
1/2-x,1/2-y,z
1/2-x,1/2+y,z
1/2+x,1/2-y,z
loop_
_atom_site_type_symbol
_atom_site_label
_atom_site_fract_x
_atom_site_fract_y
_atom_site_fract_z
Si Si1 0.000000 0.830069 0.336300
Si Si2 0.573526 0.178894 0.862161
Si Si3 0.421701 0.680216 0.207450
Si Si4 0.341417 0.815867 0.203276
Si Si5 0.340746 0.820581 0.827376
Si Si6 0.292588 0.814043 0.516077
Si Si7 0.500000 0.328611 0.718370
O O1 0.039503 0.741915 0.285518
O O2 0.000000 0.862674 0.527550
O O3 0.000000 0.000000 0.243893
O O4 0.614690 0.199109 0.770117
O O5 0.537770 0.225732 0.749444
O O6 0.569167 0.000000 0.923615
O O7 0.573765 0.300280 0.011572
O O8 0.417779 0.500000 0.258268
O O9 0.383602 0.768272 0.269907
O O10 0.311278 0.753652 0.341680
O O11 0.340281 0.000000 0.191765
O O12 0.333445 0.747623 0.014733
O O13 0.314955 0.745435 0.679447
O O14 0.329240 0.000000 0.840251
O O15 0.250000 0.750000 0.524359
O O16 0.293177 0.000000 0.518479
O O17 0.500000 0.500000 0.808858
#
# Coordination Sequence:
#
# PCOD8172924 Si02
#       7
#     4   8   8   8   8   8   4
#     4   9  21  35  48  74 112 147 178 223 276 322
#     4  10  20  36  56  79 106 142 188 231 273 327
#     4  10  19  35  57  79 107 146 186 227 277 327
#     4   9  19  36  57  80 110 146 183 227 278 328
#     4   8  17  35  56  78 107 141 179 223 273 327
#     4  10  21  37  57  81 110 143 177 223 281 334
#     4  11  22  35  50  76 112 147 182 227 278 322
#
# _framework density 20.094194000000002
#
# number of rings (size 3 to 8) (size 9 to 14) (size 15 to 20)
#    0.000    2.500    0.000    2.750    2.333    2.000 
#    0.000    7.917    0.000    0.000    0.000    0.000 
#    0.000    0.000    0.000    0.000    0.000    0.000 
#
# Total GULP energy -297330.340646 kJ/mol
# GULP energy per Si atom -12388.764194 kJ/mol
# Density = 2.004846 g / cm^3
# Si number density = 20.094194 Si / 1000 Ang^3
#
#
#
# Elastic Constant Matrix: (Units=GPa)
#
#
# Indices 1 2 3 4 5 6 
#
# 1 176.1051 20.0458 88.4709 0.0000 0.0000 0.0000
# 2 20.0458 19.8757 18.9690 0.0000 0.0000 0.0000
# 3 88.4709 18.9690 115.6841 0.0000 0.0000 0.0000
# 4 0.0000 0.0000 0.0000 15.4917 0.0000 0.0000
# 5 0.0000 0.0000 0.0000 0.0000 38.4489 0.0000
# 6 0.0000 0.0000 0.0000 0.0000 0.0000 57.8685
#
#
#
# Elastic Compliance Matrix: (Units=1/GPa)
#
#
# Indices 1 2 3 4 5 6 
#
# 1 0.009379 -0.003099 -0.006665 0.000000 0.000000 0.000000
# 2 -0.003099 0.060671 -0.007578 0.000000 0.000000 0.000000
# 3 -0.006665 -0.007578 0.014984 0.000000 0.000000 0.000000
# 4 0.000000 0.000000 0.000000 0.064551 0.000000 0.000000
# 5 0.000000 0.000000 0.000000 0.000000 0.026009 0.000000
# 6 0.000000 0.000000 0.000000 0.000000 0.000000 0.017281
#
#
# Mechanical properties :
#
#
# Convention : Reuss Voigt Hill
#
# Bulk Modulus (GPa) = 19.86107 62.95958 41.41033
# Shear Modulus (GPa) = 20.46316 34.64044 27.55180
#
# Velocity S-wave (km/s) = 3.19464 4.15650 3.70690
# Velocity P-wave (km/s) = 4.84903 7.37804 6.24294
#
# Compressibility (1/GPa) = 0.05034975
#
# Stress axis : x y z
#
# Youngs Moduli (GPa) = 106.61583 16.48240 66.73793
#
# Poissons Ratio (x) = 0.05108 0.44480
# Poissons Ratio (y) = 0.33039 0.50577
# Poissons Ratio (z) = 0.71059 0.12491
#
# Static dielectric constant tensor:
#      x y z
#    x 4.642170 0.000000 0.000000 
#    y 0.000000 3.452670 0.000000 
#    z 0.000000 0.000000 3.856860 
# 
# 
# High freq. dielectric constant tensor:
#      x y z
#    x 1.792000 0.000000 0.000000 
#    y 0.000000 1.751720 0.000000 
#    z 0.000000 0.000000 1.781480 
# 
# From -- ./inp_files/10485.got.cif
#   From: 2010.03.12/outbox.cif.g09.slc.cpg/sg35_6_cif.got.tgz:10485.got - 2010.04.14 02:02:04.
