data_PCOD8172340
_publ_section_title
;
Structure prediction by ZEFSAII (Michael W. Deem and Ramdas Pophale) SiO2 
 PCOD8172340
Probable space group: C M M 2
;
_chemical_formula_sum "Si O2"
_cell_formula_units_Z 48
_cell_length_a 18.285811
_cell_length_b 8.811663
_cell_length_c 15.666886
_cell_angle_alpha 90.000000
_cell_angle_beta 90.000000
_cell_angle_gamma 90.000000
_cell_volume 2524.380340
_symmetry_space_group_name_H-M "C M M 2"
_symmetry_group_IT_number 35
_symmetry_cell_setting 'orthorhombic'
loop_
_space_group_symop_operation_xyz
x,y,z
-x,-y,z
-x,y,z
x,-y,z
1/2+x,1/2+y,z
1/2-x,1/2-y,z
1/2-x,1/2+y,z
1/2+x,1/2-y,z
loop_
_atom_site_type_symbol
_atom_site_label
_atom_site_fract_x
_atom_site_fract_y
_atom_site_fract_z
Si Si1 0.171660 0.823230 0.608470
Si Si2 0.170443 0.679426 0.926080
Si Si3 0.669777 0.180065 0.254143
Si Si4 0.582041 0.819700 0.089462
Si Si5 0.670585 0.321550 0.421659
Si Si6 0.084657 0.177801 0.772530
O O1 0.250000 0.750000 0.624967
O O2 0.136331 0.784695 0.515027
O O3 0.114309 0.770896 0.679953
O O4 0.186884 0.000000 0.614122
O O5 0.178271 0.500000 0.928805
O O6 0.250000 0.750000 0.924567
O O7 0.126658 0.725969 0.842485
O O8 0.127270 0.742088 0.008588
O O9 0.750000 0.250000 0.242943
O O10 0.620570 0.237235 0.175733
O O11 0.630426 0.240992 0.341381
O O12 0.675916 0.000000 0.257098
O O13 0.500000 0.752622 0.085646
O O14 0.579344 0.000000 0.087212
O O15 0.674298 0.500000 0.403936
O O16 0.750000 0.250000 0.423831
O O17 0.000000 0.220677 0.776607
O O18 0.097924 0.000000 0.788697
#
# Coordination Sequence:
#
# PCOD8172340 Si02
#       6
#     8   8   8   8   8   8
#     4   9  18  32  51  74 100 134 172 211 255 302
#     4  11  22  37  58  81 105 134 172 215 258 307
#     4  10  18  30  51  75 100 131 168 210 253 299
#     4   9  19  35  53  74 102 136 170 205 251 306
#     4   9  16  28  47  72 101 131 168 211 253 297
#     4  10  21  37  55  77 107 140 173 211 258 310
#
# _framework density 19.014568000000001
#
# number of rings (size 3 to 8) (size 9 to 14) (size 15 to 20)
#    0.000    2.333    0.000    4.000    0.000    3.667 
#    0.000    3.333    0.000    7.000    0.000    0.000 
#    0.000    0.000    0.000    0.000    0.000    0.000 
#
# Total GULP energy -297493.786543 kJ/mol
# GULP energy per Si atom -12395.574439 kJ/mol
# Density = 1.897129 g / cm^3
# Si number density = 19.014568 Si / 1000 Ang^3
#
#
#
# Elastic Constant Matrix: (Units=GPa)
#
#
# Indices 1 2 3 4 5 6 
#
# 1 122.5099 35.0909 82.4037 0.0000 0.0000 0.0000
# 2 35.0909 60.3844 50.2895 0.0000 0.0000 0.0000
# 3 82.4037 50.2895 198.8692 0.0000 0.0000 0.0000
# 4 0.0000 0.0000 0.0000 47.6569 0.0000 0.0000
# 5 0.0000 0.0000 0.0000 0.0000 9.0755 0.0000
# 6 0.0000 0.0000 0.0000 0.0000 0.0000 3.2453
#
#
#
# Elastic Compliance Matrix: (Units=1/GPa)
#
#
# Indices 1 2 3 4 5 6 
#
# 1 0.011890 -0.003555 -0.004028 0.000000 0.000000 0.000000
# 2 -0.003555 0.022042 -0.004101 0.000000 0.000000 0.000000
# 3 -0.004028 -0.004101 0.007734 0.000000 0.000000 0.000000
# 4 0.000000 0.000000 0.000000 0.020983 0.000000 0.000000
# 5 0.000000 0.000000 0.000000 0.000000 0.110187 0.000000
# 6 0.000000 0.000000 0.000000 0.000000 0.000000 0.308135
#
#
# Mechanical properties :
#
#
# Convention : Reuss Voigt Hill
#
# Bulk Modulus (GPa) = 54.64834 79.70351 67.17592
# Shear Modulus (GPa) = 9.79550 26.26084 18.02817
#
# Velocity S-wave (km/s) = 2.27217 3.72033 3.08250
# Velocity P-wave (km/s) = 5.97380 7.77577 6.93357
#
# Compressibility (1/GPa) = 0.01829882
#
# Stress axis : x y z
#
# Youngs Moduli (GPa) = 84.10331 45.36845 129.29317
#
# Poissons Ratio (x) = 0.16130 0.52076
# Poissons Ratio (y) = 0.29901 0.53019
# Poissons Ratio (z) = 0.33875 0.18604
#
# Static dielectric constant tensor:
#      x y z
#    x 3.378800 0.000000 0.000000 
#    y 0.000000 3.350260 0.000000 
#    z 0.000000 0.000000 4.416420 
# 
# 
# High freq. dielectric constant tensor:
#      x y z
#    x 1.715540 0.000000 0.000000 
#    y 0.000000 1.727570 0.000000 
#    z 0.000000 0.000000 1.767480 
# 
# From -- ./inp_files/15151.got.cif
#   From: 2010.03.12/outbox.cif.g09.slc.cpg/sg35_8_cif.got.tgz:15151.got - 2010.04.14 02:02:04.
