data_PCOD8172486
_publ_section_title
;
Structure prediction by ZEFSAII (Michael W. Deem and Ramdas Pophale) SiO2 
 PCOD8172486
Probable space group: C M M 2
;
_chemical_formula_sum "Si O2"
_cell_formula_units_Z 48
_cell_length_a 9.211608
_cell_length_b 26.121537
_cell_length_c 11.577284
_cell_angle_alpha 90.000000
_cell_angle_beta 90.000000
_cell_angle_gamma 90.000000
_cell_volume 2785.741812
_symmetry_space_group_name_H-M "C M M 2"
_symmetry_group_IT_number 35
_symmetry_cell_setting 'orthorhombic'
loop_
_space_group_symop_operation_xyz
x,y,z
-x,-y,z
-x,y,z
x,-y,z
1/2+x,1/2+y,z
1/2-x,1/2-y,z
1/2-x,1/2+y,z
1/2+x,1/2-y,z
loop_
_atom_site_type_symbol
_atom_site_label
_atom_site_fract_x
_atom_site_fract_y
_atom_site_fract_z
Si Si1 0.166606 0.800603 0.846350
Si Si2 0.172608 0.196530 0.583136
Si Si3 0.838232 0.378958 0.419686
Si Si4 0.669751 0.558255 0.242723
Si Si5 0.656722 0.793220 0.234836
Si Si6 0.667518 0.355438 0.068304
O O1 0.250000 0.750000 0.887217
O O2 0.207851 0.816213 0.716284
O O3 0.000000 0.784810 0.852511
O O4 0.197552 0.849945 0.930279
O O5 0.250000 0.250000 0.547543
O O6 0.240768 0.147920 0.517320
O O7 0.000000 0.200888 0.557404
O O8 0.754178 0.426513 0.360713
O O9 0.862789 0.340304 0.317078
O O10 0.000000 0.394926 0.466370
O O11 0.500000 0.565391 0.269166
O O12 0.709194 0.500000 0.212597
O O13 0.716117 0.590966 0.128189
O O14 0.500000 0.771297 0.198911
O O15 0.750000 0.750000 0.300931
O O16 0.743592 0.808487 0.120801
O O17 0.500000 0.346656 0.096940
#
# Coordination Sequence:
#
# PCOD8172486 Si02
#       6
#     8   8   8   8   8   8
#     4   9  18  30  45  67  96 129 161 193 228 270
#     4  10  19  31  47  68  97 131 165 198 231 274
#     4  10  20  32  47  68  93 123 158 195 237 284
#     4   9  18  33  53  74  94 119 153 196 246 293
#     4  10  19  28  40  62  91 120 150 185 228 277
#     4   9  17  30  47  67  92 121 154 191 232 280
#
# _framework density 17.230598000000001
#
# number of rings (size 3 to 8) (size 9 to 14) (size 15 to 20)
#    0.000    2.500    0.000    2.500    0.000    6.333 
#    0.000    0.000    0.000    1.000    0.000    4.667 
#    0.000    0.000    0.000    0.000    0.000    0.000 
#
# Total GULP energy -297347.271969 kJ/mol
# GULP energy per Si atom -12389.469665 kJ/mol
# Density = 1.719138 g / cm^3
# Si number density = 17.230598 Si / 1000 Ang^3
#
#
#
# Elastic Constant Matrix: (Units=GPa)
#
#
# Indices 1 2 3 4 5 6 
#
# 1 91.9019 42.5745 37.9141 0.0000 0.0000 0.0000
# 2 42.5745 87.8223 43.4228 0.0000 0.0000 0.0000
# 3 37.9141 43.4228 92.0974 0.0000 0.0000 0.0000
# 4 0.0000 0.0000 0.0000 22.8456 0.0000 0.0000
# 5 0.0000 0.0000 0.0000 0.0000 39.2582 0.0000
# 6 0.0000 0.0000 0.0000 0.0000 0.0000 21.7786
#
#
#
# Elastic Compliance Matrix: (Units=1/GPa)
#
#
# Indices 1 2 3 4 5 6 
#
# 1 0.014873 -0.005454 -0.003551 0.000000 0.000000 0.000000
# 2 -0.005454 0.016848 -0.005698 0.000000 0.000000 0.000000
# 3 -0.003551 -0.005698 0.015007 0.000000 0.000000 0.000000
# 4 0.000000 0.000000 0.000000 0.043772 0.000000 0.000000
# 5 0.000000 0.000000 0.000000 0.000000 0.025472 0.000000
# 6 0.000000 0.000000 0.000000 0.000000 0.000000 0.045917
#
#
# Mechanical properties :
#
#
# Convention : Reuss Voigt Hill
#
# Bulk Modulus (GPa) = 57.73579 57.73825 57.73702
# Shear Modulus (GPa) = 25.37166 26.63715 26.00441
#
# Velocity S-wave (km/s) = 3.84145 3.93609 3.88906
# Velocity P-wave (km/s) = 7.29768 7.36471 7.33127
#
# Compressibility (1/GPa) = 0.01732028
#
# Stress axis : x y z
#
# Youngs Moduli (GPa) = 67.23609 59.35333 66.63683
#
# Poissons Ratio (x) = 0.32373 0.23664
# Poissons Ratio (y) = 0.36672 0.37972
# Poissons Ratio (z) = 0.23877 0.33822
#
# Static dielectric constant tensor:
#      x y z
#    x 3.680900 0.000000 0.000000 
#    y 0.000000 3.118920 0.000000 
#    z 0.000000 0.000000 3.317550 
# 
# 
# High freq. dielectric constant tensor:
#      x y z
#    x 1.678470 0.000000 0.000000 
#    y 0.000000 1.632670 0.000000 
#    z 0.000000 0.000000 1.656970 
# 
# From -- ./inp_files/11365.got.cif
#   From: 2010.03.12/outbox.cif.g09.slc.cpg/sg35_6_cif.got.tgz:11365.got - 2010.04.14 02:02:04.
