data_PCOD8172199
_publ_section_title
;
Structure prediction by ZEFSAII (Michael W. Deem and Ramdas Pophale) SiO2 
 PCOD8172199
Probable space group: C M M 2
;
_chemical_formula_sum "Si O2"
_cell_formula_units_Z 56
_cell_length_a 8.729478
_cell_length_b 19.394923
_cell_length_c 18.308478
_cell_angle_alpha 90.000000
_cell_angle_beta 90.000000
_cell_angle_gamma 90.000000
_cell_volume 3099.763621
_symmetry_space_group_name_H-M "C M M 2"
_symmetry_group_IT_number 35
_symmetry_cell_setting 'orthorhombic'
loop_
_space_group_symop_operation_xyz
x,y,z
-x,-y,z
-x,y,z
x,-y,z
1/2+x,1/2+y,z
1/2-x,1/2-y,z
1/2-x,1/2+y,z
1/2+x,1/2-y,z
loop_
_atom_site_type_symbol
_atom_site_label
_atom_site_fract_x
_atom_site_fract_y
_atom_site_fract_z
Si Si1 0.679049 0.324724 0.754420
Si Si2 0.681504 0.173566 0.056876
Si Si3 0.178682 0.825010 0.914627
Si Si4 0.817349 0.923250 0.629715
Si Si5 0.823701 0.419227 0.323844
Si Si6 0.819656 0.174743 0.204271
Si Si7 0.830217 0.918272 0.470383
O O1 0.500000 0.315680 0.741756
O O2 0.750000 0.250000 0.745866
O O3 0.709119 0.358814 0.834930
O O4 0.751204 0.374833 0.693284
O O5 0.500000 0.173666 0.060301
O O6 0.750000 0.250000 0.053888
O O7 0.748233 0.139996 0.130877
O O8 0.739151 0.134799 0.982513
O O9 0.250000 0.750000 0.909096
O O10 0.000000 0.819831 0.932570
O O11 0.769450 0.892913 0.549861
O O12 0.000000 0.926180 0.633945
O O13 0.749834 0.000000 0.641441
O O14 0.787877 0.500000 0.313347
O O15 0.716699 0.376584 0.269942
O O16 0.784889 0.395262 0.406394
O O17 0.000000 0.402198 0.307891
O O18 0.750000 0.250000 0.220141
O O19 0.000000 0.182833 0.194684
O O20 0.000000 0.888202 0.453795
O O21 0.841285 0.000000 0.475081
#
# Coordination Sequence:
#
# PCOD8172199 Si02
#       7
#     8   8   8   8   8   8   8
#     4   9  17  28  44  67  94 122 152 190 236 280
#     4  10  17  27  44  66  92 122 157 194 234 277
#     4   9  15  24  39  61  88 118 153 191 230 274
#     4   8  14  27  48  70  90 117 157 199 234 272
#     4  10  20  34  52  74 100 128 160 198 240 286
#     4  11  21  34  52  74 101 128 159 198 241 288
#     4   8  14  27  48  70  90 118 159 200 234 274
#
# _framework density 18.065894
#
# number of rings (size 3 to 8) (size 9 to 14) (size 15 to 20)
#    0.000    2.714    0.000    6.000    0.000    1.429 
#    0.000    1.429    0.000    3.857    0.000    2.000 
#    0.000    0.000    0.000    0.000    0.000    0.000 
#
# Total GULP energy -346937.639845 kJ/mol
# GULP energy per Si atom -12390.629994 kJ/mol
# Density = 1.802478 g / cm^3
# Si number density = 18.065894 Si / 1000 Ang^3
#
#
#
# Elastic Constant Matrix: (Units=GPa)
#
#
# Indices 1 2 3 4 5 6 
#
# 1 101.4779 22.5657 53.3911 0.0000 0.0000 0.0000
# 2 22.5657 42.4410 47.6640 0.0000 0.0000 0.0000
# 3 53.3911 47.6640 174.0471 0.0000 0.0000 0.0000
# 4 0.0000 0.0000 0.0000 11.9792 0.0000 0.0000
# 5 0.0000 0.0000 0.0000 0.0000 26.0673 0.0000
# 6 0.0000 0.0000 0.0000 0.0000 0.0000 15.7198
#
#
#
# Elastic Compliance Matrix: (Units=1/GPa)
#
#
# Indices 1 2 3 4 5 6 
#
# 1 0.012055 -0.003259 -0.002806 0.000000 0.000000 0.000000
# 2 -0.003259 0.034908 -0.008560 0.000000 0.000000 0.000000
# 3 -0.002806 -0.008560 0.008951 0.000000 0.000000 0.000000
# 4 0.000000 0.000000 0.000000 0.083478 0.000000 0.000000
# 5 0.000000 0.000000 0.000000 0.000000 0.038362 0.000000
# 6 0.000000 0.000000 0.000000 0.000000 0.000000 0.063614
#
#
# Mechanical properties :
#
#
# Convention : Reuss Voigt Hill
#
# Bulk Modulus (GPa) = 37.50257 62.80084 50.15170
# Shear Modulus (GPa) = 17.88869 23.70961 20.79915
#
# Velocity S-wave (km/s) = 3.15014 3.62663 3.39675
# Velocity P-wave (km/s) = 5.83396 7.23700 6.57302
#
# Compressibility (1/GPa) = 0.02666484
#
# Stress axis : x y z
#
# Youngs Moduli (GPa) = 82.95208 28.64633 111.72539
#
# Poissons Ratio (x) = 0.09335 0.31346
# Poissons Ratio (y) = 0.27032 0.95640
# Poissons Ratio (z) = 0.23273 0.24522
#
# Static dielectric constant tensor:
#      x y z
#    x 3.253130 0.000000 0.000000 
#    y 0.000000 2.625100 0.000000 
#    z 0.000000 0.000000 4.449080 
# 
# 
# High freq. dielectric constant tensor:
#      x y z
#    x 1.694300 0.000000 0.000000 
#    y 0.000000 1.634180 0.000000 
#    z 0.000000 0.000000 1.730030 
# 
# From -- ./inp_files/18273.got.cif
#   From: 2010.03.12/outbox.cif.g09.slc.cpg/sg35_10_cif.got.tgz:18273.got - 2010.04.14 02:02:04.
