data_PCOD8172516
_publ_section_title
;
Structure prediction by ZEFSAII (Michael W. Deem and Ramdas Pophale) SiO2 
 PCOD8172516
Probable space group: C M M 2
;
_chemical_formula_sum "Si O2"
_cell_formula_units_Z 48
_cell_length_a 27.090225
_cell_length_b 8.962887
_cell_length_c 13.033445
_cell_angle_alpha 90.000000
_cell_angle_beta 90.000000
_cell_angle_gamma 90.000000
_cell_volume 3164.606799
_symmetry_space_group_name_H-M "C M M 2"
_symmetry_group_IT_number 35
_symmetry_cell_setting 'orthorhombic'
loop_
_space_group_symop_operation_xyz
x,y,z
-x,-y,z
-x,y,z
x,-y,z
1/2+x,1/2+y,z
1/2-x,1/2-y,z
1/2-x,1/2+y,z
1/2+x,1/2-y,z
loop_
_atom_site_type_symbol
_atom_site_label
_atom_site_fract_x
_atom_site_fract_y
_atom_site_fract_z
Si Si1 0.300621 0.668675 0.871720
Si Si2 0.442526 0.673836 0.188815
Si Si3 0.887194 0.676434 0.782255
Si Si4 0.941620 0.828348 0.596913
Si Si5 0.395131 0.331159 0.981006
Si Si6 0.058671 0.668002 0.392643
O O1 0.289830 0.500000 0.835608
O O2 0.250000 0.750000 0.897399
O O3 0.331564 0.753851 0.782068
O O4 0.334999 0.670272 0.974521
O O5 0.500000 0.706650 0.170771
O O6 0.432590 0.500000 0.207734
O O7 0.413161 0.734387 0.089343
O O8 0.421370 0.761320 0.287016
O O9 0.883814 0.500000 0.781337
O O10 0.916543 0.731081 0.684122
O O11 0.915785 0.732407 0.885675
O O12 0.922471 0.766482 0.487862
O O13 0.000000 0.809000 0.606951
O O14 0.925637 0.000000 0.607112
O O15 0.415493 0.500000 0.968037
O O16 0.079005 0.500000 0.403588
O O17 0.000000 0.669928 0.390241
#
# Coordination Sequence:
#
# PCOD8172516 Si02
#       6
#     8   8   8   8   8   8
#     4   9  17  31  48  67  90 116 148 185 225 270
#     4   9  16  28  45  63  87 121 155 184 218 262
#     4  10  19  30  45  67  93 118 148 185 228 273
#     4  10  19  31  46  63  88 123 158 189 221 263
#     4   8  17  30  43  64  92 118 150 185 219 268
#     4   9  17  28  42  62  87 116 152 190 224 258
#
# _framework density 15.167762
#
# number of rings (size 3 to 8) (size 9 to 14) (size 15 to 20)
#    1.000    1.833    0.000    2.500    0.000    4.333 
#    0.000    1.667    0.000    0.000    0.000    1.167 
#    0.000    2.667    0.000    0.000    0.000    0.000 
#
# Total GULP energy -297398.696122 kJ/mol
# GULP energy per Si atom -12391.612338 kJ/mol
# Density = 1.513324 g / cm^3
# Si number density = 15.167762 Si / 1000 Ang^3
#
#
#
# Elastic Constant Matrix: (Units=GPa)
#
#
# Indices 1 2 3 4 5 6 
#
# 1 38.5880 31.4576 34.1113 0.0000 0.0000 0.0000
# 2 31.4576 117.1757 58.0143 0.0000 0.0000 0.0000
# 3 34.1113 58.0143 121.7279 0.0000 0.0000 0.0000
# 4 0.0000 0.0000 0.0000 21.4756 0.0000 0.0000
# 5 0.0000 0.0000 0.0000 0.0000 0.0212 0.0000
# 6 0.0000 0.0000 0.0000 0.0000 0.0000 21.3323
#
#
#
# Elastic Compliance Matrix: (Units=1/GPa)
#
#
# Indices 1 2 3 4 5 6 
#
# 1 0.037810 -0.006420 -0.007536 0.000000 0.000000 0.000000
# 2 -0.006420 0.012260 -0.004044 0.000000 0.000000 0.000000
# 3 -0.007536 -0.004044 0.012254 0.000000 0.000000 0.000000
# 4 0.000000 0.000000 0.000000 0.046564 0.000000 0.000000
# 5 0.000000 0.000000 0.000000 0.000000 47.257072 0.000000
# 6 0.000000 0.000000 0.000000 0.000000 0.000000 0.046877
#
#
# Mechanical properties :
#
#
# Convention : Reuss Voigt Hill
#
# Bulk Modulus (GPa) = 37.98675 58.29532 48.14104
# Shear Modulus (GPa) = 0.10536 18.82638 9.46587
#
# Velocity S-wave (km/s) = 0.26384 3.52690 2.50087
# Velocity P-wave (km/s) = 5.01912 7.42311 6.33617
#
# Compressibility (1/GPa) = 0.02632497
#
# Stress axis : x y z
#
# Youngs Moduli (GPa) = 26.44824 81.56719 81.60560
#
# Poissons Ratio (x) = 0.52363 0.61496
# Poissons Ratio (y) = 0.16979 0.33001
# Poissons Ratio (z) = 0.19931 0.32986
#
# Static dielectric constant tensor:
#      x y z
#    x 2.571330 0.000000 0.000000 
#    y 0.000000 3.023480 0.000000 
#    z 0.000000 0.000000 2.938470 
# 
# 
# High freq. dielectric constant tensor:
#      x y z
#    x 1.535900 0.000000 0.000000 
#    y 0.000000 1.594750 0.000000 
#    z 0.000000 0.000000 1.575450 
# 
# From -- ./inp_files/17521.got.cif
#   From: 2010.03.12/outbox.cif.g09.slc.cpg/sg35_9_cif.got.tgz:17521.got - 2010.04.14 02:02:04.
