data_PCOD8172228
_publ_section_title
;
Structure prediction by ZEFSAII (Michael W. Deem and Ramdas Pophale) SiO2 
 PCOD8172228
Probable space group: C M M 2
;
_chemical_formula_sum "Si O2"
_cell_formula_units_Z 64
_cell_length_a 9.476866
_cell_length_b 38.143346
_cell_length_c 10.361160
_cell_angle_alpha 90.000000
_cell_angle_beta 90.000000
_cell_angle_gamma 90.000000
_cell_volume 3745.345681
_symmetry_space_group_name_H-M "C M M 2"
_symmetry_group_IT_number 35
_symmetry_cell_setting 'orthorhombic'
loop_
_space_group_symop_operation_xyz
x,y,z
-x,-y,z
-x,y,z
x,-y,z
1/2+x,1/2+y,z
1/2-x,1/2-y,z
1/2-x,1/2+y,z
1/2+x,1/2-y,z
loop_
_atom_site_type_symbol
_atom_site_label
_atom_site_fract_x
_atom_site_fract_y
_atom_site_fract_z
Si Si1 0.163336 0.716276 0.878460
Si Si2 0.832172 0.603894 0.529725
Si Si3 0.167206 0.358311 0.789204
Si Si4 0.659997 0.540228 0.142555
Si Si5 0.667150 0.856561 0.275583
Si Si6 0.667712 0.901010 0.034482
Si Si7 0.662773 0.216817 0.180483
Si Si8 0.664629 0.539976 0.439525
O O1 0.250000 0.750000 0.830061
O O2 0.220706 0.681827 0.803391
O O3 0.000000 0.723496 0.847878
O O4 0.187189 0.709251 0.029683
O O5 0.780844 0.624926 0.655623
O O6 0.778851 0.627036 0.409087
O O7 0.757722 0.565992 0.527036
O O8 0.000000 0.598119 0.528570
O O9 0.000000 0.357335 0.797872
O O10 0.224303 0.382288 0.905594
O O11 0.500000 0.553506 0.125963
O O12 0.672265 0.500000 0.102110
O O13 0.762006 0.560903 0.045524
O O14 0.708339 0.545293 0.290639
O O15 0.500000 0.856783 0.268959
O O16 0.724990 0.879005 0.156208
O O17 0.719438 0.816551 0.261025
O O18 0.500000 0.905321 0.033986
O O19 0.500000 0.224498 0.209391
O O20 0.750000 0.250000 0.229537
O O21 0.500000 0.548323 0.459405
O O22 0.697183 0.500000 0.481972
#
# Coordination Sequence:
#
# PCOD8172228 Si02
#       8
#     8   8   8   8   8   8   8   8
#     4   9  16  29  48  68  92 124 159 194 237 286
#     4  10  19  32  51  75  97 125 166 203 236 282
#     4   9  18  32  50  72 101 131 158 197 248 288
#     4   9  18  32  49  72 101 128 156 197 247 290
#     4   9  16  28  48  71  94 120 155 198 239 279
#     4  10  17  30  51  73  95 123 160 199 239 283
#     4   9  16  28  46  68  94 123 157 197 240 284
#     4   9  18  33  51  71  98 130 159 193 244 294
#
# _framework density 17.087876000000001
#
# number of rings (size 3 to 8) (size 9 to 14) (size 15 to 20)
#    0.000    2.750    2.500    0.750    0.000    0.500 
#    0.000    5.625    0.000    3.750    0.000    0.000 
#    0.000    0.000    0.000    0.000    0.000    0.000 
#
# Total GULP energy -396744.316028 kJ/mol
# GULP energy per Si atom -12398.259876 kJ/mol
# Density = 1.704898 g / cm^3
# Si number density = 17.087876 Si / 1000 Ang^3
#
#
#
# Elastic Constant Matrix: (Units=GPa)
#
#
# Indices 1 2 3 4 5 6 
#
# 1 41.7917 50.2071 28.0177 0.0000 0.0000 0.0000
# 2 50.2071 147.7618 65.0906 0.0000 0.0000 0.0000
# 3 28.0177 65.0906 102.2071 0.0000 0.0000 0.0000
# 4 0.0000 0.0000 0.0000 29.2825 0.0000 0.0000
# 5 0.0000 0.0000 0.0000 0.0000 13.1955 0.0000
# 6 0.0000 0.0000 0.0000 0.0000 0.0000 32.7586
#
#
#
# Elastic Compliance Matrix: (Units=1/GPa)
#
#
# Indices 1 2 3 4 5 6 
#
# 1 0.041222 -0.012550 -0.003308 0.000000 0.000000 0.000000
# 2 -0.012550 0.013227 -0.004983 0.000000 0.000000 0.000000
# 3 -0.003308 -0.004983 0.013865 0.000000 0.000000 0.000000
# 4 0.000000 0.000000 0.000000 0.034150 0.000000 0.000000
# 5 0.000000 0.000000 0.000000 0.000000 0.075783 0.000000
# 6 0.000000 0.000000 0.000000 0.000000 0.000000 0.030526
#
#
# Mechanical properties :
#
#
# Convention : Reuss Voigt Hill
#
# Bulk Modulus (GPa) = 37.54868 64.26571 50.90720
# Shear Modulus (GPa) = 19.28021 24.94367 22.11194
#
# Velocity S-wave (km/s) = 3.36266 3.82478 3.60114
# Velocity P-wave (km/s) = 6.09083 7.56280 6.86637
#
# Compressibility (1/GPa) = 0.02663209
#
# Stress axis : x y z
#
# Youngs Moduli (GPa) = 24.25861 75.60257 72.12614
#
# Poissons Ratio (x) = 0.94878 0.23859
# Poissons Ratio (y) = 0.30443 0.35944
# Poissons Ratio (z) = 0.08025 0.37677
#
# Static dielectric constant tensor:
#      x y z
#    x 2.895170 0.000000 0.000000 
#    y 0.000000 3.330680 0.000000 
#    z 0.000000 0.000000 3.111390 
# 
# 
# High freq. dielectric constant tensor:
#      x y z
#    x 1.629490 0.000000 0.000000 
#    y 0.000000 1.672040 0.000000 
#    z 0.000000 0.000000 1.636020 
# 
# From -- ./inp_files/6568.got.cif
#   From: 2010.03.12/outbox.cif.g09.slc.cpg/sg35_4_cif.got.tgz:6568.got - 2010.04.14 02:02:04.
