data_PCOD8172281
_publ_section_title
;
Structure prediction by ZEFSAII (Michael W. Deem and Ramdas Pophale) SiO2 
 PCOD8172281
Probable space group: C M M 2
;
_chemical_formula_sum "Si O2"
_cell_formula_units_Z 48
_cell_length_a 19.507462
_cell_length_b 8.943842
_cell_length_c 15.713749
_cell_angle_alpha 90.000000
_cell_angle_beta 90.000000
_cell_angle_gamma 90.000000
_cell_volume 2741.603841
_symmetry_space_group_name_H-M "C M M 2"
_symmetry_group_IT_number 35
_symmetry_cell_setting 'orthorhombic'
loop_
_space_group_symop_operation_xyz
x,y,z
-x,-y,z
-x,y,z
x,-y,z
1/2+x,1/2+y,z
1/2-x,1/2-y,z
1/2-x,1/2+y,z
1/2+x,1/2-y,z
loop_
_atom_site_type_symbol
_atom_site_label
_atom_site_fract_x
_atom_site_fract_y
_atom_site_fract_z
Si Si1 0.081489 0.665881 0.511590
Si Si2 0.922671 0.823209 0.678898
Si Si3 0.923498 0.321962 0.325988
Si Si4 0.676675 0.674880 0.011514
Si Si5 0.675177 0.821637 0.176812
Si Si6 0.323159 0.325724 0.824308
O O1 0.111962 0.500000 0.525450
O O2 0.108226 0.768839 0.588631
O O3 0.103902 0.731416 0.419149
O O4 0.000000 0.659415 0.511199
O O5 0.876100 0.759455 0.755361
O O6 0.000000 0.762229 0.692159
O O7 0.922348 0.000000 0.678944
O O8 0.926672 0.500000 0.326572
O O9 0.871556 0.263857 0.254331
O O10 0.000000 0.258572 0.307460
O O11 0.682942 0.500000 0.033246
O O12 0.750000 0.750000 0.005330
O O13 0.643086 0.700683 0.918328
O O14 0.861008 0.740492 0.089793
O O15 0.750000 0.750000 0.188135
O O16 0.680485 0.000000 0.173442
O O17 0.310847 0.500000 0.809204
O O18 0.250000 0.250000 0.812822
#
# Coordination Sequence:
#
# PCOD8172281 Si02
#       6
#     8   8   8   8   8   8
#     4   8  14  27  47  67  86 113 150 184 213 253
#     4   9  17  30  47  67  91 117 145 178 219 265
#     4   8  15  29  48  67  87 115 150 183 216 257
#     4   9  16  28  45  64  87 116 150 181 213 258
#     4  10  18  29  47  68  90 116 146 181 220 261
#     4   9  18  31  47  66  88 117 149 181 218 259
#
# _framework density 17.507999999999999
#
# number of rings (size 3 to 8) (size 9 to 14) (size 15 to 20)
#    0.000    3.167    0.000    3.000    0.000    1.333 
#    0.000    3.333    0.000    9.000    0.000    0.000 
#    0.000    0.000    0.000    0.000    0.000    0.000 
#
# Total GULP energy -297338.197007 kJ/mol
# GULP energy per Si atom -12389.091542 kJ/mol
# Density = 1.746815 g / cm^3
# Si number density = 17.508000 Si / 1000 Ang^3
#
#
#
# Elastic Constant Matrix: (Units=GPa)
#
#
# Indices 1 2 3 4 5 6 
#
# 1 59.3649 20.7925 67.4859 0.0000 0.0000 0.0000
# 2 20.7925 45.9382 40.4005 0.0000 0.0000 0.0000
# 3 67.4859 40.4005 195.0229 0.0000 0.0000 0.0000
# 4 0.0000 0.0000 0.0000 29.1717 0.0000 0.0000
# 5 0.0000 0.0000 0.0000 0.0000 33.2069 0.0000
# 6 0.0000 0.0000 0.0000 0.0000 0.0000 13.7654
#
#
#
# Elastic Compliance Matrix: (Units=1/GPa)
#
#
# Indices 1 2 3 4 5 6 
#
# 1 0.028755 -0.005214 -0.008870 0.000000 0.000000 0.000000
# 2 -0.005214 0.027563 -0.003906 0.000000 0.000000 0.000000
# 3 -0.008870 -0.003906 0.009006 0.000000 0.000000 0.000000
# 4 0.000000 0.000000 0.000000 0.034280 0.000000 0.000000
# 5 0.000000 0.000000 0.000000 0.000000 0.030114 0.000000
# 6 0.000000 0.000000 0.000000 0.000000 0.000000 0.072646
#
#
# Mechanical properties :
#
#
# Convention : Reuss Voigt Hill
#
# Bulk Modulus (GPa) = 34.07810 61.96487 48.02148
# Shear Modulus (GPa) = 20.15110 26.67194 23.41152
#
# Velocity S-wave (km/s) = 3.39627 3.90733 3.66073
# Velocity P-wave (km/s) = 5.90644 7.47164 6.73467
#
# Compressibility (1/GPa) = 0.02934436
#
# Stress axis : x y z
#
# Youngs Moduli (GPa) = 34.77675 36.28030 111.03512
#
# Poissons Ratio (x) = 0.18917 0.98491
# Poissons Ratio (y) = 0.18133 0.43367
# Poissons Ratio (z) = 0.30848 0.14170
#
# Static dielectric constant tensor:
#      x y z
#    x 3.007230 0.000000 0.000000 
#    y 0.000000 3.137830 0.000000 
#    z 0.000000 0.000000 4.171870 
# 
# 
# High freq. dielectric constant tensor:
#      x y z
#    x 1.628980 0.000000 0.000000 
#    y 0.000000 1.661090 0.000000 
#    z 0.000000 0.000000 1.702020 
# 
# From -- ./inp_files/12271.got.cif
#   From: 2010.03.12/outbox.cif.g09.slc.cpg/sg35_7_cif.got.tgz:12271.got - 2010.04.14 02:02:04.
