data_PCOD8172459
_publ_section_title
;
Structure prediction by ZEFSAII (Michael W. Deem and Ramdas Pophale) SiO2 
 PCOD8172459
Probable space group: C M M 2
;
_chemical_formula_sum "Si O2"
_cell_formula_units_Z 64
_cell_length_a 28.747156
_cell_length_b 9.298482
_cell_length_c 12.036771
_cell_angle_alpha 90.000000
_cell_angle_beta 90.000000
_cell_angle_gamma 90.000000
_cell_volume 3217.488020
_symmetry_space_group_name_H-M "C M M 2"
_symmetry_group_IT_number 35
_symmetry_cell_setting 'orthorhombic'
loop_
_space_group_symop_operation_xyz
x,y,z
-x,-y,z
-x,y,z
x,-y,z
1/2+x,1/2+y,z
1/2-x,1/2-y,z
1/2-x,1/2+y,z
1/2+x,1/2-y,z
loop_
_atom_site_type_symbol
_atom_site_label
_atom_site_fract_x
_atom_site_fract_y
_atom_site_fract_z
Si Si1 0.881519 0.172127 0.565410
Si Si2 0.196417 0.210810 0.177485
Si Si3 0.445478 0.167904 0.408412
Si Si4 0.297011 0.659785 0.934604
Si Si5 0.101458 0.662051 0.187381
Si Si6 0.448293 0.830216 0.972336
Si Si7 0.295461 0.345409 0.420014
Si Si8 0.373146 0.171401 0.797678
O O1 0.928222 0.238477 0.512876
O O2 0.838155 0.220944 0.488596
O O3 0.873293 0.246410 0.682487
O O4 0.886011 0.000000 0.576737
O O5 0.250000 0.250000 0.177153
O O6 0.157841 0.337449 0.182060
O O7 0.188873 0.125997 0.292252
O O8 0.187308 0.128585 0.062234
O O9 0.500000 0.192505 0.393262
O O10 0.419258 0.231698 0.299586
O O11 0.433810 0.000000 0.429774
O O12 0.292035 0.500000 0.879817
O O13 0.250000 0.750000 0.929991
O O14 0.333073 0.760371 0.872223
O O15 0.084036 0.500000 0.189239
O O16 0.078957 0.737583 0.078416
O O17 0.500000 0.763411 0.965372
O O18 0.421801 0.794492 0.858288
O O19 0.450655 0.000000 0.987609
O O20 0.282763 0.500000 0.471664
O O21 0.250000 0.250000 0.432104
O O22 0.364801 0.000000 0.783555
#
# Coordination Sequence:
#
# PCOD8172459 Si02
#       8
#     8   8   8   8   8   8   8   8
#     4  11  24  42  61  85 120 162 207 252 305 363
#     4  10  20  34  56  91 124 157 192 238 295 365
#     4  10  21  38  63  94 122 154 201 254 305 361
#     4  11  23  39  62  90 124 162 201 247 300 364
#     4  10  18  33  60  92 125 157 194 243 302 364
#     4   9  18  34  59  90 120 151 193 248 305 357
#     4  10  22  39  60  87 119 156 196 242 295 357
#     4  11  23  40  62  89 120 158 206 257 307 359
#
# _framework density 19.891293999999998
#
# number of rings (size 3 to 8) (size 9 to 14) (size 15 to 20)
#    0.000    1.750    2.500    1.875    0.000    7.750 
#    0.000    2.500    0.000    1.125    0.000    0.000 
#    0.000    0.000    0.000    0.000    0.000    0.000 
#
# Total GULP energy -396447.052347 kJ/mol
# GULP energy per Si atom -12388.970386 kJ/mol
# Density = 1.984602 g / cm^3
# Si number density = 19.891294 Si / 1000 Ang^3
#
#
#
# Elastic Constant Matrix: (Units=GPa)
#
#
# Indices 1 2 3 4 5 6 
#
# 1 148.6746 44.7786 70.2263 0.0000 0.0000 0.0000
# 2 44.7786 90.7926 41.0584 0.0000 0.0000 0.0000
# 3 70.2263 41.0584 136.8630 0.0000 0.0000 0.0000
# 4 0.0000 0.0000 0.0000 12.9193 0.0000 0.0000
# 5 0.0000 0.0000 0.0000 0.0000 22.8853 0.0000
# 6 0.0000 0.0000 0.0000 0.0000 0.0000 26.8652
#
#
#
# Elastic Compliance Matrix: (Units=1/GPa)
#
#
# Indices 1 2 3 4 5 6 
#
# 1 0.009481 -0.002865 -0.004005 0.000000 0.000000 0.000000
# 2 -0.002865 0.013608 -0.002613 0.000000 0.000000 0.000000
# 3 -0.004005 -0.002613 0.010146 0.000000 0.000000 0.000000
# 4 0.000000 0.000000 0.000000 0.077404 0.000000 0.000000
# 5 0.000000 0.000000 0.000000 0.000000 0.043696 0.000000
# 6 0.000000 0.000000 0.000000 0.000000 0.000000 0.037223
#
#
# Mechanical properties :
#
#
# Convention : Reuss Voigt Hill
#
# Bulk Modulus (GPa) = 70.07890 76.49521 73.28706
# Shear Modulus (GPa) = 23.22563 27.21840 25.22201
#
# Velocity S-wave (km/s) = 3.42076 3.70314 3.56475
# Velocity P-wave (km/s) = 7.13510 7.53820 7.33942
#
# Compressibility (1/GPa) = 0.01426963
#
# Stress axis : x y z
#
# Youngs Moduli (GPa) = 105.47634 73.48407 98.56527
#
# Poissons Ratio (x) = 0.21050 0.39479
# Poissons Ratio (y) = 0.30215 0.25751
# Poissons Ratio (z) = 0.42247 0.19199
#
# Static dielectric constant tensor:
#      x y z
#    x 3.809560 0.000000 0.000000 
#    y 0.000000 3.412220 0.000000 
#    z 0.000000 0.000000 3.915390 
# 
# 
# High freq. dielectric constant tensor:
#      x y z
#    x 1.782830 0.000000 0.000000 
#    y 0.000000 1.750170 0.000000 
#    z 0.000000 0.000000 1.783780 
# 
# From -- ./inp_files/14533.got.cif
#   From: 2010.03.12/outbox.cif.g09.slc.cpg/sg35_8_cif.got.tgz:14533.got - 2010.04.14 02:02:04.
