data_PCOD8172344
_publ_section_title
;
Structure prediction by ZEFSAII (Michael W. Deem and Ramdas Pophale) SiO2 
 PCOD8172344
Probable space group: C M M 2
;
_chemical_formula_sum "Si O2"
_cell_formula_units_Z 64
_cell_length_a 14.691627
_cell_length_b 17.949770
_cell_length_c 12.239163
_cell_angle_alpha 90.000000
_cell_angle_beta 90.000000
_cell_angle_gamma 90.000000
_cell_volume 3227.605899
_symmetry_space_group_name_H-M "C M M 2"
_symmetry_group_IT_number 35
_symmetry_cell_setting 'orthorhombic'
loop_
_space_group_symop_operation_xyz
x,y,z
-x,-y,z
-x,y,z
x,-y,z
1/2+x,1/2+y,z
1/2-x,1/2-y,z
1/2-x,1/2+y,z
1/2+x,1/2-y,z
loop_
_atom_site_type_symbol
_atom_site_label
_atom_site_fract_x
_atom_site_fract_y
_atom_site_fract_z
Si Si1 0.396840 0.179912 0.734520
Si Si2 0.100139 0.159280 0.816398
Si Si3 0.356945 0.413701 0.597394
Si Si4 0.304120 0.176139 0.519220
Si Si5 0.903831 0.913454 0.354000
Si Si6 0.397154 0.088342 0.092131
Si Si7 0.704141 0.910885 0.310633
Si Si8 0.779414 0.411589 0.888000
O O1 0.500000 0.154367 0.754253
O O2 0.373274 0.254573 0.801205
O O3 0.384286 0.195460 0.604536
O O4 0.330789 0.115497 0.779364
O O5 0.089752 0.122600 0.697270
O O6 0.176606 0.120440 0.891496
O O7 0.000000 0.151672 0.872328
O O8 0.346389 0.500000 0.623334
O O9 0.257484 0.379113 0.589715
O O10 0.407854 0.398795 0.483561
O O11 0.250000 0.250000 0.482258
O O12 0.341552 0.132553 0.412529
O O13 0.809995 0.882470 0.301701
O O14 0.000000 0.879013 0.307097
O O15 0.904356 0.000000 0.328085
O O16 0.500000 0.120866 0.084448
O O17 0.350070 0.114776 0.204069
O O18 0.401251 0.000000 0.089047
O O19 0.335730 0.118118 0.992706
O O20 0.699213 0.000000 0.330837
O O21 0.773190 0.500000 0.886986
#
# Coordination Sequence:
#
# PCOD8172344 Si02
#       8
#     8   8   8   8   8   8   8   8
#     4  11  23  38  56  82 118 160 194 230 289 350
#     4  11  22  36  55  82 117 156 191 228 284 351
#     4  10  18  30  51  77 109 149 189 227 271 332
#     4  11  19  34  53  79 119 153 187 231 286 337
#     4   8  14  25  44  73 105 137 174 214 262 323
#     4   9  19  38  61  82 105 140 189 242 296 348
#     4   9  19  34  55  80 107 143 188 236 287 342
#     4  11  22  38  61  86 113 145 193 251 294 341
#
# _framework density 19.828938000000001
#
# number of rings (size 3 to 8) (size 9 to 14) (size 15 to 20)
#    0.000    2.000    2.500    2.625    0.000    3.250 
#    0.000    1.875    0.000    2.250    0.000    0.000 
#    0.000    0.000    0.000    0.000    0.000    0.000 
#
# Total GULP energy -396557.670523 kJ/mol
# GULP energy per Si atom -12392.427204 kJ/mol
# Density = 1.978381 g / cm^3
# Si number density = 19.828938 Si / 1000 Ang^3
#
#
#
# Elastic Constant Matrix: (Units=GPa)
#
#
# Indices 1 2 3 4 5 6 
#
# 1 140.3988 33.1688 58.8563 0.0000 0.0000 0.0000
# 2 33.1688 36.4289 29.5326 0.0000 0.0000 0.0000
# 3 58.8563 29.5326 106.0407 0.0000 0.0000 0.0000
# 4 0.0000 0.0000 0.0000 17.9884 0.0000 0.0000
# 5 0.0000 0.0000 0.0000 0.0000 26.2109 0.0000
# 6 0.0000 0.0000 0.0000 0.0000 0.0000 19.2367
#
#
#
# Elastic Compliance Matrix: (Units=1/GPa)
#
#
# Indices 1 2 3 4 5 6 
#
# 1 0.010230 -0.006085 -0.003983 0.000000 0.000000 0.000000
# 2 -0.006085 0.039076 -0.007505 0.000000 0.000000 0.000000
# 3 -0.003983 -0.007505 0.013731 0.000000 0.000000 0.000000
# 4 0.000000 0.000000 0.000000 0.055591 0.000000 0.000000
# 5 0.000000 0.000000 0.000000 0.000000 0.038152 0.000000
# 6 0.000000 0.000000 0.000000 0.000000 0.000000 0.051984
#
#
# Mechanical properties :
#
#
# Convention : Reuss Voigt Hill
#
# Bulk Modulus (GPa) = 35.85536 58.44263 47.14900
# Shear Modulus (GPa) = 19.74655 23.44124 21.59389
#
# Velocity S-wave (km/s) = 3.15912 3.44200 3.30359
# Velocity P-wave (km/s) = 5.60610 6.73305 6.19525
#
# Compressibility (1/GPa) = 0.02788984
#
# Stress axis : x y z
#
# Youngs Moduli (GPa) = 97.75150 25.59122 72.82590
#
# Poissons Ratio (x) = 0.15573 0.29008
# Poissons Ratio (y) = 0.59485 0.54657
# Poissons Ratio (z) = 0.38937 0.19207
#
# Static dielectric constant tensor:
#      x y z
#    x 3.694230 0.000000 0.000000 
#    y 0.000000 3.467040 0.000000 
#    z 0.000000 0.000000 3.509580 
# 
# 
# High freq. dielectric constant tensor:
#      x y z
#    x 1.781160 0.000000 0.000000 
#    y 0.000000 1.753570 0.000000 
#    z 0.000000 0.000000 1.746560 
# 
# From -- ./inp_files/13176.got.cif
#   From: 2010.03.12/outbox.cif.g09.slc.cpg/sg35_7_cif.got.tgz:13176.got - 2010.04.14 02:02:04.
