data_PCOD8172348
_publ_section_title
;
Structure prediction by ZEFSAII (Michael W. Deem and Ramdas Pophale) SiO2 
 PCOD8172348
Probable space group: C M M 2
;
_chemical_formula_sum "Si O2"
_cell_formula_units_Z 64
_cell_length_a 8.875882
_cell_length_b 26.975742
_cell_length_c 13.082814
_cell_angle_alpha 90.000000
_cell_angle_beta 90.000000
_cell_angle_gamma 90.000000
_cell_volume 3132.463983
_symmetry_space_group_name_H-M "C M M 2"
_symmetry_group_IT_number 35
_symmetry_cell_setting 'orthorhombic'
loop_
_space_group_symop_operation_xyz
x,y,z
-x,-y,z
-x,y,z
x,-y,z
1/2+x,1/2+y,z
1/2-x,1/2-y,z
1/2-x,1/2+y,z
1/2+x,1/2-y,z
loop_
_atom_site_type_symbol
_atom_site_label
_atom_site_fract_x
_atom_site_fract_y
_atom_site_fract_z
Si Si1 0.327766 0.198721 0.295040
Si Si2 0.172406 0.599708 0.195401
Si Si3 0.828430 0.399127 0.805152
Si Si4 0.168253 0.941209 0.610455
Si Si5 0.822428 0.944171 0.999319
Si Si6 0.179414 0.195266 0.496562
Si Si7 0.173145 0.301562 0.696681
Si Si8 0.169973 0.441185 0.409348
O O1 0.500000 0.210583 0.323575
O O2 0.250000 0.250000 0.261808
O O3 0.316319 0.159553 0.202684
O O4 0.247570 0.172011 0.392760
O O5 0.273807 0.581902 0.103167
O O6 0.235579 0.575451 0.299852
O O7 0.000000 0.583066 0.176494
O O8 0.771339 0.427724 0.705798
O O9 0.815417 0.339775 0.790504
O O10 0.000000 0.415247 0.823243
O O11 0.733813 0.412845 0.903843
O O12 0.232367 0.918984 0.503431
O O13 0.000000 0.919511 0.624900
O O14 0.163570 0.000000 0.602631
O O15 0.000000 0.945232 0.994983
O O16 0.757173 0.000000 0.994580
O O17 0.250000 0.250000 0.500788
O O18 0.240229 0.170990 0.601820
O O19 0.000000 0.195003 0.492898
O O20 0.250000 0.250000 0.729634
O O21 0.000000 0.291118 0.666215
O O22 0.171776 0.500000 0.414876
O O23 0.000000 0.420423 0.420589
#
# Coordination Sequence:
#
# PCOD8172348 Si02
#       8
#     8   8   8   8   8   8   8   8
#     4  10  20  35  55  83 120 159 202 248 292 344
#     4  10  22  39  62  88 116 154 202 248 293 352
#     4  11  24  40  62  88 116 154 201 245 291 353
#     4  10  21  36  55  84 121 155 191 240 297 355
#     4  11  25  44  66  92 120 150 191 246 302 358
#     4  10  18  30  51  79 114 157 198 238 288 343
#     4  10  21  37  57  84 118 155 198 245 292 346
#     4   9  18  34  56  83 115 151 191 237 294 357
#
# _framework density 20.431201000000001
#
# number of rings (size 3 to 8) (size 9 to 14) (size 15 to 20)
#    0.000    1.875    0.000    5.250    1.750    7.250 
#    0.000    1.875    0.000    0.000    0.000    0.000 
#    0.000    0.000    0.000    0.000    0.000    0.000 
#
# Total GULP energy -396816.086958 kJ/mol
# GULP energy per Si atom -12400.502717 kJ/mol
# Density = 2.038470 g / cm^3
# Si number density = 20.431201 Si / 1000 Ang^3
#
#
#
# Elastic Constant Matrix: (Units=GPa)
#
#
# Indices 1 2 3 4 5 6 
#
# 1 122.4737 43.2420 51.4919 0.0000 0.0000 0.0000
# 2 43.2420 55.6128 45.9235 0.0000 0.0000 0.0000
# 3 51.4919 45.9235 135.5462 0.0000 0.0000 0.0000
# 4 0.0000 0.0000 0.0000 29.7330 0.0000 0.0000
# 5 0.0000 0.0000 0.0000 0.0000 28.2907 0.0000
# 6 0.0000 0.0000 0.0000 0.0000 0.0000 26.0359
#
#
#
# Elastic Compliance Matrix: (Units=1/GPa)
#
#
# Indices 1 2 3 4 5 6 
#
# 1 0.011588 -0.007463 -0.001873 0.000000 0.000000 0.000000
# 2 -0.007463 0.029773 -0.007252 0.000000 0.000000 0.000000
# 3 -0.001873 -0.007252 0.010546 0.000000 0.000000 0.000000
# 4 0.000000 0.000000 0.000000 0.033633 0.000000 0.000000
# 5 0.000000 0.000000 0.000000 0.000000 0.035347 0.000000
# 6 0.000000 0.000000 0.000000 0.000000 0.000000 0.038409
#
#
# Mechanical properties :
#
#
# Convention : Reuss Voigt Hill
#
# Bulk Modulus (GPa) = 53.39096 66.10530 59.74813
# Shear Modulus (GPa) = 25.16157 28.34360 26.75258
#
# Velocity S-wave (km/s) = 3.51312 3.72865 3.62249
# Velocity P-wave (km/s) = 6.53030 7.13880 6.84132
#
# Compressibility (1/GPa) = 0.01872976
#
# Stress axis : x y z
#
# Youngs Moduli (GPa) = 86.29874 33.58758 94.81993
#
# Poissons Ratio (x) = 0.25066 0.17765
# Poissons Ratio (y) = 0.64404 0.68764
# Poissons Ratio (z) = 0.16168 0.24358
#
# Static dielectric constant tensor:
#      x y z
#    x 3.835850 0.000000 0.000000 
#    y 0.000000 3.737370 0.000000 
#    z 0.000000 0.000000 3.831490 
# 
# 
# High freq. dielectric constant tensor:
#      x y z
#    x 1.805730 0.000000 0.000000 
#    y 0.000000 1.809410 0.000000 
#    z 0.000000 0.000000 1.782710 
# 
# From -- ./inp_files/12024.got.cif
#   From: 2010.03.12/outbox.cif.g09.slc.cpg/sg35_7_cif.got.tgz:12024.got - 2010.04.14 02:02:04.
