data_PCOD8172448
_publ_section_title
;
Structure prediction by ZEFSAII (Michael W. Deem and Ramdas Pophale) SiO2 
 PCOD8172448
Probable space group: C M M 2
;
_chemical_formula_sum "Si O2"
_cell_formula_units_Z 64
_cell_length_a 29.223992
_cell_length_b 8.505564
_cell_length_c 12.620841
_cell_angle_alpha 90.000000
_cell_angle_beta 90.000000
_cell_angle_gamma 90.000000
_cell_volume 3137.118707
_symmetry_space_group_name_H-M "C M M 2"
_symmetry_group_IT_number 35
_symmetry_cell_setting 'orthorhombic'
loop_
_space_group_symop_operation_xyz
x,y,z
-x,-y,z
-x,y,z
x,-y,z
1/2+x,1/2+y,z
1/2-x,1/2-y,z
1/2-x,1/2+y,z
1/2+x,1/2-y,z
loop_
_atom_site_type_symbol
_atom_site_label
_atom_site_fract_x
_atom_site_fract_y
_atom_site_fract_z
Si Si1 0.297601 0.684520 0.944980
Si Si2 0.386280 0.186426 0.493370
Si Si3 0.446837 0.685328 0.682642
Si Si4 0.702439 0.685310 0.399401
Si Si5 0.950764 0.686975 0.313690
Si Si6 0.815404 0.674592 0.168968
Si Si7 0.607349 0.188297 0.880406
Si Si8 0.917449 0.672636 0.104440
O O1 0.300691 0.500000 0.927715
O O2 0.250000 0.750000 0.896732
O O3 0.339242 0.763128 0.878693
O O4 0.297902 0.723336 0.070153
O O5 0.414359 0.235010 0.596486
O O6 0.335744 0.257402 0.483634
O O7 0.413278 0.256778 0.392374
O O8 0.382846 0.000000 0.491804
O O9 0.500000 0.744322 0.676348
O O10 0.445284 0.500000 0.667865
O O11 0.424303 0.731994 0.793549
O O12 0.702322 0.500000 0.396740
O O13 0.750000 0.750000 0.445788
O O14 0.696917 0.747443 0.280126
O O15 0.944357 0.500000 0.304296
O O16 0.947813 0.760151 0.194111
O O17 0.000000 0.731018 0.361946
O O18 0.793061 0.500000 0.163327
O O19 0.869265 0.657895 0.163015
O O20 0.605012 0.000000 0.872674
O O21 0.586540 0.257431 0.991122
O O22 0.937672 0.500000 0.080617
#
# Coordination Sequence:
#
# PCOD8172448 Si02
#       8
#     8   8   8   8   8   8   8   8
#     4  11  21  35  56  87 126 168 209 253 307 367
#     4  11  22  40  64  90 121 158 204 258 309 367
#     4  11  25  45  67  91 122 161 206 258 313 366
#     4  12  24  38  58  87 122 164 207 252 309 370
#     4   9  16  28  52  87 121 153 190 238 299 360
#     4  10  18  33  54  82 121 166 212 256 300 355
#     4  10  21  38  62  91 121 159 208 259 309 366
#     4   8  15  29  51  83 122 156 192 244 299 352
#
# _framework density 20.400887000000001
#
# number of rings (size 3 to 8) (size 9 to 14) (size 15 to 20)
#    0.000    1.750    1.250    5.250    0.000    2.000 
#    0.000    1.875    0.000    0.000    0.000    0.000 
#    0.000    0.000    0.000    0.000    0.000    0.000 
#
# Total GULP energy -396536.145768 kJ/mol
# GULP energy per Si atom -12391.754555 kJ/mol
# Density = 2.035445 g / cm^3
# Si number density = 20.400887 Si / 1000 Ang^3
#
#
#
# Elastic Constant Matrix: (Units=GPa)
#
#
# Indices 1 2 3 4 5 6 
#
# 1 129.0576 21.1622 51.3323 0.0000 0.0000 0.0000
# 2 21.1622 77.3629 9.5721 0.0000 0.0000 0.0000
# 3 51.3323 9.5721 88.4747 0.0000 0.0000 0.0000
# 4 0.0000 0.0000 0.0000 27.3960 0.0000 0.0000
# 5 0.0000 0.0000 0.0000 0.0000 22.1112 0.0000
# 6 0.0000 0.0000 0.0000 0.0000 0.0000 24.5204
#
#
#
# Elastic Compliance Matrix: (Units=1/GPa)
#
#
# Indices 1 2 3 4 5 6 
#
# 1 0.010408 -0.002128 -0.005808 0.000000 0.000000 0.000000
# 2 -0.002128 0.013537 -0.000230 0.000000 0.000000 0.000000
# 3 -0.005808 -0.000230 0.014697 0.000000 0.000000 0.000000
# 4 0.000000 0.000000 0.000000 0.036502 0.000000 0.000000
# 5 0.000000 0.000000 0.000000 0.000000 0.045226 0.000000
# 6 0.000000 0.000000 0.000000 0.000000 0.000000 0.040782
#
#
# Mechanical properties :
#
#
# Convention : Reuss Voigt Hill
#
# Bulk Modulus (GPa) = 44.82426 51.00315 47.91371
# Shear Modulus (GPa) = 27.03861 28.99407 28.01634
#
# Velocity S-wave (km/s) = 3.64451 3.77399 3.70981
# Velocity P-wave (km/s) = 6.30312 6.63667 6.47205
#
# Compressibility (1/GPa) = 0.02230935
#
# Stress axis : x y z
#
# Youngs Moduli (GPa) = 96.08312 73.87319 68.03940
#
# Poissons Ratio (x) = 0.15723 0.39518
# Poissons Ratio (y) = 0.20450 0.01563
# Poissons Ratio (z) = 0.55807 0.01697
#
# Static dielectric constant tensor:
#      x y z
#    x 4.016090 0.000000 0.000000 
#    y 0.000000 3.534830 0.000000 
#    z 0.000000 0.000000 3.716600 
# 
# 
# High freq. dielectric constant tensor:
#      x y z
#    x 1.810790 0.000000 0.000000 
#    y 0.000000 1.779560 0.000000 
#    z 0.000000 0.000000 1.784380 
# 
# From -- ./inp_files/14526.got.cif
#   From: 2010.03.12/outbox.cif.g09.slc.cpg/sg35_8_cif.got.tgz:14526.got - 2010.04.14 02:02:04.
