data_PCOD8172457
_publ_section_title
;
Structure prediction by ZEFSAII (Michael W. Deem and Ramdas Pophale) SiO2 
 PCOD8172457
Probable space group: C M M 2
;
_chemical_formula_sum "Si O2"
_cell_formula_units_Z 64
_cell_length_a 8.960985
_cell_length_b 30.932056
_cell_length_c 11.908656
_cell_angle_alpha 90.000000
_cell_angle_beta 90.000000
_cell_angle_gamma 90.000000
_cell_volume 3300.861394
_symmetry_space_group_name_H-M "C M M 2"
_symmetry_group_IT_number 35
_symmetry_cell_setting 'orthorhombic'
loop_
_space_group_symop_operation_xyz
x,y,z
-x,-y,z
-x,y,z
x,-y,z
1/2+x,1/2+y,z
1/2-x,1/2-y,z
1/2-x,1/2+y,z
1/2+x,1/2-y,z
loop_
_atom_site_type_symbol
_atom_site_label
_atom_site_fract_x
_atom_site_fract_y
_atom_site_fract_z
Si Si1 0.323572 0.124308 0.345480
Si Si2 0.174657 0.793369 0.734097
Si Si3 0.322993 0.625921 0.585120
Si Si4 0.676350 0.792737 0.203400
Si Si5 0.323885 0.679413 0.981890
Si Si6 0.676529 0.418723 0.973022
Si Si7 0.326132 0.549234 0.211210
Si Si8 0.822510 0.048018 0.738002
O O1 0.500000 0.122044 0.353187
O O2 0.256993 0.130675 0.467543
O O3 0.270468 0.164880 0.270649
O O4 0.265284 0.079831 0.293396
O O5 0.250000 0.750000 0.686985
O O6 0.228948 0.834081 0.661623
O O7 0.220851 0.800368 0.862909
O O8 0.000000 0.787855 0.721632
O O9 0.500000 0.625210 0.567450
O O10 0.266344 0.582002 0.645156
O O11 0.500000 0.787598 0.205306
O O12 0.750000 0.750000 0.259304
O O13 0.733582 0.795058 0.075990
O O14 0.500000 0.682787 0.005725
O O15 0.267335 0.630173 0.983459
O O16 0.500000 0.419491 0.962111
O O17 0.729082 0.444902 0.082897
O O18 0.744605 0.440277 0.860744
O O19 0.500000 0.561416 0.221268
O O20 0.296873 0.500000 0.248180
O O21 0.000000 0.050116 0.744578
O O22 0.767880 0.000000 0.703869
#
# Coordination Sequence:
#
# PCOD8172457 Si02
#       8
#     8   8   8   8   8   8   8   8
#     4  11  25  42  58  80 112 152 193 237 290 339
#     4  10  21  36  56  84 115 148 184 227 282 338
#     4  10  21  38  58  81 110 146 190 237 279 326
#     4  11  24  40  59  84 113 147 190 235 287 344
#     4  10  18  33  59  87 118 151 182 224 282 341
#     4   9  15  28  54  87 119 147 177 222 280 332
#     4  10  20  35  60  91 117 148 191 233 276 332
#     4   9  16  29  54  87 117 143 177 225 277 327
#
# _framework density 19.388877000000001
#
# number of rings (size 3 to 8) (size 9 to 14) (size 15 to 20)
#    0.000    2.000    2.500    1.500    0.000    6.250 
#    0.000    3.750    0.000    0.750    0.000    0.000 
#    0.000    0.000    0.000    0.000    0.000    0.000 
#
# Total GULP energy -396842.392725 kJ/mol
# GULP energy per Si atom -12401.324773 kJ/mol
# Density = 1.934475 g / cm^3
# Si number density = 19.388877 Si / 1000 Ang^3
#
#
#
# Elastic Constant Matrix: (Units=GPa)
#
#
# Indices 1 2 3 4 5 6 
#
# 1 40.4056 40.4082 40.8709 0.0000 0.0000 0.0000
# 2 40.4082 159.1002 63.3971 0.0000 0.0000 0.0000
# 3 40.8709 63.3971 127.4986 0.0000 0.0000 0.0000
# 4 0.0000 0.0000 0.0000 12.8945 0.0000 0.0000
# 5 0.0000 0.0000 0.0000 0.0000 19.5825 0.0000
# 6 0.0000 0.0000 0.0000 0.0000 0.0000 26.3265
#
#
#
# Elastic Compliance Matrix: (Units=1/GPa)
#
#
# Indices 1 2 3 4 5 6 
#
# 1 0.041422 -0.006521 -0.010036 0.000000 0.000000 0.000000
# 2 -0.006521 0.008865 -0.002318 0.000000 0.000000 0.000000
# 3 -0.010036 -0.002318 0.012213 0.000000 0.000000 0.000000
# 4 0.000000 0.000000 0.000000 0.077553 0.000000 0.000000
# 5 0.000000 0.000000 0.000000 0.000000 0.051066 0.000000
# 6 0.000000 0.000000 0.000000 0.000000 0.000000 0.037985
#
#
# Mechanical properties :
#
#
# Convention : Reuss Voigt Hill
#
# Bulk Modulus (GPa) = 40.40295 68.48409 54.44352
# Shear Modulus (GPa) = 18.17507 23.91592 21.04550
#
# Velocity S-wave (km/s) = 3.06502 3.51591 3.29818
# Velocity P-wave (km/s) = 5.78007 7.20279 6.53029
#
# Compressibility (1/GPa) = 0.02475067
#
# Stress axis : x y z
#
# Youngs Moduli (GPa) = 24.14174 112.80117 81.88272
#
# Poissons Ratio (x) = 0.73563 0.82173
# Poissons Ratio (y) = 0.15744 0.18977
# Poissons Ratio (z) = 0.24227 0.26142
#
# Static dielectric constant tensor:
#      x y z
#    x 3.136760 0.000000 0.000000 
#    y 0.000000 3.829040 0.000000 
#    z 0.000000 0.000000 3.571160 
# 
# 
# High freq. dielectric constant tensor:
#      x y z
#    x 1.715570 0.000000 0.000000 
#    y 0.000000 1.774300 0.000000 
#    z 0.000000 0.000000 1.755130 
# 
# From -- ./inp_files/11889.got.cif
#   From: 2010.03.12/outbox.cif.g09.slc.cpg/sg35_6_cif.got.tgz:11889.got - 2010.04.14 02:02:04.
