data_PCOD8172601
_publ_section_title
;
Structure prediction by ZEFSAII (Michael W. Deem and Ramdas Pophale) SiO2 
 PCOD8172601
Probable space group: C M M 2
;
_chemical_formula_sum "Si O2"
_cell_formula_units_Z 48
_cell_length_a 30.328175
_cell_length_b 9.075752
_cell_length_c 9.818427
_cell_angle_alpha 90.000000
_cell_angle_beta 90.000000
_cell_angle_gamma 90.000000
_cell_volume 2702.531800
_symmetry_space_group_name_H-M "C M M 2"
_symmetry_group_IT_number 35
_symmetry_cell_setting 'orthorhombic'
loop_
_space_group_symop_operation_xyz
x,y,z
-x,-y,z
-x,y,z
x,-y,z
1/2+x,1/2+y,z
1/2-x,1/2-y,z
1/2-x,1/2+y,z
1/2+x,1/2-y,z
loop_
_atom_site_type_symbol
_atom_site_label
_atom_site_fract_x
_atom_site_fract_y
_atom_site_fract_z
Si Si1 0.206950 0.667104 0.867130
Si Si2 0.381460 0.673652 0.861771
Si Si3 0.378625 0.670691 0.548467
Si Si4 0.707661 0.165254 0.542754
Si Si5 0.448451 0.170981 0.054432
Si Si6 0.550377 0.670094 0.328497
O O1 0.206075 0.500000 0.922782
O O2 0.250000 0.750000 0.926277
O O3 0.163386 0.752316 0.917510
O O4 0.208814 0.668541 0.705034
O O5 0.378142 0.500000 0.886553
O O6 0.389051 0.713263 0.703792
O O7 0.423082 0.738986 0.939606
O O8 0.366504 0.500000 0.537037
O O9 0.336807 0.758418 0.489970
O O10 0.420943 0.713759 0.459444
O O11 0.750000 0.250000 0.483026
O O12 0.708885 0.000000 0.486065
O O13 0.500000 0.198523 0.029367
O O14 0.434413 0.230486 0.202273
O O15 0.435918 0.000000 0.045115
O O16 0.500000 0.702650 0.368702
O O17 0.557182 0.500000 0.287435
#
# Coordination Sequence:
#
# PCOD8172601 Si02
#       6
#     8   8   8   8   8   8
#     4   9  16  27  44  68  99 132 165 201 241 287
#     4  10  19  31  50  76 103 131 164 203 247 292
#     4   9  18  31  49  75 103 128 160 203 246 288
#     4   9  16  26  43  67  97 131 164 198 238 285
#     4  10  21  36  52  71  97 130 167 205 246 295
#     4   9  18  34  54  73  95 127 165 202 243 294
#
# _framework density 17.761123999999999
#
# number of rings (size 3 to 8) (size 9 to 14) (size 15 to 20)
#    0.000    2.667    0.000    2.000    0.000    7.000 
#    0.000    1.667    0.000    3.000    0.000    2.333 
#    0.000    0.000    0.000    0.000    0.000    0.000 
#
# Total GULP energy -297632.026872 kJ/mol
# GULP energy per Si atom -12401.334453 kJ/mol
# Density = 1.772070 g / cm^3
# Si number density = 17.761124 Si / 1000 Ang^3
#
#
#
# Elastic Constant Matrix: (Units=GPa)
#
#
# Indices 1 2 3 4 5 6 
#
# 1 120.0482 69.4712 56.7192 0.0000 0.0000 0.0000
# 2 69.4712 118.7233 44.9083 0.0000 0.0000 0.0000
# 3 56.7192 44.9083 60.5307 0.0000 0.0000 0.0000
# 4 0.0000 0.0000 0.0000 19.8737 0.0000 0.0000
# 5 0.0000 0.0000 0.0000 0.0000 4.3012 0.0000
# 6 0.0000 0.0000 0.0000 0.0000 0.0000 37.1369
#
#
#
# Elastic Compliance Matrix: (Units=1/GPa)
#
#
# Indices 1 2 3 4 5 6 
#
# 1 0.017207 -0.005519 -0.012029 0.000000 0.000000 0.000000
# 2 -0.005519 0.013479 -0.004829 0.000000 0.000000 0.000000
# 3 -0.012029 -0.004829 0.031375 0.000000 0.000000 0.000000
# 4 0.000000 0.000000 0.000000 0.050318 0.000000 0.000000
# 5 0.000000 0.000000 0.000000 0.000000 0.232492 0.000000
# 6 0.000000 0.000000 0.000000 0.000000 0.000000 0.026927
#
#
# Mechanical properties :
#
#
# Convention : Reuss Voigt Hill
#
# Bulk Modulus (GPa) = 57.77930 71.27772 64.52851
# Shear Modulus (GPa) = 11.83935 20.80925 16.32430
#
# Velocity S-wave (km/s) = 2.58464 3.42660 3.03496
# Velocity P-wave (km/s) = 6.44275 7.47489 6.97793
#
# Compressibility (1/GPa) = 0.01730724
#
# Stress axis : x y z
#
# Youngs Moduli (GPa) = 58.11585 74.19103 31.87246
#
# Poissons Ratio (x) = 0.40942 0.38340
# Poissons Ratio (y) = 0.32071 0.15391
# Poissons Ratio (z) = 0.69909 0.35827
#
# Static dielectric constant tensor:
#      x y z
#    x 3.401530 0.000000 0.000000 
#    y 0.000000 3.442530 0.000000 
#    z 0.000000 0.000000 2.929000 
# 
# 
# High freq. dielectric constant tensor:
#      x y z
#    x 1.696800 0.000000 0.000000 
#    y 0.000000 1.699330 0.000000 
#    z 0.000000 0.000000 1.642540 
# 
# From -- ./inp_files/5289.got.cif
#   From: 2010.03.12/outbox.cif.g09.slc.cpg/sg35_3_cif.got.tgz:5289.got - 2010.04.14 02:02:04.
