data_PCOD8172318
_publ_section_title
;
Structure prediction by ZEFSAII (Michael W. Deem and Ramdas Pophale) SiO2 
 PCOD8172318
Probable space group: C M M 2
;
_chemical_formula_sum "Si O2"
_cell_formula_units_Z 64
_cell_length_a 28.539956
_cell_length_b 8.771700
_cell_length_c 15.657974
_cell_angle_alpha 90.000000
_cell_angle_beta 90.000000
_cell_angle_gamma 90.000000
_cell_volume 3919.878779
_symmetry_space_group_name_H-M "C M M 2"
_symmetry_group_IT_number 35
_symmetry_cell_setting 'orthorhombic'
loop_
_space_group_symop_operation_xyz
x,y,z
-x,-y,z
-x,y,z
x,-y,z
1/2+x,1/2+y,z
1/2-x,1/2-y,z
1/2-x,1/2+y,z
1/2+x,1/2-y,z
loop_
_atom_site_type_symbol
_atom_site_label
_atom_site_fract_x
_atom_site_fract_y
_atom_site_fract_z
Si Si1 0.052393 0.679651 0.774770
Si Si2 0.552393 0.820351 0.581449
Si Si3 0.141778 0.820514 0.841236
Si Si4 0.698751 0.318701 0.006593
Si Si5 0.858222 0.179486 0.514982
Si Si6 0.801060 0.181005 0.678109
Si Si7 0.698198 0.181989 0.178109
Si Si8 0.301249 0.318701 0.349626
O O1 0.058166 0.500000 0.778678
O O2 0.061493 0.737696 0.678109
O O3 0.089338 0.754922 0.838908
O O4 0.000000 0.727295 0.803616
O O5 0.500000 0.772715 0.552603
O O6 0.589338 0.745075 0.517311
O O7 0.558169 0.000000 0.577541
O O8 0.166190 0.767514 0.928393
O O9 0.171776 0.757839 0.761487
O O10 0.138312 0.000000 0.836302
O O11 0.702871 0.500000 0.015587
O O12 0.750000 0.250000 0.990599
O O13 0.674516 0.247192 0.091726
O O14 0.828224 0.242161 0.594732
O O15 0.833811 0.232488 0.427826
O O16 0.861687 0.000000 0.519914
O O17 0.750000 0.250000 0.678108
O O18 0.797005 0.000000 0.678109
O O19 0.750000 0.250000 0.178109
O O20 0.674516 0.247193 0.264492
O O21 0.698144 0.000000 0.178110
O O22 0.297129 0.500000 0.340633
O O23 0.250000 0.250000 0.365619
#
# Coordination Sequence:
#
# PCOD8172318 Si02
#       8
#     8   8   8   8   8   8   8   8
#     4   9  18  32  49  69  92 120 157 199 239 278
#     4   9  18  32  49  69  92 120 157 199 239 278
#     4  10  20  32  47  68  95 125 159 195 232 276
#     4  10  19  31  47  69  96 126 159 196 234 277
#     4  10  20  32  47  68  95 125 159 195 232 276
#     4  10  20  32  43  62  93 127 162 191 221 266
#     4  10  18  30  48  68  91 122 157 196 238 279
#     4  10  19  31  47  69  96 126 159 196 234 277
#
# _framework density 16.327034999999999
#
# number of rings (size 3 to 8) (size 9 to 14) (size 15 to 20)
#    0.000    2.250    1.250    4.875    0.000    3.500 
#    0.000    1.250    0.000    0.000    0.000    0.875 
#    0.000    7.000    0.000    0.000    0.000    0.000 
#
# Total GULP energy -396741.986477 kJ/mol
# GULP energy per Si atom -12398.187077 kJ/mol
# Density = 1.628987 g / cm^3
# Si number density = 16.327035 Si / 1000 Ang^3
#
#
#
# Elastic Constant Matrix: (Units=GPa)
#
#
# Indices 1 2 3 4 5 6 
#
# 1 111.7747 29.2138 71.2204 0.0000 0.0000 0.0000
# 2 29.2138 50.6957 46.2127 0.0000 0.0000 0.0000
# 3 71.2204 46.2127 152.3985 0.0000 0.0000 0.0000
# 4 0.0000 0.0000 0.0000 21.8581 0.0000 0.0000
# 5 0.0000 0.0000 0.0000 0.0000 14.6438 0.0000
# 6 0.0000 0.0000 0.0000 0.0000 0.0000 28.1909
#
#
#
# Elastic Compliance Matrix: (Units=1/GPa)
#
#
# Indices 1 2 3 4 5 6 
#
# 1 0.013002 -0.002700 -0.005258 0.000000 0.000000 0.000000
# 2 -0.002700 0.027822 -0.007175 0.000000 0.000000 0.000000
# 3 -0.005258 -0.007175 0.011194 0.000000 0.000000 0.000000
# 4 0.000000 0.000000 0.000000 0.045750 0.000000 0.000000
# 5 0.000000 0.000000 0.000000 0.000000 0.068288 0.000000
# 6 0.000000 0.000000 0.000000 0.000000 0.000000 0.035472
#
#
# Mechanical properties :
#
#
# Convention : Reuss Voigt Hill
#
# Bulk Modulus (GPa) = 45.96915 67.57363 56.77139
# Shear Modulus (GPa) = 20.91659 24.15336 22.53498
#
# Velocity S-wave (km/s) = 3.58313 3.85040 3.71917
# Velocity P-wave (km/s) = 6.73311 7.82591 7.29999
#
# Compressibility (1/GPa) = 0.02175372
#
# Stress axis : x y z
#
# Youngs Moduli (GPa) = 76.90944 35.94311 89.33002
#
# Poissons Ratio (x) = 0.09705 0.46967
# Poissons Ratio (y) = 0.20765 0.64092
# Poissons Ratio (z) = 0.40436 0.25788
#
# Static dielectric constant tensor:
#      x y z
#    x 3.015060 0.000000 0.000000 
#    y 0.000000 3.013740 0.000000 
#    z 0.000000 0.000000 3.650750 
# 
# 
# High freq. dielectric constant tensor:
#      x y z
#    x 1.605460 0.000000 0.000000 
#    y 0.000000 1.631360 0.000000 
#    z 0.000000 0.000000 1.624810 
# 
# From -- ./inp_files/17764.got.cif
#   From: 2010.03.12/outbox.cif.g09.slc.cpg/sg35_9_cif.got.tgz:17764.got - 2010.04.14 02:02:04.
