data_PCOD8172787
_publ_section_title
;
Structure prediction by ZEFSAII (Michael W. Deem and Ramdas Pophale) SiO2 
 PCOD8172787
Probable space group: C M M 2
;
_chemical_formula_sum "Si O2"
_cell_formula_units_Z 64
_cell_length_a 8.916043
_cell_length_b 18.598812
_cell_length_c 20.752238
_cell_angle_alpha 90.000000
_cell_angle_beta 90.000000
_cell_angle_gamma 90.000000
_cell_volume 3441.298129
_symmetry_space_group_name_H-M "C M M 2"
_symmetry_group_IT_number 35
_symmetry_cell_setting 'orthorhombic'
loop_
_space_group_symop_operation_xyz
x,y,z
-x,-y,z
-x,y,z
x,-y,z
1/2+x,1/2+y,z
1/2-x,1/2-y,z
1/2-x,1/2+y,z
1/2+x,1/2-y,z
loop_
_atom_site_type_symbol
_atom_site_label
_atom_site_fract_x
_atom_site_fract_y
_atom_site_fract_z
Si Si1 0.679519 0.673073 0.346750
Si Si2 0.178497 0.672527 0.215568
Si Si3 0.665760 0.414083 0.605540
Si Si4 0.175334 0.173655 0.980084
Si Si5 0.335737 0.915013 0.727951
Si Si6 0.678904 0.420234 0.466230
Si Si7 0.678661 0.081856 0.870236
Si Si8 0.827234 0.083908 0.106548
O O1 0.500000 0.676033 0.340877
O O2 0.750000 0.750000 0.358046
O O3 0.749665 0.640735 0.281234
O O4 0.736567 0.627558 0.407459
O O5 0.250000 0.750000 0.199312
O O6 0.217587 0.616702 0.159751
O O7 0.000000 0.680770 0.222294
O O8 0.500000 0.382099 0.609993
O O9 0.662605 0.500000 0.608436
O O10 0.749327 0.380554 0.667320
O O11 0.738102 0.391463 0.536120
O O12 0.250000 0.250000 0.994358
O O13 0.242963 0.138190 0.916575
O O14 0.000000 0.185500 0.969778
O O15 0.210466 0.121117 0.039118
O O16 0.500000 0.880518 0.726039
O O17 0.263337 0.898735 0.797937
O O18 0.345348 0.000000 0.718948
O O19 0.500000 0.421514 0.468985
O O20 0.741340 0.500000 0.453516
O O21 0.500000 0.089579 0.874181
O O22 0.725519 0.000000 0.887916
O O23 0.000000 0.097276 0.126396
O O24 0.791547 0.000000 0.099281
#
# Coordination Sequence:
#
# PCOD8172787 Si02
#       8
#     8   8   8   8   8   8   8   8
#     4  10  19  33  53  74 100 135 171 209 254 305
#     4  11  22  37  57  80 106 137 175 214 254 304
#     4   8  13  23  41  66  94 123 161 209 254 298
#     4  11  23  38  57  80 106 138 175 213 253 303
#     4   8  14  25  42  67  99 132 164 201 251 306
#     4   8  15  28  47  71  97 128 168 211 254 300
#     4   9  18  33  53  77 106 138 172 214 262 309
#     4  10  22  40  60  83 110 137 167 207 255 304
#
# _framework density 18.597633999999999
#
# number of rings (size 3 to 8) (size 9 to 14) (size 15 to 20)
#    0.000    2.625    0.000    4.875    0.000    4.000 
#    0.000    3.750    0.000    3.375    0.000    3.500 
#    0.000    0.000    0.000    0.000    0.000    0.000 
#
# Total GULP energy -396611.565429 kJ/mol
# GULP energy per Si atom -12394.111420 kJ/mol
# Density = 1.855530 g / cm^3
# Si number density = 18.597634 Si / 1000 Ang^3
#
#
#
# Elastic Constant Matrix: (Units=GPa)
#
#
# Indices 1 2 3 4 5 6 
#
# 1 80.7891 34.1475 56.1994 0.0000 0.0000 0.0000
# 2 34.1475 68.8734 58.7236 0.0000 0.0000 0.0000
# 3 56.1994 58.7236 160.7765 0.0000 0.0000 0.0000
# 4 0.0000 0.0000 0.0000 2.8106 0.0000 0.0000
# 5 0.0000 0.0000 0.0000 0.0000 23.4896 0.0000
# 6 0.0000 0.0000 0.0000 0.0000 0.0000 21.8916
#
#
#
# Elastic Compliance Matrix: (Units=1/GPa)
#
#
# Indices 1 2 3 4 5 6 
#
# 1 0.017473 -0.005018 -0.004275 0.000000 0.000000 0.000000
# 2 -0.005018 0.022527 -0.006474 0.000000 0.000000 0.000000
# 3 -0.004275 -0.006474 0.010079 0.000000 0.000000 0.000000
# 4 0.000000 0.000000 0.000000 0.355796 0.000000 0.000000
# 5 0.000000 0.000000 0.000000 0.000000 0.042572 0.000000
# 6 0.000000 0.000000 0.000000 0.000000 0.000000 0.045680
#
#
# Mechanical properties :
#
#
# Convention : Reuss Voigt Hill
#
# Bulk Modulus (GPa) = 53.92333 67.62000 60.77166
# Shear Modulus (GPa) = 9.40130 20.39627 14.89878
#
# Velocity S-wave (km/s) = 2.25079 3.31526 2.83346
# Velocity P-wave (km/s) = 5.98435 7.14794 6.59187
#
# Compressibility (1/GPa) = 0.01854485
#
# Stress axis : x y z
#
# Youngs Moduli (GPa) = 57.23271 44.39051 99.21985
#
# Poissons Ratio (x) = 0.22276 0.42413
# Poissons Ratio (y) = 0.28721 0.64235
# Poissons Ratio (z) = 0.24465 0.28738
#
# Static dielectric constant tensor:
#      x y z
#    x 3.386160 0.000000 0.000000 
#    y 0.000000 3.154190 0.000000 
#    z 0.000000 0.000000 3.838200 
# 
# 
# High freq. dielectric constant tensor:
#      x y z
#    x 1.708560 0.000000 0.000000 
#    y 0.000000 1.687860 0.000000 
#    z 0.000000 0.000000 1.744130 
# 
# From -- ./inp_files/18409.got.cif
#   From: 2010.03.12/outbox.cif.g09.slc.cpg/sg35_10_cif.got.tgz:18409.got - 2010.04.14 02:02:04.
