data_PCOD8172840
_publ_section_title
;
Structure prediction by ZEFSAII (Michael W. Deem and Ramdas Pophale) SiO2 
 PCOD8172840
Probable space group: C M M 2
;
_chemical_formula_sum "Si O2"
_cell_formula_units_Z 48
_cell_length_a 15.108742
_cell_length_b 18.705007
_cell_length_c 9.288862
_cell_angle_alpha 90.000000
_cell_angle_beta 90.000000
_cell_angle_gamma 90.000000
_cell_volume 2625.117161
_symmetry_space_group_name_H-M "C M M 2"
_symmetry_group_IT_number 35
_symmetry_cell_setting 'orthorhombic'
loop_
_space_group_symop_operation_xyz
x,y,z
-x,-y,z
-x,y,z
x,-y,z
1/2+x,1/2+y,z
1/2-x,1/2-y,z
1/2-x,1/2+y,z
1/2+x,1/2-y,z
loop_
_atom_site_type_symbol
_atom_site_label
_atom_site_fract_x
_atom_site_fract_y
_atom_site_fract_z
Si Si1 0.741884 0.918574 0.278680
Si Si2 0.399848 0.161610 0.777468
Si Si3 0.156797 0.785098 0.974909
Si Si4 0.400750 0.313619 0.283726
Si Si5 0.896829 0.670739 0.446720
Si Si6 0.744117 0.080693 0.944842
O O1 0.832360 0.877015 0.314191
O O2 0.659287 0.890212 0.368907
O O3 0.758885 0.000000 0.323181
O O4 0.716852 0.911158 0.111360
O O5 0.500000 0.134375 0.788015
O O6 0.391663 0.238467 0.854587
O O7 0.370383 0.172089 0.613576
O O8 0.340749 0.100568 0.849932
O O9 0.250000 0.750000 0.019135
O O10 0.174942 0.864872 0.911307
O O11 0.097941 0.789039 0.117476
O O12 0.500000 0.339456 0.323140
O O13 0.371694 0.247436 0.382109
O O14 0.000000 0.653163 0.422594
O O15 0.774579 0.000000 0.908581
#
# Coordination Sequence:
#
# PCOD8172840 Si02
#       6
#     8   8   8   8   8   8
#     4  10  21  36  53  75 105 137 170 209 253 304
#     4  10  20  33  51  76 103 130 165 209 253 299
#     4   9  17  31  52  76 100 132 169 206 249 300
#     4  10  19  33  55  78 102 133 170 212 254 300
#     4  10  21  35  52  76 104 135 172 213 255 299
#     4   9  19  34  50  72 101 132 166 204 249 299
#
# _framework density 18.284897999999998
#
# number of rings (size 3 to 8) (size 9 to 14) (size 15 to 20)
#    0.000    2.333    0.000    4.000    0.000    7.667 
#    0.000    3.333    0.000    1.500    0.000    2.333 
#    0.000    2.667    0.000    0.000    0.000    0.000 
#
# Total GULP energy -297628.342896 kJ/mol
# GULP energy per Si atom -12401.180954 kJ/mol
# Density = 1.824328 g / cm^3
# Si number density = 18.284898 Si / 1000 Ang^3
#
#
#
# Elastic Constant Matrix: (Units=GPa)
#
#
# Indices 1 2 3 4 5 6 
#
# 1 70.2379 40.1567 30.2177 0.0000 0.0000 0.0000
# 2 40.1567 132.4767 40.2346 0.0000 0.0000 0.0000
# 3 30.2177 40.2346 74.2657 0.0000 0.0000 0.0000
# 4 0.0000 0.0000 0.0000 8.3742 0.0000 0.0000
# 5 0.0000 0.0000 0.0000 0.0000 26.3441 0.0000
# 6 0.0000 0.0000 0.0000 0.0000 0.0000 19.3052
#
#
#
# Elastic Compliance Matrix: (Units=1/GPa)
#
#
# Indices 1 2 3 4 5 6 
#
# 1 0.018928 -0.004068 -0.005498 0.000000 0.000000 0.000000
# 2 -0.004068 0.009909 -0.003713 0.000000 0.000000 0.000000
# 3 -0.005498 -0.003713 0.017714 0.000000 0.000000 0.000000
# 4 0.000000 0.000000 0.000000 0.119415 0.000000 0.000000
# 5 0.000000 0.000000 0.000000 0.000000 0.037959 0.000000
# 6 0.000000 0.000000 0.000000 0.000000 0.000000 0.051799
#
#
# Mechanical properties :
#
#
# Convention : Reuss Voigt Hill
#
# Bulk Modulus (GPa) = 50.01643 55.35536 52.68589
# Shear Modulus (GPa) = 17.30418 21.89614 19.60016
#
# Velocity S-wave (km/s) = 3.07964 3.46424 3.27759
# Velocity P-wave (km/s) = 6.32921 6.80741 6.57266
#
# Compressibility (1/GPa) = 0.01999343
#
# Stress axis : x y z
#
# Youngs Moduli (GPa) = 52.83102 100.91482 56.45273
#
# Poissons Ratio (x) = 0.41051 0.31037
# Poissons Ratio (y) = 0.21491 0.20963
# Poissons Ratio (z) = 0.29046 0.37474
#
# Static dielectric constant tensor:
#      x y z
#    x 3.288760 0.000000 0.000000 
#    y 0.000000 3.548330 0.000000 
#    z 0.000000 0.000000 3.351520 
# 
# 
# High freq. dielectric constant tensor:
#      x y z
#    x 1.703330 0.000000 0.000000 
#    y 0.000000 1.707310 0.000000 
#    z 0.000000 0.000000 1.705400 
# 
# From -- ./inp_files/7301.got.cif
#   From: 2010.03.12/outbox.cif.g09.slc.cpg/sg35_4_cif.got.tgz:7301.got - 2010.04.14 02:02:04.
