data_PCOD8172033
_publ_section_title
;
Structure prediction by ZEFSAII (Michael W. Deem and Ramdas Pophale) SiO2 
 PCOD8172033
Probable space group: P N N 2
;
_chemical_formula_sum "Si O2"
_cell_formula_units_Z 32
_cell_length_a 11.871835
_cell_length_b 8.598159
_cell_length_c 14.460882
_cell_angle_alpha 90.000000
_cell_angle_beta 90.000000
_cell_angle_gamma 90.000000
_cell_volume 1476.107906
_symmetry_space_group_name_H-M "P N N 2"
_symmetry_group_IT_number 34
_symmetry_cell_setting 'orthorhombic'
loop_
_space_group_symop_operation_xyz
x,y,z
-x,-y,z
1/2-x,1/2+y,1/2+z
1/2+x,1/2-y,1/2+z
loop_
_atom_site_type_symbol
_atom_site_label
_atom_site_fract_x
_atom_site_fract_y
_atom_site_fract_z
Si Si1 0.991627 0.680234 0.644830
Si Si2 0.026518 0.829102 0.829949
Si Si3 0.057250 0.334222 0.365463
Si Si4 0.708287 0.388397 0.086020
Si Si5 0.215720 0.853058 0.963918
Si Si6 0.383925 0.337568 0.982566
Si Si7 0.651112 0.307705 0.490479
Si Si8 0.890470 0.605646 0.164766
O O1 0.869234 0.762156 0.638040
O O2 0.000000 0.500000 0.619998
O O3 0.027091 0.700978 0.750739
O O4 0.081899 0.756752 0.577852
O O5 0.152668 0.826409 0.868081
O O6 0.000000 0.000000 0.787991
O O7 0.942497 0.785512 0.912397
O O8 0.151099 0.351566 0.444159
O O9 0.107363 0.302553 0.263034
O O10 0.000000 0.500000 0.361051
O O11 0.970621 0.198216 0.398466
O O12 0.630340 0.480018 0.009670
O O13 0.774696 0.503377 0.156071
O O14 0.805669 0.290678 0.033389
O O15 0.174339 0.011533 0.011405
O O16 0.262634 0.274070 0.951093
O O17 0.607373 0.234205 0.585160
O O18 0.000000 0.500000 0.153776
#
# Coordination Sequence:
#
# PCOD8172033 Si02
#       8
#     4   4   4   4   4   4   4   4
#     4  12  25  41  65  99 132 170 223 284 334 400
#     4  10  24  40  65  93 134 171 220 273 333 398
#     4  11  22  40  67  99 134 179 225 278 340 411
#     4  11  24  41  71  96 135 175 228 281 341 408
#     4  11  22  40  66  95 133 175 222 275 343 399
#     4  11  22  41  69  95 128 173 222 276 337 403
#     4  10  22  42  70  92 132 180 222 276 342 400
#     4  10  24  42  70  97 140 182 230 281 344 417
#
# _framework density 21.678630999999999
#
# number of rings (size 3 to 8) (size 9 to 14) (size 15 to 20)
#    0.000    1.250    2.500    3.000    7.000    2.500 
#    0.000    0.000   13.750    0.000    0.000    0.000 
#    0.000    0.000    0.000    0.000    0.000    0.000 
#
# Total GULP energy -396764.917314 kJ/mol
# GULP energy per Si atom -12398.903666 kJ/mol
# Density = 2.162929 g / cm^3
# Si number density = 21.678631 Si / 1000 Ang^3
#
#
#
# Elastic Constant Matrix: (Units=GPa)
#
#
# Indices 1 2 3 4 5 6 
#
# 1 81.7074 31.9086 20.6418 0.0000 0.0000 0.0000
# 2 31.9086 117.5510 50.1021 0.0000 0.0000 0.0000
# 3 20.6418 50.1021 106.2561 0.0000 0.0000 0.0000
# 4 0.0000 0.0000 0.0000 31.5538 0.0000 0.0000
# 5 0.0000 0.0000 0.0000 0.0000 25.6467 0.0000
# 6 0.0000 0.0000 0.0000 0.0000 0.0000 34.3815
#
#
#
# Elastic Compliance Matrix: (Units=1/GPa)
#
#
# Indices 1 2 3 4 5 6 
#
# 1 0.013800 -0.003258 -0.001145 0.000000 0.000000 0.000000
# 2 -0.003258 0.011416 -0.004750 0.000000 0.000000 0.000000
# 3 -0.001145 -0.004750 0.011873 0.000000 0.000000 0.000000
# 4 0.000000 0.000000 0.000000 0.031692 0.000000 0.000000
# 5 0.000000 0.000000 0.000000 0.000000 0.038991 0.000000
# 6 0.000000 0.000000 0.000000 0.000000 0.000000 0.029085
#
#
# Mechanical properties :
#
#
# Convention : Reuss Voigt Hill
#
# Bulk Modulus (GPa) = 53.23648 56.75771 54.99710
# Shear Modulus (GPa) = 30.97416 31.84052 31.40734
#
# Velocity S-wave (km/s) = 3.78403 3.83659 3.81040
# Velocity P-wave (km/s) = 6.61077 6.77230 6.69203
#
# Compressibility (1/GPa) = 0.01878411
#
# Stress axis : x y z
#
# Youngs Moduli (GPa) = 72.46187 87.59763 84.22298
#
# Poissons Ratio (x) = 0.28541 0.09640
# Poissons Ratio (y) = 0.23609 0.40005
# Poissons Ratio (z) = 0.08294 0.41608
#
# Static dielectric constant tensor:
#      x y z
#    x 4.063090 0.000000 0.000000 
#    y 0.000000 4.002160 0.000000 
#    z 0.000000 0.000000 3.970450 
# 
# 
# High freq. dielectric constant tensor:
#      x y z
#    x 1.864960 0.000000 0.000000 
#    y 0.000000 1.849540 0.000000 
#    z 0.000000 0.000000 1.843970 
# 
# From -- ./inp_files/6840.got.cif
#   From: 2010.03.12/outbox.cif.g09.slc.cpg/sg34_4_cif.got.tgz:6840.got - 2010.04.14 01:56:33.
