data_PCOD8172718
_publ_section_title
;
Structure prediction by ZEFSAII (Michael W. Deem and Ramdas Pophale) SiO2 
 PCOD8172718
Probable space group: C M M 2
;
_chemical_formula_sum "Si O2"
_cell_formula_units_Z 40
_cell_length_a 7.867333
_cell_length_b 18.332377
_cell_length_c 14.571290
_cell_angle_alpha 90.000000
_cell_angle_beta 90.000000
_cell_angle_gamma 90.000000
_cell_volume 2101.572198
_symmetry_space_group_name_H-M "C M M 2"
_symmetry_group_IT_number 35
_symmetry_cell_setting 'orthorhombic'
loop_
_space_group_symop_operation_xyz
x,y,z
-x,-y,z
-x,y,z
x,-y,z
1/2+x,1/2+y,z
1/2-x,1/2-y,z
1/2-x,1/2+y,z
1/2+x,1/2-y,z
loop_
_atom_site_type_symbol
_atom_site_label
_atom_site_fract_x
_atom_site_fract_y
_atom_site_fract_z
Si Si1 0.803098 0.332442 0.908920
Si Si2 0.193619 0.414114 0.723841
Si Si3 0.186853 0.586573 0.273497
Si Si4 0.806500 0.081175 0.080971
Si Si5 0.000000 0.912707 0.391144
Si Si6 0.000000 0.086520 0.597276
O O1 0.750000 0.250000 0.892769
O O2 0.752724 0.376685 0.818473
O O3 0.000000 0.339502 0.930691
O O4 0.705190 0.365351 0.995132
O O5 0.209553 0.500000 0.739090
O O6 0.327647 0.386317 0.647581
O O7 0.000000 0.393063 0.694562
O O8 0.205343 0.500000 0.271963
O O9 0.207105 0.614222 0.168612
O O10 0.331695 0.618556 0.340582
O O11 0.000000 0.610515 0.309492
O O12 0.000000 0.075498 0.112848
O O13 0.737969 0.000000 0.054621
O O14 0.000000 0.881545 0.494529
O O15 0.000000 0.000000 0.391793
O O16 0.000000 0.000000 0.594328
#
# Coordination Sequence:
#
# PCOD8172718 Si02
#       6
#     8   8   8   8   4   4
#     4  11  23  36  51  75 107 137 179 219 263 314
#     4   9  19  35  53  75 104 139 176 214 262 317
#     4   9  16  27  45  70 104 141 172 206 254 307
#     4  10  19  32  52  77 107 142 178 214 257 314
#     4   9  16  28  43  73 107 131 168 214 260 308
#     4   9  18  30  51  75 103 137 171 216 264 308
#
# _framework density 19.033370999999999
#
# number of rings (size 3 to 8) (size 9 to 14) (size 15 to 20)
#    0.000    2.400    1.000    1.800    2.800    2.800 
#    0.000    4.000    0.000    0.000    0.000    1.400 
#    0.000    0.000    0.000    0.000    0.000    0.000 
#
# Total GULP energy -247955.925318 kJ/mol
# GULP energy per Si atom -12397.796266 kJ/mol
# Density = 1.899005 g / cm^3
# Si number density = 19.033371 Si / 1000 Ang^3
#
#
#
# Elastic Constant Matrix: (Units=GPa)
#
#
# Indices 1 2 3 4 5 6 
#
# 1 136.1378 18.6614 82.5326 0.0000 0.0000 0.0000
# 2 18.6614 32.8259 27.3185 0.0000 0.0000 0.0000
# 3 82.5326 27.3185 152.7636 0.0000 0.0000 0.0000
# 4 0.0000 0.0000 0.0000 0.9300 0.0000 0.0000
# 5 0.0000 0.0000 0.0000 0.0000 29.2514 0.0000
# 6 0.0000 0.0000 0.0000 0.0000 0.0000 16.2014
#
#
#
# Elastic Compliance Matrix: (Units=1/GPa)
#
#
# Indices 1 2 3 4 5 6 
#
# 1 0.010989 -0.001535 -0.005662 0.000000 0.000000 0.000000
# 2 -0.001535 0.036005 -0.005609 0.000000 0.000000 0.000000
# 3 -0.005662 -0.005609 0.010608 0.000000 0.000000 0.000000
# 4 0.000000 0.000000 0.000000 1.075292 0.000000 0.000000
# 5 0.000000 0.000000 0.000000 0.000000 0.034186 0.000000
# 6 0.000000 0.000000 0.000000 0.000000 0.000000 0.061723
#
#
# Mechanical properties :
#
#
# Convention : Reuss Voigt Hill
#
# Bulk Modulus (GPa) = 31.26124 64.30581 47.78353
# Shear Modulus (GPa) = 3.95232 22.15755 13.05494
#
# Velocity S-wave (km/s) = 1.44258 3.41565 2.62181
# Velocity P-wave (km/s) = 4.38575 7.02956 5.85874
#
# Compressibility (1/GPa) = 0.03198849
#
# Stress axis : x y z
#
# Youngs Moduli (GPa) = 91.00353 27.77428 94.26562
#
# Poissons Ratio (x) = 0.04263 0.53376
# Poissons Ratio (y) = 0.13966 0.52878
# Poissons Ratio (z) = 0.51529 0.15580
#
# Static dielectric constant tensor:
#      x y z
#    x 3.755170 0.000000 0.000000 
#    y 0.000000 2.954610 0.000000 
#    z 0.000000 0.000000 3.533330 
# 
# 
# High freq. dielectric constant tensor:
#      x y z
#    x 1.758810 0.000000 0.000000 
#    y 0.000000 1.681220 0.000000 
#    z 0.000000 0.000000 1.738400 
# 
# From -- ./inp_files/11188.got.cif
#   From: 2010.03.12/outbox.cif.g09.slc.cpg/sg35_6_cif.got.tgz:11188.got - 2010.04.14 02:02:04.
