data_PCOD8172118
_publ_section_title
;
Structure prediction by ZEFSAII (Michael W. Deem and Ramdas Pophale) SiO2 
 PCOD8172118
Probable space group: P N N 2
;
_chemical_formula_sum "Si O2"
_cell_formula_units_Z 24
_cell_length_a 10.416525
_cell_length_b 10.403492
_cell_length_c 8.287480
_cell_angle_alpha 90.000000
_cell_angle_beta 90.000000
_cell_angle_gamma 90.000000
_cell_volume 898.099576
_symmetry_space_group_name_H-M "P N N 2"
_symmetry_group_IT_number 34
_symmetry_cell_setting 'orthorhombic'
loop_
_space_group_symop_operation_xyz
x,y,z
-x,-y,z
1/2-x,1/2+y,1/2+z
1/2+x,1/2-y,1/2+z
loop_
_atom_site_type_symbol
_atom_site_label
_atom_site_fract_x
_atom_site_fract_y
_atom_site_fract_z
Si Si1 0.645772 0.500000 0.714720
Si Si2 0.643349 0.500000 0.098202
Si Si3 0.000000 0.646225 0.987505
Si Si4 0.248151 0.744430 0.542978
Si Si5 1.000000 0.354666 0.371392
Si Si6 0.251849 0.755571 0.042977
O O1 0.500000 0.500000 0.647113
O O2 0.645465 0.500001 0.905331
O O3 0.722116 0.376257 0.653726
O O4 0.722117 0.623742 0.653724
O O5 0.500000 0.500000 0.169867
O O6 0.719084 0.628329 0.155348
O O7 0.719084 0.371670 0.155347
O O8 0.000001 0.653783 0.180813
O O9 0.128593 0.719793 0.928974
O O10 0.000000 0.500000 0.922604
O O11 0.871407 0.719793 0.928976
O O12 0.124072 0.721081 0.433547
O O13 0.000000 0.500000 0.436350
O O14 0.124072 0.278919 0.433545
#
# Coordination Sequence:
#
# PCOD8172118 Si02
#       6
#     4   4   4   4   4   4
#     4  11  24  43  69  98 134 180 225 275 339 400
#     4  11  24  43  69  98 134 180 225 275 339 400
#     4  11  24  43  67  96 133 177 220 272 339 401
#     4  12  22  42  70 100 130 176 220 284 328 398
#     4  11  24  43  67  96 133 177 220 272 339 401
#     4  12  22  42  70 100 130 176 220 284 328 398
#
# _framework density 26.723092999999999
#
# number of rings (size 3 to 8) (size 9 to 14) (size 15 to 20)
#    0.000    0.667    6.667    2.000    0.000    0.000 
#    0.000    8.333    0.000   12.000    0.000    0.000 
#    0.000    0.000    0.000    0.000    0.000    0.000 
#
# Total GULP energy -297612.476725 kJ/mol
# GULP energy per Si atom -12400.519864 kJ/mol
# Density = 2.666227 g / cm^3
# Si number density = 26.723093 Si / 1000 Ang^3
#
#
#
# Elastic Constant Matrix: (Units=GPa)
#
#
# Indices 1 2 3 4 5 6 
#
# 1 232.8685 78.7064 15.5157 0.0000 0.0000 0.0000
# 2 78.7064 234.3157 16.3884 0.0000 0.0000 0.0000
# 3 15.5157 16.3884 33.4061 0.0000 0.0000 0.0000
# 4 0.0000 0.0000 0.0000 24.5270 0.0000 0.0000
# 5 0.0000 0.0000 0.0000 0.0000 23.3855 0.0000
# 6 0.0000 0.0000 0.0000 0.0000 0.0000 66.7541
#
#
#
# Elastic Compliance Matrix: (Units=1/GPa)
#
#
# Indices 1 2 3 4 5 6 
#
# 1 0.004918 -0.001545 -0.001526 0.000000 0.000000 0.000000
# 2 -0.001545 0.004905 -0.001689 0.000000 0.000000 0.000000
# 3 -0.001526 -0.001689 0.031472 0.000000 0.000000 0.000000
# 4 0.000000 0.000000 0.000000 0.040771 0.000000 0.000000
# 5 0.000000 0.000000 0.000000 0.000000 0.042761 0.000000
# 6 0.000000 0.000000 0.000000 0.000000 0.000000 0.014980
#
#
# Mechanical properties :
#
#
# Convention : Reuss Voigt Hill
#
# Bulk Modulus (GPa) = 31.47131 80.20125 55.83628
# Shear Modulus (GPa) = 31.26564 48.93199 40.09881
#
# Velocity S-wave (km/s) = 3.42422 4.28375 3.87787
# Velocity P-wave (km/s) = 5.23794 7.38542 6.40236
#
# Compressibility (1/GPa) = 0.03177497
#
# Stress axis : x y z
#
# Youngs Moduli (GPa) = 203.32455 203.87754 31.77436
#
# Poissons Ratio (x) = 0.31505 0.04849
# Poissons Ratio (y) = 0.31419 0.05365
# Poissons Ratio (z) = 0.31032 0.34425
#
# Static dielectric constant tensor:
#      x y z
#    x 5.734610 0.000000 0.000000 
#    y 0.000000 5.834280 0.000000 
#    z 0.000000 0.000000 4.012260 
# 
# 
# High freq. dielectric constant tensor:
#      x y z
#    x 2.106790 0.000000 0.000000 
#    y 0.000000 2.106950 0.000000 
#    z 0.000000 0.000000 2.017120 
# 
# From -- ./inp_files/4947.got.cif
#   From: 2010.03.12/outbox.cif.g09.slc.cpg/sg34_3_cif.got.tgz:4947.got - 2010.04.14 01:56:33.
