data_PCOD8172748
_publ_section_title
;
Structure prediction by ZEFSAII (Michael W. Deem and Ramdas Pophale) SiO2 
 PCOD8172748
Probable space group: C M M 2
;
_chemical_formula_sum "Si O2"
_cell_formula_units_Z 40
_cell_length_a 15.728729
_cell_length_b 8.492120
_cell_length_c 14.697060
_cell_angle_alpha 90.000000
_cell_angle_beta 90.000000
_cell_angle_gamma 90.000000
_cell_volume 1963.090039
_symmetry_space_group_name_H-M "C M M 2"
_symmetry_group_IT_number 35
_symmetry_cell_setting 'orthorhombic'
loop_
_space_group_symop_operation_xyz
x,y,z
-x,-y,z
-x,y,z
x,-y,z
1/2+x,1/2+y,z
1/2-x,1/2-y,z
1/2-x,1/2+y,z
1/2+x,1/2-y,z
loop_
_atom_site_type_symbol
_atom_site_label
_atom_site_fract_x
_atom_site_fract_y
_atom_site_fract_z
Si Si1 0.661269 0.187487 0.945730
Si Si2 0.154528 0.185962 0.379052
Si Si3 0.595945 0.181549 0.758998
Si Si4 0.500000 0.813541 0.264467
Si Si5 0.500000 0.186708 0.056388
Si Si6 0.843636 0.312470 0.568955
O O1 0.750000 0.250000 0.986038
O O2 0.651648 0.252729 0.841634
O O3 0.659650 0.000000 0.946273
O O4 0.584649 0.254035 0.007562
O O5 0.250000 0.250000 0.360349
O O6 0.117245 0.240442 0.476939
O O7 0.087086 0.246540 0.305835
O O8 0.159724 0.000000 0.375168
O O9 0.500000 0.206280 0.790479
O O10 0.610069 0.256637 0.659132
O O11 0.619668 0.000000 0.747683
O O12 0.500000 0.758056 0.160207
O O13 0.500000 0.000000 0.275615
O O14 0.500000 0.000000 0.048590
O O15 0.848649 0.500000 0.560937
O O16 0.750000 0.250000 0.577940
#
# Coordination Sequence:
#
# PCOD8172748 Si02
#       6
#     8   8   8   4   4   8
#     4  10  19  36  60  85 115 151 191 233 281 339
#     4  11  23  41  62  88 120 157 198 245 297 352
#     4   9  17  30  52  81 113 153 196 231 272 336
#     4  11  23  41  64  89 116 152 197 247 304 359
#     4   9  20  39  62  85 112 148 191 235 286 353
#     4  10  19  32  53  81 114 153 195 237 282 338
#
# _framework density 20.376038999999999
#
# number of rings (size 3 to 8) (size 9 to 14) (size 15 to 20)
#    0.000    2.000    1.000    4.500    1.400    0.800 
#    0.000    5.500    0.000    2.400    0.000    0.000 
#    0.000    0.000    0.000    0.000    0.000    0.000 
#
# Total GULP energy -247877.855803 kJ/mol
# GULP energy per Si atom -12393.892790 kJ/mol
# Density = 2.032966 g / cm^3
# Si number density = 20.376039 Si / 1000 Ang^3
#
#
#
# Elastic Constant Matrix: (Units=GPa)
#
#
# Indices 1 2 3 4 5 6 
#
# 1 118.3917 27.4886 98.1218 0.0000 0.0000 0.0000
# 2 27.4886 78.7883 42.3594 0.0000 0.0000 0.0000
# 3 98.1218 42.3594 168.1665 0.0000 0.0000 0.0000
# 4 0.0000 0.0000 0.0000 12.5832 0.0000 0.0000
# 5 0.0000 0.0000 0.0000 0.0000 32.9001 0.0000
# 6 0.0000 0.0000 0.0000 0.0000 0.0000 30.7182
#
#
#
# Elastic Compliance Matrix: (Units=1/GPa)
#
#
# Indices 1 2 3 4 5 6 
#
# 1 0.016386 -0.000667 -0.009393 0.000000 0.000000 0.000000
# 2 -0.000667 0.014707 -0.003315 0.000000 0.000000 0.000000
# 3 -0.009393 -0.003315 0.012262 0.000000 0.000000 0.000000
# 4 0.000000 0.000000 0.000000 0.079471 0.000000 0.000000
# 5 0.000000 0.000000 0.000000 0.000000 0.030395 0.000000
# 6 0.000000 0.000000 0.000000 0.000000 0.000000 0.032554
#
#
# Mechanical properties :
#
#
# Convention : Reuss Voigt Hill
#
# Bulk Modulus (GPa) = 60.22299 77.92068 69.07184
# Shear Modulus (GPa) = 22.92926 28.39875 25.66400
#
# Velocity S-wave (km/s) = 3.35820 3.73732 3.55282
# Velocity P-wave (km/s) = 6.68256 7.54638 7.12757
#
# Compressibility (1/GPa) = 0.01660495
#
# Stress axis : x y z
#
# Youngs Moduli (GPa) = 61.02668 67.99272 81.55092
#
# Poissons Ratio (x) = 0.04535 0.76601
# Poissons Ratio (y) = 0.04071 0.27038
# Poissons Ratio (z) = 0.57323 0.22543
#
# Static dielectric constant tensor:
#      x y z
#    x 3.569510 0.000000 0.000000 
#    y 0.000000 3.386740 0.000000 
#    z 0.000000 0.000000 4.272510 
# 
# 
# High freq. dielectric constant tensor:
#      x y z
#    x 1.802220 0.000000 0.000000 
#    y 0.000000 1.765860 0.000000 
#    z 0.000000 0.000000 1.807240 
# 
# From -- ./inp_files/14813.got.cif
#   From: 2010.03.12/outbox.cif.g09.slc.cpg/sg35_8_cif.got.tgz:14813.got - 2010.04.14 02:02:04.
