data_PCOD8172298
_publ_section_title
;
Structure prediction by ZEFSAII (Michael W. Deem and Ramdas Pophale) SiO2 
 PCOD8172298
Probable space group: C M M 2
;
_chemical_formula_sum "Si O2"
_cell_formula_units_Z 64
_cell_length_a 9.221496
_cell_length_b 29.283134
_cell_length_c 12.290282
_cell_angle_alpha 90.000000
_cell_angle_beta 90.000000
_cell_angle_gamma 90.000000
_cell_volume 3318.797734
_symmetry_space_group_name_H-M "C M M 2"
_symmetry_group_IT_number 35
_symmetry_cell_setting 'orthorhombic'
loop_
_space_group_symop_operation_xyz
x,y,z
-x,-y,z
-x,y,z
x,-y,z
1/2+x,1/2+y,z
1/2-x,1/2-y,z
1/2-x,1/2+y,z
1/2+x,1/2-y,z
loop_
_atom_site_type_symbol
_atom_site_label
_atom_site_fract_x
_atom_site_fract_y
_atom_site_fract_z
Si Si1 0.171516 0.201056 0.585410
Si Si2 0.665831 0.949546 0.303662
Si Si3 0.666694 0.163093 0.014391
Si Si4 0.339710 0.208667 0.229126
Si Si5 0.170852 0.851686 0.805610
Si Si6 0.333712 0.451227 0.856168
Si Si7 0.167269 0.641045 0.410967
Si Si8 0.832706 0.922510 0.095987
O O1 0.250000 0.250000 0.579224
O O2 0.209210 0.176031 0.698165
O O3 0.228326 0.166200 0.495119
O O4 0.000000 0.208647 0.571554
O O5 0.500000 0.939441 0.266849
O O6 0.710074 0.912360 0.396066
O O7 0.768561 0.949347 0.198457
O O8 0.679474 0.000000 0.356492
O O9 0.500000 0.151422 0.987343
O O10 0.679131 0.204872 0.098923
O O11 0.740347 0.122528 0.079431
O O12 0.750823 0.175166 0.903643
O O13 0.500000 0.223306 0.259489
O O14 0.250000 0.250000 0.278454
O O15 0.302340 0.161992 0.291671
O O16 0.232519 0.904435 0.803618
O O17 0.000000 0.852602 0.830430
O O18 0.500000 0.451797 0.820977
O O19 0.263160 0.500000 0.815370
O O20 0.318219 0.452066 0.986555
O O21 0.000000 0.646751 0.448617
O O22 0.000000 0.910105 0.119160
#
# Coordination Sequence:
#
# PCOD8172298 Si02
#       8
#     8   8   8   8   8   8   8   8
#     4  11  24  42  63  86 110 143 193 246 297 350
#     4  10  20  35  56  82 116 156 193 232 281 337
#     4  10  19  34  54  79 114 152 188 228 283 343
#     4  10  21  35  53  79 111 144 181 228 281 343
#     4   9  20  37  56  82 113 143 185 235 284 338
#     4   8  14  27  49  77 109 145 181 218 266 322
#     4  10  21  40  60  82 114 148 190 238 287 341
#     4  10  18  29  49  79 116 155 193 234 275 327
#
# _framework density 19.284091
#
# number of rings (size 3 to 8) (size 9 to 14) (size 15 to 20)
#    0.000    2.250    1.250    2.625    0.000    5.250 
#    0.000    3.125    0.000    4.125    0.000    0.000 
#    0.000    0.000    0.000    0.000    0.000    0.000 
#
# Total GULP energy -396521.679748 kJ/mol
# GULP energy per Si atom -12391.302492 kJ/mol
# Density = 1.924020 g / cm^3
# Si number density = 19.284091 Si / 1000 Ang^3
#
#
#
# Elastic Constant Matrix: (Units=GPa)
#
#
# Indices 1 2 3 4 5 6 
#
# 1 74.5222 47.7507 49.2323 0.0000 0.0000 0.0000
# 2 47.7507 127.5863 53.0805 0.0000 0.0000 0.0000
# 3 49.2323 53.0805 96.6531 0.0000 0.0000 0.0000
# 4 0.0000 0.0000 0.0000 12.8247 0.0000 0.0000
# 5 0.0000 0.0000 0.0000 0.0000 26.2456 0.0000
# 6 0.0000 0.0000 0.0000 0.0000 0.0000 21.8669
#
#
#
# Elastic Compliance Matrix: (Units=1/GPa)
#
#
# Indices 1 2 3 4 5 6 
#
# 1 0.022180 -0.004667 -0.008735 0.000000 0.000000 0.000000
# 2 -0.004667 0.011141 -0.003741 0.000000 0.000000 0.000000
# 3 -0.008735 -0.003741 0.016850 0.000000 0.000000 0.000000
# 4 0.000000 0.000000 0.000000 0.077975 0.000000 0.000000
# 5 0.000000 0.000000 0.000000 0.000000 0.038102 0.000000
# 6 0.000000 0.000000 0.000000 0.000000 0.000000 0.045731
#
#
# Mechanical properties :
#
#
# Convention : Reuss Voigt Hill
#
# Bulk Modulus (GPa) = 62.95259 66.54317 64.74788
# Shear Modulus (GPa) = 19.87605 22.10065 20.98835
#
# Velocity S-wave (km/s) = 3.21393 3.38902 3.30263
# Velocity P-wave (km/s) = 6.81822 7.06368 6.94204
#
# Compressibility (1/GPa) = 0.01588497
#
# Stress axis : x y z
#
# Youngs Moduli (GPa) = 45.08623 89.75832 59.34703
#
# Poissons Ratio (x) = 0.41891 0.51837
# Poissons Ratio (y) = 0.21042 0.22203
# Poissons Ratio (z) = 0.39381 0.33580
#
# Static dielectric constant tensor:
#      x y z
#    x 3.472110 0.000000 0.000000 
#    y 0.000000 3.685870 0.000000 
#    z 0.000000 0.000000 3.380450 
# 
# 
# High freq. dielectric constant tensor:
#      x y z
#    x 1.739580 0.000000 0.000000 
#    y 0.000000 1.759210 0.000000 
#    z 0.000000 0.000000 1.727350 
# 
# From -- ./inp_files/11978.got.cif
#   From: 2010.03.12/outbox.cif.g09.slc.cpg/sg35_6_cif.got.tgz:11978.got - 2010.04.14 02:02:04.
