data_PCOD8172617
_publ_section_title
;
Structure prediction by ZEFSAII (Michael W. Deem and Ramdas Pophale) SiO2 
 PCOD8172617
Probable space group: C M M 2
;
_chemical_formula_sum "Si O2"
_cell_formula_units_Z 48
_cell_length_a 8.838419
_cell_length_b 15.506228
_cell_length_c 16.957064
_cell_angle_alpha 90.000000
_cell_angle_beta 90.000000
_cell_angle_gamma 90.000000
_cell_volume 2323.974781
_symmetry_space_group_name_H-M "C M M 2"
_symmetry_group_IT_number 35
_symmetry_cell_setting 'orthorhombic'
loop_
_space_group_symop_operation_xyz
x,y,z
-x,-y,z
-x,y,z
x,-y,z
1/2+x,1/2+y,z
1/2-x,1/2-y,z
1/2-x,1/2+y,z
1/2+x,1/2-y,z
loop_
_atom_site_type_symbol
_atom_site_label
_atom_site_fract_x
_atom_site_fract_y
_atom_site_fract_z
Si Si1 0.677970 0.843672 0.940370
Si Si2 0.675641 0.657311 0.788998
Si Si3 0.173067 0.500000 0.339375
Si Si4 0.827416 0.500000 0.525855
Si Si5 0.171440 0.401708 0.109914
Si Si6 0.322992 0.344202 0.613983
Si Si7 0.178059 0.162181 0.258114
O O1 0.500000 0.836689 0.929756
O O2 0.750000 0.750000 0.948404
O O3 0.745754 0.892830 0.862588
O O4 0.722367 0.895860 0.018901
O O5 0.500000 0.665176 0.807979
O O6 0.750000 0.750000 0.786629
O O7 0.703207 0.616891 0.702455
O O8 0.183370 0.500000 0.432656
O O9 0.254913 0.415552 0.307921
O O10 0.000000 0.500000 0.309671
O O11 0.747494 0.586964 0.554985
O O12 0.000000 0.500000 0.555511
O O13 0.182709 0.500000 0.137913
O O14 0.281031 0.346398 0.165446
O O15 0.000000 0.366932 0.119724
O O16 0.500000 0.334279 0.596199
O O17 0.250000 0.250000 0.602202
O O18 0.250000 0.250000 0.291670
O O19 0.000000 0.164883 0.269070
#
# Coordination Sequence:
#
# PCOD8172617 Si02
#       7
#     8   8   4   4   8   8   8
#     4  10  19  31  51  79 112 155 204 252 302 355
#     4   9  17  31  53  80 113 155 200 251 303 353
#     4  11  25  47  69  94 129 160 197 255 308 367
#     4  11  25  43  67  96 125 162 203 247 310 373
#     4  10  21  38  58  82 121 164 204 256 309 358
#     4  10  21  39  64  92 127 166 208 256 309 366
#     4  12  25  42  68  98 125 164 208 249 306 369
#
# _framework density 20.65427
#
# number of rings (size 3 to 8) (size 9 to 14) (size 15 to 20)
#    0.000    1.667    0.833    5.000    0.000    6.667 
#    1.500    0.000    0.000    0.000    0.000    0.000 
#    0.000    0.000    0.000    0.000    0.000    0.000 
#
# Total GULP energy -297535.490198 kJ/mol
# GULP energy per Si atom -12397.312092 kJ/mol
# Density = 2.060726 g / cm^3
# Si number density = 20.654270 Si / 1000 Ang^3
#
#
#
# Elastic Constant Matrix: (Units=GPa)
#
#
# Indices 1 2 3 4 5 6 
#
# 1 164.9689 62.4553 62.5825 0.0000 0.0000 0.0000
# 2 62.4553 114.4432 43.4752 0.0000 0.0000 0.0000
# 3 62.5825 43.4752 100.2221 0.0000 0.0000 0.0000
# 4 0.0000 0.0000 0.0000 27.4400 0.0000 0.0000
# 5 0.0000 0.0000 0.0000 0.0000 35.8922 0.0000
# 6 0.0000 0.0000 0.0000 0.0000 0.0000 28.3989
#
#
#
# Elastic Compliance Matrix: (Units=1/GPa)
#
#
# Indices 1 2 3 4 5 6 
#
# 1 0.008862 -0.003273 -0.004114 0.000000 0.000000 0.000000
# 2 -0.003273 0.011671 -0.003019 0.000000 0.000000 0.000000
# 3 -0.004114 -0.003019 0.013856 0.000000 0.000000 0.000000
# 4 0.000000 0.000000 0.000000 0.036443 0.000000 0.000000
# 5 0.000000 0.000000 0.000000 0.000000 0.027861 0.000000
# 6 0.000000 0.000000 0.000000 0.000000 0.000000 0.035213
#
#
# Mechanical properties :
#
#
# Convention : Reuss Voigt Hill
#
# Bulk Modulus (GPa) = 73.65236 79.62893 76.64064
# Shear Modulus (GPa) = 31.39861 32.42096 31.90979
#
# Velocity S-wave (km/s) = 3.90320 3.96624 3.93485
# Velocity P-wave (km/s) = 7.48668 7.72086 7.60467
#
# Compressibility (1/GPa) = 0.01357730
#
# Stress axis : x y z
#
# Youngs Moduli (GPa) = 112.84768 85.68152 72.17084
#
# Poissons Ratio (x) = 0.28046 0.29688
# Poissons Ratio (y) = 0.36939 0.21787
# Poissons Ratio (z) = 0.46420 0.25866
#
# Static dielectric constant tensor:
#      x y z
#    x 3.931080 0.000000 0.000000 
#    y 0.000000 3.537220 0.000000 
#    z 0.000000 0.000000 4.373020 
# 
# 
# High freq. dielectric constant tensor:
#      x y z
#    x 1.817960 0.000000 0.000000 
#    y 0.000000 1.792680 0.000000 
#    z 0.000000 0.000000 1.820730 
# 
# From -- ./inp_files/17898.got.cif
#   From: 2010.03.12/outbox.cif.g09.slc.cpg/sg35_9_cif.got.tgz:17898.got - 2010.04.14 02:02:04.
