data_PCOD8172039
_publ_section_title
;
Structure prediction by ZEFSAII (Michael W. Deem and Ramdas Pophale) SiO2 
 PCOD8172039
Probable space group: P N N 2
;
_chemical_formula_sum "Si O2"
_cell_formula_units_Z 32
_cell_length_a 12.080211
_cell_length_b 15.095749
_cell_length_c 7.342994
_cell_angle_alpha 90.000000
_cell_angle_beta 90.000000
_cell_angle_gamma 90.000000
_cell_volume 1339.067160
_symmetry_space_group_name_H-M "P N N 2"
_symmetry_group_IT_number 34
_symmetry_cell_setting 'orthorhombic'
loop_
_space_group_symop_operation_xyz
x,y,z
-x,-y,z
1/2-x,1/2+y,1/2+z
1/2+x,1/2-y,1/2+z
loop_
_atom_site_type_symbol
_atom_site_label
_atom_site_fract_x
_atom_site_fract_y
_atom_site_fract_z
Si Si1 0.311995 0.959106 0.472200
Si Si2 0.100069 0.247207 0.653736
Si Si3 0.948093 0.150783 0.228489
Si Si4 0.884275 0.461914 0.314422
Si Si5 0.910326 0.943472 0.501354
Si Si6 0.227655 0.410146 0.573993
Si Si7 0.632361 0.779993 0.013744
Si Si8 0.860896 0.732183 0.066620
O O1 0.336838 0.948390 0.256460
O O2 0.348642 0.873269 0.591466
O O3 0.374092 0.035455 0.591540
O O4 0.184211 0.984961 0.471083
O O5 0.126753 0.148022 0.589250
O O6 0.169110 0.315840 0.527183
O O7 0.144335 0.248084 0.854378
O O8 0.971467 0.275298 0.649902
O O9 0.860330 0.106780 0.089591
O O10 0.871849 0.192193 0.387918
O O11 0.031503 0.077464 0.306362
O O12 0.026662 0.229922 0.151587
O O13 0.787695 0.520898 0.409648
O O14 0.871963 0.362508 0.379107
O O15 0.000000 0.500000 0.383870
O O16 0.000000 0.000000 0.620162
O O17 0.745730 0.778719 0.134425
#
# Coordination Sequence:
#
# PCOD8172039 Si02
#       8
#     4   4   4   4   4   4   4   4
#     4  11  24  45  68 104 145 184 241 293 365 431
#     4  10  22  44  70  99 141 191 234 299 369 431
#     4  11  24  45  73  98 146 189 238 294 370 438
#     4  12  26  44  70 107 142 187 240 299 358 426
#     4  11  22  43  72 102 140 187 227 305 363 421
#     4  11  24  48  70 100 148 188 243 300 356 436
#     4  11  22  45  67  99 144 179 235 300 355 437
#     4  11  24  44  69 103 136 191 242 291 366 447
#
# _framework density 23.897234999999998
#
# number of rings (size 3 to 8) (size 9 to 14) (size 15 to 20)
#    0.000    1.000    5.000    2.250    3.500    2.500 
#    2.250    0.625    0.000    0.000    0.000    0.000 
#    0.000    0.000    0.000    0.000    0.000    0.000 
#
# Total GULP energy -396506.913624 kJ/mol
# GULP energy per Si atom -12390.841051 kJ/mol
# Density = 2.384284 g / cm^3
# Si number density = 23.897235 Si / 1000 Ang^3
#
#
#
# Elastic Constant Matrix: (Units=GPa)
#
#
# Indices 1 2 3 4 5 6 
#
# 1 115.5701 11.4457 9.9474 0.0000 0.0000 0.0000
# 2 11.4457 110.9196 19.4351 0.0000 0.0000 0.0000
# 3 9.9474 19.4351 31.5878 0.0000 0.0000 0.0000
# 4 0.0000 0.0000 0.0000 31.4600 0.0000 0.0000
# 5 0.0000 0.0000 0.0000 0.0000 30.1593 0.0000
# 6 0.0000 0.0000 0.0000 0.0000 0.0000 48.2734
#
#
#
# Elastic Compliance Matrix: (Units=1/GPa)
#
#
# Indices 1 2 3 4 5 6 
#
# 1 0.008917 -0.000480 -0.002513 0.000000 0.000000 0.000000
# 2 -0.000480 0.010131 -0.006082 0.000000 0.000000 0.000000
# 3 -0.002513 -0.006082 0.036191 0.000000 0.000000 0.000000
# 4 0.000000 0.000000 0.000000 0.031786 0.000000 0.000000
# 5 0.000000 0.000000 0.000000 0.000000 0.033157 0.000000
# 6 0.000000 0.000000 0.000000 0.000000 0.000000 0.020715
#
#
# Mechanical properties :
#
#
# Convention : Reuss Voigt Hill
#
# Bulk Modulus (GPa) = 26.96196 37.74821 32.35508
# Shear Modulus (GPa) = 29.16985 36.46180 32.81583
#
# Velocity S-wave (km/s) = 3.49755 3.91035 3.70970
# Velocity P-wave (km/s) = 5.25523 6.01815 5.64959
#
# Compressibility (1/GPa) = 0.03708930
#
# Stress axis : x y z
#
# Youngs Moduli (GPa) = 112.15094 98.70944 27.63102
#
# Poissons Ratio (x) = 0.04736 0.06943
# Poissons Ratio (y) = 0.05381 0.16805
# Poissons Ratio (z) = 0.28180 0.60036
#
# Static dielectric constant tensor:
#      x y z
#    x 4.652050 0.000000 0.000000 
#    y 0.000000 4.566990 0.000000 
#    z 0.000000 0.000000 4.006910 
# 
# 
# High freq. dielectric constant tensor:
#      x y z
#    x 1.959540 0.000000 0.000000 
#    y 0.000000 1.964470 0.000000 
#    z 0.000000 0.000000 1.915430 
# 
# From -- ./inp_files/3334.got.cif
#   From: 2010.03.12/outbox.cif.g09.slc.cpg/sg34_2_cif.got.tgz:3334.got - 2010.04.14 01:56:33.
