data_PCOD8172011
_publ_section_title
;
Structure prediction by ZEFSAII (Michael W. Deem and Ramdas Pophale) SiO2 
 PCOD8172011
Probable space group: P N N 2
;
_chemical_formula_sum "Si O2"
_cell_formula_units_Z 18
_cell_length_a 6.040595
_cell_length_b 20.380102
_cell_length_c 6.794022
_cell_angle_alpha 90.000000
_cell_angle_beta 90.000000
_cell_angle_gamma 90.000000
_cell_volume 836.398068
_symmetry_space_group_name_H-M "P N N 2"
_symmetry_group_IT_number 34
_symmetry_cell_setting 'orthorhombic'
loop_
_space_group_symop_operation_xyz
x,y,z
-x,-y,z
1/2-x,1/2+y,1/2+z
1/2+x,1/2-y,1/2+z
loop_
_atom_site_type_symbol
_atom_site_label
_atom_site_fract_x
_atom_site_fract_y
_atom_site_fract_z
Si Si1 0.614741 0.164929 0.801640
Si Si2 0.812039 0.391299 0.982982
Si Si3 0.000000 0.000000 0.381630
Si Si4 0.930200 0.207138 0.469330
Si Si5 0.805097 0.607015 0.701711
O O1 0.483417 0.115123 0.660896
O O2 0.811005 0.201342 0.682050
O O3 0.453234 0.217279 0.906667
O O4 0.712097 0.117824 0.968962
O O5 0.649955 0.453284 0.020074
O O6 0.673244 0.324402 0.973753
O O7 0.944106 0.404255 0.778826
O O8 0.153008 0.955322 0.244732
O O9 0.780654 0.172873 0.305566
#
# Coordination Sequence:
#
# PCOD8172011 Si02
#       5
#     4   4   2   4   4
#     4  11  22  39  65  95 123 160 203 251 311 370
#     4  10  22  41  63  89 123 163 207 255 307 364
#     4  10  22  44  62  84 126 164 208 262 304 360
#     4  10  22  38  62  94 127 156 199 254 309 371
#     4  10  22  41  63  88 121 165 206 254 308 363
#
# _framework density 21.520852999999999
#
# number of rings (size 3 to 8) (size 9 to 14) (size 15 to 20)
#    0.000    1.778    0.000    3.333    0.000    8.889 
#    0.000   26.667    0.000    0.000    0.000    0.000 
#    0.000    0.000    0.000    0.000    0.000    0.000 
#
# Total GULP energy -223259.066404 kJ/mol
# GULP energy per Si atom -12403.281467 kJ/mol
# Density = 2.147187 g / cm^3
# Si number density = 21.520853 Si / 1000 Ang^3
#
#
#
# Elastic Constant Matrix: (Units=GPa)
#
#
# Indices 1 2 3 4 5 6 
#
# 1 110.5177 36.5416 49.3025 0.0000 0.0000 0.0000
# 2 36.5416 112.4997 40.3213 0.0000 0.0000 0.0000
# 3 49.3025 40.3213 138.5782 0.0000 0.0000 0.0000
# 4 0.0000 0.0000 0.0000 21.3904 0.0000 0.0000
# 5 0.0000 0.0000 0.0000 0.0000 22.2760 0.0000
# 6 0.0000 0.0000 0.0000 0.0000 0.0000 34.3320
#
#
#
# Elastic Compliance Matrix: (Units=1/GPa)
#
#
# Indices 1 2 3 4 5 6 
#
# 1 0.011352 -0.002501 -0.003311 0.000000 0.000000 0.000000
# 2 -0.002501 0.010475 -0.002158 0.000000 0.000000 0.000000
# 3 -0.003311 -0.002158 0.009022 0.000000 0.000000 0.000000
# 4 0.000000 0.000000 0.000000 0.046750 0.000000 0.000000
# 5 0.000000 0.000000 0.000000 0.000000 0.044891 0.000000
# 6 0.000000 0.000000 0.000000 0.000000 0.000000 0.029127
#
#
# Mechanical properties :
#
#
# Convention : Reuss Voigt Hill
#
# Bulk Modulus (GPa) = 67.07293 68.21404 67.64348
# Shear Modulus (GPa) = 28.98092 31.29504 30.13798
#
# Velocity S-wave (km/s) = 3.67365 3.81750 3.74626
# Velocity P-wave (km/s) = 7.01629 7.15518 7.08608
#
# Compressibility (1/GPa) = 0.01490914
#
# Stress axis : x y z
#
# Youngs Moduli (GPa) = 88.08798 95.46870 110.83855
#
# Poissons Ratio (x) = 0.23873 0.36702
# Poissons Ratio (y) = 0.22027 0.23920
# Poissons Ratio (z) = 0.29168 0.20603
#
# Static dielectric constant tensor:
#      x y z
#    x 4.075840 0.000000 0.000000 
#    y 0.000000 3.777060 0.000000 
#    z 0.000000 0.000000 3.730270 
# 
# 
# High freq. dielectric constant tensor:
#      x y z
#    x 1.856760 0.000000 0.000000 
#    y 0.000000 1.844740 0.000000 
#    z 0.000000 0.000000 1.830260 
# 
# From -- ./inp_files/138.got.cif
#   From: 2010.03.12/outbox.cif.g09.slc.cpg/sg34_1_cif.got.tgz:138.got - 2010.04.14 01:56:33.
