data_PCOD8172142
_publ_section_title
;
Structure prediction by ZEFSAII (Michael W. Deem and Ramdas Pophale) SiO2 
 PCOD8172142
Probable space group: P N N 2
;
_chemical_formula_sum "Si O2"
_cell_formula_units_Z 20
_cell_length_a 29.650491
_cell_length_b 4.915001
_cell_length_c 5.436304
_cell_angle_alpha 90.000000
_cell_angle_beta 90.000000
_cell_angle_gamma 90.000000
_cell_volume 792.244503
_symmetry_space_group_name_H-M "P N N 2"
_symmetry_group_IT_number 34
_symmetry_cell_setting 'orthorhombic'
loop_
_space_group_symop_operation_xyz
x,y,z
-x,-y,z
1/2-x,1/2+y,1/2+z
1/2+x,1/2-y,1/2+z
loop_
_atom_site_type_symbol
_atom_site_label
_atom_site_fract_x
_atom_site_fract_y
_atom_site_fract_z
Si Si1 0.500000 0.500000 0.709250
Si Si2 0.798427 0.592884 0.671382
Si Si3 0.927147 0.744100 0.860384
Si Si4 0.303775 0.586310 0.673685
Si Si5 0.633151 0.737542 0.387634
Si Si6 0.500000 0.000000 0.006325
O O1 0.541252 0.370359 0.565911
O O2 0.478105 0.249795 0.857643
O O3 0.745604 0.540781 0.668298
O O4 0.812333 0.754043 0.425960
O O5 0.810544 0.738452 0.926795
O O6 0.828751 0.318698 0.682155
O O7 0.958684 0.631464 0.648541
O O8 0.898304 0.491798 0.962514
O O9 0.894974 0.987842 0.767471
O O10 0.341498 0.351224 0.641519
#
# Coordination Sequence:
#
# PCOD8172142 Si02
#       6
#     2   4   4   4   4   2
#     4  12  26  52  86 116 158 218 262 338 426 512
#     4  12  27  50  81 115 166 227 283 343 414 486
#     4  12  27  54  80 120 170 200 282 338 423 494
#     4  12  27  50  81 115 166 227 283 343 414 486
#     4  12  27  50  78 122 162 224 272 358 399 508
#     4  12  26  52  86 116 158 218 262 338 426 512
#
# _framework density 25.244729
#
# number of rings (size 3 to 8) (size 9 to 14) (size 15 to 20)
#    0.000    0.000    4.000    6.000    0.000    1.600 
#   14.400    0.000    0.000    0.000    0.000    0.000 
#    0.000    0.000    0.000    0.000    0.000    0.000 
#
# Total GULP energy -247920.856045 kJ/mol
# GULP energy per Si atom -12396.042802 kJ/mol
# Density = 2.518727 g / cm^3
# Si number density = 25.244729 Si / 1000 Ang^3
#
#
#
# Elastic Constant Matrix: (Units=GPa)
#
#
# Indices 1 2 3 4 5 6 
#
# 1 128.3312 54.0202 12.1709 0.0000 0.0000 0.0000
# 2 54.0202 179.0657 53.1523 0.0000 0.0000 0.0000
# 3 12.1709 53.1523 130.7654 0.0000 0.0000 0.0000
# 4 0.0000 0.0000 0.0000 55.4477 0.0000 0.0000
# 5 0.0000 0.0000 0.0000 0.0000 23.4903 0.0000
# 6 0.0000 0.0000 0.0000 0.0000 0.0000 75.5703
#
#
#
# Elastic Compliance Matrix: (Units=1/GPa)
#
#
# Indices 1 2 3 4 5 6 
#
# 1 0.008936 -0.002785 0.000300 0.000000 0.000000 0.000000
# 2 -0.002785 0.007219 -0.002675 0.000000 0.000000 0.000000
# 3 0.000300 -0.002675 0.008707 0.000000 0.000000 0.000000
# 4 0.000000 0.000000 0.000000 0.018035 0.000000 0.000000
# 5 0.000000 0.000000 0.000000 0.000000 0.042571 0.000000
# 6 0.000000 0.000000 0.000000 0.000000 0.000000 0.013233
#
#
# Mechanical properties :
#
#
# Convention : Reuss Voigt Hill
#
# Bulk Modulus (GPa) = 68.76555 75.20547 71.98551
# Shear Modulus (GPa) = 43.91097 52.15626 48.03362
#
# Velocity S-wave (km/s) = 4.17515 4.55029 4.36675
# Velocity P-wave (km/s) = 7.10923 7.58037 7.34858
#
# Compressibility (1/GPa) = 0.01454217
#
# Stress axis : x y z
#
# Youngs Moduli (GPa) = 111.90465 138.52845 114.85490
#
# Poissons Ratio (x) = 0.38580 -0.03449
# Poissons Ratio (y) = 0.31165 0.30724
# Poissons Ratio (z) = -0.03360 0.37056
#
# Static dielectric constant tensor:
#      x y z
#    x 5.118580 0.000000 0.000000 
#    y 0.000000 5.072220 0.000000 
#    z 0.000000 0.000000 4.583810 
# 
# 
# High freq. dielectric constant tensor:
#      x y z
#    x 2.030380 0.000000 0.000000 
#    y 0.000000 2.036130 0.000000 
#    z 0.000000 0.000000 1.990840 
# 
# From -- ./inp_files/1789.got.cif
#   From: 2010.03.12/outbox.cif.g09.slc.cpg/sg34_1_cif.got.tgz:1789.got - 2010.04.14 01:56:33.
