data_PCOD8172871
_publ_section_title
;
Structure prediction by ZEFSAII (Michael W. Deem and Ramdas Pophale) SiO2 
 PCOD8172871
Probable space group: C M M 2
;
_chemical_formula_sum "Si O2"
_cell_formula_units_Z 48
_cell_length_a 8.576662
_cell_length_b 33.467016
_cell_length_c 9.214891
_cell_angle_alpha 90.000000
_cell_angle_beta 90.000000
_cell_angle_gamma 90.000000
_cell_volume 2644.998859
_symmetry_space_group_name_H-M "C M M 2"
_symmetry_group_IT_number 35
_symmetry_cell_setting 'orthorhombic'
loop_
_space_group_symop_operation_xyz
x,y,z
-x,-y,z
-x,y,z
x,-y,z
1/2+x,1/2+y,z
1/2-x,1/2-y,z
1/2-x,1/2+y,z
1/2+x,1/2-y,z
loop_
_atom_site_type_symbol
_atom_site_label
_atom_site_fract_x
_atom_site_fract_y
_atom_site_fract_z
Si Si1 0.827847 0.164031 0.409740
Si Si2 0.817589 0.381259 0.155239
Si Si3 0.184042 0.292545 0.668406
Si Si4 0.185813 0.045147 0.319921
Si Si5 0.685459 0.364684 0.844268
Si Si6 0.669256 0.584598 0.595110
O O1 0.726142 0.153658 0.268054
O O2 0.743820 0.197562 0.506222
O O3 0.847568 0.124839 0.504085
O O4 0.000000 0.179377 0.362710
O O5 0.769171 0.425354 0.208301
O O6 0.000000 0.380311 0.124817
O O7 0.725434 0.372493 0.009125
O O8 0.250000 0.250000 0.717154
O O9 0.238994 0.323734 0.790144
O O10 0.000000 0.291565 0.665526
O O11 0.251896 0.053077 0.485284
O O12 0.000000 0.053336 0.317261
O O13 0.226285 0.000000 0.274452
O O14 0.500000 0.361903 0.821622
O O15 0.752689 0.402258 0.745920
O O16 0.500000 0.566712 0.634678
#
# Coordination Sequence:
#
# PCOD8172871 Si02
#       6
#     8   8   8   8   8   8
#     4   9  17  33  54  75  99 132 173 213 253 304
#     4  11  21  33  51  77 108 141 176 218 267 317
#     4  11  21  35  55  81 109 138 173 215 263 310
#     4   9  17  32  54  77 101 133 175 222 269 317
#     4  10  19  34  54  76 105 142 179 216 261 315
#     4   7  13  27  49  73  95 123 164 209 250 298
#
# _framework density 18.147455000000001
#
# number of rings (size 3 to 8) (size 9 to 14) (size 15 to 20)
#    0.000    2.500    0.000    6.000    0.000    0.333 
#    0.000    2.500    0.000    3.000    0.000    0.000 
#    0.000    0.000    0.000    0.000    0.000    0.000 
#
# Total GULP energy -297359.585834 kJ/mol
# GULP energy per Si atom -12389.982743 kJ/mol
# Density = 1.810615 g / cm^3
# Si number density = 18.147455 Si / 1000 Ang^3
#
#
#
# Elastic Constant Matrix: (Units=GPa)
#
#
# Indices 1 2 3 4 5 6 
#
# 1 84.6129 23.4941 10.7968 0.0000 0.0000 0.0000
# 2 23.4941 82.1692 36.2359 0.0000 0.0000 0.0000
# 3 10.7968 36.2359 102.1723 0.0000 0.0000 0.0000
# 4 0.0000 0.0000 0.0000 34.6615 0.0000 0.0000
# 5 0.0000 0.0000 0.0000 0.0000 25.8760 0.0000
# 6 0.0000 0.0000 0.0000 0.0000 0.0000 22.8071
#
#
#
# Elastic Compliance Matrix: (Units=1/GPa)
#
#
# Indices 1 2 3 4 5 6 
#
# 1 0.012838 -0.003642 -0.000065 0.000000 0.000000 0.000000
# 2 -0.003642 0.015460 -0.005098 0.000000 0.000000 0.000000
# 3 -0.000065 -0.005098 0.011602 0.000000 0.000000 0.000000
# 4 0.000000 0.000000 0.000000 0.028850 0.000000 0.000000
# 5 0.000000 0.000000 0.000000 0.000000 0.038646 0.000000
# 6 0.000000 0.000000 0.000000 0.000000 0.000000 0.043846
#
#
# Mechanical properties :
#
#
# Convention : Reuss Voigt Hill
#
# Bulk Modulus (GPa) = 44.86325 45.55645 45.20985
# Shear Modulus (GPa) = 28.36362 29.89741 29.13052
#
# Velocity S-wave (km/s) = 3.95771 4.06331 4.01086
# Velocity P-wave (km/s) = 6.75720 6.86818 6.81292
#
# Compressibility (1/GPa) = 0.02228996
#
# Stress axis : x y z
#
# Youngs Moduli (GPa) = 77.89314 64.68507 86.19009
#
# Poissons Ratio (x) = 0.23559 0.00560
# Poissons Ratio (y) = 0.28369 0.43939
# Poissons Ratio (z) = 0.00506 0.32976
#
# Static dielectric constant tensor:
#      x y z
#    x 3.268450 0.000000 0.000000 
#    y 0.000000 3.144350 0.000000 
#    z 0.000000 0.000000 3.520690 
# 
# 
# High freq. dielectric constant tensor:
#      x y z
#    x 1.694340 0.000000 0.000000 
#    y 0.000000 1.683620 0.000000 
#    z 0.000000 0.000000 1.700540 
# 
# From -- ./inp_files/5304.got.cif
#   From: 2010.03.12/outbox.cif.g09.slc.cpg/sg35_3_cif.got.tgz:5304.got - 2010.04.14 02:02:04.
