data_PCOD8172329
_publ_section_title
;
Structure prediction by ZEFSAII (Michael W. Deem and Ramdas Pophale) SiO2 
 PCOD8172329
Probable space group: C M M 2
;
_chemical_formula_sum "Si O2"
_cell_formula_units_Z 64
_cell_length_a 8.629503
_cell_length_b 29.592729
_cell_length_c 12.489728
_cell_angle_alpha 90.000000
_cell_angle_beta 90.000000
_cell_angle_gamma 90.000000
_cell_volume 3189.508630
_symmetry_space_group_name_H-M "C M M 2"
_symmetry_group_IT_number 35
_symmetry_cell_setting 'orthorhombic'
loop_
_space_group_symop_operation_xyz
x,y,z
-x,-y,z
-x,y,z
x,-y,z
1/2+x,1/2+y,z
1/2-x,1/2-y,z
1/2-x,1/2+y,z
1/2+x,1/2-y,z
loop_
_atom_site_type_symbol
_atom_site_label
_atom_site_fract_x
_atom_site_fract_y
_atom_site_fract_z
Si Si1 0.315513 0.796338 0.240110
Si Si2 0.671335 0.815044 0.473608
Si Si3 0.826681 0.413971 0.548116
Si Si4 0.680486 0.389729 0.763078
Si Si5 0.815846 0.552246 0.951530
Si Si6 0.183076 0.548960 0.336855
Si Si7 0.315484 0.889867 0.151789
Si Si8 0.314935 0.796235 0.706117
O O1 0.500000 0.795835 0.245030
O O2 0.250000 0.750000 0.189824
O O3 0.245539 0.801403 0.361641
O O4 0.261756 0.837471 0.162133
O O5 0.500000 0.793835 0.471236
O O6 0.662704 0.868591 0.478831
O O7 0.752585 0.797726 0.583650
O O8 0.709608 0.410702 0.646272
O O9 0.757318 0.448409 0.460030
O O10 0.000000 0.426648 0.590545
O O11 0.500000 0.384682 0.785084
O O12 0.753061 0.425509 0.843945
O O13 0.756800 0.339840 0.772479
O O14 0.757882 0.500000 0.962792
O O15 0.000000 0.552787 0.949251
O O16 0.751043 0.584130 0.047390
O O17 0.226339 0.500000 0.290284
O O18 0.255506 0.585281 0.255925
O O19 0.000000 0.556371 0.342503
O O20 0.500000 0.893298 0.150849
O O21 0.500000 0.797751 0.707952
O O22 0.250000 0.750000 0.759302
#
# Coordination Sequence:
#
# PCOD8172329 Si02
#       8
#     8   8   8   8   8   8   8   8
#     4  10  18  30  49  76 110 147 181 217 264 320
#     4   8  14  26  46  72 108 150 183 216 260 315
#     4   9  16  30  51  78 113 148 179 222 277 330
#     4  11  23  38  56  80 112 151 193 237 285 336
#     4  10  21  39  63  86 105 135 186 243 295 347
#     4   9  15  25  49  84 113 137 170 216 277 345
#     4   9  17  32  55  81 111 140 175 228 284 335
#     4  10  19  33  55  84 118 154 192 233 279 332
#
# _framework density 20.065787
#
# number of rings (size 3 to 8) (size 9 to 14) (size 15 to 20)
#    0.000    2.500    1.250    3.000    0.000    2.250 
#    0.000    5.000    0.000    2.250    0.000    0.000 
#    0.000    0.000    0.000    0.000    0.000    0.000 
#
# Total GULP energy -396462.131891 kJ/mol
# GULP energy per Si atom -12389.441622 kJ/mol
# Density = 2.002012 g / cm^3
# Si number density = 20.065787 Si / 1000 Ang^3
#
#
#
# Elastic Constant Matrix: (Units=GPa)
#
#
# Indices 1 2 3 4 5 6 
#
# 1 24.9184 27.9170 12.9604 0.0000 0.0000 0.0000
# 2 27.9170 158.8488 71.7499 0.0000 0.0000 0.0000
# 3 12.9604 71.7499 89.3842 0.0000 0.0000 0.0000
# 4 0.0000 0.0000 0.0000 26.0889 0.0000 0.0000
# 5 0.0000 0.0000 0.0000 0.0000 6.6102 0.0000
# 6 0.0000 0.0000 0.0000 0.0000 0.0000 24.8209
#
#
#
# Elastic Compliance Matrix: (Units=1/GPa)
#
#
# Indices 1 2 3 4 5 6 
#
# 1 0.049975 -0.008644 -0.000308 0.000000 0.000000 0.000000
# 2 -0.008644 0.011371 -0.007875 0.000000 0.000000 0.000000
# 3 -0.000308 -0.007875 0.017553 0.000000 0.000000 0.000000
# 4 0.000000 0.000000 0.000000 0.038330 0.000000 0.000000
# 5 0.000000 0.000000 0.000000 0.000000 0.151281 0.000000
# 6 0.000000 0.000000 0.000000 0.000000 0.000000 0.040289
#
#
# Mechanical properties :
#
#
# Convention : Reuss Voigt Hill
#
# Bulk Modulus (GPa) = 22.10072 55.37846 38.73959
# Shear Modulus (GPa) = 13.98467 22.20562 18.09515
#
# Velocity S-wave (km/s) = 2.64283 3.33023 3.00624
# Velocity P-wave (km/s) = 4.51118 6.51503 5.60341
#
# Compressibility (1/GPa) = 0.04524740
#
# Stress axis : x y z
#
# Youngs Moduli (GPa) = 20.00999 87.94109 56.96954
#
# Poissons Ratio (x) = 0.76016 0.01752
# Poissons Ratio (y) = 0.17297 0.44861
# Poissons Ratio (z) = 0.00615 0.69249
#
# Static dielectric constant tensor:
#      x y z
#    x 3.097030 0.000000 0.000000 
#    y 0.000000 3.886310 0.000000 
#    z 0.000000 0.000000 3.631500 
# 
# 
# High freq. dielectric constant tensor:
#      x y z
#    x 1.727830 0.000000 0.000000 
#    y 0.000000 1.795940 0.000000 
#    z 0.000000 0.000000 1.768000 
# 
# From -- ./inp_files/12032.got.cif
#   From: 2010.03.12/outbox.cif.g09.slc.cpg/sg35_7_cif.got.tgz:12032.got - 2010.04.14 02:02:04.
