data_PCOD8172740
_publ_section_title
;
Structure prediction by ZEFSAII (Michael W. Deem and Ramdas Pophale) SiO2 
 PCOD8172740
Probable space group: C M M 2
;
_chemical_formula_sum "Si O2"
_cell_formula_units_Z 64
_cell_length_a 9.017439
_cell_length_b 18.397651
_cell_length_c 20.870925
_cell_angle_alpha 90.000000
_cell_angle_beta 90.000000
_cell_angle_gamma 90.000000
_cell_volume 3462.480105
_symmetry_space_group_name_H-M "C M M 2"
_symmetry_group_IT_number 35
_symmetry_cell_setting 'orthorhombic'
loop_
_space_group_symop_operation_xyz
x,y,z
-x,-y,z
-x,y,z
x,-y,z
1/2+x,1/2+y,z
1/2-x,1/2-y,z
1/2-x,1/2+y,z
1/2+x,1/2-y,z
loop_
_atom_site_type_symbol
_atom_site_label
_atom_site_fract_x
_atom_site_fract_y
_atom_site_fract_z
Si Si1 0.172540 0.415470 0.931640
Si Si2 0.827109 0.585387 0.185556
Si Si3 0.671924 0.583884 0.424989
Si Si4 0.325727 0.172511 0.810412
Si Si5 0.824926 0.172123 0.298441
Si Si6 0.667082 0.413622 0.057458
Si Si7 0.828980 0.674588 0.672750
Si Si8 0.674445 0.828315 0.533532
O O1 0.204391 0.500000 0.923668
O O2 0.233875 0.378807 0.866840
O O3 0.000000 0.399756 0.943285
O O4 0.261083 0.382703 0.992202
O O5 0.798320 0.500000 0.195378
O O6 0.738042 0.628351 0.238840
O O7 0.765434 0.612578 0.117259
O O8 0.000000 0.604567 0.189458
O O9 0.500000 0.594289 0.441544
O O10 0.712129 0.500000 0.413340
O O11 0.716596 0.627633 0.361777
O O12 0.766687 0.613177 0.483849
O O13 0.500000 0.184073 0.818069
O O14 0.250000 0.250000 0.816841
O O15 0.289647 0.134433 0.740401
O O16 0.750000 0.250000 0.303702
O O17 0.000000 0.181390 0.289928
O O18 0.500000 0.383496 0.064464
O O19 0.667859 0.500000 0.054750
O O20 0.750000 0.750000 0.674891
O O21 0.788466 0.637168 0.604533
O O22 0.000000 0.693352 0.671941
O O23 0.500000 0.817488 0.523078
O O24 0.750000 0.750000 0.523281
#
# Coordination Sequence:
#
# PCOD8172740 Si02
#       8
#     8   8   8   8   8   8   8   8
#     4   9  17  30  48  70  97 130 168 209 253 302
#     4  10  20  35  57  83 108 135 170 212 256 304
#     4  10  22  39  57  78 106 139 173 211 256 305
#     4   9  17  30  48  70  97 130 167 208 254 302
#     4  11  23  39  58  80 107 138 172 210 254 304
#     4   9  17  30  50  75 102 133 169 209 253 302
#     4   8  15  28  46  70  98 129 167 207 250 301
#     4  10  19  32  53  79 105 135 173 216 260 308
#
# _framework density 18.483861000000001
#
# number of rings (size 3 to 8) (size 9 to 14) (size 15 to 20)
#    0.000    2.500    0.000    2.250    0.000    6.000 
#    0.000    1.250    0.000    3.750    0.000    1.750 
#    0.000    0.000    0.000    0.000    0.000    0.000 
#
# Total GULP energy -396585.960829 kJ/mol
# GULP energy per Si atom -12393.311276 kJ/mol
# Density = 1.844179 g / cm^3
# Si number density = 18.483861 Si / 1000 Ang^3
#
#
#
# Elastic Constant Matrix: (Units=GPa)
#
#
# Indices 1 2 3 4 5 6 
#
# 1 76.8558 40.6804 72.3877 0.0000 0.0000 0.0000
# 2 40.6804 64.9842 64.9567 0.0000 0.0000 0.0000
# 3 72.3877 64.9567 195.9665 0.0000 0.0000 0.0000
# 4 0.0000 0.0000 0.0000 31.3379 0.0000 0.0000
# 5 0.0000 0.0000 0.0000 0.0000 34.3423 0.0000
# 6 0.0000 0.0000 0.0000 0.0000 0.0000 24.0699
#
#
#
# Elastic Compliance Matrix: (Units=1/GPa)
#
#
# Indices 1 2 3 4 5 6 
#
# 1 0.022879 -0.008785 -0.005539 0.000000 0.000000 0.000000
# 2 -0.008785 0.026387 -0.005501 0.000000 0.000000 0.000000
# 3 -0.005539 -0.005501 0.008972 0.000000 0.000000 0.000000
# 4 0.000000 0.000000 0.000000 0.031910 0.000000 0.000000
# 5 0.000000 0.000000 0.000000 0.000000 0.029119 0.000000
# 6 0.000000 0.000000 0.000000 0.000000 0.000000 0.041546
#
#
# Mechanical properties :
#
#
# Convention : Reuss Voigt Hill
#
# Bulk Modulus (GPa) = 53.80196 77.09511 65.44854
# Shear Modulus (GPa) = 24.19442 28.60213 26.39828
#
# Velocity S-wave (km/s) = 3.62186 3.93798 3.78323
# Velocity P-wave (km/s) = 6.83090 7.90423 7.38709
#
# Compressibility (1/GPa) = 0.01858668
#
# Stress axis : x y z
#
# Youngs Moduli (GPa) = 43.70906 37.89754 111.45271
#
# Poissons Ratio (x) = 0.33295 0.61733
# Poissons Ratio (y) = 0.38400 0.61312
# Poissons Ratio (z) = 0.24210 0.20848
#
# Static dielectric constant tensor:
#      x y z
#    x 3.441180 0.000000 0.000000 
#    y 0.000000 2.985130 0.000000 
#    z 0.000000 0.000000 4.058500 
# 
# 
# High freq. dielectric constant tensor:
#      x y z
#    x 1.722600 0.000000 0.000000 
#    y 0.000000 1.678370 0.000000 
#    z 0.000000 0.000000 1.744240 
# 
# From -- ./inp_files/18427.got.cif
#   From: 2010.03.12/outbox.cif.g09.slc.cpg/sg35_10_cif.got.tgz:18427.got - 2010.04.14 02:02:04.
