data_PCOD8172542
_publ_section_title
;
Structure prediction by ZEFSAII (Michael W. Deem and Ramdas Pophale) SiO2 
 PCOD8172542
Probable space group: C M M 2
;
_chemical_formula_sum "Si O2"
_cell_formula_units_Z 64
_cell_length_a 28.862882
_cell_length_b 9.109505
_cell_length_c 12.534215
_cell_angle_alpha 90.000000
_cell_angle_beta 90.000000
_cell_angle_gamma 90.000000
_cell_volume 3295.578131
_symmetry_space_group_name_H-M "C M M 2"
_symmetry_group_IT_number 35
_symmetry_cell_setting 'orthorhombic'
loop_
_space_group_symop_operation_xyz
x,y,z
-x,-y,z
-x,y,z
x,-y,z
1/2+x,1/2+y,z
1/2-x,1/2-y,z
1/2-x,1/2+y,z
1/2+x,1/2-y,z
loop_
_atom_site_type_symbol
_atom_site_label
_atom_site_fract_x
_atom_site_fract_y
_atom_site_fract_z
Si Si1 0.316288 0.664914 0.307590
Si Si2 0.420857 0.664307 0.373470
Si Si3 0.052695 0.325768 0.791682
Si Si4 0.895909 0.673261 0.579268
Si Si5 0.202990 0.825484 0.065293
Si Si6 0.550655 0.836240 0.182019
Si Si7 0.794281 0.327712 0.515507
Si Si8 0.613711 0.174825 0.990736
O O1 0.297388 0.500000 0.329135
O O2 0.370965 0.667935 0.319602
O O3 0.304089 0.718691 0.188955
O O4 0.294491 0.777455 0.391920
O O5 0.437806 0.500000 0.396951
O O6 0.423574 0.752642 0.483222
O O7 0.454054 0.737921 0.287129
O O8 0.050134 0.500000 0.792214
O O9 0.080124 0.270302 0.687134
O O10 0.082665 0.270119 0.891761
O O11 0.000000 0.262242 0.794388
O O12 0.900250 0.500000 0.565294
O O13 0.841559 0.720220 0.575820
O O14 0.250000 0.750000 0.024495
O O15 0.204844 0.000000 0.049758
O O16 0.162518 0.758719 0.991320
O O17 0.500000 0.838959 0.127124
O O18 0.565855 0.000000 0.216446
O O19 0.586845 0.774401 0.096729
O O20 0.787056 0.500000 0.520749
O O21 0.750000 0.250000 0.572055
O O22 0.621696 0.000000 0.986148
#
# Coordination Sequence:
#
# PCOD8172542 Si02
#       8
#     8   8   8   8   8   8   8   8
#     4   9  18  32  50  74 107 146 184 222 266 321
#     4  10  19  33  52  78 113 149 182 224 277 331
#     4   9  18  36  63  88 108 138 186 239 285 331
#     4   9  19  35  55  81 111 144 183 230 280 333
#     4  11  22  36  54  80 113 150 189 228 277 332
#     4  10  20  33  52  80 112 146 184 225 275 337
#     4  10  19  30  48  75 108 145 184 223 268 323
#     4  10  20  36  59  84 111 143 184 235 284 331
#
# _framework density 19.419962999999999
#
# number of rings (size 3 to 8) (size 9 to 14) (size 15 to 20)
#    0.000    2.250    1.250    1.875    0.000    5.250 
#    0.000    2.500    0.000    3.375    0.000    0.000 
#    0.000    0.000    0.000    0.000    0.000    0.000 
#
# Total GULP energy -396755.393977 kJ/mol
# GULP energy per Si atom -12398.606062 kJ/mol
# Density = 1.937576 g / cm^3
# Si number density = 19.419963 Si / 1000 Ang^3
#
#
#
# Elastic Constant Matrix: (Units=GPa)
#
#
# Indices 1 2 3 4 5 6 
#
# 1 136.1785 41.6601 66.5976 0.0000 0.0000 0.0000
# 2 41.6601 60.8915 39.6161 0.0000 0.0000 0.0000
# 3 66.5976 39.6161 118.0120 0.0000 0.0000 0.0000
# 4 0.0000 0.0000 0.0000 14.5131 0.0000 0.0000
# 5 0.0000 0.0000 0.0000 0.0000 23.5260 0.0000
# 6 0.0000 0.0000 0.0000 0.0000 0.0000 25.2233
#
#
#
# Elastic Compliance Matrix: (Units=1/GPa)
#
#
# Indices 1 2 3 4 5 6 
#
# 1 0.011017 -0.004469 -0.004717 0.000000 0.000000 0.000000
# 2 -0.004469 0.022824 -0.005140 0.000000 0.000000 0.000000
# 3 -0.004717 -0.005140 0.012861 0.000000 0.000000 0.000000
# 4 0.000000 0.000000 0.000000 0.068903 0.000000 0.000000
# 5 0.000000 0.000000 0.000000 0.000000 0.042506 0.000000
# 6 0.000000 0.000000 0.000000 0.000000 0.000000 0.039646
#
#
# Mechanical properties :
#
#
# Convention : Reuss Voigt Hill
#
# Bulk Modulus (GPa) = 55.39978 67.86994 61.63486
# Shear Modulus (GPa) = 21.51212 23.79971 22.65591
#
# Velocity S-wave (km/s) = 3.33187 3.50455 3.41930
# Velocity P-wave (km/s) = 6.58718 7.16940 6.88445
#
# Compressibility (1/GPa) = 0.01805061
#
# Stress axis : x y z
#
# Youngs Moduli (GPa) = 90.76602 43.81318 77.75230
#
# Poissons Ratio (x) = 0.19579 0.36678
# Poissons Ratio (y) = 0.40560 0.39966
# Poissons Ratio (z) = 0.42817 0.22521
#
# Static dielectric constant tensor:
#      x y z
#    x 3.718770 0.000000 0.000000 
#    y 0.000000 3.384410 0.000000 
#    z 0.000000 0.000000 3.384910 
# 
# 
# High freq. dielectric constant tensor:
#      x y z
#    x 1.769660 0.000000 0.000000 
#    y 0.000000 1.738780 0.000000 
#    z 0.000000 0.000000 1.732410 
# 
# From -- ./inp_files/11842.got.cif
#   From: 2010.03.12/outbox.cif.g09.slc.cpg/sg35_6_cif.got.tgz:11842.got - 2010.04.14 02:02:04.
