data_PCOD8172989
_publ_section_title
;
Structure prediction by ZEFSAII (Michael W. Deem and Ramdas Pophale) SiO2 
 PCOD8172989
Probable space group: C M M 2
;
_chemical_formula_sum "Si O2"
_cell_formula_units_Z 64
_cell_length_a 17.413540
_cell_length_b 14.659218
_cell_length_c 14.153131
_cell_angle_alpha 90.000000
_cell_angle_beta 90.000000
_cell_angle_gamma 90.000000
_cell_volume 3612.853885
_symmetry_space_group_name_H-M "C M M 2"
_symmetry_group_IT_number 35
_symmetry_cell_setting 'orthorhombic'
loop_
_space_group_symop_operation_xyz
x,y,z
-x,-y,z
-x,y,z
x,-y,z
1/2+x,1/2+y,z
1/2-x,1/2-y,z
1/2-x,1/2+y,z
1/2+x,1/2-y,z
loop_
_atom_site_type_symbol
_atom_site_label
_atom_site_fract_x
_atom_site_fract_y
_atom_site_fract_z
Si Si1 0.708287 0.154763 0.868630
Si Si2 0.675810 0.106162 0.155254
Si Si3 0.410108 0.778883 0.010806
Si Si4 0.815034 0.100244 0.025388
Si Si5 0.589892 0.221117 0.518101
Si Si6 0.815034 0.100244 0.503519
Si Si7 0.824190 0.606162 0.373654
Si Si8 0.708287 0.154763 0.660277
O O1 0.750000 0.250000 0.858089
O O2 0.693743 0.111953 0.764454
O O3 0.627404 0.169066 0.921763
O O4 0.764004 0.091131 0.930271
O O5 0.610118 0.166908 0.106425
O O6 0.758704 0.129876 0.110617
O O7 0.678674 0.132761 0.264454
O O8 0.655755 0.000000 0.139930
O O9 0.500000 0.777572 0.994397
O O10 0.381875 0.674328 0.017668
O O11 0.851401 0.000000 0.044050
O O12 0.500000 0.222428 0.534510
O O13 0.618125 0.325672 0.511240
O O14 0.610118 0.166908 0.422483
O O15 0.627404 0.169066 0.607145
O O16 0.758704 0.129876 0.418290
O O17 0.764004 0.091131 0.598636
O O18 0.851401 0.000000 0.484858
O O19 0.844245 0.500000 0.388977
O O20 0.750000 0.250000 0.670819
#
# Coordination Sequence:
#
# PCOD8172989 Si02
#       8
#     8   8   8   8   8   8   8   8
#     4   8  15  30  50  68  89 122 163 202 234 267
#     4   9  18  34  55  73  90 120 163 207 245 281
#     4  10  20  31  46  73 105 131 155 190 241 297
#     4   9  18  32  50  72  96 126 166 202 232 278
#     4  10  20  31  46  73 105 131 155 190 241 297
#     4   9  18  32  50  72  96 126 166 202 232 278
#     4   9  18  34  55  73  90 120 163 207 245 281
#     4   8  15  30  50  68  89 122 163 202 234 267
#
# _framework density 17.714528000000001
#
# number of rings (size 3 to 8) (size 9 to 14) (size 15 to 20)
#    0.000    3.000    0.000    2.250    0.000    4.500 
#    0.000    1.250    0.000    0.000    0.000   19.250 
#    0.000    0.000    0.000    0.000    0.000    0.000 
#
# Total GULP energy -396671.341825 kJ/mol
# GULP energy per Si atom -12395.979432 kJ/mol
# Density = 1.767421 g / cm^3
# Si number density = 17.714528 Si / 1000 Ang^3
#
#
#
# Elastic Constant Matrix: (Units=GPa)
#
#
# Indices 1 2 3 4 5 6 
#
# 1 85.1787 7.9688 33.5582 0.0000 0.0000 0.0000
# 2 7.9688 40.2585 14.0136 0.0000 0.0000 0.0000
# 3 33.5582 14.0136 139.5300 0.0000 0.0000 0.0000
# 4 0.0000 0.0000 0.0000 15.7590 0.0000 0.0000
# 5 0.0000 0.0000 0.0000 0.0000 11.1046 0.0000
# 6 0.0000 0.0000 0.0000 0.0000 0.0000 15.7947
#
#
#
# Elastic Compliance Matrix: (Units=1/GPa)
#
#
# Indices 1 2 3 4 5 6 
#
# 1 0.013061 -0.001546 -0.002986 0.000000 0.000000 0.000000
# 2 -0.001546 0.025922 -0.002232 0.000000 0.000000 0.000000
# 3 -0.002986 -0.002232 0.008109 0.000000 0.000000 0.000000
# 4 0.000000 0.000000 0.000000 0.063456 0.000000 0.000000
# 5 0.000000 0.000000 0.000000 0.000000 0.090053 0.000000
# 6 0.000000 0.000000 0.000000 0.000000 0.000000 0.063312
#
#
# Mechanical properties :
#
#
# Convention : Reuss Voigt Hill
#
# Bulk Modulus (GPa) = 29.79265 41.78316 35.78791
# Shear Modulus (GPa) = 17.32325 22.49342 19.90833
#
# Velocity S-wave (km/s) = 3.13055 3.56725 3.35601
# Velocity P-wave (km/s) = 5.47009 6.37222 5.93831
#
# Compressibility (1/GPa) = 0.03356533
#
# Stress axis : x y z
#
# Youngs Moduli (GPa) = 76.56338 38.57681 123.31632
#
# Poissons Ratio (x) = 0.05964 0.36823
# Poissons Ratio (y) = 0.11836 0.27520
# Poissons Ratio (z) = 0.22862 0.08609
#
# Static dielectric constant tensor:
#      x y z
#    x 2.890980 0.000000 0.000000 
#    y 0.000000 3.462610 0.000000 
#    z 0.000000 0.000000 3.729920 
# 
# 
# High freq. dielectric constant tensor:
#      x y z
#    x 1.648960 0.000000 0.000000 
#    y 0.000000 1.689970 0.000000 
#    z 0.000000 0.000000 1.691170 
# 
# From -- ./inp_files/16893.got.cif
#   From: 2010.03.12/outbox.cif.g09.slc.cpg/sg35_9_cif.got.tgz:16893.got - 2010.04.14 02:02:04.
