data_PCOD8172386
_publ_section_title
;
Structure prediction by ZEFSAII (Michael W. Deem and Ramdas Pophale) SiO2 
 PCOD8172386
Probable space group: C M M 2
;
_chemical_formula_sum "Si O2"
_cell_formula_units_Z 64
_cell_length_a 8.871023
_cell_length_b 29.148293
_cell_length_c 12.421627
_cell_angle_alpha 90.000000
_cell_angle_beta 90.000000
_cell_angle_gamma 90.000000
_cell_volume 3211.924408
_symmetry_space_group_name_H-M "C M M 2"
_symmetry_group_IT_number 35
_symmetry_cell_setting 'orthorhombic'
loop_
_space_group_symop_operation_xyz
x,y,z
-x,-y,z
-x,y,z
x,-y,z
1/2+x,1/2+y,z
1/2-x,1/2-y,z
1/2-x,1/2+y,z
1/2+x,1/2-y,z
loop_
_atom_site_type_symbol
_atom_site_label
_atom_site_fract_x
_atom_site_fract_y
_atom_site_fract_z
Si Si1 0.672653 0.578845 0.328930
Si Si2 0.673641 0.292897 0.202176
Si Si3 0.327952 0.451203 0.563892
Si Si4 0.326858 0.051214 0.115965
Si Si5 0.176794 0.669520 0.399383
Si Si6 0.678227 0.300026 0.831163
Si Si7 0.174183 0.864905 0.022632
Si Si8 0.179134 0.851859 0.615397
O O1 0.500000 0.595929 0.310079
O O2 0.681605 0.547404 0.434350
O O3 0.728815 0.551676 0.224767
O O4 0.783426 0.620897 0.348077
O O5 0.500000 0.282119 0.218092
O O6 0.750000 0.250000 0.138772
O O7 0.754968 0.293543 0.317799
O O8 0.698011 0.339742 0.136587
O O9 0.500000 0.451512 0.601798
O O10 0.253048 0.500000 0.603274
O O11 0.255387 0.404581 0.613878
O O12 0.500000 0.062940 0.142628
O O13 0.265284 0.087431 0.027740
O O14 0.312032 0.000000 0.066734
O O15 0.251039 0.676234 0.516441
O O16 0.000000 0.676124 0.410572
O O17 0.500000 0.293647 0.837314
O O18 0.750000 0.250000 0.837350
O O19 0.728952 0.326013 0.722963
O O20 0.736695 0.331879 0.928703
O O21 0.000000 0.876388 0.000582
O O22 0.000000 0.853156 0.599856
#
# Coordination Sequence:
#
# PCOD8172386 Si02
#       8
#     8   8   8   8   8   8   8   8
#     4  10  18  31  52  79 113 155 198 240 286 341
#     4  11  22  36  56  83 114 150 191 237 295 359
#     4   8  14  26  48  78 109 145 186 227 277 334
#     4  11  23  36  54  84 120 158 199 239 285 344
#     4  11  21  34  54  82 118 156 194 236 290 349
#     4  10  22  41  64  89 112 145 195 249 300 353
#     4  10  22  40  61  84 114 151 195 244 294 350
#     4   9  19  36  57  82 116 149 190 243 292 348
#
# _framework density 19.925749
#
# number of rings (size 3 to 8) (size 9 to 14) (size 15 to 20)
#    0.000    2.000    1.250    3.750    0.000    3.500 
#    0.000    1.875    0.000    5.625    0.000    0.000 
#    0.000    0.000    0.000    0.000    0.000    0.000 
#
# Total GULP energy -396649.815595 kJ/mol
# GULP energy per Si atom -12395.306737 kJ/mol
# Density = 1.988040 g / cm^3
# Si number density = 19.925749 Si / 1000 Ang^3
#
#
#
# Elastic Constant Matrix: (Units=GPa)
#
#
# Indices 1 2 3 4 5 6 
#
# 1 77.5423 43.0399 38.4242 0.0000 0.0000 0.0000
# 2 43.0399 129.9758 53.9675 0.0000 0.0000 0.0000
# 3 38.4242 53.9675 112.2973 0.0000 0.0000 0.0000
# 4 0.0000 0.0000 0.0000 22.3572 0.0000 0.0000
# 5 0.0000 0.0000 0.0000 0.0000 18.2706 0.0000
# 6 0.0000 0.0000 0.0000 0.0000 0.0000 28.1463
#
#
#
# Elastic Compliance Matrix: (Units=1/GPa)
#
#
# Indices 1 2 3 4 5 6 
#
# 1 0.017068 -0.004031 -0.003903 0.000000 0.000000 0.000000
# 2 -0.004031 0.010564 -0.003697 0.000000 0.000000 0.000000
# 3 -0.003903 -0.003697 0.012017 0.000000 0.000000 0.000000
# 4 0.000000 0.000000 0.000000 0.044728 0.000000 0.000000
# 5 0.000000 0.000000 0.000000 0.000000 0.054733 0.000000
# 6 0.000000 0.000000 0.000000 0.000000 0.000000 0.035529
#
#
# Mechanical properties :
#
#
# Convention : Reuss Voigt Hill
#
# Bulk Modulus (GPa) = 61.02753 65.63096 63.32924
# Shear Modulus (GPa) = 24.58661 26.04708 25.31685
#
# Velocity S-wave (km/s) = 3.51652 3.61945 3.56836
# Velocity P-wave (km/s) = 6.86890 7.10468 6.98779
#
# Compressibility (1/GPa) = 0.01638605
#
# Stress axis : x y z
#
# Youngs Moduli (GPa) = 58.59053 94.66234 83.21457
#
# Poissons Ratio (x) = 0.38162 0.32475
# Poissons Ratio (y) = 0.23620 0.30767
# Poissons Ratio (z) = 0.22865 0.35000
#
# Static dielectric constant tensor:
#      x y z
#    x 3.423390 0.000000 0.000000 
#    y 0.000000 3.822300 0.000000 
#    z 0.000000 0.000000 3.545110 
# 
# 
# High freq. dielectric constant tensor:
#      x y z
#    x 1.758630 0.000000 0.000000 
#    y 0.000000 1.790670 0.000000 
#    z 0.000000 0.000000 1.756010 
# 
# From -- ./inp_files/11999.got.cif
#   From: 2010.03.12/outbox.cif.g09.slc.cpg/sg35_6_cif.got.tgz:11999.got - 2010.04.14 02:02:04.
