data_PCOD8172440
_publ_section_title
;
Structure prediction by ZEFSAII (Michael W. Deem and Ramdas Pophale) SiO2 
 PCOD8172440
Probable space group: C M M 2
;
_chemical_formula_sum "Si O2"
_cell_formula_units_Z 64
_cell_length_a 21.028694
_cell_length_b 17.938971
_cell_length_c 9.744587
_cell_angle_alpha 90.000000
_cell_angle_beta 90.000000
_cell_angle_gamma 90.000000
_cell_volume 3675.981072
_symmetry_space_group_name_H-M "C M M 2"
_symmetry_group_IT_number 35
_symmetry_cell_setting 'orthorhombic'
loop_
_space_group_symop_operation_xyz
x,y,z
-x,-y,z
-x,y,z
x,-y,z
1/2+x,1/2+y,z
1/2-x,1/2-y,z
1/2-x,1/2+y,z
1/2+x,1/2-y,z
loop_
_atom_site_type_symbol
_atom_site_label
_atom_site_fract_x
_atom_site_fract_y
_atom_site_fract_z
Si Si1 0.572922 0.315562 0.710700
Si Si2 0.872216 0.087829 0.491816
Si Si3 0.289928 0.085845 0.246696
Si Si4 0.316921 0.208570 0.753898
Si Si5 0.320122 0.217502 0.071061
Si Si6 0.852701 0.134052 0.196891
Si Si7 0.927873 0.081671 0.954437
Si Si8 0.271761 0.085448 0.558065
O O1 0.500000 0.286310 0.721847
O O2 0.575134 0.376980 0.590774
O O3 0.623417 0.249968 0.682284
O O4 0.596869 0.355966 0.849373
O O5 0.882939 0.128791 0.347064
O O6 0.802814 0.105652 0.554785
O O7 0.882504 0.000000 0.473371
O O8 0.333127 0.142068 0.157812
O O9 0.218230 0.103009 0.204323
O O10 0.300941 0.101976 0.407738
O O11 0.306567 0.000000 0.211771
O O12 0.250000 0.250000 0.736502
O O13 0.309290 0.130841 0.674341
O O14 0.334935 0.197458 0.913310
O O15 0.250000 0.250000 0.087036
O O16 0.363251 0.282346 0.137284
O O17 0.888043 0.079661 0.093061
O O18 0.000000 0.099180 0.993661
O O19 0.921230 0.000000 0.884914
O O20 0.281338 0.000000 0.598531
#
# Coordination Sequence:
#
# PCOD8172440 Si02
#       8
#     8   8   8   8   8   8   8   8
#     4  11  23  37  52  76 111 146 181 224 268 316
#     4  10  20  33  52  79 110 146 182 219 264 315
#     4   9  18  31  49  77 108 136 166 213 272 318
#     4  11  20  35  55  80 106 139 182 222 262 313
#     4   9  19  30  47  75 104 136 174 217 260 308
#     4  10  18  33  50  74 106 138 180 217 255 307
#     4  10  20  34  51  70 101 148 186 212 253 307
#     4   9  19  33  53  81 110 138 174 219 272 321
#
# _framework density 17.410316999999999
#
# number of rings (size 3 to 8) (size 9 to 14) (size 15 to 20)
#    0.000    2.125    2.500    2.250    1.750    2.250 
#    0.000    0.000    0.000    0.375    0.000    0.000 
#    0.000    0.500    0.000    0.000    0.000    0.000 
#
# Total GULP energy -396680.793836 kJ/mol
# GULP energy per Si atom -12396.274807 kJ/mol
# Density = 1.737069 g / cm^3
# Si number density = 17.410317 Si / 1000 Ang^3
#
#
#
# Elastic Constant Matrix: (Units=GPa)
#
#
# Indices 1 2 3 4 5 6 
#
# 1 46.6827 26.0589 28.2299 0.0000 0.0000 0.0000
# 2 26.0589 104.7135 58.8462 0.0000 0.0000 0.0000
# 3 28.2299 58.8462 109.1685 0.0000 0.0000 0.0000
# 4 0.0000 0.0000 0.0000 36.4025 0.0000 0.0000
# 5 0.0000 0.0000 0.0000 0.0000 18.9065 0.0000
# 6 0.0000 0.0000 0.0000 0.0000 0.0000 20.5576
#
#
#
# Elastic Compliance Matrix: (Units=1/GPa)
#
#
# Indices 1 2 3 4 5 6 
#
# 1 0.026474 -0.003932 -0.004726 0.000000 0.000000 0.000000
# 2 -0.003932 0.014284 -0.006683 0.000000 0.000000 0.000000
# 3 -0.004726 -0.006683 0.013985 0.000000 0.000000 0.000000
# 4 0.000000 0.000000 0.000000 0.027471 0.000000 0.000000
# 5 0.000000 0.000000 0.000000 0.000000 0.052892 0.000000
# 6 0.000000 0.000000 0.000000 0.000000 0.000000 0.048644
#
#
# Mechanical properties :
#
#
# Convention : Reuss Voigt Hill
#
# Bulk Modulus (GPa) = 41.56253 54.09274 47.82764
# Shear Modulus (GPa) = 22.47672 25.00196 23.73934
#
# Velocity S-wave (km/s) = 3.59695 3.79363 3.69660
# Velocity P-wave (km/s) = 6.41677 7.09405 6.76389
#
# Compressibility (1/GPa) = 0.02406013
#
# Stress axis : x y z
#
# Youngs Moduli (GPa) = 37.77234 70.00836 71.50704
#
# Poissons Ratio (x) = 0.27529 0.33797
# Poissons Ratio (y) = 0.14853 0.47787
# Poissons Ratio (z) = 0.17853 0.46785
#
# Static dielectric constant tensor:
#      x y z
#    x 2.866920 0.000000 0.000000 
#    y 0.000000 3.340670 0.000000 
#    z 0.000000 0.000000 3.360270 
# 
# 
# High freq. dielectric constant tensor:
#      x y z
#    x 1.627100 0.000000 0.000000 
#    y 0.000000 1.669880 0.000000 
#    z 0.000000 0.000000 1.684080 
# 
# From -- ./inp_files/8834.got.cif
#   From: 2010.03.12/outbox.cif.g09.slc.cpg/sg35_5_cif.got.tgz:8834.got - 2010.04.14 02:02:04.
