data_PCOD8172337
_publ_section_title
;
Structure prediction by ZEFSAII (Michael W. Deem and Ramdas Pophale) SiO2 
 PCOD8172337
Probable space group: C M M 2
;
_chemical_formula_sum "Si O2"
_cell_formula_units_Z 56
_cell_length_a 20.927902
_cell_length_b 8.594576
_cell_length_c 14.581626
_cell_angle_alpha 90.000000
_cell_angle_beta 90.000000
_cell_angle_gamma 90.000000
_cell_volume 2622.745220
_symmetry_space_group_name_H-M "C M M 2"
_symmetry_group_IT_number 35
_symmetry_cell_setting 'orthorhombic'
loop_
_space_group_symop_operation_xyz
x,y,z
-x,-y,z
-x,y,z
x,-y,z
1/2+x,1/2+y,z
1/2-x,1/2-y,z
1/2-x,1/2+y,z
1/2+x,1/2-y,z
loop_
_atom_site_type_symbol
_atom_site_label
_atom_site_fract_x
_atom_site_fract_y
_atom_site_fract_z
Si Si1 0.685592 0.317492 0.669270
Si Si2 0.368441 0.815528 0.841604
Si Si3 0.572605 0.181785 0.552119
Si Si4 0.815781 0.684084 0.235313
Si Si5 0.500000 0.315572 0.844883
Si Si6 0.072422 0.181070 0.355152
Si Si7 0.500000 0.816365 0.045899
Si Si8 0.864173 0.683636 0.047429
O O1 0.691287 0.500000 0.676627
O O2 0.750000 0.250000 0.621524
O O3 0.684763 0.244148 0.771487
O O4 0.622774 0.275495 0.612404
O O5 0.434826 0.747347 0.799355
O O6 0.372199 0.000000 0.841732
O O7 0.351577 0.749132 0.944676
O O8 0.500000 0.230102 0.579530
O O9 0.584988 0.221013 0.446402
O O10 0.583850 0.000000 0.567941
O O11 0.819806 0.500000 0.249815
O O12 0.750000 0.750000 0.278150
O O13 0.876946 0.763019 0.280505
O O14 0.814452 0.731527 0.126529
O O15 0.500000 0.500000 0.845391
O O16 0.500000 0.240224 0.943231
O O17 0.000000 0.211473 0.318869
O O18 0.082833 0.000000 0.377047
O O19 0.566789 0.756636 0.088391
O O20 0.500000 0.000000 0.046269
O O21 0.865509 0.500000 0.036161
#
# Coordination Sequence:
#
# PCOD8172337 Si02
#       8
#     8   8   8   8   4   8   4   8
#     4  12  26  43  63  92 129 167 211 257 311 372
#     4  10  20  38  60  84 120 165 212 260 313 367
#     4  10  22  43  71 100 127 159 202 249 308 374
#     4  11  23  39  60  89 125 166 212 257 309 370
#     4  10  18  30  50  82 115 150 199 254 308 360
#     4  10  22  42  67  96 128 159 198 252 313 370
#     4   8  14  30  52  76 105 144 197 254 308 362
#     4   8  17  33  57  84 114 158 209 259 308 363
#
# _framework density 21.351673000000002
#
# number of rings (size 3 to 8) (size 9 to 14) (size 15 to 20)
#    0.000    2.000    0.000    4.500    2.000    2.857 
#    0.000   11.429    0.000    0.000    0.000    0.000 
#    0.000    0.000    0.000    0.000    0.000    0.000 
#
# Total GULP energy -346955.221010 kJ/mol
# GULP energy per Si atom -12391.257893 kJ/mol
# Density = 2.130308 g / cm^3
# Si number density = 21.351673 Si / 1000 Ang^3
#
#
#
# Elastic Constant Matrix: (Units=GPa)
#
#
# Indices 1 2 3 4 5 6 
#
# 1 123.9322 41.1716 49.6980 0.0000 0.0000 0.0000
# 2 41.1716 103.9610 20.9820 0.0000 0.0000 0.0000
# 3 49.6980 20.9820 74.8978 0.0000 0.0000 0.0000
# 4 0.0000 0.0000 0.0000 21.1905 0.0000 0.0000
# 5 0.0000 0.0000 0.0000 0.0000 25.0365 0.0000
# 6 0.0000 0.0000 0.0000 0.0000 0.0000 32.7356
#
#
#
# Elastic Compliance Matrix: (Units=1/GPa)
#
#
# Indices 1 2 3 4 5 6 
#
# 1 0.011993 -0.003332 -0.007024 0.000000 0.000000 0.000000
# 2 -0.003332 0.011121 -0.000905 0.000000 0.000000 0.000000
# 3 -0.007024 -0.000905 0.018266 0.000000 0.000000 0.000000
# 4 0.000000 0.000000 0.000000 0.047191 0.000000 0.000000
# 5 0.000000 0.000000 0.000000 0.000000 0.039942 0.000000
# 6 0.000000 0.000000 0.000000 0.000000 0.000000 0.030548
#
#
# Mechanical properties :
#
#
# Convention : Reuss Voigt Hill
#
# Bulk Modulus (GPa) = 53.02763 58.49937 55.76350
# Shear Modulus (GPa) = 26.61454 28.52181 27.56818
#
# Velocity S-wave (km/s) = 3.53439 3.65884 3.59715
# Velocity P-wave (km/s) = 6.44555 6.73105 6.58985
#
# Compressibility (1/GPa) = 0.01885809
#
# Stress axis : x y z
#
# Youngs Moduli (GPa) = 83.38507 89.91957 54.74691
#
# Poissons Ratio (x) = 0.29959 0.38456
# Poissons Ratio (y) = 0.27782 0.04953
# Poissons Ratio (z) = 0.58572 0.08135
#
# Static dielectric constant tensor:
#      x y z
#    x 4.323590 0.000000 0.000000 
#    y 0.000000 3.668470 0.000000 
#    z 0.000000 0.000000 3.837810 
# 
# 
# High freq. dielectric constant tensor:
#      x y z
#    x 1.849410 0.000000 0.000000 
#    y 0.000000 1.827680 0.000000 
#    z 0.000000 0.000000 1.826680 
# 
# From -- ./inp_files/17496.got.cif
#   From: 2010.03.12/outbox.cif.g09.slc.cpg/sg35_9_cif.got.tgz:17496.got - 2010.04.14 02:02:04.
