data_PCOD8172183
_publ_section_title
;
Structure prediction by ZEFSAII (Michael W. Deem and Ramdas Pophale) SiO2 
 PCOD8172183
Probable space group: C M M 2
;
_chemical_formula_sum "Si O2"
_cell_formula_units_Z 56
_cell_length_a 8.838503
_cell_length_b 19.454063
_cell_length_c 18.318000
_cell_angle_alpha 90.000000
_cell_angle_beta 90.000000
_cell_angle_gamma 90.000000
_cell_volume 3149.684740
_symmetry_space_group_name_H-M "C M M 2"
_symmetry_group_IT_number 35
_symmetry_cell_setting 'orthorhombic'
loop_
_space_group_symop_operation_xyz
x,y,z
-x,-y,z
-x,y,z
x,-y,z
1/2+x,1/2+y,z
1/2-x,1/2-y,z
1/2-x,1/2+y,z
1/2+x,1/2-y,z
loop_
_atom_site_type_symbol
_atom_site_label
_atom_site_fract_x
_atom_site_fract_y
_atom_site_fract_z
Si Si1 0.180367 0.673949 0.760960
Si Si2 0.320556 0.078015 0.341947
Si Si3 0.175037 0.176030 0.459355
Si Si4 0.167520 0.581709 0.181886
Si Si5 0.680735 0.325069 0.907628
Si Si6 0.321921 0.577183 0.037263
Si Si7 0.675636 0.676211 0.620359
O O1 0.250000 0.750000 0.757197
O O2 0.250707 0.640222 0.833966
O O3 0.238142 0.635586 0.686564
O O4 0.000000 0.674412 0.765220
O O5 0.500000 0.082400 0.348965
O O6 0.244479 0.123967 0.402510
O O7 0.270916 0.105582 0.261314
O O8 0.264837 0.000000 0.353613
O O9 0.250000 0.250000 0.451468
O O10 0.197633 0.142330 0.540426
O O11 0.000000 0.186399 0.442208
O O12 0.161756 0.500000 0.183834
O O13 0.271538 0.607945 0.115527
O O14 0.000000 0.611634 0.168398
O O15 0.500000 0.319940 0.901785
O O16 0.750000 0.250000 0.920793
O O17 0.736826 0.373396 0.973351
O O18 0.500000 0.574626 0.036363
O O19 0.256082 0.500000 0.025419
O O20 0.500000 0.683084 0.641261
O O21 0.750000 0.750000 0.612806
#
# Coordination Sequence:
#
# PCOD8172183 Si02
#       7
#     8   8   8   8   8   8   8
#     4  10  17  26  43  66  91 120 155 191 228 272
#     4   9  18  33  52  73  98 128 161 198 241 287
#     4  10  20  32  49  73 100 129 161 199 242 287
#     4   8  15  29  49  71  93 120 155 193 232 276
#     4  10  19  31  47  68  96 124 152 189 232 277
#     4   9  18  32  50  71  93 120 155 193 232 274
#     4   9  16  27  43  65  92 121 155 193 232 274
#
# _framework density 17.779557
#
# number of rings (size 3 to 8) (size 9 to 14) (size 15 to 20)
#    0.000    2.714    0.000    5.143    0.000    3.714 
#    0.000    2.143    0.000    2.571    0.000    2.000 
#    0.000    0.000    0.000    0.000    0.000    0.000 
#
# Total GULP energy -346929.011456 kJ/mol
# GULP energy per Si atom -12390.321838 kJ/mol
# Density = 1.773909 g / cm^3
# Si number density = 17.779557 Si / 1000 Ang^3
#
#
#
# Elastic Constant Matrix: (Units=GPa)
#
#
# Indices 1 2 3 4 5 6 
#
# 1 80.1838 27.9654 61.8147 0.0000 0.0000 0.0000
# 2 27.9654 49.0490 58.0471 0.0000 0.0000 0.0000
# 3 61.8147 58.0471 191.6366 0.0000 0.0000 0.0000
# 4 0.0000 0.0000 0.0000 -554.2643 0.0000 0.0000
# 5 0.0000 0.0000 0.0000 0.0000 34.7969 0.0000
# 6 0.0000 0.0000 0.0000 0.0000 0.0000 18.8377
#
#
#
# Elastic Compliance Matrix: (Units=1/GPa)
#
#
# Indices 1 2 3 4 5 6 
#
# 1 0.017382 -0.005105 -0.004060 0.000000 0.000000 0.000000
# 2 -0.005105 0.033279 -0.008434 0.000000 0.000000 0.000000
# 3 -0.004060 -0.008434 0.009083 0.000000 0.000000 0.000000
# 4 0.000000 0.000000 0.000000 -0.001804 0.000000 0.000000
# 5 0.000000 0.000000 0.000000 0.000000 0.028738 0.000000
# 6 0.000000 0.000000 0.000000 0.000000 0.000000 0.053085
#
#
# Mechanical properties :
#
#
# Convention : Reuss Voigt Hill
#
# Bulk Modulus (GPa) = 40.74061 68.50264 54.62163
# Shear Modulus (GPa) = 27.30104 -88.58979 -30.64437
#
# Velocity S-wave (km/s) = 3.92283 -7.06647 -4.15610
# Velocity P-wave (km/s) = 6.59411 5.28842 2.78521
#
# Compressibility (1/GPa) = 0.02454553
#
# Stress axis : x y z
#
# Youngs Moduli (GPa) = 57.53047 30.04869 110.10131
#
# Poissons Ratio (x) = 0.15340 0.44706
# Poissons Ratio (y) = 0.29370 0.92856
# Poissons Ratio (z) = 0.23360 0.25342
#
# Static dielectric constant tensor:
#      x y z
#    x 3.331880 0.000000 0.000000 
#    y 0.000000 4.770690 0.000000 
#    z 0.000000 0.000000 4.297200 
# 
# 
# High freq. dielectric constant tensor:
#      x y z
#    x 1.693840 0.000000 0.000000 
#    y 0.000000 1.624040 0.000000 
#    z 0.000000 0.000000 1.717320 
# 
# From -- ./inp_files/18237.got.cif
#   From: 2010.03.12/outbox.cif.g09.slc.cpg/sg35_10_cif.got.tgz:18237.got - 2010.04.14 02:02:04.
