data_PCOD8172439
_publ_section_title
;
Structure prediction by ZEFSAII (Michael W. Deem and Ramdas Pophale) SiO2 
 PCOD8172439
Probable space group: C M M 2
;
_chemical_formula_sum "Si O2"
_cell_formula_units_Z 48
_cell_length_a 18.305385
_cell_length_b 13.855326
_cell_length_c 9.863995
_cell_angle_alpha 90.000000
_cell_angle_beta 90.000000
_cell_angle_gamma 90.000000
_cell_volume 2501.776217
_symmetry_space_group_name_H-M "C M M 2"
_symmetry_group_IT_number 35
_symmetry_cell_setting 'orthorhombic'
loop_
_space_group_symop_operation_xyz
x,y,z
-x,-y,z
-x,y,z
x,-y,z
1/2+x,1/2+y,z
1/2-x,1/2-y,z
1/2-x,1/2+y,z
1/2+x,1/2-y,z
loop_
_atom_site_type_symbol
_atom_site_label
_atom_site_fract_x
_atom_site_fract_y
_atom_site_fract_z
Si Si1 0.913888 0.112677 0.534140
Si Si2 0.418607 0.106549 0.841849
Si Si3 0.363976 0.107863 0.122179
Si Si4 0.799072 0.110415 0.035158
Si Si5 0.170773 0.782114 0.761443
Si Si6 0.667410 0.277576 0.296920
O O1 0.869317 0.138698 0.669353
O O2 0.879634 0.177768 0.416480
O O3 0.000000 0.135359 0.550991
O O4 0.901526 0.000000 0.501997
O O5 0.500000 0.109322 0.784531
O O6 0.374362 0.183709 0.756727
O O7 0.383495 0.000000 0.818723
O O8 0.422420 0.127306 0.003852
O O9 0.287372 0.124775 0.044846
O O10 0.373539 0.180270 0.247665
O O11 0.369634 0.000000 0.182696
O O12 0.834550 0.146195 0.174566
O O13 0.821779 0.000000 0.011209
O O14 0.827495 0.174603 0.911888
O O15 0.250000 0.750000 0.706316
O O16 0.750000 0.250000 0.342906
#
# Coordination Sequence:
#
# PCOD8172439 Si02
#       6
#     8   8   8   8   8   8
#     4  11  26  44  58  79 119 163 199 241 295 348
#     4  10  20  34  54  84 121 154 183 228 294 354
#     4   9  17  32  56  89 120 144 180 233 290 344
#     4  10  18  32  59  92 121 144 188 247 292 342
#     4  12  21  38  61  90 114 152 200 245 293 339
#     4  10  19  38  60  88 113 153 196 240 292 343
#
# _framework density 19.186367000000001
#
# number of rings (size 3 to 8) (size 9 to 14) (size 15 to 20)
#    0.000    1.667    3.333    2.500    0.000    2.000 
#    0.000    0.833    0.000    4.000    0.000    0.000 
#    0.000    0.000    0.000    0.000    0.000    0.000 
#
# Total GULP energy -297572.212335 kJ/mol
# GULP energy per Si atom -12398.842181 kJ/mol
# Density = 1.914270 g / cm^3
# Si number density = 19.186367 Si / 1000 Ang^3
#
#
#
# Elastic Constant Matrix: (Units=GPa)
#
#
# Indices 1 2 3 4 5 6 
#
# 1 84.9625 41.0688 32.7754 0.0000 0.0000 0.0000
# 2 41.0688 122.0312 31.3717 0.0000 0.0000 0.0000
# 3 32.7754 31.3717 72.9309 0.0000 0.0000 0.0000
# 4 0.0000 0.0000 0.0000 35.6350 0.0000 0.0000
# 5 0.0000 0.0000 0.0000 0.0000 9.6944 0.0000
# 6 0.0000 0.0000 0.0000 0.0000 0.0000 29.5941
#
#
#
# Elastic Compliance Matrix: (Units=1/GPa)
#
#
# Indices 1 2 3 4 5 6 
#
# 1 0.015740 -0.003911 -0.005391 0.000000 0.000000 0.000000
# 2 -0.003911 0.010185 -0.002624 0.000000 0.000000 0.000000
# 3 -0.005391 -0.002624 0.017263 0.000000 0.000000 0.000000
# 4 0.000000 0.000000 0.000000 0.028062 0.000000 0.000000
# 5 0.000000 0.000000 0.000000 0.000000 0.103152 0.000000
# 6 0.000000 0.000000 0.000000 0.000000 0.000000 0.033791
#
#
# Mechanical properties :
#
#
# Convention : Reuss Voigt Hill
#
# Bulk Modulus (GPa) = 51.71587 54.48405 53.09996
# Shear Modulus (GPa) = 20.96510 26.63194 23.79852
#
# Velocity S-wave (km/s) = 3.30920 3.72972 3.52573
# Velocity P-wave (km/s) = 6.45090 6.85614 6.65660
#
# Compressibility (1/GPa) = 0.01933642
#
# Stress axis : x y z
#
# Youngs Moduli (GPa) = 63.53120 98.17964 57.92734
#
# Poissons Ratio (x) = 0.38401 0.31230
# Poissons Ratio (y) = 0.24849 0.15198
# Poissons Ratio (z) = 0.34251 0.25758
#
# Static dielectric constant tensor:
#      x y z
#    x 3.460310 0.000000 0.000000 
#    y 0.000000 3.848680 0.000000 
#    z 0.000000 0.000000 3.231490 
# 
# 
# High freq. dielectric constant tensor:
#      x y z
#    x 1.734180 0.000000 0.000000 
#    y 0.000000 1.767160 0.000000 
#    z 0.000000 0.000000 1.723840 
# 
# From -- ./inp_files/7315.got.cif
#   From: 2010.03.12/outbox.cif.g09.slc.cpg/sg35_4_cif.got.tgz:7315.got - 2010.04.14 02:02:04.
