data_PCOD8172931
_publ_section_title
;
Structure prediction by ZEFSAII (Michael W. Deem and Ramdas Pophale) SiO2 
 PCOD8172931
Probable space group: C M M 2
;
_chemical_formula_sum "Si O2"
_cell_formula_units_Z 64
_cell_length_a 8.773930
_cell_length_b 29.458122
_cell_length_c 12.421666
_cell_angle_alpha 90.000000
_cell_angle_beta 90.000000
_cell_angle_gamma 90.000000
_cell_volume 3210.547275
_symmetry_space_group_name_H-M "C M M 2"
_symmetry_group_IT_number 35
_symmetry_cell_setting 'orthorhombic'
loop_
_space_group_symop_operation_xyz
x,y,z
-x,-y,z
-x,y,z
x,-y,z
1/2+x,1/2+y,z
1/2-x,1/2-y,z
1/2-x,1/2+y,z
1/2+x,1/2-y,z
loop_
_atom_site_type_symbol
_atom_site_label
_atom_site_fract_x
_atom_site_fract_y
_atom_site_fract_z
Si Si1 0.171465 0.930638 0.017220
Si Si2 0.827127 0.171175 0.084309
Si Si3 0.820134 0.144016 0.707675
Si Si4 0.819649 0.950810 0.781419
Si Si5 0.680048 0.205204 0.880281
Si Si6 0.319295 0.146218 0.302253
Si Si7 0.678787 0.950945 0.234964
Si Si8 0.819617 0.199940 0.499464
O O1 0.173660 0.876878 0.026141
O O2 0.267586 0.952803 0.112221
O O3 0.000000 0.949409 0.027460
O O4 0.245356 0.944017 0.902383
O O5 0.728014 0.171135 0.192647
O O6 0.000000 0.186918 0.109945
O O7 0.746927 0.204881 0.001008
O O8 0.772372 0.090476 0.701567
O O9 0.732553 0.162444 0.811174
O O10 0.765453 0.170429 0.601722
O O11 0.000000 0.149905 0.725915
O O12 0.000000 0.950337 0.791640
O O13 0.762669 0.000000 0.736314
O O14 0.500000 0.207702 0.884040
O O15 0.750000 0.250000 0.823436
O O16 0.500000 0.149193 0.317871
O O17 0.258281 0.093445 0.298874
O O18 0.236869 0.172441 0.397018
O O19 0.500000 0.945187 0.232181
O O20 0.724592 0.000000 0.288687
O O21 0.750000 0.250000 0.504954
O O22 0.000000 0.204773 0.494624
#
# Coordination Sequence:
#
# PCOD8172931 Si02
#       8
#     8   8   8   8   8   8   8   8
#     4   9  16  28  50  78 113 154 195 234 273 326
#     4  10  19  35  57  83 119 155 191 235 287 341
#     4  10  21  40  61  85 118 152 193 243 290 341
#     4   9  16  29  53  84 117 154 193 232 280 334
#     4  12  24  37  57  85 117 153 192 234 291 354
#     4  10  21  38  60  86 118 151 193 241 291 346
#     4   9  18  32  51  79 117 158 195 232 278 333
#     4  11  24  42  65  87 110 145 194 247 300 353
#
# _framework density 19.934297000000001
#
# number of rings (size 3 to 8) (size 9 to 14) (size 15 to 20)
#    0.000    2.000    1.250    3.000    0.000    4.250 
#    0.000    3.125    0.000    1.125    0.000    0.000 
#    0.000    0.000    0.000    0.000    0.000    0.000 
#
# Total GULP energy -396620.358096 kJ/mol
# GULP energy per Si atom -12394.386191 kJ/mol
# Density = 1.988893 g / cm^3
# Si number density = 19.934297 Si / 1000 Ang^3
#
#
#
# Elastic Constant Matrix: (Units=GPa)
#
#
# Indices 1 2 3 4 5 6 
#
# 1 49.5872 35.4939 23.0395 0.0000 0.0000 0.0000
# 2 35.4939 158.1734 69.8300 0.0000 0.0000 0.0000
# 3 23.0395 69.8300 102.4003 0.0000 0.0000 0.0000
# 4 0.0000 0.0000 0.0000 23.4140 0.0000 0.0000
# 5 0.0000 0.0000 0.0000 0.0000 18.6600 0.0000
# 6 0.0000 0.0000 0.0000 0.0000 0.0000 9.3752
#
#
#
# Elastic Compliance Matrix: (Units=1/GPa)
#
#
# Indices 1 2 3 4 5 6 
#
# 1 0.024472 -0.004379 -0.002520 0.000000 0.000000 0.000000
# 2 -0.004379 0.009829 -0.005717 0.000000 0.000000 0.000000
# 3 -0.002520 -0.005717 0.014231 0.000000 0.000000 0.000000
# 4 0.000000 0.000000 0.000000 0.042709 0.000000 0.000000
# 5 0.000000 0.000000 0.000000 0.000000 0.053591 0.000000
# 6 0.000000 0.000000 0.000000 0.000000 0.000000 0.106665
#
#
# Mechanical properties :
#
#
# Convention : Reuss Voigt Hill
#
# Bulk Modulus (GPa) = 42.91915 62.98750 52.95333
# Shear Modulus (GPa) = 17.57495 22.40968 19.99231
#
# Velocity S-wave (km/s) = 2.97247 3.35651 3.17031
# Velocity P-wave (km/s) = 5.77562 6.83284 6.32635
#
# Compressibility (1/GPa) = 0.02329962
#
# Stress axis : x y z
#
# Youngs Moduli (GPa) = 40.86356 101.74073 70.26709
#
# Poissons Ratio (x) = 0.44552 0.17706
# Poissons Ratio (y) = 0.17894 0.40174
# Poissons Ratio (z) = 0.10297 0.58169
#
# Static dielectric constant tensor:
#      x y z
#    x 3.466340 0.000000 0.000000 
#    y 0.000000 4.150530 0.000000 
#    z 0.000000 0.000000 3.469980 
# 
# 
# High freq. dielectric constant tensor:
#      x y z
#    x 1.761400 0.000000 0.000000 
#    y 0.000000 1.798230 0.000000 
#    z 0.000000 0.000000 1.753420 
# 
# From -- ./inp_files/11961.got.cif
#   From: 2010.03.12/outbox.cif.g09.slc.cpg/sg35_6_cif.got.tgz:11961.got - 2010.04.14 02:02:04.
