data_PCOD8172050
_publ_section_title
;
Structure prediction by ZEFSAII (Michael W. Deem and Ramdas Pophale) SiO2 
 PCOD8172050
Probable space group: P N N 2
;
_chemical_formula_sum "Si O2"
_cell_formula_units_Z 26
_cell_length_a 9.280378
_cell_length_b 5.452824
_cell_length_c 22.581820
_cell_angle_alpha 90.000000
_cell_angle_beta 90.000000
_cell_angle_gamma 90.000000
_cell_volume 1142.736469
_symmetry_space_group_name_H-M "P N N 2"
_symmetry_group_IT_number 34
_symmetry_cell_setting 'orthorhombic'
loop_
_space_group_symop_operation_xyz
x,y,z
-x,-y,z
1/2-x,1/2+y,1/2+z
1/2+x,1/2-y,1/2+z
loop_
_atom_site_type_symbol
_atom_site_label
_atom_site_fract_x
_atom_site_fract_y
_atom_site_fract_z
Si Si1 0.853498 0.118861 0.196530
Si Si2 0.500000 0.000000 0.883831
Si Si3 0.750667 0.817106 0.418285
Si Si4 0.249198 0.293961 0.822413
Si Si5 0.157143 0.485786 0.595816
Si Si6 0.754777 0.043001 0.540154
Si Si7 0.500000 0.500000 0.379394
Si Si8 0.000000 0.500000 0.116279
O O1 0.752049 0.178464 0.251773
O O2 0.766483 0.950555 0.149802
O O3 0.895494 0.353143 0.158860
O O4 0.000000 0.000000 0.220662
O O5 0.402243 0.827013 0.925802
O O6 0.610505 0.856970 0.841740
O O7 0.608309 0.648476 0.422263
O O8 0.753171 0.942116 0.353765
O O9 0.738353 0.019951 0.469428
O O10 0.097414 0.168692 0.837291
O O11 0.148387 0.714929 0.549652
O O12 0.000000 0.500000 0.625024
O O13 0.190380 0.221114 0.565236
O O14 0.606591 0.136286 0.570622
#
# Coordination Sequence:
#
# PCOD8172050 Si02
#       8
#     4   2   4   4   4   4   2   2
#     4  11  22  45  72  97 141 184 257 300 368 442
#     4  10  23  42  64 108 138 187 246 288 386 442
#     4  11  25  43  72 102 146 191 243 307 378 455
#     4  11  24  44  70 105 141 194 238 314 370 454
#     4  11  26  46  68 108 141 190 236 307 371 430
#     4  11  26  44  75 100 150 185 249 296 370 444
#     4  10  26  46  64 114 146 188 250 298 398 434
#     4  10  23  44  68 104 130 195 246 304 358 436
#
# _framework density 22.752403000000001
#
# number of rings (size 3 to 8) (size 9 to 14) (size 15 to 20)
#    0.000    1.231    1.538    2.769    7.538    3.692 
#    5.538    0.000    0.000    0.000    0.000    0.000 
#    0.000    0.000    0.000    0.000    0.000    0.000 
#
# Total GULP energy -322204.661394 kJ/mol
# GULP energy per Si atom -12392.486977 kJ/mol
# Density = 2.270062 g / cm^3
# Si number density = 22.752403 Si / 1000 Ang^3
#
#
#
# Elastic Constant Matrix: (Units=GPa)
#
#
# Indices 1 2 3 4 5 6 
#
# 1 137.1552 38.1256 43.0134 0.0000 0.0000 0.0000
# 2 38.1256 117.7841 39.7195 0.0000 0.0000 0.0000
# 3 43.0134 39.7195 129.3363 0.0000 0.0000 0.0000
# 4 0.0000 0.0000 0.0000 33.6976 0.0000 0.0000
# 5 0.0000 0.0000 0.0000 0.0000 14.9604 0.0000
# 6 0.0000 0.0000 0.0000 0.0000 0.0000 23.4564
#
#
#
# Elastic Compliance Matrix: (Units=1/GPa)
#
#
# Indices 1 2 3 4 5 6 
#
# 1 0.008549 -0.002017 -0.002224 0.000000 0.000000 0.000000
# 2 -0.002017 0.009947 -0.002384 0.000000 0.000000 0.000000
# 3 -0.002224 -0.002384 0.009203 0.000000 0.000000 0.000000
# 4 0.000000 0.000000 0.000000 0.029676 0.000000 0.000000
# 5 0.000000 0.000000 0.000000 0.000000 0.066843 0.000000
# 6 0.000000 0.000000 0.000000 0.000000 0.000000 0.042632
#
#
# Mechanical properties :
#
#
# Convention : Reuss Voigt Hill
#
# Bulk Modulus (GPa) = 69.20517 69.55473 69.37995
# Shear Modulus (GPa) = 27.03918 31.98403 29.51161
#
# Velocity S-wave (km/s) = 3.45107 3.75339 3.60540
# Velocity P-wave (km/s) = 6.80900 7.02998 6.92037
#
# Compressibility (1/GPa) = 0.01444979
#
# Stress axis : x y z
#
# Youngs Moduli (GPa) = 116.97061 100.53275 108.65580
#
# Poissons Ratio (x) = 0.20282 0.24161
# Poissons Ratio (y) = 0.23598 0.25902
# Poissons Ratio (z) = 0.26010 0.23965
#
# Static dielectric constant tensor:
#      x y z
#    x 4.727250 0.000000 0.000000 
#    y 0.000000 3.916330 0.000000 
#    z 0.000000 0.000000 3.842530 
# 
# 
# High freq. dielectric constant tensor:
#      x y z
#    x 1.915850 0.000000 0.000000 
#    y 0.000000 1.895640 0.000000 
#    z 0.000000 0.000000 1.888430 
# 
# From -- ./inp_files/8423.got.cif
#   From: 2010.03.12/outbox.cif.g09.slc.cpg/sg34_5_cif.got.tgz:8423.got - 2010.04.14 01:56:33.
