data_PCOD8172127
_publ_section_title
;
Structure prediction by ZEFSAII (Michael W. Deem and Ramdas Pophale) SiO2 
 PCOD8172127
Probable space group: P N N 2
;
_chemical_formula_sum "Si O2"
_cell_formula_units_Z 24
_cell_length_a 14.343823
_cell_length_b 8.242829
_cell_length_c 8.474283
_cell_angle_alpha 90.000000
_cell_angle_beta 90.000000
_cell_angle_gamma 90.000000
_cell_volume 1001.945666
_symmetry_space_group_name_H-M "P N N 2"
_symmetry_group_IT_number 34
_symmetry_cell_setting 'orthorhombic'
loop_
_space_group_symop_operation_xyz
x,y,z
-x,-y,z
1/2-x,1/2+y,1/2+z
1/2+x,1/2-y,1/2+z
loop_
_atom_site_type_symbol
_atom_site_label
_atom_site_fract_x
_atom_site_fract_y
_atom_site_fract_z
Si Si1 0.656720 0.064590 0.280630
Si Si2 0.332000 0.954916 0.637072
Si Si3 0.353955 0.310757 0.274012
Si Si4 0.500000 0.000000 0.855938
Si Si5 0.500000 0.500000 0.819489
Si Si6 0.517966 0.274080 0.074053
Si Si7 0.158296 0.835392 0.130244
O O1 0.647832 0.116067 0.463353
O O2 0.597250 0.192064 0.179716
O O3 0.761656 0.063960 0.216624
O O4 0.622207 0.880617 0.270946
O O5 0.242734 0.857437 0.695208
O O6 0.419545 0.919100 0.749268
O O7 0.314918 0.146952 0.639223
O O8 0.442487 0.378610 0.176125
O O9 0.352367 0.386392 0.448341
O O10 0.460498 0.138775 0.972595
O O11 0.438287 0.379933 0.714102
O O12 0.563494 0.391203 0.939820
#
# Coordination Sequence:
#
# PCOD8172127 Si02
#       7
#     4   4   4   2   2   4   4
#     4  11  26  46  75 105 148 192 251 311 372 448
#     4  11  27  46  74 106 146 195 250 308 378 444
#     4  11  26  48  74 107 145 196 249 309 375 442
#     4  12  24  46  76 102 144 196 246 310 370 442
#     4  12  28  48  74 110 154 198 252 308 376 454
#     4  12  26  47  76 107 149 195 251 308 374 450
#     4  11  27  48  72 107 149 195 249 307 370 452
#
# _framework density 23.953392999999998
#
# number of rings (size 3 to 8) (size 9 to 14) (size 15 to 20)
#    0.000    0.667    3.333    2.000   14.000    0.667 
#    0.000    0.000    0.000    0.000    0.000    0.000 
#    0.000    0.000    0.000    0.000    0.000    0.000 
#
# Total GULP energy -297530.310320 kJ/mol
# GULP energy per Si atom -12397.096263 kJ/mol
# Density = 2.389887 g / cm^3
# Si number density = 23.953393 Si / 1000 Ang^3
#
#
#
# Elastic Constant Matrix: (Units=GPa)
#
#
# Indices 1 2 3 4 5 6 
#
# 1 116.5672 11.0853 58.4002 0.0000 0.0000 0.0000
# 2 11.0853 50.0320 39.2289 0.0000 0.0000 0.0000
# 3 58.4002 39.2289 190.4532 0.0000 0.0000 0.0000
# 4 0.0000 0.0000 0.0000 38.9416 0.0000 0.0000
# 5 0.0000 0.0000 0.0000 0.0000 43.7686 0.0000
# 6 0.0000 0.0000 0.0000 0.0000 0.0000 45.0629
#
#
#
# Elastic Compliance Matrix: (Units=1/GPa)
#
#
# Indices 1 2 3 4 5 6 
#
# 1 0.010138 0.000228 -0.003156 0.000000 0.000000 0.000000
# 2 0.000228 0.023842 -0.004981 0.000000 0.000000 0.000000
# 3 -0.003156 -0.004981 0.007244 0.000000 0.000000 0.000000
# 4 0.000000 0.000000 0.000000 0.025679 0.000000 0.000000
# 5 0.000000 0.000000 0.000000 0.000000 0.022847 0.000000
# 6 0.000000 0.000000 0.000000 0.000000 0.000000 0.022191
#
#
# Mechanical properties :
#
#
# Convention : Reuss Voigt Hill
#
# Bulk Modulus (GPa) = 39.35862 63.83124 51.59493
# Shear Modulus (GPa) = 36.70307 42.11050 39.40678
#
# Velocity S-wave (km/s) = 3.91867 4.19742 4.06044
# Velocity P-wave (km/s) = 6.07796 7.08499 6.60071
#
# Compressibility (1/GPa) = 0.02540740
#
# Stress axis : x y z
#
# Youngs Moduli (GPa) = 98.63822 41.94279 138.04106
#
# Poissons Ratio (x) = -0.00957 0.43562
# Poissons Ratio (y) = -0.02250 0.68756
# Poissons Ratio (z) = 0.31127 0.20891
#
# Static dielectric constant tensor:
#      x y z
#    x 3.964110 0.000000 0.000000 
#    y 0.000000 4.360180 0.000000 
#    z 0.000000 0.000000 4.832020 
# 
# 
# High freq. dielectric constant tensor:
#      x y z
#    x 1.934190 0.000000 0.000000 
#    y 0.000000 1.956400 0.000000 
#    z 0.000000 0.000000 1.980890 
# 
# From -- ./inp_files/2634.got.cif
#   From: 2010.03.12/outbox.cif.g09.slc.cpg/sg34_2_cif.got.tgz:2634.got - 2010.04.14 01:56:33.
