data_PCOD8172833
_publ_section_title
;
Structure prediction by ZEFSAII (Michael W. Deem and Ramdas Pophale) SiO2 
 PCOD8172833
Probable space group: C M M 2
;
_chemical_formula_sum "Si O2"
_cell_formula_units_Z 64
_cell_length_a 14.836557
_cell_length_b 18.922069
_cell_length_c 11.892404
_cell_angle_alpha 90.000000
_cell_angle_beta 90.000000
_cell_angle_gamma 90.000000
_cell_volume 3338.653939
_symmetry_space_group_name_H-M "C M M 2"
_symmetry_group_IT_number 35
_symmetry_cell_setting 'orthorhombic'
loop_
_space_group_symop_operation_xyz
x,y,z
-x,-y,z
-x,y,z
x,-y,z
1/2+x,1/2+y,z
1/2-x,1/2-y,z
1/2-x,1/2+y,z
1/2+x,1/2-y,z
loop_
_atom_site_type_symbol
_atom_site_label
_atom_site_fract_x
_atom_site_fract_y
_atom_site_fract_z
Si Si1 0.396486 0.581356 0.248960
Si Si2 0.393263 0.822952 0.295185
Si Si3 0.243948 0.165934 0.862051
Si Si4 0.899575 0.183984 0.684082
Si Si5 0.099019 0.349032 0.715768
Si Si6 0.897039 0.187597 0.434484
Si Si7 0.250259 0.666597 0.114363
Si Si8 0.606783 0.077962 0.493138
O O1 0.500000 0.587575 0.207294
O O2 0.363827 0.500000 0.246890
O O3 0.388422 0.611343 0.375608
O O4 0.336327 0.631696 0.172339
O O5 0.500000 0.820032 0.269890
O O6 0.357602 0.748972 0.351213
O O7 0.343021 0.847343 0.180925
O O8 0.362230 0.883501 0.380594
O O9 0.250000 0.250000 0.862093
O O10 0.160159 0.144913 0.780143
O O11 0.333526 0.128771 0.814118
O O12 0.241027 0.135572 0.988299
O O13 0.907273 0.265520 0.712489
O O14 0.853473 0.179298 0.558980
O O15 0.000000 0.149514 0.685996
O O16 0.140467 0.377812 0.599738
O O17 0.000000 0.381560 0.740194
O O18 0.000000 0.211001 0.456313
O O19 0.250000 0.750000 0.108132
O O20 0.500000 0.074276 0.495349
O O21 0.649869 0.000000 0.495175
#
# Coordination Sequence:
#
# PCOD8172833 Si02
#       8
#     8   8   8   8   8   8   8   8
#     4  10  22  40  60  83 114 151 190 236 289 344
#     4  10  19  33  54  82 114 144 180 229 283 340
#     4   9  20  33  47  76 108 138 185 232 273 320
#     4   9  16  30  53  79 106 137 174 227 282 326
#     4   9  16  30  49  72 107 143 176 219 271 326
#     4   9  16  31  56  83 108 138 181 228 285 343
#     4  11  22  36  55  81 111 148 195 239 279 329
#     4   9  17  30  50  77 109 142 176 216 268 335
#
# _framework density 19.169402999999999
#
# number of rings (size 3 to 8) (size 9 to 14) (size 15 to 20)
#    0.000    2.500    2.500    0.000    0.000    2.500 
#    2.250    3.125    0.000    0.750    0.000    5.250 
#    0.000    0.000    0.000    0.000    0.000    0.000 
#
# Total GULP energy -396445.241292 kJ/mol
# GULP energy per Si atom -12388.913790 kJ/mol
# Density = 1.912577 g / cm^3
# Si number density = 19.169403 Si / 1000 Ang^3
#
#
#
# Elastic Constant Matrix: (Units=GPa)
#
#
# Indices 1 2 3 4 5 6 
#
# 1 84.2264 27.7029 70.6052 0.0000 0.0000 0.0000
# 2 27.7029 54.0678 24.5107 0.0000 0.0000 0.0000
# 3 70.6052 24.5107 161.4620 0.0000 0.0000 0.0000
# 4 0.0000 0.0000 0.0000 -43.2082 0.0000 0.0000
# 5 0.0000 0.0000 0.0000 0.0000 29.0769 0.0000
# 6 0.0000 0.0000 0.0000 0.0000 0.0000 13.6418
#
#
#
# Elastic Compliance Matrix: (Units=1/GPa)
#
#
# Indices 1 2 3 4 5 6 
#
# 1 0.020999 -0.007084 -0.008107 0.000000 0.000000 0.000000
# 2 -0.007084 0.022252 -0.000280 0.000000 0.000000 0.000000
# 3 -0.008107 -0.000280 0.009781 0.000000 0.000000 0.000000
# 4 0.000000 0.000000 0.000000 -0.023144 0.000000 0.000000
# 5 0.000000 0.000000 0.000000 0.000000 0.034392 0.000000
# 6 0.000000 0.000000 0.000000 0.000000 0.000000 0.073304
#
#
# Mechanical properties :
#
#
# Convention : Reuss Voigt Hill
#
# Bulk Modulus (GPa) = 45.27101 60.59932 52.93517
# Shear Modulus (GPa) = 28.42700 11.69794 20.06247
#
# Velocity S-wave (km/s) = 3.85507 2.47298 3.23861
# Velocity P-wave (km/s) = 6.59416 6.31153 6.45439
#
# Compressibility (1/GPa) = 0.02208919
#
# Stress axis : x y z
#
# Youngs Moduli (GPa) = 47.62189 44.93987 102.23834
#
# Poissons Ratio (x) = 0.31835 0.82886
# Poissons Ratio (y) = 0.33735 0.02865
# Poissons Ratio (z) = 0.38607 0.01259
#
# Static dielectric constant tensor:
#      x y z
#    x 3.616300 0.000000 0.000000 
#    y 0.000000 3.344410 0.000000 
#    z 0.000000 0.000000 3.799110 
# 
# 
# High freq. dielectric constant tensor:
#      x y z
#    x 1.738660 0.000000 0.000000 
#    y 0.000000 1.707660 0.000000 
#    z 0.000000 0.000000 1.744840 
# 
# From -- ./inp_files/13165.got.cif
#   From: 2010.03.12/outbox.cif.g09.slc.cpg/sg35_7_cif.got.tgz:13165.got - 2010.04.14 02:02:04.
