data_PCOD8172285
_publ_section_title
;
Structure prediction by ZEFSAII (Michael W. Deem and Ramdas Pophale) SiO2 
 PCOD8172285
Probable space group: C M M 2
;
_chemical_formula_sum "Si O2"
_cell_formula_units_Z 64
_cell_length_a 28.330335
_cell_length_b 8.666646
_cell_length_c 15.743591
_cell_angle_alpha 90.000000
_cell_angle_beta 90.000000
_cell_angle_gamma 90.000000
_cell_volume 3865.507911
_symmetry_space_group_name_H-M "C M M 2"
_symmetry_group_IT_number 35
_symmetry_cell_setting 'orthorhombic'
loop_
_space_group_symop_operation_xyz
x,y,z
-x,-y,z
-x,y,z
x,-y,z
1/2+x,1/2+y,z
1/2-x,1/2-y,z
1/2-x,1/2+y,z
1/2+x,1/2-y,z
loop_
_atom_site_type_symbol
_atom_site_label
_atom_site_fract_x
_atom_site_fract_y
_atom_site_fract_z
Si Si1 0.052079 0.182568 0.880640
Si Si2 0.388608 0.681396 0.222677
Si Si3 0.943828 0.178147 0.697151
Si Si4 0.053569 0.816825 0.063582
Si Si5 0.200654 0.818322 0.480935
Si Si6 0.799308 0.681985 0.297424
Si Si7 0.945076 0.178096 0.391316
Si Si8 0.109701 0.678542 0.544205
O O1 0.076010 0.231296 0.790919
O O2 0.000000 0.255318 0.882551
O O3 0.047494 0.000000 0.878077
O O4 0.075932 0.232077 0.970819
O O5 0.378234 0.500000 0.216313
O O6 0.413485 0.748900 0.138144
O O7 0.339460 0.771468 0.230793
O O8 0.422463 0.719945 0.301276
O O9 0.918451 0.285392 0.629590
O O10 0.000000 0.202746 0.692271
O O11 0.931432 0.000000 0.678186
O O12 0.000000 0.753542 0.073319
O O13 0.052011 0.000000 0.072078
O O14 0.250000 0.750000 0.514770
O O15 0.187479 0.752595 0.388627
O O16 0.158670 0.773236 0.544569
O O17 0.205614 0.000000 0.474005
O O18 0.795067 0.500000 0.306456
O O19 0.750000 0.750000 0.263930
O O20 0.922466 0.281755 0.463854
O O21 0.000000 0.216565 0.385202
O O22 0.936134 0.000000 0.415199
O O23 0.122570 0.500000 0.541247
#
# Coordination Sequence:
#
# PCOD8172285 Si02
#       8
#     8   8   8   8   8   8   8   8
#     4   7  11  22  42  68  95 122 157 201 242 279
#     4  10  18  29  47  71  98 128 161 196 236 283
#     4   9  17  30  48  69  95 129 166 203 243 286
#     4   8  13  23  43  72 101 127 159 198 236 279
#     4  11  21  36  55  73  93 119 154 198 243 288
#     4  11  21  34  51  70  93 122 158 200 242 284
#     4  10  20  32  45  63  93 133 169 197 229 275
#     4  12  23  33  46  68  96 129 164 199 238 282
#
# _framework density 16.556685999999999
#
# number of rings (size 3 to 8) (size 9 to 14) (size 15 to 20)
#    0.000    2.250    1.250    6.375    0.000    3.500 
#    0.000    0.000    0.000    1.875    0.000    2.625 
#    0.000    4.000    0.000    0.000    0.000    0.000 
#
# Total GULP energy -396606.301895 kJ/mol
# GULP energy per Si atom -12393.946934 kJ/mol
# Density = 1.651900 g / cm^3
# Si number density = 16.556686 Si / 1000 Ang^3
#
#
#
# Elastic Constant Matrix: (Units=GPa)
#
#
# Indices 1 2 3 4 5 6 
#
# 1 90.0241 33.6057 47.7346 0.0000 0.0000 0.0000
# 2 33.6057 79.0451 35.5293 0.0000 0.0000 0.0000
# 3 47.7346 35.5293 121.7414 0.0000 0.0000 0.0000
# 4 0.0000 0.0000 0.0000 5.6434 0.0000 0.0000
# 5 0.0000 0.0000 0.0000 0.0000 8.2401 0.0000
# 6 0.0000 0.0000 0.0000 0.0000 0.0000 22.7267
#
#
#
# Elastic Compliance Matrix: (Units=1/GPa)
#
#
# Indices 1 2 3 4 5 6 
#
# 1 0.015227 -0.004362 -0.004698 0.000000 0.000000 0.000000
# 2 -0.004362 0.015811 -0.002904 0.000000 0.000000 0.000000
# 3 -0.004698 -0.002904 0.010903 0.000000 0.000000 0.000000
# 4 0.000000 0.000000 0.000000 0.177199 0.000000 0.000000
# 5 0.000000 0.000000 0.000000 0.000000 0.121358 0.000000
# 6 0.000000 0.000000 0.000000 0.000000 0.000000 0.044001
#
#
# Mechanical properties :
#
#
# Convention : Reuss Voigt Hill
#
# Bulk Modulus (GPa) = 55.51136 58.28329 56.89733
# Shear Modulus (GPa) = 12.06470 18.91811 15.49140
#
# Velocity S-wave (km/s) = 2.70235 3.38394 3.06217
# Velocity P-wave (km/s) = 6.58315 7.10963 6.85144
#
# Compressibility (1/GPa) = 0.01801433
#
# Stress axis : x y z
#
# Youngs Moduli (GPa) = 65.67096 63.24763 91.71404
#
# Poissons Ratio (x) = 0.27591 0.43083
# Poissons Ratio (y) = 0.28649 0.26632
# Poissons Ratio (z) = 0.30849 0.18366
#
# Static dielectric constant tensor:
#      x y z
#    x 3.078990 0.000000 0.000000 
#    y 0.000000 2.890970 0.000000 
#    z 0.000000 0.000000 3.376980 
# 
# 
# High freq. dielectric constant tensor:
#      x y z
#    x 1.618850 0.000000 0.000000 
#    y 0.000000 1.619260 0.000000 
#    z 0.000000 0.000000 1.632310 
# 
# From -- ./inp_files/17753.got.cif
#   From: 2010.03.12/outbox.cif.g09.slc.cpg/sg35_9_cif.got.tgz:17753.got - 2010.04.14 02:02:04.
