data_PCOD8172761
_publ_section_title
;
Structure prediction by ZEFSAII (Michael W. Deem and Ramdas Pophale) SiO2 
 PCOD8172761
Probable space group: C M M 2
;
_chemical_formula_sum "Si O2"
_cell_formula_units_Z 64
_cell_length_a 8.893915
_cell_length_b 28.904339
_cell_length_c 12.392787
_cell_angle_alpha 90.000000
_cell_angle_beta 90.000000
_cell_angle_gamma 90.000000
_cell_volume 3185.847638
_symmetry_space_group_name_H-M "C M M 2"
_symmetry_group_IT_number 35
_symmetry_cell_setting 'orthorhombic'
loop_
_space_group_symop_operation_xyz
x,y,z
-x,-y,z
-x,y,z
x,-y,z
1/2+x,1/2+y,z
1/2-x,1/2-y,z
1/2-x,1/2+y,z
1/2+x,1/2-y,z
loop_
_atom_site_type_symbol
_atom_site_label
_atom_site_fract_x
_atom_site_fract_y
_atom_site_fract_z
Si Si1 0.173350 0.051172 0.925830
Si Si2 0.673293 0.551857 0.480757
Si Si3 0.822162 0.359215 0.997948
Si Si4 0.177927 0.361018 0.406284
Si Si5 0.823933 0.204388 0.570225
Si Si6 0.177433 0.699690 0.202194
Si Si7 0.832609 0.672128 0.766258
Si Si8 0.669048 0.068193 0.704222
O O1 0.247029 0.090009 0.003192
O O2 0.251937 0.048606 0.810147
O O3 0.000000 0.064365 0.908880
O O4 0.190101 0.000000 0.979373
O O5 0.500000 0.567277 0.485843
O O6 0.689568 0.500000 0.433559
O O7 0.762637 0.586284 0.400011
O O8 0.738838 0.552181 0.600871
O O9 0.773722 0.332552 0.888766
O O10 0.000000 0.367446 0.999881
O O11 0.766298 0.327423 0.096090
O O12 0.254041 0.339799 0.512098
O O13 0.228849 0.331744 0.302481
O O14 0.000000 0.361200 0.420198
O O15 0.750000 0.250000 0.517385
O O16 0.782380 0.203342 0.697594
O O17 0.000000 0.206076 0.552626
O O18 0.250000 0.750000 0.209305
O O19 0.000000 0.706530 0.200034
O O20 0.837172 0.623021 0.708671
O O21 0.000000 0.694370 0.763652
O O22 0.500000 0.048138 0.697341
#
# Coordination Sequence:
#
# PCOD8172761 Si02
#       8
#     8   8   8   8   8   8   8   8
#     4  10  20  33  52  83 122 161 202 244 288 344
#     4  11  23  37  56  85 120 158 200 244 293 351
#     4   9  20  39  61  86 117 152 195 245 296 353
#     4  11  23  41  63  87 118 153 197 247 299 357
#     4  12  24  37  57  84 118 156 194 239 295 356
#     4  10  23  43  67  92 115 147 195 250 302 357
#     4   9  18  34  55  82 118 154 190 236 289 350
#     4  10  19  32  54  82 117 160 201 241 289 346
#
# _framework density 20.088844999999999
#
# number of rings (size 3 to 8) (size 9 to 14) (size 15 to 20)
#    0.000    1.750    1.250    4.125    0.000    8.500 
#    0.000    1.875    0.000    3.750    0.000    0.000 
#    0.000    0.000    0.000    0.000    0.000    0.000 
#
# Total GULP energy -396794.731322 kJ/mol
# GULP energy per Si atom -12399.835354 kJ/mol
# Density = 2.004312 g / cm^3
# Si number density = 20.088845 Si / 1000 Ang^3
#
#
#
# Elastic Constant Matrix: (Units=GPa)
#
#
# Indices 1 2 3 4 5 6 
#
# 1 113.2517 54.3457 43.0518 0.0000 0.0000 0.0000
# 2 54.3457 128.1960 59.8007 0.0000 0.0000 0.0000
# 3 43.0518 59.8007 105.8969 0.0000 0.0000 0.0000
# 4 0.0000 0.0000 0.0000 23.6158 0.0000 0.0000
# 5 0.0000 0.0000 0.0000 0.0000 19.1296 0.0000
# 6 0.0000 0.0000 0.0000 0.0000 0.0000 35.0412
#
#
#
# Elastic Compliance Matrix: (Units=1/GPa)
#
#
# Indices 1 2 3 4 5 6 
#
# 1 0.011601 -0.003690 -0.002633 0.000000 0.000000 0.000000
# 2 -0.003690 0.011764 -0.005143 0.000000 0.000000 0.000000
# 3 -0.002633 -0.005143 0.013418 0.000000 0.000000 0.000000
# 4 0.000000 0.000000 0.000000 0.042345 0.000000 0.000000
# 5 0.000000 0.000000 0.000000 0.000000 0.052275 0.000000
# 6 0.000000 0.000000 0.000000 0.000000 0.000000 0.028538
#
#
# Mechanical properties :
#
#
# Convention : Reuss Voigt Hill
#
# Bulk Modulus (GPa) = 72.19382 73.52679 72.86030
# Shear Modulus (GPa) = 26.66817 28.23374 27.45095
#
# Velocity S-wave (km/s) = 3.64746 3.75299 3.70060
# Velocity P-wave (km/s) = 7.33170 7.44716 7.38966
#
# Compressibility (1/GPa) = 0.01385160
#
# Stress axis : x y z
#
# Youngs Moduli (GPa) = 86.19629 85.00518 74.52804
#
# Poissons Ratio (x) = 0.31367 0.19621
# Poissons Ratio (y) = 0.31807 0.38330
# Poissons Ratio (z) = 0.22693 0.43718
#
# Static dielectric constant tensor:
#      x y z
#    x 3.650080 0.000000 0.000000 
#    y 0.000000 3.741380 0.000000 
#    z 0.000000 0.000000 3.549260 
# 
# 
# High freq. dielectric constant tensor:
#      x y z
#    x 1.786890 0.000000 0.000000 
#    y 0.000000 1.795510 0.000000 
#    z 0.000000 0.000000 1.760440 
# 
# From -- ./inp_files/11849.got.cif
#   From: 2010.03.12/outbox.cif.g09.slc.cpg/sg35_6_cif.got.tgz:11849.got - 2010.04.14 02:02:04.
