data_PCOD8172646
_publ_section_title
;
Structure prediction by ZEFSAII (Michael W. Deem and Ramdas Pophale) SiO2 
 PCOD8172646
Probable space group: C M M 2
;
_chemical_formula_sum "Si O2"
_cell_formula_units_Z 48
_cell_length_a 7.554240
_cell_length_b 17.972260
_cell_length_c 17.480466
_cell_angle_alpha 90.000000
_cell_angle_beta 90.000000
_cell_angle_gamma 90.000000
_cell_volume 2373.266326
_symmetry_space_group_name_H-M "C M M 2"
_symmetry_group_IT_number 35
_symmetry_cell_setting 'orthorhombic'
loop_
_space_group_symop_operation_xyz
x,y,z
-x,-y,z
-x,y,z
x,-y,z
1/2+x,1/2+y,z
1/2-x,1/2-y,z
1/2-x,1/2+y,z
1/2+x,1/2-y,z
loop_
_atom_site_type_symbol
_atom_site_label
_atom_site_fract_x
_atom_site_fract_y
_atom_site_fract_z
Si Si1 0.207554 0.163435 0.697050
Si Si2 0.696473 0.588809 0.079658
Si Si3 0.707320 0.664703 0.394323
Si Si4 0.289424 0.417169 0.247350
Si Si5 0.790052 0.083438 0.543026
Si Si6 0.500000 0.088602 0.796632
Si Si7 0.000000 0.411514 0.970857
O O1 0.250000 0.250000 0.700416
O O2 0.270234 0.132698 0.614967
O O3 0.320599 0.120438 0.760413
O O4 0.000000 0.148236 0.712485
O O5 0.500000 0.620564 0.062802
O O6 0.690405 0.500000 0.079902
O O7 0.826711 0.619851 0.014386
O O8 0.766404 0.614288 0.163789
O O9 0.500000 0.650811 0.392977
O O10 0.750000 0.750000 0.405538
O O11 0.789554 0.635056 0.314474
O O12 0.789837 0.619952 0.466054
O O13 0.500000 0.419977 0.250248
O O14 0.212770 0.500000 0.260268
O O15 0.000000 0.081461 0.538553
O O16 0.713924 0.000000 0.551906
O O17 0.500000 0.116282 0.884181
O O18 0.500000 0.000000 0.789335
O O19 0.000000 0.500000 0.974405
#
# Coordination Sequence:
#
# PCOD8172646 Si02
#       7
#     8   8   8   8   8   4   4
#     4  11  22  40  64  89 120 163 201 244 300 368
#     4   8  14  27  49  77 108 141 182 231 284 340
#     4  10  19  32  49  72 106 147 184 228 275 336
#     4   8  14  27  50  75  98 135 185 230 273 322
#     4   9  18  33  56  83 111 145 192 241 287 339
#     4  11  24  40  62  95 126 154 199 253 306 362
#     4   9  18  32  52  83 117 144 177 233 295 344
#
# _framework density 20.225289
#
# number of rings (size 3 to 8) (size 9 to 14) (size 15 to 20)
#    0.000    2.667    0.833    2.500    0.000    3.667 
#    3.000    1.667    0.000    2.000    0.000    0.000 
#    0.000    0.000    0.000    0.000    0.000    0.000 
#
# Total GULP energy -297506.916189 kJ/mol
# GULP energy per Si atom -12396.121508 kJ/mol
# Density = 2.017926 g / cm^3
# Si number density = 20.225289 Si / 1000 Ang^3
#
#
#
# Elastic Constant Matrix: (Units=GPa)
#
#
# Indices 1 2 3 4 5 6 
#
# 1 83.3623 21.9188 64.2208 0.0000 0.0000 0.0000
# 2 21.9188 103.8438 63.4675 0.0000 0.0000 0.0000
# 3 64.2208 63.4675 202.2630 0.0000 0.0000 0.0000
# 4 0.0000 0.0000 0.0000 11.1582 0.0000 0.0000
# 5 0.0000 0.0000 0.0000 0.0000 9.3037 0.0000
# 6 0.0000 0.0000 0.0000 0.0000 0.0000 17.5084
#
#
#
# Elastic Compliance Matrix: (Units=1/GPa)
#
#
# Indices 1 2 3 4 5 6 
#
# 1 0.015890 -0.000335 -0.004940 0.000000 0.000000 0.000000
# 2 -0.000335 0.011922 -0.003635 0.000000 0.000000 0.000000
# 3 -0.004940 -0.003635 0.007653 0.000000 0.000000 0.000000
# 4 0.000000 0.000000 0.000000 0.089620 0.000000 0.000000
# 5 0.000000 0.000000 0.000000 0.000000 0.107484 0.000000
# 6 0.000000 0.000000 0.000000 0.000000 0.000000 0.057115
#
#
# Mechanical properties :
#
#
# Convention : Reuss Voigt Hill
#
# Bulk Modulus (GPa) = 56.67067 76.52036 66.59551
# Shear Modulus (GPa) = 15.95478 23.58485 19.76982
#
# Velocity S-wave (km/s) = 2.81170 3.41854 3.12986
# Velocity P-wave (km/s) = 6.21461 7.31423 6.78673
#
# Compressibility (1/GPa) = 0.01764581
#
# Stress axis : x y z
#
# Youngs Moduli (GPa) = 62.93430 83.87888 130.66534
#
# Poissons Ratio (x) = 0.02806 0.64550
# Poissons Ratio (y) = 0.02106 0.47493
# Poissons Ratio (z) = 0.31090 0.30488
#
# Static dielectric constant tensor:
#      x y z
#    x 3.602280 0.000000 0.000000 
#    y 0.000000 3.409610 0.000000 
#    z 0.000000 0.000000 4.014600 
# 
# 
# High freq. dielectric constant tensor:
#      x y z
#    x 1.778370 0.000000 0.000000 
#    y 0.000000 1.761030 0.000000 
#    z 0.000000 0.000000 1.797550 
# 
# From -- ./inp_files/15201.got.cif
#   From: 2010.03.12/outbox.cif.g09.slc.cpg/sg35_8_cif.got.tgz:15201.got - 2010.04.14 02:02:04.
