data_PCOD8172699
_publ_section_title
;
Structure prediction by ZEFSAII (Michael W. Deem and Ramdas Pophale) SiO2 
 PCOD8172699
Probable space group: C M M 2
;
_chemical_formula_sum "Si O2"
_cell_formula_units_Z 48
_cell_length_a 15.373607
_cell_length_b 18.341940
_cell_length_c 9.209870
_cell_angle_alpha 90.000000
_cell_angle_beta 90.000000
_cell_angle_gamma 90.000000
_cell_volume 2597.015510
_symmetry_space_group_name_H-M "C M M 2"
_symmetry_group_IT_number 35
_symmetry_cell_setting 'orthorhombic'
loop_
_space_group_symop_operation_xyz
x,y,z
-x,-y,z
-x,y,z
x,-y,z
1/2+x,1/2+y,z
1/2-x,1/2-y,z
1/2-x,1/2+y,z
1/2+x,1/2-y,z
loop_
_atom_site_type_symbol
_atom_site_label
_atom_site_fract_x
_atom_site_fract_y
_atom_site_fract_z
Si Si1 0.095246 0.167361 0.072820
Si Si2 0.161662 0.292235 0.263575
Si Si3 0.098749 0.816315 0.741775
Si Si4 0.099424 0.330578 0.575743
Si Si5 0.763886 0.583853 0.071122
Si Si6 0.257296 0.916322 0.735086
O O1 0.100787 0.235797 0.179584
O O2 0.163686 0.103547 0.106615
O O3 0.000000 0.131698 0.088580
O O4 0.110049 0.199034 0.912026
O O5 0.250000 0.250000 0.303292
O O6 0.112722 0.318711 0.405778
O O7 0.174918 0.363488 0.164083
O O8 0.123128 0.742852 0.659753
O O9 0.167902 0.876404 0.689817
O O10 0.000000 0.842000 0.704511
O O11 0.163013 0.393126 0.633285
O O12 0.000000 0.354371 0.604703
O O13 0.780777 0.500000 0.114983
O O14 0.783670 0.597711 0.901917
O O15 0.237666 0.000000 0.705828
#
# Coordination Sequence:
#
# PCOD8172699 Si02
#       6
#     8   8   8   8   8   8
#     4   9  17  31  53  79 104 129 161 203 250 303
#     4  10  19  32  52  75 101 133 169 210 253 299
#     4   9  18  33  55  81 105 132 167 207 253 304
#     4  11  22  35  53  75 101 135 176 218 255 296
#     4   9  19  34  52  75 102 134 167 202 251 303
#     4  10  20  35  54  76 106 138 168 207 253 304
#
# _framework density 18.482755000000001
#
# number of rings (size 3 to 8) (size 9 to 14) (size 15 to 20)
#    0.000    2.333    0.000    3.000    0.000    4.333 
#    0.000    4.167    0.000    3.500    0.000    4.667 
#    0.000    0.000    0.000    0.000    0.000    0.000 
#
# Total GULP energy -297613.691446 kJ/mol
# GULP energy per Si atom -12400.570477 kJ/mol
# Density = 1.844069 g / cm^3
# Si number density = 18.482755 Si / 1000 Ang^3
#
#
#
# Elastic Constant Matrix: (Units=GPa)
#
#
# Indices 1 2 3 4 5 6 
#
# 1 67.2101 6.0970 13.1288 0.0000 0.0000 0.0000
# 2 6.0970 44.7952 8.7992 0.0000 0.0000 0.0000
# 3 13.1288 8.7992 55.8451 0.0000 0.0000 0.0000
# 4 0.0000 0.0000 0.0000 8.0576 0.0000 0.0000
# 5 0.0000 0.0000 0.0000 0.0000 28.1000 0.0000
# 6 0.0000 0.0000 0.0000 0.0000 0.0000 20.6881
#
#
#
# Elastic Compliance Matrix: (Units=1/GPa)
#
#
# Indices 1 2 3 4 5 6 
#
# 1 0.015686 -0.001456 -0.003458 0.000000 0.000000 0.000000
# 2 -0.001456 0.023172 -0.003309 0.000000 0.000000 0.000000
# 3 -0.003458 -0.003309 0.019241 0.000000 0.000000 0.000000
# 4 0.000000 0.000000 0.000000 0.124106 0.000000 0.000000
# 5 0.000000 0.000000 0.000000 0.000000 0.035587 0.000000
# 6 0.000000 0.000000 0.000000 0.000000 0.000000 0.048337
#
#
# Mechanical properties :
#
#
# Convention : Reuss Voigt Hill
#
# Bulk Modulus (GPa) = 24.00763 24.87784 24.44274
# Shear Modulus (GPa) = 16.86570 20.69084 18.77827
#
# Velocity S-wave (km/s) = 3.02406 3.34947 3.19092
# Velocity P-wave (km/s) = 5.02102 5.33366 5.17970
#
# Compressibility (1/GPa) = 0.04165342
#
# Stress axis : x y z
#
# Youngs Moduli (GPa) = 63.74972 43.15572 51.97215
#
# Poissons Ratio (x) = 0.06282 0.17974
# Poissons Ratio (y) = 0.09280 0.17197
# Poissons Ratio (z) = 0.22047 0.14280
#
# Static dielectric constant tensor:
#      x y z
#    x 3.452480 0.000000 0.000000 
#    y 0.000000 3.259070 0.000000 
#    z 0.000000 0.000000 3.386850 
# 
# 
# High freq. dielectric constant tensor:
#      x y z
#    x 1.721410 0.000000 0.000000 
#    y 0.000000 1.704500 0.000000 
#    z 0.000000 0.000000 1.714800 
# 
# From -- ./inp_files/7296.got.cif
#   From: 2010.03.12/outbox.cif.g09.slc.cpg/sg35_4_cif.got.tgz:7296.got - 2010.04.14 02:02:04.
