data_PCOD8172117
_publ_section_title
;
Structure prediction by ZEFSAII (Michael W. Deem and Ramdas Pophale) SiO2 
 PCOD8172117
Probable space group: P N N 2
;
_chemical_formula_sum "Si O2"
_cell_formula_units_Z 32
_cell_length_a 8.997933
_cell_length_b 13.153717
_cell_length_c 11.647135
_cell_angle_alpha 90.000000
_cell_angle_beta 90.000000
_cell_angle_gamma 90.000000
_cell_volume 1378.511388
_symmetry_space_group_name_H-M "P N N 2"
_symmetry_group_IT_number 34
_symmetry_cell_setting 'orthorhombic'
loop_
_space_group_symop_operation_xyz
x,y,z
-x,-y,z
1/2-x,1/2+y,1/2+z
1/2+x,1/2-y,1/2+z
loop_
_atom_site_type_symbol
_atom_site_label
_atom_site_fract_x
_atom_site_fract_y
_atom_site_fract_z
Si Si1 0.978002 0.704287 0.543360
Si Si2 0.996514 0.760879 0.973556
Si Si3 0.180026 0.898274 0.127868
Si Si4 0.831293 0.227893 0.745423
Si Si5 0.748523 0.409660 0.499086
Si Si6 0.022120 0.210492 0.299607
Si Si7 0.828311 0.001204 0.758385
Si Si8 0.578076 0.894202 0.659363
O O1 0.080876 0.766144 0.628762
O O2 0.073903 0.606220 0.503705
O O3 0.950770 0.782222 0.436873
O O4 0.832389 0.665591 0.610952
O O5 0.049037 0.746023 0.843960
O O6 0.825416 0.795939 0.990062
O O7 0.078805 0.858088 0.025447
O O8 0.032266 0.655561 0.038448
O O9 0.094564 0.875253 0.250538
O O10 0.201405 0.019446 0.109450
O O11 0.688406 0.303815 0.745986
O O12 0.763283 0.115049 0.751177
O O13 0.703213 0.470461 0.387549
O O14 0.953757 0.317793 0.262420
O O15 0.752963 0.923486 0.667227
O O16 0.000000 0.000000 0.728191
O O17 0.500000 0.000000 0.681661
#
# Coordination Sequence:
#
# PCOD8172117 Si02
#       8
#     4   4   4   4   4   4   4   4
#     4  12  26  42  74 109 149 191 246 304 372 437
#     4  11  24  42  72 104 142 189 241 300 363 438
#     4  11  24  43  72 106 145 188 243 304 364 431
#     4  12  25  44  69 107 147 194 244 298 369 434
#     4  12  23  45  72 108 139 190 247 302 361 437
#     4  11  24  46  70 107 148 188 239 307 366 437
#     4  12  23  38  70 104 137 184 250 299 345 436
#     4  11  24  43  68 101 140 188 240 297 365 423
#
# _framework density 23.213446000000001
#
# number of rings (size 3 to 8) (size 9 to 14) (size 15 to 20)
#    0.000    0.500    6.250    2.250    5.250    0.000 
#    0.000    2.500    0.000    4.500    0.000    0.000 
#    0.000    0.000    0.000    0.000    0.000    0.000 
#
# Total GULP energy -396507.613503 kJ/mol
# GULP energy per Si atom -12390.862922 kJ/mol
# Density = 2.316061 g / cm^3
# Si number density = 23.213446 Si / 1000 Ang^3
#
#
#
# Elastic Constant Matrix: (Units=GPa)
#
#
# Indices 1 2 3 4 5 6 
#
# 1 102.4663 6.7262 33.7682 0.0000 0.0000 0.0000
# 2 6.7262 70.9880 27.6740 0.0000 0.0000 0.0000
# 3 33.7682 27.6740 102.7448 0.0000 0.0000 0.0000
# 4 0.0000 0.0000 0.0000 36.2476 0.0000 0.0000
# 5 0.0000 0.0000 0.0000 0.0000 27.6183 0.0000
# 6 0.0000 0.0000 0.0000 0.0000 0.0000 10.9842
#
#
#
# Elastic Compliance Matrix: (Units=1/GPa)
#
#
# Indices 1 2 3 4 5 6 
#
# 1 0.010955 0.000409 -0.003711 0.000000 0.000000 0.000000
# 2 0.000409 0.015755 -0.004378 0.000000 0.000000 0.000000
# 3 -0.003711 -0.004378 0.012132 0.000000 0.000000 0.000000
# 4 0.000000 0.000000 0.000000 0.027588 0.000000 0.000000
# 5 0.000000 0.000000 0.000000 0.000000 0.036208 0.000000
# 6 0.000000 0.000000 0.000000 0.000000 0.000000 0.091040
#
#
# Mechanical properties :
#
#
# Convention : Reuss Voigt Hill
#
# Bulk Modulus (GPa) = 42.58595 45.83732 44.21163
# Shear Modulus (GPa) = 23.05588 28.83875 25.94731
#
# Velocity S-wave (km/s) = 3.15495 3.52849 3.34694
# Velocity P-wave (km/s) = 5.62644 6.03235 5.83292
#
# Compressibility (1/GPa) = 0.02348193
#
# Stress axis : x y z
#
# Youngs Moduli (GPa) = 91.27965 63.47267 82.42979
#
# Poissons Ratio (x) = -0.02593 0.30587
# Poissons Ratio (y) = -0.03729 0.36086
# Poissons Ratio (z) = 0.33871 0.27787
#
# Static dielectric constant tensor:
#      x y z
#    x 4.934290 0.000000 0.000000 
#    y 0.000000 4.128950 0.000000 
#    z 0.000000 0.000000 4.045340 
# 
# 
# High freq. dielectric constant tensor:
#      x y z
#    x 1.940490 0.000000 0.000000 
#    y 0.000000 1.900280 0.000000 
#    z 0.000000 0.000000 1.903740 
# 
# From -- ./inp_files/5084.got.cif
#   From: 2010.03.12/outbox.cif.g09.slc.cpg/sg34_3_cif.got.tgz:5084.got - 2010.04.14 01:56:33.
