data_PCOD8172720
_publ_section_title
;
Structure prediction by ZEFSAII (Michael W. Deem and Ramdas Pophale) SiO2 
 PCOD8172720
Probable space group: C M M 2
;
_chemical_formula_sum "Si O2"
_cell_formula_units_Z 64
_cell_length_a 8.970869
_cell_length_b 19.043550
_cell_length_c 20.406831
_cell_angle_alpha 90.000000
_cell_angle_beta 90.000000
_cell_angle_gamma 90.000000
_cell_volume 3486.245713
_symmetry_space_group_name_H-M "C M M 2"
_symmetry_group_IT_number 35
_symmetry_cell_setting 'orthorhombic'
loop_
_space_group_symop_operation_xyz
x,y,z
-x,-y,z
-x,y,z
x,-y,z
1/2+x,1/2+y,z
1/2-x,1/2-y,z
1/2-x,1/2+y,z
1/2+x,1/2-y,z
loop_
_atom_site_type_symbol
_atom_site_label
_atom_site_fract_x
_atom_site_fract_y
_atom_site_fract_z
Si Si1 0.175134 0.825421 0.326130
Si Si2 0.828352 0.822978 0.467613
Si Si3 0.672776 0.082544 0.719753
Si Si4 0.826023 0.678296 0.953595
Si Si5 0.823938 0.173712 0.609881
Si Si6 0.170787 0.082826 0.852432
Si Si7 0.326372 0.821830 0.106007
Si Si8 0.324126 0.580673 0.206555
O O1 0.250000 0.750000 0.315889
O O2 0.214012 0.860176 0.398182
O O3 0.233182 0.879538 0.271651
O O4 0.000000 0.813725 0.318475
O O5 0.750000 0.750000 0.467941
O O6 0.790336 0.860303 0.537117
O O7 0.000000 0.804863 0.466796
O O8 0.500000 0.103339 0.721548
O O9 0.752918 0.119940 0.659976
O O10 0.747847 0.109155 0.786746
O O11 0.696355 0.000000 0.710532
O O12 0.750000 0.750000 0.929684
O O13 0.752785 0.614318 0.915141
O O14 0.000000 0.682482 0.937851
O O15 0.794418 0.665027 0.029810
O O16 0.750000 0.250000 0.617720
O O17 0.000000 0.180724 0.622902
O O18 0.000000 0.107895 0.850017
O O19 0.183635 0.000000 0.859502
O O20 0.500000 0.815594 0.121550
O O21 0.250000 0.750000 0.130358
O O22 0.257149 0.887599 0.143563
O O23 0.500000 0.588759 0.196858
O O24 0.276588 0.500000 0.213309
#
# Coordination Sequence:
#
# PCOD8172720 Si02
#       8
#     8   8   8   8   8   8   8   8
#     4   9  17  31  51  74  99 131 172 213 257 308
#     4   8  15  28  47  72 100 130 166 210 257 305
#     4  10  21  37  55  75 103 139 176 214 257 306
#     4  10  21  37  57  81 108 136 169 211 258 306
#     4  10  19  32  52  78 106 135 171 215 261 308
#     4  10  21  37  57  80 106 137 173 212 254 304
#     4  10  21  37  57  79 104 136 173 213 256 306
#     4  10  21  35  51  74 106 141 175 214 258 304
#
# _framework density 18.357856999999999
#
# number of rings (size 3 to 8) (size 9 to 14) (size 15 to 20)
#    0.000    2.375    0.000    2.250    0.000    6.250 
#    0.000    5.625    0.000    2.250    0.000    0.000 
#    0.000    0.000    0.000    0.000    0.000    0.000 
#
# Total GULP energy -396655.347694 kJ/mol
# GULP energy per Si atom -12395.479615 kJ/mol
# Density = 1.831607 g / cm^3
# Si number density = 18.357857 Si / 1000 Ang^3
#
#
#
# Elastic Constant Matrix: (Units=GPa)
#
#
# Indices 1 2 3 4 5 6 
#
# 1 94.6912 45.1505 63.2082 0.0000 0.0000 0.0000
# 2 45.1505 76.0540 62.4443 0.0000 0.0000 0.0000
# 3 63.2082 62.4443 126.8154 0.0000 0.0000 0.0000
# 4 0.0000 0.0000 0.0000 10.8775 0.0000 0.0000
# 5 0.0000 0.0000 0.0000 0.0000 28.6890 0.0000
# 6 0.0000 0.0000 0.0000 0.0000 0.0000 30.0037
#
#
#
# Elastic Compliance Matrix: (Units=1/GPa)
#
#
# Indices 1 2 3 4 5 6 
#
# 1 0.016994 -0.005261 -0.005880 0.000000 0.000000 0.000000
# 2 -0.005261 0.023701 -0.009048 0.000000 0.000000 0.000000
# 3 -0.005880 -0.009048 0.015271 0.000000 0.000000 0.000000
# 4 0.000000 0.000000 0.000000 0.091933 0.000000 0.000000
# 5 0.000000 0.000000 0.000000 0.000000 0.034857 0.000000
# 6 0.000000 0.000000 0.000000 0.000000 0.000000 0.033329
#
#
# Mechanical properties :
#
#
# Convention : Reuss Voigt Hill
#
# Bulk Modulus (GPa) = 64.15023 71.01850 67.58437
# Shear Modulus (GPa) = 19.10884 22.36454 20.73669
#
# Velocity S-wave (km/s) = 3.22981 3.49414 3.36457
# Velocity P-wave (km/s) = 6.99493 7.41945 7.21032
#
# Compressibility (1/GPa) = 0.01558841
#
# Stress axis : x y z
#
# Youngs Moduli (GPa) = 58.84403 42.19254 65.48227
#
# Poissons Ratio (x) = 0.22199 0.38501
# Poissons Ratio (y) = 0.30959 0.59248
# Poissons Ratio (z) = 0.34598 0.38176
#
# Static dielectric constant tensor:
#      x y z
#    x 3.504100 0.000000 0.000000 
#    y 0.000000 3.137970 0.000000 
#    z 0.000000 0.000000 3.917400 
# 
# 
# High freq. dielectric constant tensor:
#      x y z
#    x 1.721730 0.000000 0.000000 
#    y 0.000000 1.685570 0.000000 
#    z 0.000000 0.000000 1.732010 
# 
# From -- ./inp_files/18317.got.cif
#   From: 2010.03.12/outbox.cif.g09.slc.cpg/sg35_10_cif.got.tgz:18317.got - 2010.04.14 02:02:04.
