data_PCOD8172141
_publ_section_title
;
Structure prediction by ZEFSAII (Michael W. Deem and Ramdas Pophale) SiO2 
 PCOD8172141
Probable space group: P N N 2
;
_chemical_formula_sum "Si O2"
_cell_formula_units_Z 20
_cell_length_a 14.845360
_cell_length_b 8.601354
_cell_length_c 6.102966
_cell_angle_alpha 90.000000
_cell_angle_beta 90.000000
_cell_angle_gamma 90.000000
_cell_volume 779.288928
_symmetry_space_group_name_H-M "P N N 2"
_symmetry_group_IT_number 34
_symmetry_cell_setting 'orthorhombic'
loop_
_space_group_symop_operation_xyz
x,y,z
-x,-y,z
1/2-x,1/2+y,1/2+z
1/2+x,1/2-y,1/2+z
loop_
_atom_site_type_symbol
_atom_site_label
_atom_site_fract_x
_atom_site_fract_y
_atom_site_fract_z
Si Si1 0.910039 0.118104 0.093270
Si Si2 0.984416 0.831869 0.487147
Si Si3 0.752485 0.587627 0.904635
Si Si4 0.330932 0.607258 0.264281
Si Si5 0.084061 0.604792 0.788157
O O1 0.842598 0.073236 0.286559
O O2 0.006828 0.145308 0.221182
O O3 0.887667 0.281054 0.983283
O O4 0.904664 0.982028 0.913505
O O5 0.884204 0.791222 0.576172
O O6 0.056725 0.702659 0.570566
O O7 0.000000 0.000000 0.599589
O O8 0.778100 0.770150 0.918061
O O9 0.827463 0.499948 0.756876
O O10 0.738646 0.514156 0.147863
O O11 0.000000 0.500000 0.863995
#
# Coordination Sequence:
#
# PCOD8172141 Si02
#       5
#     4   4   4   4   4
#     4  12  28  47  79 112 154 201 267 313 400 470
#     4  12  26  47  75 111 149 206 257 319 388 474
#     4  12  27  49  79 116 154 208 256 336 394 475
#     4  12  28  51  80 113 162 202 271 322 408 474
#     4  12  27  48  73 114 157 200 261 322 391 475
#
# _framework density 25.66442
#
# number of rings (size 3 to 8) (size 9 to 14) (size 15 to 20)
#    0.000    0.000    8.000    0.000    8.400    0.800 
#    3.600    0.000    0.000    0.000    0.000    0.000 
#    0.000    0.000    0.000    0.000    0.000    0.000 
#
# Total GULP energy -247779.736467 kJ/mol
# GULP energy per Si atom -12388.986823 kJ/mol
# Density = 2.560601 g / cm^3
# Si number density = 25.664420 Si / 1000 Ang^3
#
#
#
# Elastic Constant Matrix: (Units=GPa)
#
#
# Indices 1 2 3 4 5 6 
#
# 1 90.5306 34.3543 38.3947 0.0000 0.0000 0.0000
# 2 34.3543 141.2106 64.7198 0.0000 0.0000 0.0000
# 3 38.3947 64.7198 121.5895 0.0000 0.0000 0.0000
# 4 0.0000 0.0000 0.0000 34.3024 0.0000 0.0000
# 5 0.0000 0.0000 0.0000 0.0000 34.0671 0.0000
# 6 0.0000 0.0000 0.0000 0.0000 0.0000 50.8484
#
#
#
# Elastic Compliance Matrix: (Units=1/GPa)
#
#
# Indices 1 2 3 4 5 6 
#
# 1 0.013056 -0.001702 -0.003217 0.000000 0.000000 0.000000
# 2 -0.001702 0.009589 -0.004566 0.000000 0.000000 0.000000
# 3 -0.003217 -0.004566 0.011671 0.000000 0.000000 0.000000
# 4 0.000000 0.000000 0.000000 0.029152 0.000000 0.000000
# 5 0.000000 0.000000 0.000000 0.000000 0.029354 0.000000
# 6 0.000000 0.000000 0.000000 0.000000 0.000000 0.019666
#
#
# Mechanical properties :
#
#
# Convention : Reuss Voigt Hill
#
# Bulk Modulus (GPa) = 65.16752 69.80758 67.48755
# Shear Modulus (GPa) = 36.61031 38.23435 37.42233
#
# Velocity S-wave (km/s) = 3.78100 3.86395 3.82270
# Velocity P-wave (km/s) = 6.67148 6.86775 6.77033
#
# Compressibility (1/GPa) = 0.01534507
#
# Stress axis : x y z
#
# Youngs Moduli (GPa) = 76.59233 104.29097 85.68413
#
# Poissons Ratio (x) = 0.17750 0.27563
# Poissons Ratio (y) = 0.13036 0.39126
# Poissons Ratio (z) = 0.24638 0.47623
#
# Static dielectric constant tensor:
#      x y z
#    x 4.610560 0.000000 0.000000 
#    y 0.000000 4.807870 0.000000 
#    z 0.000000 0.000000 4.383350 
# 
# 
# High freq. dielectric constant tensor:
#      x y z
#    x 2.027900 0.000000 0.000000 
#    y 0.000000 2.035150 0.000000 
#    z 0.000000 0.000000 2.014630 
# 
# From -- ./inp_files/1390.got.cif
#   From: 2010.03.12/outbox.cif.g09.slc.cpg/sg34_1_cif.got.tgz:1390.got - 2010.04.14 01:56:33.
