data_PCOD8172032
_publ_section_title
;
Structure prediction by ZEFSAII (Michael W. Deem and Ramdas Pophale) SiO2 
 PCOD8172032
Probable space group: P N N 2
;
_chemical_formula_sum "Si O2"
_cell_formula_units_Z 32
_cell_length_a 8.527871
_cell_length_b 11.939355
_cell_length_c 15.073138
_cell_angle_alpha 90.000000
_cell_angle_beta 90.000000
_cell_angle_gamma 90.000000
_cell_volume 1534.705901
_symmetry_space_group_name_H-M "P N N 2"
_symmetry_group_IT_number 34
_symmetry_cell_setting 'orthorhombic'
loop_
_space_group_symop_operation_xyz
x,y,z
-x,-y,z
1/2-x,1/2+y,1/2+z
1/2+x,1/2-y,1/2+z
loop_
_atom_site_type_symbol
_atom_site_label
_atom_site_fract_x
_atom_site_fract_y
_atom_site_fract_z
Si Si1 0.690826 0.882322 0.932610
Si Si2 0.676270 0.001587 0.493521
Si Si3 0.824183 0.735178 0.777240
Si Si4 0.678005 0.235261 0.582419
Si Si5 0.681195 0.779190 0.590831
Si Si6 0.680575 0.496031 0.814681
Si Si7 0.325596 0.858680 0.929826
Si Si8 0.312935 0.230433 0.266497
O O1 0.742551 0.823666 0.841681
O O2 0.509462 0.855841 0.948616
O O3 0.730906 0.013207 0.923155
O O4 0.781565 0.839353 0.019307
O O5 0.714588 0.124355 0.527308
O O6 0.800617 0.967328 0.418458
O O7 0.500000 0.000000 0.453621
O O8 0.693087 0.911030 0.570951
O O9 0.789269 0.760545 0.675348
O O10 0.765675 0.611600 0.796676
O O11 0.008214 0.742735 0.795701
O O12 0.498594 0.249618 0.613104
O O13 0.787007 0.222597 0.668292
O O14 0.736467 0.703152 0.509270
O O15 0.500000 0.500000 0.787244
O O16 0.763597 0.399187 0.758767
O O17 0.292299 0.797090 0.837109
#
# Coordination Sequence:
#
# PCOD8172032 Si02
#       8
#     4   4   4   4   4   4   4   4
#     4  11  25  45  67  95 134 174 218 271 328 388
#     4  10  22  42  68  97 130 167 210 270 332 386
#     4  12  26  44  67  97 134 172 220 271 327 389
#     4  11  24  43  68  98 133 171 217 269 329 390
#     4  11  24  43  68  98 133 171 217 269 329 390
#     4  12  24  42  70  97 128 169 220 270 328 390
#     4  11  25  45  67  95 134 174 218 271 328 388
#     4  12  26  44  67  97 134 172 220 271 327 389
#
# _framework density 20.850898999999998
#
# number of rings (size 3 to 8) (size 9 to 14) (size 15 to 20)
#    0.000    0.750    2.500    4.875    3.500    3.000 
#    0.000    0.000    0.000    0.000    0.000    0.000 
#    0.000    0.000    0.000    0.000    0.000    0.000 
#
# Total GULP energy -396998.255797 kJ/mol
# GULP energy per Si atom -12406.195494 kJ/mol
# Density = 2.080344 g / cm^3
# Si number density = 20.850899 Si / 1000 Ang^3
#
#
#
# Elastic Constant Matrix: (Units=GPa)
#
#
# Indices 1 2 3 4 5 6 
#
# 1 76.5384 30.1649 5.2914 0.0000 0.0000 0.0000
# 2 30.1649 99.0090 12.6179 0.0000 0.0000 0.0000
# 3 5.2914 12.6179 90.2828 0.0000 0.0000 0.0000
# 4 0.0000 0.0000 0.0000 8.2237 0.0000 0.0000
# 5 0.0000 0.0000 0.0000 0.0000 47.2403 0.0000
# 6 0.0000 0.0000 0.0000 0.0000 0.0000 32.9154
#
#
#
# Elastic Compliance Matrix: (Units=1/GPa)
#
#
# Indices 1 2 3 4 5 6 
#
# 1 0.014853 -0.004494 -0.000242 0.000000 0.000000 0.000000
# 2 -0.004494 0.011643 -0.001364 0.000000 0.000000 0.000000
# 3 -0.000242 -0.001364 0.011281 0.000000 0.000000 0.000000
# 4 0.000000 0.000000 0.000000 0.121599 0.000000 0.000000
# 5 0.000000 0.000000 0.000000 0.000000 0.021168 0.000000
# 6 0.000000 0.000000 0.000000 0.000000 0.000000 0.030381
#
#
# Mechanical properties :
#
#
# Convention : Reuss Voigt Hill
#
# Bulk Modulus (GPa) = 39.09862 40.21984 39.65923
# Shear Modulus (GPa) = 21.58399 32.19294 26.88847
#
# Velocity S-wave (km/s) = 3.22088 3.93359 3.59494
# Velocity P-wave (km/s) = 5.71177 6.32155 6.02438
#
# Compressibility (1/GPa) = 0.02557635
#
# Stress axis : x y z
#
# Youngs Moduli (GPa) = 67.32457 85.88686 88.64360
#
# Poissons Ratio (x) = 0.38602 0.02149
# Poissons Ratio (y) = 0.30259 0.12090
# Poissons Ratio (z) = 0.01632 0.11714
#
# Static dielectric constant tensor:
#      x y z
#    x 3.221890 0.000000 0.000000 
#    y 0.000000 3.882200 0.000000 
#    z 0.000000 0.000000 3.811900 
# 
# 
# High freq. dielectric constant tensor:
#      x y z
#    x 1.825590 0.000000 0.000000 
#    y 0.000000 1.831770 0.000000 
#    z 0.000000 0.000000 1.821620 
# 
# From -- ./inp_files/6562.got.cif
#   From: 2010.03.12/outbox.cif.g09.slc.cpg/sg34_4_cif.got.tgz:6562.got - 2010.04.14 01:56:33.
