data_PCOD8172541
_publ_section_title
;
Structure prediction by ZEFSAII (Michael W. Deem and Ramdas Pophale) SiO2 
 PCOD8172541
Probable space group: C M M 2
;
_chemical_formula_sum "Si O2"
_cell_formula_units_Z 48
_cell_length_a 19.272975
_cell_length_b 10.426643
_cell_length_c 14.031091
_cell_angle_alpha 90.000000
_cell_angle_beta 90.000000
_cell_angle_gamma 90.000000
_cell_volume 2819.581830
_symmetry_space_group_name_H-M "C M M 2"
_symmetry_group_IT_number 35
_symmetry_cell_setting 'orthorhombic'
loop_
_space_group_symop_operation_xyz
x,y,z
-x,-y,z
-x,y,z
x,-y,z
1/2+x,1/2+y,z
1/2-x,1/2-y,z
1/2-x,1/2+y,z
1/2+x,1/2-y,z
loop_
_atom_site_type_symbol
_atom_site_label
_atom_site_fract_x
_atom_site_fract_y
_atom_site_fract_z
Si Si1 0.823652 0.637605 0.287810
Si Si2 0.803916 0.854411 0.614789
Si Si3 0.420316 0.854870 0.918169
Si Si4 0.823652 0.137605 0.394937
Si Si5 0.420316 0.354870 0.764579
Si Si6 0.303916 0.854411 0.067958
O O1 0.861954 0.500000 0.296665
O O2 0.867327 0.750000 0.341374
O O3 0.750000 0.628492 0.341374
O O4 0.815794 0.675637 0.178329
O O5 0.750000 0.750000 0.656243
O O6 0.815794 0.824363 0.504418
O O7 0.876289 0.836058 0.669005
O O8 0.775325 0.000000 0.628809
O O9 0.500000 0.830101 0.946254
O O10 0.395212 0.750000 0.841374
O O11 0.410281 0.000000 0.877461
O O12 0.376289 0.836058 0.013742
O O13 0.861953 0.000000 0.386082
O O14 0.500000 0.330101 0.736493
O O15 0.410281 0.500000 0.805287
O O16 0.250000 0.750000 0.026505
O O17 0.275325 0.000000 0.053938
#
# Coordination Sequence:
#
# PCOD8172541 Si02
#       6
#     8   8   8   8   8   8
#     4   9  15  25  42  66  93 123 155 188 228 278
#     4  10  19  30  48  75 100 124 158 200 242 281
#     4   9  19  36  54  70  93 128 165 198 238 288
#     4   9  15  25  42  66  93 123 155 188 228 278
#     4   9  19  36  54  70  93 128 165 198 238 288
#     4  10  19  30  48  75 100 124 158 200 242 281
#
# _framework density 17.023800000000001
#
# number of rings (size 3 to 8) (size 9 to 14) (size 15 to 20)
#    0.000    2.667    3.333    0.000    0.000    2.000 
#    0.000    3.333    0.000    1.000    0.000    0.000 
#    0.000    0.000    0.000    0.000    0.000    0.000 
#
# Total GULP energy -297326.048242 kJ/mol
# GULP energy per Si atom -12388.585343 kJ/mol
# Density = 1.698505 g / cm^3
# Si number density = 17.023800 Si / 1000 Ang^3
#
#
#
# Elastic Constant Matrix: (Units=GPa)
#
#
# Indices 1 2 3 4 5 6 
#
# 1 47.6005 43.1965 43.6879 0.0000 0.0000 0.0000
# 2 43.1965 144.1643 54.2692 0.0000 0.0000 0.0000
# 3 43.6879 54.2692 105.2806 0.0000 0.0000 0.0000
# 4 0.0000 0.0000 0.0000 29.8744 0.0000 0.0000
# 5 0.0000 0.0000 0.0000 0.0000 11.4944 0.0000
# 6 0.0000 0.0000 0.0000 0.0000 0.0000 17.0091
#
#
#
# Elastic Compliance Matrix: (Units=1/GPa)
#
#
# Indices 1 2 3 4 5 6 
#
# 1 0.038772 -0.006900 -0.012532 0.000000 0.000000 0.000000
# 2 -0.006900 0.009834 -0.002206 0.000000 0.000000 0.000000
# 3 -0.012532 -0.002206 0.015836 0.000000 0.000000 0.000000
# 4 0.000000 0.000000 0.000000 0.033473 0.000000 0.000000
# 5 0.000000 0.000000 0.000000 0.000000 0.086999 0.000000
# 6 0.000000 0.000000 0.000000 0.000000 0.000000 0.058792
#
#
# Mechanical properties :
#
#
# Convention : Reuss Voigt Hill
#
# Bulk Modulus (GPa) = 47.24601 64.37249 55.80925
# Shear Modulus (GPa) = 17.00456 22.06837 19.53646
#
# Velocity S-wave (km/s) = 3.16392 3.60436 3.39130
# Velocity P-wave (km/s) = 6.41563 7.43083 6.94181
#
# Compressibility (1/GPa) = 0.02116581
#
# Stress axis : x y z
#
# Youngs Moduli (GPa) = 25.79200 101.68380 63.14646
#
# Poissons Ratio (x) = 0.70158 0.79138
# Poissons Ratio (y) = 0.17795 0.13932
# Poissons Ratio (z) = 0.32324 0.22434
#
# Static dielectric constant tensor:
#      x y z
#    x 2.786800 0.000000 0.000000 
#    y 0.000000 4.872170 0.000000 
#    z 0.000000 0.000000 3.122730 
# 
# 
# High freq. dielectric constant tensor:
#      x y z
#    x 1.599710 0.000000 0.000000 
#    y 0.000000 1.688630 0.000000 
#    z 0.000000 0.000000 1.654330 
# 
# From -- ./inp_files/13478.got.cif
#   From: 2010.03.12/outbox.cif.g09.slc.cpg/sg35_7_cif.got.tgz:13478.got - 2010.04.14 02:02:04.
