data_PCOD8172016
_publ_section_title
;
Structure prediction by ZEFSAII (Michael W. Deem and Ramdas Pophale) SiO2 
 PCOD8172016
Probable space group: P N N 2
;
_chemical_formula_sum "Si O2"
_cell_formula_units_Z 32
_cell_length_a 13.758360
_cell_length_b 16.592301
_cell_length_c 6.655057
_cell_angle_alpha 90.000000
_cell_angle_beta 90.000000
_cell_angle_gamma 90.000000
_cell_volume 1519.235381
_symmetry_space_group_name_H-M "P N N 2"
_symmetry_group_IT_number 34
_symmetry_cell_setting 'orthorhombic'
loop_
_space_group_symop_operation_xyz
x,y,z
-x,-y,z
1/2-x,1/2+y,1/2+z
1/2+x,1/2-y,1/2+z
loop_
_atom_site_type_symbol
_atom_site_label
_atom_site_fract_x
_atom_site_fract_y
_atom_site_fract_z
Si Si1 0.259186 0.029884 0.077480
Si Si2 0.498334 0.819384 0.648105
Si Si3 0.606084 0.038326 0.769889
Si Si4 0.072959 0.930179 0.163313
Si Si5 0.284409 0.675870 0.295035
Si Si6 0.002326 0.815750 0.834586
Si Si7 0.616361 0.721729 0.941253
Si Si8 0.334442 0.089308 0.484535
O O1 0.177408 0.969534 0.148687
O O2 0.305349 0.080254 0.256914
O O3 0.341857 0.973629 0.982279
O O4 0.217087 0.096639 0.930516
O O5 0.401117 0.866419 0.718801
O O6 0.477763 0.740729 0.522887
O O7 0.558272 0.797852 0.849765
O O8 0.555183 0.880465 0.500930
O O9 0.500000 0.000000 0.788330
O O10 0.672700 0.996128 0.599926
O O11 0.084624 0.860217 0.329381
O O12 0.000000 0.000000 0.241224
O O13 0.038047 0.897947 0.943634
O O14 0.397109 0.684705 0.229031
O O15 0.230708 0.752746 0.406571
O O16 0.231612 0.658864 0.084285
O O17 0.085761 0.787558 0.676732
#
# Coordination Sequence:
#
# PCOD8172016 Si02
#       8
#     4   4   4   4   4   4   4   4
#     4  11  22  39  65  88 129 173 212 263 326 380
#     4   9  20  39  57  89 127 151 206 264 317 383
#     4   9  20  37  60  95 127 157 211 266 317 391
#     4  11  25  43  59  94 129 166 222 269 310 394
#     4  10  22  40  60  91 122 163 221 264 320 388
#     4  11  23  40  66  86 124 173 208 266 331 377
#     4  10  24  41  62  91 124 165 215 268 321 392
#     4   9  20  36  59  87 121 164 200 257 316 380
#
# _framework density 21.063227999999999
#
# number of rings (size 3 to 8) (size 9 to 14) (size 15 to 20)
#    0.000    2.000    1.250    1.500    1.750    8.000 
#    0.000    0.000    0.000    0.000    0.000    0.000 
#    0.000    0.000    0.000    0.000    0.000    0.000 
#
# Total GULP energy -396563.103733 kJ/mol
# GULP energy per Si atom -12392.596992 kJ/mol
# Density = 2.101529 g / cm^3
# Si number density = 21.063228 Si / 1000 Ang^3
#
#
#
# Elastic Constant Matrix: (Units=GPa)
#
#
# Indices 1 2 3 4 5 6 
#
# 1 63.7942 9.4202 6.0059 0.0000 0.0000 0.0000
# 2 9.4202 79.2233 7.4242 0.0000 0.0000 0.0000
# 3 6.0059 7.4242 65.8576 0.0000 0.0000 0.0000
# 4 0.0000 0.0000 0.0000 31.0074 0.0000 0.0000
# 5 0.0000 0.0000 0.0000 0.0000 22.0428 0.0000
# 6 0.0000 0.0000 0.0000 0.0000 0.0000 30.6429
#
#
#
# Elastic Compliance Matrix: (Units=1/GPa)
#
#
# Indices 1 2 3 4 5 6 
#
# 1 0.016059 -0.001791 -0.001263 0.000000 0.000000 0.000000
# 2 -0.001791 0.012957 -0.001297 0.000000 0.000000 0.000000
# 3 -0.001263 -0.001297 0.015446 0.000000 0.000000 0.000000
# 4 0.000000 0.000000 0.000000 0.032250 0.000000 0.000000
# 5 0.000000 0.000000 0.000000 0.000000 0.045366 0.000000
# 6 0.000000 0.000000 0.000000 0.000000 0.000000 0.032634
#
#
# Mechanical properties :
#
#
# Convention : Reuss Voigt Hill
#
# Bulk Modulus (GPa) = 27.96466 28.28618 28.12542
# Shear Modulus (GPa) = 28.51698 29.14028 28.82863
#
# Velocity S-wave (km/s) = 3.68350 3.72353 3.70357
# Velocity P-wave (km/s) = 5.60323 5.65196 5.62765
#
# Compressibility (1/GPa) = 0.03575942
#
# Stress axis : x y z
#
# Youngs Moduli (GPa) = 62.27125 77.17770 64.74313
#
# Poissons Ratio (x) = 0.13824 0.08174
# Poissons Ratio (y) = 0.11154 0.08399
# Poissons Ratio (z) = 0.07862 0.10012
#
# Static dielectric constant tensor:
#      x y z
#    x 3.858580 0.000000 0.000000 
#    y 0.000000 4.023900 0.000000 
#    z 0.000000 0.000000 3.679890 
# 
# 
# High freq. dielectric constant tensor:
#      x y z
#    x 1.819690 0.000000 0.000000 
#    y 0.000000 1.829030 0.000000 
#    z 0.000000 0.000000 1.814720 
# 
# From -- ./inp_files/1316.got.cif
#   From: 2010.03.12/outbox.cif.g09.slc.cpg/sg34_1_cif.got.tgz:1316.got - 2010.04.14 01:56:33.
