data_PCOD8172992
_publ_section_title
;
Structure prediction by ZEFSAII (Michael W. Deem and Ramdas Pophale) SiO2 
 PCOD8172992
Probable space group: C M M 2
;
_chemical_formula_sum "Si O2"
_cell_formula_units_Z 64
_cell_length_a 30.091637
_cell_length_b 9.117034
_cell_length_c 15.282381
_cell_angle_alpha 90.000000
_cell_angle_beta 90.000000
_cell_angle_gamma 90.000000
_cell_volume 4192.667397
_symmetry_space_group_name_H-M "C M M 2"
_symmetry_group_IT_number 35
_symmetry_cell_setting 'orthorhombic'
loop_
_space_group_symop_operation_xyz
x,y,z
-x,-y,z
-x,y,z
x,-y,z
1/2+x,1/2+y,z
1/2-x,1/2-y,z
1/2-x,1/2+y,z
1/2+x,1/2-y,z
loop_
_atom_site_type_symbol
_atom_site_label
_atom_site_fract_x
_atom_site_fract_y
_atom_site_fract_z
Si Si1 0.947907 0.330500 0.080240
Si Si2 0.052715 0.338500 0.886318
Si Si3 0.052604 0.839061 0.724914
Si Si4 0.709264 0.339710 0.203059
Si Si5 0.112150 0.824890 0.216884
Si Si6 0.051944 0.828692 0.530053
Si Si7 0.116898 0.675460 0.400194
Si Si8 0.707363 0.665470 0.410462
O O1 0.933349 0.500000 0.093449
O O2 0.924256 0.222409 0.147264
O O3 0.000000 0.315337 0.096883
O O4 0.935342 0.274735 0.982287
O O5 0.072994 0.500000 0.879338
O O6 0.074125 0.250296 0.805397
O O7 0.000000 0.344505 0.876879
O O8 0.063702 0.775463 0.628877
O O9 0.000000 0.846536 0.736154
O O10 0.073374 0.000000 0.732072
O O11 0.714039 0.500000 0.162033
O O12 0.750000 0.250000 0.161353
O O13 0.660593 0.275843 0.179762
O O14 0.713217 0.344983 0.307080
O O15 0.102697 0.741146 0.306907
O O16 0.110777 0.000000 0.233757
O O17 0.078653 0.721892 0.466902
O O18 0.000000 0.806978 0.510657
O O19 0.064721 0.000000 0.516820
O O20 0.120686 0.500000 0.394280
O O21 0.163347 0.742760 0.433969
O O22 0.704133 0.500000 0.449353
O O23 0.750000 0.750000 0.450977
#
# Coordination Sequence:
#
# PCOD8172992 Si02
#       8
#     8   8   8   8   8   8   8   8
#     4   9  18  31  44  60  84 114 147 179 210 248
#     4   8  14  25  41  60  82 106 132 168 213 254
#     4   8  14  25  42  62  81 103 134 172 214 257
#     4   8  15  26  41  60  79 100 129 166 208 251
#     4  10  20  32  44  60  83 112 146 181 214 250
#     4   9  18  32  46  60  83 115 148 182 217 252
#     4  11  21  31  44  62  85 115 149 182 216 255
#     4   9  16  28  45  64  85 108 137 174 216 258
#
# _framework density 15.264746000000001
#
# number of rings (size 3 to 8) (size 9 to 14) (size 15 to 20)
#    0.000    3.000    0.000    4.125    0.000    5.500 
#    0.000    2.500    0.000    0.000    0.000    0.000 
#    0.000    1.000    0.000    9.000    0.000    7.250 
#
# Total GULP energy -396523.321931 kJ/mol
# GULP energy per Si atom -12391.353810 kJ/mol
# Density = 1.523000 g / cm^3
# Si number density = 15.264746 Si / 1000 Ang^3
#
#
#
# Elastic Constant Matrix: (Units=GPa)
#
#
# Indices 1 2 3 4 5 6 
#
# 1 61.0881 41.1581 42.0479 0.0000 0.0000 0.0000
# 2 41.1581 95.3326 49.1133 0.0000 0.0000 0.0000
# 3 42.0479 49.1133 83.0739 0.0000 0.0000 0.0000
# 4 0.0000 0.0000 0.0000 25.3302 0.0000 0.0000
# 5 0.0000 0.0000 0.0000 0.0000 -0.8813 0.0000
# 6 0.0000 0.0000 0.0000 0.0000 0.0000 23.4967
#
#
#
# Elastic Compliance Matrix: (Units=1/GPa)
#
#
# Indices 1 2 3 4 5 6 
#
# 1 0.027934 -0.006868 -0.010079 0.000000 0.000000 0.000000
# 2 -0.006868 0.016772 -0.006440 0.000000 0.000000 0.000000
# 3 -0.010079 -0.006440 0.020946 0.000000 0.000000 0.000000
# 4 0.000000 0.000000 0.000000 0.039478 0.000000 0.000000
# 5 0.000000 0.000000 0.000000 0.000000 -1.134676 0.000000
# 6 0.000000 0.000000 0.000000 0.000000 0.000000 0.042559
#
#
# Mechanical properties :
#
#
# Convention : Reuss Voigt Hill
#
# Bulk Modulus (GPa) = 52.96551 56.01479 54.49015
# Shear Modulus (GPa) = -5.35377 16.73414 5.69019
#
# Velocity S-wave (km/s) = -1.87481 3.31458 1.93281
# Velocity P-wave (km/s) = 5.48514 7.17103 6.38398
#
# Compressibility (1/GPa) = 0.01888021
#
# Stress axis : x y z
#
# Youngs Moduli (GPa) = 35.79823 59.62258 47.74198
#
# Poissons Ratio (x) = 0.40947 0.48118
# Poissons Ratio (y) = 0.24585 0.30744
# Poissons Ratio (z) = 0.36080 0.38394
#
# Static dielectric constant tensor:
#      x y z
#    x 2.810390 0.000000 0.000000 
#    y 0.000000 3.154490 0.000000 
#    z 0.000000 0.000000 2.814290 
# 
# 
# High freq. dielectric constant tensor:
#      x y z
#    x 1.557270 0.000000 0.000000 
#    y 0.000000 1.591340 0.000000 
#    z 0.000000 0.000000 1.557430 
# 
# From -- ./inp_files/17763.got.cif
#   From: 2010.03.12/outbox.cif.g09.slc.cpg/sg35_9_cif.got.tgz:17763.got - 2010.04.14 02:02:04.
