data_PCOD8172624
_publ_section_title
;
Structure prediction by ZEFSAII (Michael W. Deem and Ramdas Pophale) SiO2 
 PCOD8172624
Probable space group: C M M 2
;
_chemical_formula_sum "Si O2"
_cell_formula_units_Z 64
_cell_length_a 9.442594
_cell_length_b 29.094759
_cell_length_c 12.216269
_cell_angle_alpha 90.000000
_cell_angle_beta 90.000000
_cell_angle_gamma 90.000000
_cell_volume 3356.175543
_symmetry_space_group_name_H-M "C M M 2"
_symmetry_group_IT_number 35
_symmetry_cell_setting 'orthorhombic'
loop_
_space_group_symop_operation_xyz
x,y,z
-x,-y,z
-x,y,z
x,-y,z
1/2+x,1/2+y,z
1/2-x,1/2-y,z
1/2-x,1/2+y,z
1/2+x,1/2-y,z
loop_
_atom_site_type_symbol
_atom_site_label
_atom_site_fract_x
_atom_site_fract_y
_atom_site_fract_z
Si Si1 0.161753 0.591211 0.200410
Si Si2 0.162852 0.207410 0.495129
Si Si3 0.662722 0.883613 0.959399
Si Si4 0.333708 0.946556 0.755320
Si Si5 0.335899 0.294059 0.013040
Si Si6 0.840407 0.177140 0.254736
Si Si7 0.658307 0.449964 0.366454
Si Si8 0.833841 0.107948 0.571298
O O1 0.226812 0.637308 0.249385
O O2 0.242405 0.549611 0.259335
O O3 0.000000 0.589570 0.235276
O O4 0.182405 0.587854 0.070807
O O5 0.250000 0.250000 0.544343
O O6 0.192760 0.205187 0.364796
O O7 0.207535 0.161619 0.562095
O O8 0.000000 0.217732 0.517393
O O9 0.500000 0.866479 0.947492
O O10 0.705069 0.920033 0.866790
O O11 0.765749 0.839518 0.959870
O O12 0.500000 0.944445 0.731182
O O13 0.253992 0.918736 0.661790
O O14 0.283880 0.000000 0.762015
O O15 0.500000 0.291819 0.975326
O O16 0.250000 0.250000 0.968097
O O17 0.325654 0.292524 0.145106
O O18 0.000000 0.156709 0.262184
O O19 0.500000 0.438987 0.326715
O O20 0.667644 0.500000 0.422103
O O21 0.708542 0.412886 0.454408
O O22 0.000000 0.101038 0.595479
#
# Coordination Sequence:
#
# PCOD8172624 Si02
#       8
#     8   8   8   8   8   8   8   8
#     4  10  19  31  52  81 113 147 183 228 274 328
#     4  10  20  34  54  80 112 149 186 225 272 328
#     4   9  20  38  57  80 113 150 187 230 285 339
#     4  10  22  41  64  86 108 140 185 239 293 339
#     4  10  19  31  53  83 116 153 192 233 275 327
#     4   9  17  32  51  74 111 155 190 223 268 328
#     4  10  20  35  55  78 110 150 184 221 279 343
#     4  10  21  39  60  81 111 148 187 231 279 335
#
# _framework density 19.069324000000002
#
# number of rings (size 3 to 8) (size 9 to 14) (size 15 to 20)
#    0.000    2.250    1.250    1.500    0.000    4.500 
#    0.000    1.875    0.000    1.500    0.000    0.000 
#    0.000    0.000    0.000    0.000    0.000    0.000 
#
# Total GULP energy -396674.368547 kJ/mol
# GULP energy per Si atom -12396.074017 kJ/mol
# Density = 1.902592 g / cm^3
# Si number density = 19.069324 Si / 1000 Ang^3
#
#
#
# Elastic Constant Matrix: (Units=GPa)
#
#
# Indices 1 2 3 4 5 6 
#
# 1 99.7570 67.8186 65.0545 0.0000 0.0000 0.0000
# 2 67.8186 143.4392 61.7765 0.0000 0.0000 0.0000
# 3 65.0545 61.7765 82.8372 0.0000 0.0000 0.0000
# 4 0.0000 0.0000 0.0000 10.6127 0.0000 0.0000
# 5 0.0000 0.0000 0.0000 0.0000 29.0141 0.0000
# 6 0.0000 0.0000 0.0000 0.0000 0.0000 33.1663
#
#
#
# Elastic Compliance Matrix: (Units=1/GPa)
#
#
# Indices 1 2 3 4 5 6 
#
# 1 0.022301 -0.004421 -0.014217 0.000000 0.000000 0.000000
# 2 -0.004421 0.011147 -0.004841 0.000000 0.000000 0.000000
# 3 -0.014217 -0.004841 0.026846 0.000000 0.000000 0.000000
# 4 0.000000 0.000000 0.000000 0.094227 0.000000 0.000000
# 5 0.000000 0.000000 0.000000 0.000000 0.034466 0.000000
# 6 0.000000 0.000000 0.000000 0.000000 0.000000 0.030151
#
#
# Mechanical properties :
#
#
# Convention : Reuss Voigt Hill
#
# Bulk Modulus (GPa) = 74.97665 79.48141 77.22903
# Shear Modulus (GPa) = 18.48147 23.31753 20.89950
#
# Velocity S-wave (km/s) = 3.11653 3.50062 3.31414
# Velocity P-wave (km/s) = 7.23558 7.62298 7.43181
#
# Compressibility (1/GPa) = 0.01333749
#
# Stress axis : x y z
#
# Youngs Moduli (GPa) = 44.84067 89.71218 37.24884
#
# Poissons Ratio (x) = 0.39664 0.52955
# Poissons Ratio (y) = 0.19825 0.18031
# Poissons Ratio (z) = 0.63748 0.43426
#
# Static dielectric constant tensor:
#      x y z
#    x 3.569370 0.000000 0.000000 
#    y 0.000000 3.481650 0.000000 
#    z 0.000000 0.000000 3.482890 
# 
# 
# High freq. dielectric constant tensor:
#      x y z
#    x 1.742130 0.000000 0.000000 
#    y 0.000000 1.743880 0.000000 
#    z 0.000000 0.000000 1.722780 
# 
# From -- ./inp_files/11829.got.cif
#   From: 2010.03.12/outbox.cif.g09.slc.cpg/sg35_6_cif.got.tgz:11829.got - 2010.04.14 02:02:04.
