data_PCOD8172901
_publ_section_title
;
Structure prediction by ZEFSAII (Michael W. Deem and Ramdas Pophale) SiO2 
 PCOD8172901
Probable space group: C M M 2
;
_chemical_formula_sum "Si O2"
_cell_formula_units_Z 56
_cell_length_a 14.004523
_cell_length_b 22.059123
_cell_length_c 8.652488
_cell_angle_alpha 90.000000
_cell_angle_beta 90.000000
_cell_angle_gamma 90.000000
_cell_volume 2672.991447
_symmetry_space_group_name_H-M "C M M 2"
_symmetry_group_IT_number 35
_symmetry_cell_setting 'orthorhombic'
loop_
_space_group_symop_operation_xyz
x,y,z
-x,-y,z
-x,y,z
x,-y,z
1/2+x,1/2+y,z
1/2-x,1/2-y,z
1/2-x,1/2+y,z
1/2+x,1/2-y,z
loop_
_atom_site_type_symbol
_atom_site_label
_atom_site_fract_x
_atom_site_fract_y
_atom_site_fract_z
Si Si1 0.605697 0.104245 0.103810
Si Si2 0.711635 0.432140 0.258508
Si Si3 0.247571 0.342552 0.520636
Si Si4 0.108336 0.643068 0.767808
Si Si5 0.109249 0.276895 0.292753
Si Si6 0.612611 0.667346 0.084412
Si Si7 0.610841 0.715237 0.758611
O O1 0.500000 0.077626 0.133918
O O2 0.679686 0.063216 0.197509
O O3 0.612073 0.173491 0.158509
O O4 0.629247 0.105369 0.922584
O O5 0.673003 0.500000 0.287609
O O6 0.703803 0.393177 0.414021
O O7 0.647977 0.399642 0.127639
O O8 0.180514 0.380818 0.637477
O O9 0.178696 0.294821 0.432520
O O10 0.331144 0.306613 0.608628
O O11 0.128695 0.714285 0.789821
O O12 0.000000 0.632078 0.713311
O O13 0.149564 0.214799 0.215647
O O14 0.000000 0.269399 0.355104
O O15 0.500000 0.671908 0.082499
O O16 0.650504 0.681749 0.912423
O O17 0.500000 0.700410 0.728814
#
# Coordination Sequence:
#
# PCOD8172901 Si02
#       7
#     8   8   8   8   8   8   8
#     4   9  18  37  64  89 119 154 190 238 298 360
#     4  11  26  42  57  81 116 162 215 256 286 333
#     4  11  23  35  57  89 124 161 191 237 298 361
#     4  10  19  34  57  92 128 150 179 229 301 377
#     4   9  18  35  59  92 123 150 184 235 303 368
#     4  10  21  40  64  87 117 154 199 250 299 351
#     4  10  21  37  59  92 127 155 184 234 301 371
#
# _framework density 20.950309000000001
#
# number of rings (size 3 to 8) (size 9 to 14) (size 15 to 20)
#    0.000    2.000    1.429    1.714    4.000    3.429 
#    0.000    2.857    0.000    1.714    0.000    0.000 
#    0.000    0.000    0.000    0.000    0.000    0.000 
#
# Total GULP energy -347213.274658 kJ/mol
# GULP energy per Si atom -12400.474095 kJ/mol
# Density = 2.090263 g / cm^3
# Si number density = 20.950309 Si / 1000 Ang^3
#
#
#
# Elastic Constant Matrix: (Units=GPa)
#
#
# Indices 1 2 3 4 5 6 
#
# 1 44.3321 14.7685 35.5429 0.0000 0.0000 0.0000
# 2 14.7685 81.7980 26.5151 0.0000 0.0000 0.0000
# 3 35.5429 26.5151 105.1752 0.0000 0.0000 0.0000
# 4 0.0000 0.0000 0.0000 15.6336 0.0000 0.0000
# 5 0.0000 0.0000 0.0000 0.0000 38.8721 0.0000
# 6 0.0000 0.0000 0.0000 0.0000 0.0000 16.2922
#
#
#
# Elastic Compliance Matrix: (Units=1/GPa)
#
#
# Indices 1 2 3 4 5 6 
#
# 1 0.031376 -0.002426 -0.009992 0.000000 0.000000 0.000000
# 2 -0.002426 0.013501 -0.002584 0.000000 0.000000 0.000000
# 3 -0.009992 -0.002584 0.013536 0.000000 0.000000 0.000000
# 4 0.000000 0.000000 0.000000 0.063965 0.000000 0.000000
# 5 0.000000 0.000000 0.000000 0.000000 0.025725 0.000000
# 6 0.000000 0.000000 0.000000 0.000000 0.000000 0.061379
#
#
# Mechanical properties :
#
#
# Convention : Reuss Voigt Hill
#
# Bulk Modulus (GPa) = 35.19912 42.77313 38.98613
# Shear Modulus (GPa) = 20.08401 24.45818 22.27109
#
# Velocity S-wave (km/s) = 3.09957 3.42049 3.26397
# Velocity P-wave (km/s) = 5.44495 6.00503 5.73184
#
# Compressibility (1/GPa) = 0.02840980
#
# Stress axis : x y z
#
# Youngs Moduli (GPa) = 31.87170 74.06980 73.87796
#
# Poissons Ratio (x) = 0.17970 0.73815
# Poissons Ratio (y) = 0.07732 0.19088
# Poissons Ratio (z) = 0.31845 0.19138
#
# Static dielectric constant tensor:
#      x y z
#    x 4.010780 0.000000 0.000000 
#    y 0.000000 3.301870 0.000000 
#    z 0.000000 0.000000 4.036480 
# 
# 
# High freq. dielectric constant tensor:
#      x y z
#    x 1.833060 0.000000 0.000000 
#    y 0.000000 1.769460 0.000000 
#    z 0.000000 0.000000 1.832990 
# 
# From -- ./inp_files/7615.got.cif
#   From: 2010.03.12/outbox.cif.g09.slc.cpg/sg35_4_cif.got.tgz:7615.got - 2010.04.14 02:02:04.
