data_PCOD8172503
_publ_section_title
;
Structure prediction by ZEFSAII (Michael W. Deem and Ramdas Pophale) SiO2 
 PCOD8172503
Probable space group: C M M 2
;
_chemical_formula_sum "Si O2"
_cell_formula_units_Z 64
_cell_length_a 8.694950
_cell_length_b 28.961551
_cell_length_c 15.588085
_cell_angle_alpha 90.000000
_cell_angle_beta 90.000000
_cell_angle_gamma 90.000000
_cell_volume 3925.379685
_symmetry_space_group_name_H-M "C M M 2"
_symmetry_group_IT_number 35
_symmetry_cell_setting 'orthorhombic'
loop_
_space_group_symop_operation_xyz
x,y,z
-x,-y,z
-x,y,z
x,-y,z
1/2+x,1/2+y,z
1/2-x,1/2-y,z
1/2-x,1/2+y,z
1/2+x,1/2-y,z
loop_
_atom_site_type_symbol
_atom_site_label
_atom_site_fract_x
_atom_site_fract_y
_atom_site_fract_z
Si Si1 0.318814 0.699148 0.987180
Si Si2 0.317598 0.353673 0.474541
Si Si3 0.177952 0.700064 0.818407
Si Si4 0.817516 0.050405 0.406820
Si Si5 0.818198 0.699690 0.314770
Si Si6 0.181941 0.950213 0.214204
Si Si7 0.679529 0.199218 0.628556
Si Si8 0.317999 0.646421 0.155810
O O1 0.500000 0.703014 0.984975
O O2 0.250000 0.750000 0.998189
O O3 0.260426 0.674535 0.898705
O O4 0.262861 0.668047 0.066371
O O5 0.500000 0.350016 0.467111
O O6 0.259221 0.406799 0.464611
O O7 0.245303 0.321901 0.401795
O O8 0.262959 0.336618 0.566842
O O9 0.250000 0.750000 0.813217
O O10 0.204529 0.677901 0.724451
O O11 0.000000 0.704050 0.840898
O O12 0.753936 0.057844 0.310393
O O13 0.000000 0.050851 0.405314
O O14 0.760336 0.000000 0.441804
O O15 0.750000 0.750000 0.302075
O O16 0.770543 0.669805 0.233409
O O17 0.000000 0.702896 0.320939
O O18 0.231573 0.907667 0.153731
O O19 0.000000 0.952047 0.219631
O O20 0.243105 0.000000 0.178723
O O21 0.500000 0.202916 0.606265
O O22 0.750000 0.250000 0.618024
O O23 0.500000 0.652650 0.170585
#
# Coordination Sequence:
#
# PCOD8172503 Si02
#       8
#     8   8   8   8   8   8   8   8
#     4  10  19  29  45  67  94 122 153 192 229 273
#     4  11  20  32  50  70  94 123 155 192 231 276
#     4   9  17  30  48  66  89 119 152 191 230 272
#     4   8  14  26  47  71  91 116 152 192 231 272
#     4  12  24  35  46  62  91 129 163 193 224 267
#     4   8  13  25  47  70  91 117 152 193 232 272
#     4  10  20  33  48  69  95 123 157 193 231 276
#     4  10  19  32  48  70  95 122 157 193 231 275
#
# _framework density 16.304155000000002
#
# number of rings (size 3 to 8) (size 9 to 14) (size 15 to 20)
#    0.000    2.250    1.250    4.875    0.000    3.500 
#    0.000    0.000    0.000    2.625    0.000    0.875 
#    0.000    5.000    0.000    0.000    0.000    0.000 
#
# Total GULP energy -396541.747528 kJ/mol
# GULP energy per Si atom -12391.929610 kJ/mol
# Density = 1.626705 g / cm^3
# Si number density = 16.304155 Si / 1000 Ang^3
#
#
#
# Elastic Constant Matrix: (Units=GPa)
#
#
# Indices 1 2 3 4 5 6 
#
# 1 62.8781 22.3394 29.3204 0.0000 0.0000 0.0000
# 2 22.3394 110.3886 50.6025 0.0000 0.0000 0.0000
# 3 29.3204 50.6025 110.0095 0.0000 0.0000 0.0000
# 4 0.0000 0.0000 0.0000 6.3535 0.0000 0.0000
# 5 0.0000 0.0000 0.0000 0.0000 25.2399 0.0000
# 6 0.0000 0.0000 0.0000 0.0000 0.0000 13.0844
#
#
#
# Elastic Compliance Matrix: (Units=1/GPa)
#
#
# Indices 1 2 3 4 5 6 
#
# 1 0.018463 -0.001876 -0.004058 0.000000 0.000000 0.000000
# 2 -0.001876 0.011670 -0.004868 0.000000 0.000000 0.000000
# 3 -0.004058 -0.004868 0.012411 0.000000 0.000000 0.000000
# 4 0.000000 0.000000 0.000000 0.157393 0.000000 0.000000
# 5 0.000000 0.000000 0.000000 0.000000 0.039620 0.000000
# 6 0.000000 0.000000 0.000000 0.000000 0.000000 0.076427
#
#
# Mechanical properties :
#
#
# Convention : Reuss Voigt Hill
#
# Bulk Modulus (GPa) = 47.75640 54.20008 50.97824
# Shear Modulus (GPa) = 14.51098 21.00315 17.75707
#
# Velocity S-wave (km/s) = 2.98655 3.59306 3.30375
# Velocity P-wave (km/s) = 6.42240 7.10835 6.77406
#
# Compressibility (1/GPa) = 0.02093960
#
# Stress axis : x y z
#
# Youngs Moduli (GPa) = 54.16380 85.68904 80.57491
#
# Poissons Ratio (x) = 0.16077 0.32695
# Poissons Ratio (y) = 0.10162 0.39224
# Poissons Ratio (z) = 0.21978 0.41713
#
# Static dielectric constant tensor:
#      x y z
#    x 3.003100 0.000000 0.000000 
#    y 0.000000 3.352700 0.000000 
#    z 0.000000 0.000000 3.482100 
# 
# 
# High freq. dielectric constant tensor:
#      x y z
#    x 1.619890 0.000000 0.000000 
#    y 0.000000 1.611060 0.000000 
#    z 0.000000 0.000000 1.620120 
# 
# From -- ./inp_files/18548.got.cif
#   From: 2010.03.12/outbox.cif.g09.slc.cpg/sg35_10_cif.got.tgz:18548.got - 2010.04.14 02:02:04.
