data_PCOD8172582
_publ_section_title
;
Structure prediction by ZEFSAII (Michael W. Deem and Ramdas Pophale) SiO2 
 PCOD8172582
Probable space group: C M M 2
;
_chemical_formula_sum "Si O2"
_cell_formula_units_Z 64
_cell_length_a 9.160107
_cell_length_b 19.267085
_cell_length_c 20.525876
_cell_angle_alpha 90.000000
_cell_angle_beta 90.000000
_cell_angle_gamma 90.000000
_cell_volume 3622.582302
_symmetry_space_group_name_H-M "C M M 2"
_symmetry_group_IT_number 35
_symmetry_cell_setting 'orthorhombic'
loop_
_space_group_symop_operation_xyz
x,y,z
-x,-y,z
-x,y,z
x,-y,z
1/2+x,1/2+y,z
1/2-x,1/2-y,z
1/2-x,1/2+y,z
1/2+x,1/2-y,z
loop_
_atom_site_type_symbol
_atom_site_label
_atom_site_fract_x
_atom_site_fract_y
_atom_site_fract_z
Si Si1 0.170467 0.823322 0.345940
Si Si2 0.832764 0.820517 0.486982
Si Si3 0.667330 0.918150 0.728881
Si Si4 0.829976 0.680591 0.980541
Si Si5 0.828690 0.176164 0.628254
Si Si6 0.327191 0.076030 0.873968
Si Si7 0.328535 0.821790 0.130120
Si Si8 0.328372 0.580684 0.227980
O O1 0.250000 0.750000 0.334209
O O2 0.205437 0.857605 0.417809
O O3 0.221452 0.880421 0.293903
O O4 0.000000 0.807655 0.338055
O O5 0.750000 0.750000 0.486820
O O6 0.796579 0.858030 0.555963
O O7 0.000000 0.799893 0.486734
O O8 0.500000 0.898233 0.713963
O O9 0.772218 0.878662 0.679949
O O10 0.711404 0.894786 0.802165
O O11 0.690942 0.000000 0.720786
O O12 0.750000 0.750000 0.960725
O O13 0.764109 0.623158 0.931873
O O14 0.000000 0.692069 0.968536
O O15 0.797982 0.659842 0.054918
O O16 0.750000 0.250000 0.636800
O O17 0.000000 0.188031 0.639335
O O18 0.500000 0.070112 0.880024
O O19 0.257068 0.000000 0.883009
O O20 0.500000 0.813832 0.144911
O O21 0.250000 0.750000 0.150416
O O22 0.261520 0.886041 0.169013
O O23 0.500000 0.589852 0.214626
O O24 0.285991 0.500000 0.234267
#
# Coordination Sequence:
#
# PCOD8172582 Si02
#       8
#     8   8   8   8   8   8   8   8
#     4   9  17  31  51  72  93 122 161 199 238 286
#     4   8  15  28  46  69  94 121 156 197 239 283
#     4   9  18  33  51  70  96 131 166 199 239 288
#     4   9  18  32  51  74  98 123 154 195 239 282
#     4  10  19  31  49  73 100 128 160 201 245 287
#     4   8  15  30  51  71  92 123 162 198 233 279
#     4  10  20  34  53  75  99 129 163 199 239 286
#     4  10  21  35  50  71 101 133 162 197 241 286
#
# _framework density 17.666954
#
# number of rings (size 3 to 8) (size 9 to 14) (size 15 to 20)
#    0.000    2.875    0.000    1.875    0.000    4.000 
#    0.000    3.750    0.000    3.375    0.000    0.000 
#    0.000    0.000    0.000    0.000    0.000    0.000 
#
# Total GULP energy -396508.314226 kJ/mol
# GULP energy per Si atom -12390.884820 kJ/mol
# Density = 1.762674 g / cm^3
# Si number density = 17.666954 Si / 1000 Ang^3
#
#
#
# Elastic Constant Matrix: (Units=GPa)
#
#
# Indices 1 2 3 4 5 6 
#
# 1 53.0623 41.8406 49.4599 0.0000 0.0000 0.0000
# 2 41.8406 100.3299 82.6605 0.0000 0.0000 0.0000
# 3 49.4599 82.6605 148.1924 0.0000 0.0000 0.0000
# 4 0.0000 0.0000 0.0000 14.7172 0.0000 0.0000
# 5 0.0000 0.0000 0.0000 0.0000 27.6978 0.0000
# 6 0.0000 0.0000 0.0000 0.0000 0.0000 25.9738
#
#
#
# Elastic Compliance Matrix: (Units=1/GPa)
#
#
# Indices 1 2 3 4 5 6 
#
# 1 0.030480 -0.008012 -0.005704 0.000000 0.000000 0.000000
# 2 -0.008012 0.020548 -0.008788 0.000000 0.000000 0.000000
# 3 -0.005704 -0.008788 0.013553 0.000000 0.000000 0.000000
# 4 0.000000 0.000000 0.000000 0.067948 0.000000 0.000000
# 5 0.000000 0.000000 0.000000 0.000000 0.036104 0.000000
# 6 0.000000 0.000000 0.000000 0.000000 0.000000 0.038500
#
#
# Mechanical properties :
#
#
# Convention : Reuss Voigt Hill
#
# Bulk Modulus (GPa) = 51.08580 72.16741 61.62661
# Shear Modulus (GPa) = 19.33001 22.18599 20.75800
#
# Velocity S-wave (km/s) = 3.31136 3.54756 3.43149
# Velocity P-wave (km/s) = 6.60295 7.59722 7.11747
#
# Compressibility (1/GPa) = 0.01957491
#
# Stress axis : x y z
#
# Youngs Moduli (GPa) = 32.80861 48.66573 73.78172
#
# Poissons Ratio (x) = 0.38989 0.42085
# Poissons Ratio (y) = 0.26285 0.64838
# Poissons Ratio (z) = 0.18714 0.42766
#
# Static dielectric constant tensor:
#      x y z
#    x 3.160540 0.000000 0.000000 
#    y 0.000000 3.171290 0.000000 
#    z 0.000000 0.000000 3.949730 
# 
# 
# High freq. dielectric constant tensor:
#      x y z
#    x 1.672050 0.000000 0.000000 
#    y 0.000000 1.658110 0.000000 
#    z 0.000000 0.000000 1.704590 
# 
# From -- ./inp_files/18365.got.cif
#   From: 2010.03.12/outbox.cif.g09.slc.cpg/sg35_10_cif.got.tgz:18365.got - 2010.04.14 02:02:04.
