data_PCOD8172773
_publ_section_title
;
Structure prediction by ZEFSAII (Michael W. Deem and Ramdas Pophale) SiO2 
 PCOD8172773
Probable space group: C M M 2
;
_chemical_formula_sum "Si O2"
_cell_formula_units_Z 64
_cell_length_a 18.369895
_cell_length_b 15.205498
_cell_length_c 11.653305
_cell_angle_alpha 90.000000
_cell_angle_beta 90.000000
_cell_angle_gamma 90.000000
_cell_volume 3255.040793
_symmetry_space_group_name_H-M "C M M 2"
_symmetry_group_IT_number 35
_symmetry_cell_setting 'orthorhombic'
loop_
_space_group_symop_operation_xyz
x,y,z
-x,-y,z
-x,y,z
x,-y,z
1/2+x,1/2+y,z
1/2-x,1/2-y,z
1/2-x,1/2+y,z
1/2+x,1/2-y,z
loop_
_atom_site_type_symbol
_atom_site_label
_atom_site_fract_x
_atom_site_fract_y
_atom_site_fract_z
Si Si1 0.420435 0.697265 0.241140
Si Si2 0.418330 0.238948 0.489414
Si Si3 0.299388 0.101142 0.483593
Si Si4 0.652857 0.399990 0.612117
Si Si5 0.920119 0.265128 0.995024
Si Si6 0.645742 0.400754 0.877802
Si Si7 0.271715 0.598914 0.254445
Si Si8 0.221890 0.652786 0.016275
O O1 0.500000 0.648281 0.242368
O O2 0.414090 0.758107 0.352298
O O3 0.417250 0.761077 0.132263
O O4 0.353321 0.631323 0.232924
O O5 0.500000 0.217268 0.531481
O O6 0.365718 0.160442 0.530190
O O7 0.396458 0.333894 0.539524
O O8 0.236887 0.109718 0.578431
O O9 0.269492 0.142853 0.362919
O O10 0.325821 0.000000 0.470420
O O11 0.626007 0.500000 0.588331
O O12 0.645706 0.375313 0.745018
O O13 0.859464 0.338408 0.961830
O O14 0.000000 0.295716 0.952260
O O15 0.904929 0.168087 0.944056
O O16 0.616040 0.500000 0.897198
O O17 0.728479 0.397226 0.924452
O O18 0.281633 0.500000 0.294082
O O19 0.223385 0.604892 0.139436
O O20 0.250000 0.750000 0.042123
#
# Coordination Sequence:
#
# PCOD8172773 Si02
#       8
#     8   8   8   8   8   8   8   8
#     4  10  20  33  52  84 119 147 176 220 280 338
#     4  11  23  37  59  84 114 154 186 227 287 338
#     4  10  22  37  58  85 113 148 192 236 275 329
#     4  10  22  39  58  83 112 145 190 239 287 339
#     4  10  21  35  53  80 113 147 182 221 273 329
#     4  10  21  37  57  81 110 143 182 231 281 330
#     4  11  20  33  56  84 110 146 188 225 273 330
#     4  10  19  32  55  81 109 143 187 226 267 318
#
# _framework density 19.661811
#
# number of rings (size 3 to 8) (size 9 to 14) (size 15 to 20)
#    0.000    1.750    3.750    1.500    0.000    4.500 
#    0.000    3.750    0.000    2.250    0.000    1.750 
#    0.000    0.000    0.000    0.125    0.000    0.000 
#
# Total GULP energy -396682.493560 kJ/mol
# GULP energy per Si atom -12396.327924 kJ/mol
# Density = 1.961706 g / cm^3
# Si number density = 19.661811 Si / 1000 Ang^3
#
#
#
# Elastic Constant Matrix: (Units=GPa)
#
#
# Indices 1 2 3 4 5 6 
#
# 1 132.0061 31.5756 4.8419 0.0000 0.0000 0.0000
# 2 31.5756 54.4948 8.1101 0.0000 0.0000 0.0000
# 3 4.8419 8.1101 69.4435 0.0000 0.0000 0.0000
# 4 0.0000 0.0000 0.0000 16.9948 0.0000 0.0000
# 5 0.0000 0.0000 0.0000 0.0000 4.4123 0.0000
# 6 0.0000 0.0000 0.0000 0.0000 0.0000 19.8599
#
#
#
# Elastic Compliance Matrix: (Units=1/GPa)
#
#
# Indices 1 2 3 4 5 6 
#
# 1 0.008794 -0.005093 -0.000018 0.000000 0.000000 0.000000
# 2 -0.005093 0.021624 -0.002170 0.000000 0.000000 0.000000
# 3 -0.000018 -0.002170 0.014655 0.000000 0.000000 0.000000
# 4 0.000000 0.000000 0.000000 0.058842 0.000000 0.000000
# 5 0.000000 0.000000 0.000000 0.000000 0.226641 0.000000
# 6 0.000000 0.000000 0.000000 0.000000 0.000000 0.050353
#
#
# Mechanical properties :
#
#
# Convention : Reuss Voigt Hill
#
# Bulk Modulus (GPa) = 32.77580 38.33329 35.55454
# Shear Modulus (GPa) = 12.32612 22.34784 17.33698
#
# Velocity S-wave (km/s) = 2.50653 3.37502 2.97266
# Velocity P-wave (km/s) = 5.00828 5.89291 5.46851
#
# Compressibility (1/GPa) = 0.03051032
#
# Stress axis : x y z
#
# Youngs Moduli (GPa) = 113.71013 46.24423 68.23638
#
# Poissons Ratio (x) = 0.23552 0.00126
# Poissons Ratio (y) = 0.57911 0.14810
# Poissons Ratio (z) = 0.00209 0.10037
#
# Static dielectric constant tensor:
#      x y z
#    x 3.894470 0.000000 0.000000 
#    y 0.000000 3.389910 0.000000 
#    z 0.000000 0.000000 3.590780 
# 
# 
# High freq. dielectric constant tensor:
#      x y z
#    x 1.765890 0.000000 0.000000 
#    y 0.000000 1.742750 0.000000 
#    z 0.000000 0.000000 1.765310 
# 
# From -- ./inp_files/13597.got.cif
#   From: 2010.03.12/outbox.cif.g09.slc.cpg/sg35_7_cif.got.tgz:13597.got - 2010.04.14 02:02:04.
