data_PCOD8172628
_publ_section_title
;
Structure prediction by ZEFSAII (Michael W. Deem and Ramdas Pophale) SiO2 
 PCOD8172628
Probable space group: C M M 2
;
_chemical_formula_sum "Si O2"
_cell_formula_units_Z 64
_cell_length_a 14.411807
_cell_length_b 18.493556
_cell_length_c 12.068571
_cell_angle_alpha 90.000000
_cell_angle_beta 90.000000
_cell_angle_gamma 90.000000
_cell_volume 3216.582642
_symmetry_space_group_name_H-M "C M M 2"
_symmetry_group_IT_number 35
_symmetry_cell_setting 'orthorhombic'
loop_
_space_group_symop_operation_xyz
x,y,z
-x,-y,z
-x,y,z
x,-y,z
1/2+x,1/2+y,z
1/2-x,1/2-y,z
1/2-x,1/2+y,z
1/2+x,1/2-y,z
loop_
_atom_site_type_symbol
_atom_site_label
_atom_site_fract_x
_atom_site_fract_y
_atom_site_fract_z
Si Si1 0.108937 0.647619 0.641330
Si Si2 0.895858 0.189390 0.652672
Si Si3 0.258716 0.584149 0.781611
Si Si4 0.806528 0.420875 0.434946
Si Si5 0.397634 0.613226 0.433971
Si Si6 0.757890 0.585849 0.030113
Si Si7 0.896808 0.414365 0.208710
Si Si8 0.602484 0.583227 0.193672
O O1 0.136172 0.729014 0.677280
O O2 0.158127 0.592272 0.725295
O O3 0.147038 0.635385 0.518124
O O4 0.000000 0.633481 0.645553
O O5 0.832783 0.130958 0.714038
O O6 0.892963 0.180567 0.518566
O O7 0.000000 0.177040 0.696828
O O8 0.288856 0.500000 0.779278
O O9 0.249468 0.615999 0.905777
O O10 0.851847 0.500000 0.453223
O O11 0.696149 0.431871 0.456765
O O12 0.830746 0.392042 0.311610
O O13 0.500000 0.573998 0.452210
O O14 0.392228 0.633806 0.303552
O O15 0.757761 0.500000 0.024052
O O16 0.849959 0.613774 0.094277
O O17 0.669703 0.613888 0.099579
O O18 0.903969 0.500000 0.203705
O O19 0.000000 0.380409 0.219920
O O20 0.500000 0.585755 0.141927
O O21 0.628723 0.500000 0.227695
#
# Coordination Sequence:
#
# PCOD8172628 Si02
#       8
#     8   8   8   8   8   8   8   8
#     4  11  24  41  60  81 113 157 198 237 284 343
#     4  10  23  42  61  82 114 156 194 234 289 350
#     4  11  23  37  59  88 116 148 192 247 291 333
#     4  11  20  32  56  89 120 149 185 235 289 344
#     4  10  19  31  54  85 115 148 185 226 282 348
#     4   9  18  32  49  76 112 147 184 226 280 337
#     4   9  17  30  49  76 114 153 185 226 283 343
#     4   9  16  28  49  78 114 149 176 215 277 346
#
# _framework density 19.896892999999999
#
# number of rings (size 3 to 8) (size 9 to 14) (size 15 to 20)
#    0.000    2.000    2.500    1.500    0.000    4.000 
#    0.000    5.000    0.000    3.000    0.000    3.500 
#    0.000    0.000    0.000    0.000    0.000    0.000 
#
# Total GULP energy -396453.975119 kJ/mol
# GULP energy per Si atom -12389.186722 kJ/mol
# Density = 1.985161 g / cm^3
# Si number density = 19.896893 Si / 1000 Ang^3
#
#
#
# Elastic Constant Matrix: (Units=GPa)
#
#
# Indices 1 2 3 4 5 6 
#
# 1 133.6076 33.8449 51.4230 0.0000 0.0000 0.0000
# 2 33.8449 49.9739 29.6346 0.0000 0.0000 0.0000
# 3 51.4230 29.6346 138.5863 0.0000 0.0000 0.0000
# 4 0.0000 0.0000 0.0000 8.0585 0.0000 0.0000
# 5 0.0000 0.0000 0.0000 0.0000 17.9698 0.0000
# 6 0.0000 0.0000 0.0000 0.0000 0.0000 17.9400
#
#
#
# Elastic Compliance Matrix: (Units=1/GPa)
#
#
# Indices 1 2 3 4 5 6 
#
# 1 0.009750 -0.005105 -0.002526 0.000000 0.000000 0.000000
# 2 -0.005105 0.025590 -0.003578 0.000000 0.000000 0.000000
# 3 -0.002526 -0.003578 0.008918 0.000000 0.000000 0.000000
# 4 0.000000 0.000000 0.000000 0.124092 0.000000 0.000000
# 5 0.000000 0.000000 0.000000 0.000000 0.055649 0.000000
# 6 0.000000 0.000000 0.000000 0.000000 0.000000 0.055741
#
#
# Mechanical properties :
#
#
# Convention : Reuss Voigt Hill
#
# Bulk Modulus (GPa) = 45.78821 61.33031 53.55926
# Shear Modulus (GPa) = 16.15833 22.61136 19.38485
#
# Velocity S-wave (km/s) = 2.85283 3.37475 3.12471
# Velocity P-wave (km/s) = 5.82359 6.78795 6.32418
#
# Compressibility (1/GPa) = 0.02183968
#
# Stress axis : x y z
#
# Youngs Moduli (GPa) = 102.56300 39.07852 112.13193
#
# Poissons Ratio (x) = 0.19951 0.28326
# Poissons Ratio (y) = 0.52361 0.40116
# Poissons Ratio (z) = 0.25909 0.13981
#
# Static dielectric constant tensor:
#      x y z
#    x 3.933050 0.000000 0.000000 
#    y 0.000000 3.107600 0.000000 
#    z 0.000000 0.000000 3.777280 
# 
# 
# High freq. dielectric constant tensor:
#      x y z
#    x 1.795850 0.000000 0.000000 
#    y 0.000000 1.717750 0.000000 
#    z 0.000000 0.000000 1.774260 
# 
# From -- ./inp_files/13180.got.cif
#   From: 2010.03.12/outbox.cif.g09.slc.cpg/sg35_7_cif.got.tgz:13180.got - 2010.04.14 02:02:04.
