data_PCOD8172675
_publ_section_title
;
Structure prediction by ZEFSAII (Michael W. Deem and Ramdas Pophale) SiO2 
 PCOD8172675
Probable space group: C M M 2
;
_chemical_formula_sum "Si O2"
_cell_formula_units_Z 64
_cell_length_a 9.301541
_cell_length_b 26.514363
_cell_length_c 14.452820
_cell_angle_alpha 90.000000
_cell_angle_beta 90.000000
_cell_angle_gamma 90.000000
_cell_volume 3564.418560
_symmetry_space_group_name_H-M "C M M 2"
_symmetry_group_IT_number 35
_symmetry_cell_setting 'orthorhombic'
loop_
_space_group_symop_operation_xyz
x,y,z
-x,-y,z
-x,y,z
x,-y,z
1/2+x,1/2+y,z
1/2-x,1/2-y,z
1/2-x,1/2+y,z
1/2+x,1/2-y,z
loop_
_atom_site_type_symbol
_atom_site_label
_atom_site_fract_x
_atom_site_fract_y
_atom_site_fract_z
Si Si1 0.833098 0.057057 0.536090
Si Si2 0.334173 0.895865 0.165144
Si Si3 0.334059 0.800184 0.043598
Si Si4 0.657694 0.057820 0.859632
Si Si5 0.342853 0.557827 0.021395
Si Si6 0.669579 0.611541 0.721734
Si Si7 0.330259 0.198557 0.830784
Si Si8 0.165069 0.442508 0.355745
O O1 0.800586 0.098927 0.614518
O O2 0.754137 0.075759 0.444059
O O3 0.000000 0.056030 0.513618
O O4 0.782627 0.000000 0.564043
O O5 0.500000 0.908286 0.142567
O O6 0.289487 0.842435 0.119410
O O7 0.231653 0.937951 0.120723
O O8 0.305225 0.901570 0.274573
O O9 0.500000 0.786881 0.053550
O O10 0.250000 0.750000 0.071096
O O11 0.299793 0.816921 0.937715
O O12 0.500000 0.084317 0.845318
O O13 0.765714 0.062928 0.773808
O O14 0.629077 0.000000 0.879758
O O15 0.736092 0.084047 0.947234
O O16 0.500000 0.584339 0.020004
O O17 0.363751 0.500000 0.994888
O O18 0.500000 0.618463 0.741785
O O19 0.761474 0.658294 0.760161
O O20 0.500000 0.204328 0.811196
O O21 0.250000 0.250000 0.807016
O O22 0.207068 0.500000 0.325993
O O23 0.000000 0.440913 0.385041
#
# Coordination Sequence:
#
# PCOD8172675 Si02
#       8
#     8   8   8   8   8   8   8   8
#     4   9  19  35  53  74 103 137 171 211 258 305
#     4  10  19  32  51  74 100 131 168 209 254 303
#     4   9  19  34  52  74 101 132 166 205 249 299
#     4  10  20  32  46  67  98 135 170 204 246 300
#     4  10  20  31  44  67  99 133 167 202 243 296
#     4  11  21  33  52  76 101 131 169 213 261 311
#     4  10  20  35  54  77 105 137 173 212 257 308
#     4   9  18  32  51  75 102 133 170 212 256 303
#
# _framework density 17.955241999999998
#
# number of rings (size 3 to 8) (size 9 to 14) (size 15 to 20)
#    0.000    2.250    0.000    3.000    0.000    6.000 
#    0.000    2.500    0.000    0.750    0.000    3.500 
#    0.000    0.000    0.000    0.000    0.000    0.000 
#
# Total GULP energy -396540.733121 kJ/mol
# GULP energy per Si atom -12391.897910 kJ/mol
# Density = 1.791437 g / cm^3
# Si number density = 17.955242 Si / 1000 Ang^3
#
#
#
# Elastic Constant Matrix: (Units=GPa)
#
#
# Indices 1 2 3 4 5 6 
#
# 1 105.9377 44.9789 69.5119 0.0000 0.0000 0.0000
# 2 44.9789 80.7078 53.5403 0.0000 0.0000 0.0000
# 3 69.5119 53.5403 130.7989 0.0000 0.0000 0.0000
# 4 0.0000 0.0000 0.0000 27.7726 0.0000 0.0000
# 5 0.0000 0.0000 0.0000 0.0000 31.0570 0.0000
# 6 0.0000 0.0000 0.0000 0.0000 0.0000 24.7753
#
#
#
# Elastic Compliance Matrix: (Units=1/GPa)
#
#
# Indices 1 2 3 4 5 6 
#
# 1 0.015540 -0.004368 -0.006471 0.000000 0.000000 0.000000
# 2 -0.004368 0.018237 -0.005144 0.000000 0.000000 0.000000
# 3 -0.006471 -0.005144 0.013189 0.000000 0.000000 0.000000
# 4 0.000000 0.000000 0.000000 0.036007 0.000000 0.000000
# 5 0.000000 0.000000 0.000000 0.000000 0.032199 0.000000
# 6 0.000000 0.000000 0.000000 0.000000 0.000000 0.040363
#
#
# Mechanical properties :
#
#
# Convention : Reuss Voigt Hill
#
# Bulk Modulus (GPa) = 66.65829 72.61183 69.63506
# Shear Modulus (GPa) = 25.97413 26.68187 26.32800
#
# Velocity S-wave (km/s) = 3.80755 3.85908 3.83340
# Velocity P-wave (km/s) = 7.51899 7.77077 7.64592
#
# Compressibility (1/GPa) = 0.01500189
#
# Stress axis : x y z
#
# Youngs Moduli (GPa) = 64.35116 54.83394 75.81797
#
# Poissons Ratio (x) = 0.23951 0.49058
# Poissons Ratio (y) = 0.28108 0.38998
# Poissons Ratio (z) = 0.41638 0.28205
#
# Static dielectric constant tensor:
#      x y z
#    x 3.611540 0.000000 0.000000 
#    y 0.000000 3.158660 0.000000 
#    z 0.000000 0.000000 3.214510 
# 
# 
# High freq. dielectric constant tensor:
#      x y z
#    x 1.710590 0.000000 0.000000 
#    y 0.000000 1.674220 0.000000 
#    z 0.000000 0.000000 1.678030 
# 
# From -- ./inp_files/16252.got.cif
#   From: 2010.03.12/outbox.cif.g09.slc.cpg/sg35_9_cif.got.tgz:16252.got - 2010.04.14 02:02:04.
