data_PCOD8172546
_publ_section_title
;
Structure prediction by ZEFSAII (Michael W. Deem and Ramdas Pophale) SiO2 
 PCOD8172546
Probable space group: C M M 2
;
_chemical_formula_sum "Si O2"
_cell_formula_units_Z 64
_cell_length_a 29.260143
_cell_length_b 8.930028
_cell_length_c 12.201108
_cell_angle_alpha 90.000000
_cell_angle_beta 90.000000
_cell_angle_gamma 90.000000
_cell_volume 3188.075048
_symmetry_space_group_name_H-M "C M M 2"
_symmetry_group_IT_number 35
_symmetry_cell_setting 'orthorhombic'
loop_
_space_group_symop_operation_xyz
x,y,z
-x,-y,z
-x,y,z
x,-y,z
1/2+x,1/2+y,z
1/2-x,1/2-y,z
1/2-x,1/2+y,z
1/2+x,1/2-y,z
loop_
_atom_site_type_symbol
_atom_site_label
_atom_site_fract_x
_atom_site_fract_y
_atom_site_fract_z
Si Si1 0.931913 0.168071 0.524780
Si Si2 0.707694 0.170960 0.395978
Si Si3 0.830222 0.829750 0.595692
Si Si4 0.950436 0.672326 0.744717
Si Si5 0.142291 0.328875 0.200445
Si Si6 0.949597 0.327501 0.299739
Si Si7 0.852887 0.676975 0.817043
Si Si8 0.700038 0.677492 0.016251
O O1 0.877807 0.175211 0.532709
O O2 0.954071 0.245403 0.629537
O O3 0.948385 0.242542 0.413745
O O4 0.950213 0.000000 0.523250
O O5 0.750000 0.250000 0.332187
O O6 0.704891 0.258734 0.510713
O O7 0.662862 0.184443 0.322013
O O8 0.719431 0.000000 0.421133
O O9 0.830533 0.726284 0.702903
O O10 0.816689 0.000000 0.627263
O O11 0.941952 0.500000 0.716707
O O12 0.906991 0.725223 0.818080
O O13 0.000000 0.696351 0.805025
O O14 0.145864 0.500000 0.156320
O O15 0.089379 0.275305 0.212858
O O16 0.169289 0.219815 0.120299
O O17 0.939959 0.500000 0.327167
O O18 0.000000 0.304037 0.246454
O O19 0.846474 0.500000 0.834616
O O20 0.826745 0.765697 0.910452
O O21 0.706027 0.500000 0.010937
O O22 0.750000 0.750000 0.024516
#
# Coordination Sequence:
#
# PCOD8172546 Si02
#       8
#     8   8   8   8   8   8   8   8
#     4  10  19  30  49  80 120 162 201 243 289 341
#     4  11  22  36  57  85 117 154 194 240 295 359
#     4  10  20  35  55  83 121 160 197 240 294 352
#     4   9  18  33  55  84 119 161 204 242 285 342
#     4  10  22  41  63  88 119 155 199 248 296 349
#     4  10  20  35  57  85 119 160 203 244 288 343
#     4  10  21  39  63  89 120 155 198 248 296 349
#     4  12  26  45  69  92 115 148 195 248 304 362
#
# _framework density 20.074809999999999
#
# number of rings (size 3 to 8) (size 9 to 14) (size 15 to 20)
#    0.000    1.750    1.250    3.375    0.000    6.500 
#    0.000    3.125    0.000    3.750    0.000    0.000 
#    0.000    0.000    0.000    0.000    0.000    0.000 
#
# Total GULP energy -396697.331879 kJ/mol
# GULP energy per Si atom -12396.791621 kJ/mol
# Density = 2.002912 g / cm^3
# Si number density = 20.074810 Si / 1000 Ang^3
#
#
#
# Elastic Constant Matrix: (Units=GPa)
#
#
# Indices 1 2 3 4 5 6 
#
# 1 143.6606 56.1563 54.9202 0.0000 0.0000 0.0000
# 2 56.1563 108.9227 42.7273 0.0000 0.0000 0.0000
# 3 54.9202 42.7273 81.0207 0.0000 0.0000 0.0000
# 4 0.0000 0.0000 0.0000 33.5806 0.0000 0.0000
# 5 0.0000 0.0000 0.0000 0.0000 22.0146 0.0000
# 6 0.0000 0.0000 0.0000 0.0000 0.0000 25.4796
#
#
#
# Elastic Compliance Matrix: (Units=1/GPa)
#
#
# Indices 1 2 3 4 5 6 
#
# 1 0.010217 -0.003216 -0.005230 0.000000 0.000000 0.000000
# 2 -0.003216 0.012588 -0.004458 0.000000 0.000000 0.000000
# 3 -0.005230 -0.004458 0.018239 0.000000 0.000000 0.000000
# 4 0.000000 0.000000 0.000000 0.029779 0.000000 0.000000
# 5 0.000000 0.000000 0.000000 0.000000 0.045424 0.000000
# 6 0.000000 0.000000 0.000000 0.000000 0.000000 0.039247
#
#
# Mechanical properties :
#
#
# Convention : Reuss Voigt Hill
#
# Bulk Modulus (GPa) = 65.63653 71.24575 68.44114
# Shear Modulus (GPa) = 26.82674 28.20164 27.51419
#
# Velocity S-wave (km/s) = 3.65956 3.75217 3.70615
# Velocity P-wave (km/s) = 7.11502 7.37149 7.24439
#
# Compressibility (1/GPa) = 0.01523542
#
# Stress axis : x y z
#
# Youngs Moduli (GPa) = 97.87288 79.44206 54.82866
#
# Poissons Ratio (x) = 0.25550 0.28674
# Poissons Ratio (y) = 0.31478 0.24444
# Poissons Ratio (z) = 0.51185 0.35417
#
# Static dielectric constant tensor:
#      x y z
#    x 4.043910 0.000000 0.000000 
#    y 0.000000 3.756390 0.000000 
#    z 0.000000 0.000000 3.367820 
# 
# 
# High freq. dielectric constant tensor:
#      x y z
#    x 1.804940 0.000000 0.000000 
#    y 0.000000 1.787080 0.000000 
#    z 0.000000 0.000000 1.753920 
# 
# From -- ./inp_files/11925.got.cif
#   From: 2010.03.12/outbox.cif.g09.slc.cpg/sg35_6_cif.got.tgz:11925.got - 2010.04.14 02:02:04.
