data_PCOD8172532
_publ_section_title
;
Structure prediction by ZEFSAII (Michael W. Deem and Ramdas Pophale) SiO2 
 PCOD8172532
Probable space group: C M M 2
;
_chemical_formula_sum "Si O2"
_cell_formula_units_Z 48
_cell_length_a 9.187607
_cell_length_b 30.378999
_cell_length_c 10.001720
_cell_angle_alpha 90.000000
_cell_angle_beta 90.000000
_cell_angle_gamma 90.000000
_cell_volume 2791.583108
_symmetry_space_group_name_H-M "C M M 2"
_symmetry_group_IT_number 35
_symmetry_cell_setting 'orthorhombic'
loop_
_space_group_symop_operation_xyz
x,y,z
-x,-y,z
-x,y,z
x,-y,z
1/2+x,1/2+y,z
1/2-x,1/2-y,z
1/2-x,1/2+y,z
1/2+x,1/2-y,z
loop_
_atom_site_type_symbol
_atom_site_label
_atom_site_fract_x
_atom_site_fract_y
_atom_site_fract_z
Si Si1 0.164198 0.708103 0.229370
Si Si2 0.172402 0.880474 0.209726
Si Si3 0.673191 0.113960 0.934687
Si Si4 0.340951 0.210088 0.912427
Si Si5 0.830300 0.449644 0.699169
Si Si6 0.330829 0.550000 0.435466
O O1 0.250000 0.750000 0.291397
O O2 0.253118 0.663979 0.264501
O O3 0.000000 0.705577 0.288998
O O4 0.154170 0.714011 0.071400
O O5 0.210636 0.919386 0.311656
O O6 0.000000 0.872605 0.194454
O O7 0.239779 0.896091 0.069637
O O8 0.500000 0.113708 0.965477
O O9 0.721272 0.161781 0.876603
O O10 0.721343 0.077989 0.827038
O O11 0.500000 0.215343 0.849740
O O12 0.250000 0.250000 0.848506
O O13 0.788688 0.500000 0.729102
O O14 0.750786 0.432372 0.566833
O O15 0.000000 0.443222 0.674356
O O16 0.500000 0.552369 0.467971
O O17 0.282450 0.500000 0.401128
#
# Coordination Sequence:
#
# PCOD8172532 Si02
#       6
#     8   8   8   8   8   8
#     4   9  16  27  44  67  96 127 158 194 236 281
#     4  10  19  30  47  72  99 127 161 199 239 283
#     4   9  18  31  46  69  99 124 151 194 243 284
#     4   8  14  24  39  60  88 119 147 179 220 266
#     4   9  18  33  52  71  91 120 159 199 241 291
#     4   9  19  35  51  68  94 127 162 200 241 288
#
# _framework density 17.194544
#
# number of rings (size 3 to 8) (size 9 to 14) (size 15 to 20)
#    0.000    3.000    0.000    2.000    0.000    6.667 
#    0.000    0.000    0.000    1.000    0.000    4.667 
#    0.000    0.000    0.000    0.000    0.000    0.000 
#
# Total GULP energy -297515.100919 kJ/mol
# GULP energy per Si atom -12396.462538 kJ/mol
# Density = 1.715541 g / cm^3
# Si number density = 17.194544 Si / 1000 Ang^3
#
#
#
# Elastic Constant Matrix: (Units=GPa)
#
#
# Indices 1 2 3 4 5 6 
#
# 1 81.2955 59.6695 51.1298 0.0000 0.0000 0.0000
# 2 59.6695 125.2148 72.5723 0.0000 0.0000 0.0000
# 3 51.1298 72.5723 84.4859 0.0000 0.0000 0.0000
# 4 0.0000 0.0000 0.0000 2.8188 0.0000 0.0000
# 5 0.0000 0.0000 0.0000 0.0000 22.6260 0.0000
# 6 0.0000 0.0000 0.0000 0.0000 0.0000 28.3202
#
#
#
# Elastic Compliance Matrix: (Units=1/GPa)
#
#
# Indices 1 2 3 4 5 6 
#
# 1 0.021548 -0.005398 -0.008404 0.000000 0.000000 0.000000
# 2 -0.005398 0.017256 -0.011556 0.000000 0.000000 0.000000
# 3 -0.008404 -0.011556 0.026849 0.000000 0.000000 0.000000
# 4 0.000000 0.000000 0.000000 0.354759 0.000000 0.000000
# 5 0.000000 0.000000 0.000000 0.000000 0.044197 0.000000
# 6 0.000000 0.000000 0.000000 0.000000 0.000000 0.035311
#
#
# Mechanical properties :
#
#
# Convention : Reuss Voigt Hill
#
# Bulk Modulus (GPa) = 66.94644 73.08216 70.01430
# Shear Modulus (GPa) = 8.99902 17.92797 13.46350
#
# Velocity S-wave (km/s) = 2.29020 3.23252 2.80127
# Velocity P-wave (km/s) = 6.78326 7.51849 7.16031
#
# Compressibility (1/GPa) = 0.01493731
#
# Stress axis : x y z
#
# Youngs Moduli (GPa) = 46.40724 57.94977 37.24491
#
# Poissons Ratio (x) = 0.31279 0.31302
# Poissons Ratio (y) = 0.25049 0.43042
# Poissons Ratio (z) = 0.39002 0.66969
#
# Static dielectric constant tensor:
#      x y z
#    x 3.332150 0.000000 0.000000 
#    y 0.000000 3.466000 0.000000 
#    z 0.000000 0.000000 2.848420 
# 
# 
# High freq. dielectric constant tensor:
#      x y z
#    x 1.667930 0.000000 0.000000 
#    y 0.000000 1.675290 0.000000 
#    z 0.000000 0.000000 1.618970 
# 
# From -- ./inp_files/5343.got.cif
#   From: 2010.03.12/outbox.cif.g09.slc.cpg/sg35_3_cif.got.tgz:5343.got - 2010.04.14 02:02:04.
