data_PCOD8172661
_publ_section_title
;
Structure prediction by ZEFSAII (Michael W. Deem and Ramdas Pophale) SiO2 
 PCOD8172661
Probable space group: C M M 2
;
_chemical_formula_sum "Si O2"
_cell_formula_units_Z 48
_cell_length_a 33.151583
_cell_length_b 9.010689
_cell_length_c 9.139059
_cell_angle_alpha 90.000000
_cell_angle_beta 90.000000
_cell_angle_gamma 90.000000
_cell_volume 2730.006949
_symmetry_space_group_name_H-M "C M M 2"
_symmetry_group_IT_number 35
_symmetry_cell_setting 'orthorhombic'
loop_
_space_group_symop_operation_xyz
x,y,z
-x,-y,z
-x,y,z
x,-y,z
1/2+x,1/2+y,z
1/2-x,1/2-y,z
1/2-x,1/2+y,z
1/2+x,1/2-y,z
loop_
_atom_site_type_symbol
_atom_site_label
_atom_site_fract_x
_atom_site_fract_y
_atom_site_fract_z
Si Si1 0.954873 0.672430 0.125000
Si Si2 0.208055 0.822712 0.794155
Si Si3 0.620187 0.825876 0.311136
Si Si4 0.414681 0.333870 0.877501
Si Si5 0.335722 0.336454 0.074228
Si Si6 0.632926 0.823144 0.641270
O O1 0.947287 0.500000 0.092069
O O2 0.922787 0.729930 0.246030
O O3 0.000000 0.701032 0.185453
O O4 0.950147 0.758555 0.971502
O O5 0.250000 0.750000 0.746827
O O6 0.174333 0.752904 0.689912
O O7 0.208436 0.000000 0.772664
O O8 0.199614 0.780969 0.964954
O O9 0.657832 0.767918 0.214212
O O10 0.624483 0.769942 0.476121
O O11 0.622776 0.000000 0.305396
O O12 0.427658 0.500000 0.830266
O O13 0.405064 0.235310 0.734949
O O14 0.375447 0.339786 0.976875
O O15 0.325664 0.500000 0.134378
O O16 0.636395 0.000000 0.657444
#
# Coordination Sequence:
#
# PCOD8172661 Si02
#       6
#     8   8   8   8   8   8
#     4   9  17  31  51  73  97 127 164 207 252 295
#     4  10  20  34  52  75  99 127 164 205 249 293
#     4   9  18  31  49  73  99 129 165 201 241 292
#     4   9  17  30  48  70  95 125 162 200 238 286
#     4   8  16  30  48  69  92 121 158 196 236 284
#     4  10  19  32  50  73 101 133 167 202 243 293
#
# _framework density 17.582374000000002
#
# number of rings (size 3 to 8) (size 9 to 14) (size 15 to 20)
#    0.000    2.833    0.000    2.500    0.000    6.333 
#    0.000    1.667    0.000    5.000    0.000    0.000 
#    0.000    0.000    0.000    0.000    0.000    0.000 
#
# Total GULP energy -297486.173340 kJ/mol
# GULP energy per Si atom -12395.257222 kJ/mol
# Density = 1.754236 g / cm^3
# Si number density = 17.582374 Si / 1000 Ang^3
#
#
#
# Elastic Constant Matrix: (Units=GPa)
#
#
# Indices 1 2 3 4 5 6 
#
# 1 80.6815 34.2051 48.0234 0.0000 0.0000 0.0000
# 2 34.2051 69.6042 51.9041 0.0000 0.0000 0.0000
# 3 48.0234 51.9041 135.9228 0.0000 0.0000 0.0000
# 4 0.0000 0.0000 0.0000 25.9957 0.0000 0.0000
# 5 0.0000 0.0000 0.0000 0.0000 19.1495 0.0000
# 6 0.0000 0.0000 0.0000 0.0000 0.0000 22.1277
#
#
#
# Elastic Compliance Matrix: (Units=1/GPa)
#
#
# Indices 1 2 3 4 5 6 
#
# 1 0.017048 -0.005433 -0.003949 0.000000 0.000000 0.000000
# 2 -0.005433 0.021819 -0.006412 0.000000 0.000000 0.000000
# 3 -0.003949 -0.006412 0.011201 0.000000 0.000000 0.000000
# 4 0.000000 0.000000 0.000000 0.038468 0.000000 0.000000
# 5 0.000000 0.000000 0.000000 0.000000 0.052221 0.000000
# 6 0.000000 0.000000 0.000000 0.000000 0.000000 0.045192
#
#
# Mechanical properties :
#
#
# Convention : Reuss Voigt Hill
#
# Bulk Modulus (GPa) = 54.11410 61.60818 57.86114
# Shear Modulus (GPa) = 22.35176 23.59296 22.97236
#
# Velocity S-wave (km/s) = 3.56934 3.66711 3.61855
# Velocity P-wave (km/s) = 6.91601 7.28327 7.10201
#
# Compressibility (1/GPa) = 0.01847947
#
# Stress axis : x y z
#
# Youngs Moduli (GPa) = 58.65731 45.83261 89.28007
#
# Poissons Ratio (x) = 0.24903 0.35252
# Poissons Ratio (y) = 0.31871 0.57247
# Poissons Ratio (z) = 0.23161 0.29388
#
# Static dielectric constant tensor:
#      x y z
#    x 3.223720 0.000000 0.000000 
#    y 0.000000 3.375980 0.000000 
#    z 0.000000 0.000000 3.395220 
# 
# 
# High freq. dielectric constant tensor:
#      x y z
#    x 1.659320 0.000000 0.000000 
#    y 0.000000 1.685460 0.000000 
#    z 0.000000 0.000000 1.668210 
# 
# From -- ./inp_files/5298.got.cif
#   From: 2010.03.12/outbox.cif.g09.slc.cpg/sg35_3_cif.got.tgz:5298.got - 2010.04.14 02:02:04.
