data_PCOD8172450
_publ_section_title
;
Structure prediction by ZEFSAII (Michael W. Deem and Ramdas Pophale) SiO2 
 PCOD8172450
Probable space group: C M M 2
;
_chemical_formula_sum "Si O2"
_cell_formula_units_Z 56
_cell_length_a 9.349968
_cell_length_b 21.367970
_cell_length_c 14.566147
_cell_angle_alpha 90.000000
_cell_angle_beta 90.000000
_cell_angle_gamma 90.000000
_cell_volume 2910.168116
_symmetry_space_group_name_H-M "C M M 2"
_symmetry_group_IT_number 35
_symmetry_cell_setting 'orthorhombic'
loop_
_space_group_symop_operation_xyz
x,y,z
-x,-y,z
-x,y,z
x,-y,z
1/2+x,1/2+y,z
1/2-x,1/2-y,z
1/2-x,1/2+y,z
1/2+x,1/2-y,z
loop_
_atom_site_type_symbol
_atom_site_label
_atom_site_fract_x
_atom_site_fract_y
_atom_site_fract_z
Si Si1 0.831325 0.000000 0.145561
Si Si2 0.662815 0.571643 0.648699
Si Si3 0.330928 0.500000 0.354030
Si Si4 0.167996 0.877696 0.455149
Si Si5 0.331260 0.929091 0.829870
Si Si6 0.335093 0.187854 0.952425
Si Si7 0.833487 0.308916 0.309875
Si Si8 0.162148 0.617587 0.129555
O O1 0.776649 0.000000 0.250159
O O2 0.767365 0.061931 0.098985
O O3 0.000000 0.000000 0.133626
O O4 0.500000 0.582042 0.680739
O O5 0.684422 0.500000 0.616120
O O6 0.699234 0.617326 0.563557
O O7 0.765265 0.589238 0.731970
O O8 0.500000 0.500000 0.357393
O O9 0.272783 0.560180 0.406492
O O10 0.261613 0.823394 0.408647
O O11 0.000000 0.866280 0.436161
O O12 0.500000 0.928359 0.818783
O O13 0.281051 0.875439 0.900863
O O14 0.281246 0.000000 0.859413
O O15 0.500000 0.200681 0.928723
O O16 0.250000 0.250000 0.921774
O O17 0.311332 0.175773 0.060876
O O18 0.750000 0.250000 0.268605
O O19 0.809244 0.362977 0.234580
O O20 0.000000 0.293975 0.324171
O O21 0.000000 0.593433 0.117192
#
# Coordination Sequence:
#
# PCOD8172450 Si02
#       8
#     4   8   4   8   8   8   8   8
#     4  11  21  33  55  86 115 148 186 229 277 325
#     4   9  17  31  55  84 112 143 178 221 277 332
#     4   9  16  29  51  78 107 140 174 213 261 311
#     4  10  18  33  55  79 110 146 181 220 268 324
#     4   9  19  36  58  84 113 147 186 230 286 344
#     4  10  22  40  62  84 110 150 191 235 287 342
#     4  11  23  37  53  76 106 146 191 233 276 323
#     4  10  22  38  57  81 113 149 185 228 280 335
#
# _framework density 19.242875000000002
#
# number of rings (size 3 to 8) (size 9 to 14) (size 15 to 20)
#    0.000    2.143    2.143    1.071    1.000    2.286 
#    0.000    1.071    0.000    1.714    0.000    0.000 
#    0.000    0.000    0.000    0.000    0.000    0.000 
#
# Total GULP energy -347125.657615 kJ/mol
# GULP energy per Si atom -12397.344915 kJ/mol
# Density = 1.919908 g / cm^3
# Si number density = 19.242875 Si / 1000 Ang^3
#
#
#
# Elastic Constant Matrix: (Units=GPa)
#
#
# Indices 1 2 3 4 5 6 
#
# 1 77.8862 56.7246 35.7918 0.0000 0.0000 0.0000
# 2 56.7246 106.0134 37.5262 0.0000 0.0000 0.0000
# 3 35.7918 37.5262 84.5287 0.0000 0.0000 0.0000
# 4 0.0000 0.0000 0.0000 23.9898 0.0000 0.0000
# 5 0.0000 0.0000 0.0000 0.0000 29.1470 0.0000
# 6 0.0000 0.0000 0.0000 0.0000 0.0000 33.5952
#
#
#
# Elastic Compliance Matrix: (Units=1/GPa)
#
#
# Indices 1 2 3 4 5 6 
#
# 1 0.022692 -0.010370 -0.005004 0.000000 0.000000 0.000000
# 2 -0.010370 0.015931 -0.002681 0.000000 0.000000 0.000000
# 3 -0.005004 -0.002681 0.015140 0.000000 0.000000 0.000000
# 4 0.000000 0.000000 0.000000 0.041684 0.000000 0.000000
# 5 0.000000 0.000000 0.000000 0.000000 0.034309 0.000000
# 6 0.000000 0.000000 0.000000 0.000000 0.000000 0.029766
#
#
# Mechanical properties :
#
#
# Convention : Reuss Voigt Hill
#
# Bulk Modulus (GPa) = 56.65706 58.72371 57.69038
# Shear Modulus (GPa) = 24.81185 26.57210 25.69198
#
# Velocity S-wave (km/s) = 3.59472 3.72005 3.65792
# Velocity P-wave (km/s) = 6.83641 7.00250 6.91995
#
# Compressibility (1/GPa) = 0.01765005
#
# Stress axis : x y z
#
# Youngs Moduli (GPa) = 44.06925 62.77209 66.05148
#
# Poissons Ratio (x) = 0.65095 0.33055
# Poissons Ratio (y) = 0.45700 0.17711
# Poissons Ratio (z) = 0.22054 0.16831
#
# Static dielectric constant tensor:
#      x y z
#    x 3.338210 0.000000 0.000000 
#    y 0.000000 3.459620 0.000000 
#    z 0.000000 0.000000 3.438240 
# 
# 
# High freq. dielectric constant tensor:
#      x y z
#    x 1.736840 0.000000 0.000000 
#    y 0.000000 1.739900 0.000000 
#    z 0.000000 0.000000 1.743280 
# 
# From -- ./inp_files/15683.got.cif
#   From: 2010.03.12/outbox.cif.g09.slc.cpg/sg35_8_cif.got.tgz:15683.got - 2010.04.14 02:02:04.
