data_PCOD8172188
_publ_section_title
;
Structure prediction by ZEFSAII (Michael W. Deem and Ramdas Pophale) SiO2 
 PCOD8172188
Probable space group: C M M 2
;
_chemical_formula_sum "Si O2"
_cell_formula_units_Z 40
_cell_length_a 26.150720
_cell_length_b 8.812486
_cell_length_c 9.214393
_cell_angle_alpha 90.000000
_cell_angle_beta 90.000000
_cell_angle_gamma 90.000000
_cell_volume 2123.483164
_symmetry_space_group_name_H-M "C M M 2"
_symmetry_group_IT_number 35
_symmetry_cell_setting 'orthorhombic'
loop_
_space_group_symop_operation_xyz
x,y,z
-x,-y,z
-x,y,z
x,-y,z
1/2+x,1/2+y,z
1/2-x,1/2-y,z
1/2-x,1/2+y,z
1/2+x,1/2-y,z
loop_
_atom_site_type_symbol
_atom_site_label
_atom_site_fract_x
_atom_site_fract_y
_atom_site_fract_z
Si Si1 0.000000 0.176538 0.362010
Si Si2 0.903033 0.321864 0.851201
Si Si3 0.800363 0.178649 0.860159
Si Si4 0.500000 0.179758 0.674291
Si Si5 0.298423 0.176675 0.174405
Si Si6 0.911383 0.673870 0.188285
O O1 0.000000 0.266841 0.510618
O O2 0.949282 0.216820 0.272875
O O3 0.000000 0.000000 0.396114
O O4 0.894624 0.500000 0.832310
O O5 0.852570 0.239709 0.788153
O O6 0.950150 0.258723 0.757519
O O7 0.913266 0.282120 0.019120
O O8 0.750000 0.250000 0.782645
O O9 0.797888 0.000000 0.845475
O O10 0.800961 0.230310 0.026269
O O11 0.500000 0.000000 0.678710
O O12 0.250000 0.250000 0.263638
O O13 0.353573 0.196395 0.252075
O O14 0.288351 0.000000 0.141392
O O15 0.929082 0.500000 0.209765
#
# Coordination Sequence:
#
# PCOD8172188 Si02
#       6
#     4   8   8   4   8   8
#     4  12  25  36  50  74 104 136 173 214 254 298
#     4   9  18  34  56  80 101 129 171 214 254 302
#     4  10  17  26  44  72 106 138 165 202 249 297
#     4  10  21  38  58  74  98 136 171 208 260 312
#     4   9  16  27  46  73 103 133 165 205 250 299
#     4   9  18  34  55  77 103 134 170 208 251 303
#
# _framework density 18.836977000000001
#
# number of rings (size 3 to 8) (size 9 to 14) (size 15 to 20)
#    0.000    2.400    0.000    6.300    0.000    6.400 
#    0.000    1.000    0.000    1.200    0.000    5.600 
#    0.000    0.000    0.000    0.000    0.000    0.000 
#
# Total GULP energy -247880.747264 kJ/mol
# GULP energy per Si atom -12394.037363 kJ/mol
# Density = 1.879410 g / cm^3
# Si number density = 18.836977 Si / 1000 Ang^3
#
#
#
# Elastic Constant Matrix: (Units=GPa)
#
#
# Indices 1 2 3 4 5 6 
#
# 1 187.3487 54.2482 39.7217 0.0000 0.0000 0.0000
# 2 54.2482 69.2649 8.4151 0.0000 0.0000 0.0000
# 3 39.7217 8.4151 39.5729 0.0000 0.0000 0.0000
# 4 0.0000 0.0000 0.0000 14.7271 0.0000 0.0000
# 5 0.0000 0.0000 0.0000 0.0000 0.2609 0.0000
# 6 0.0000 0.0000 0.0000 0.0000 0.0000 38.4401
#
#
#
# Elastic Compliance Matrix: (Units=1/GPa)
#
#
# Indices 1 2 3 4 5 6 
#
# 1 0.008592 -0.005832 -0.007384 0.000000 0.000000 0.000000
# 2 -0.005832 0.018779 0.001861 0.000000 0.000000 0.000000
# 3 -0.007384 0.001861 0.032286 0.000000 0.000000 0.000000
# 4 0.000000 0.000000 0.000000 0.067902 0.000000 0.000000
# 5 0.000000 0.000000 0.000000 0.000000 3.833158 0.000000
# 6 0.000000 0.000000 0.000000 0.000000 0.000000 0.026014
#
#
# Mechanical properties :
#
#
# Convention : Reuss Voigt Hill
#
# Bulk Modulus (GPa) = 27.06655 55.66184 41.36420
# Shear Modulus (GPa) = 1.24324 23.60572 12.42448
#
# Velocity S-wave (km/s) = 0.81328 3.54384 2.57101
# Velocity P-wave (km/s) = 3.90921 6.80870 5.55159
#
# Compressibility (1/GPa) = 0.03694597
#
# Stress axis : x y z
#
# Youngs Moduli (GPa) = 116.38813 53.25106 30.97320
#
# Poissons Ratio (x) = 0.31057 0.22871
# Poissons Ratio (y) = 0.67879 -0.05763
# Poissons Ratio (z) = 0.85942 -0.09908
#
# Static dielectric constant tensor:
#      x y z
#    x 4.487760 0.000000 0.000000 
#    y 0.000000 3.407390 0.000000 
#    z 0.000000 0.000000 2.913620 
# 
# 
# High freq. dielectric constant tensor:
#      x y z
#    x 1.766090 0.000000 0.000000 
#    y 0.000000 1.729400 0.000000 
#    z 0.000000 0.000000 1.664500 
# 
# From -- ./inp_files/10080.got.cif
#   From: 2010.03.12/outbox.cif.g09.slc.cpg/sg35_6_cif.got.tgz:10080.got - 2010.04.14 02:02:04.
