data_PCOD8172154
_publ_section_title
;
Structure prediction by ZEFSAII (Michael W. Deem and Ramdas Pophale) SiO2 
 PCOD8172154
Probable space group: C M M 2
;
_chemical_formula_sum "Si O2"
_cell_formula_units_Z 56
_cell_length_a 8.698064
_cell_length_b 19.720368
_cell_length_c 18.319721
_cell_angle_alpha 90.000000
_cell_angle_beta 90.000000
_cell_angle_gamma 90.000000
_cell_volume 3142.363844
_symmetry_space_group_name_H-M "C M M 2"
_symmetry_group_IT_number 35
_symmetry_cell_setting 'orthorhombic'
loop_
_space_group_symop_operation_xyz
x,y,z
-x,-y,z
-x,y,z
x,-y,z
1/2+x,1/2+y,z
1/2-x,1/2-y,z
1/2-x,1/2+y,z
1/2+x,1/2-y,z
loop_
_atom_site_type_symbol
_atom_site_label
_atom_site_fract_x
_atom_site_fract_y
_atom_site_fract_z
Si Si1 0.680094 0.323981 0.969190
Si Si2 0.182574 0.575027 0.530164
Si Si3 0.316649 0.175433 0.405425
Si Si4 0.321828 0.323217 0.808999
Si Si5 0.182109 0.325619 0.112150
Si Si6 0.816939 0.174664 0.257406
Si Si7 0.177849 0.421336 0.693405
O O1 0.500000 0.320909 0.986292
O O2 0.750000 0.250000 0.964803
O O3 0.715811 0.355591 0.889342
O O4 0.763376 0.363215 0.037034
O O5 0.246700 0.500000 0.510651
O O6 0.243834 0.629284 0.471922
O O7 0.236027 0.595959 0.611510
O O8 0.000000 0.572366 0.528882
O O9 0.500000 0.178834 0.400562
O O10 0.250000 0.250000 0.418246
O O11 0.249225 0.141045 0.331376
O O12 0.500000 0.310009 0.802210
O O13 0.250000 0.250000 0.794951
O O14 0.272681 0.376968 0.749325
O O15 0.250000 0.250000 0.108779
O O16 0.253341 0.362581 0.184119
O O17 0.000000 0.324664 0.118326
O O18 0.750000 0.250000 0.256610
O O19 0.000000 0.174735 0.258052
O O20 0.207144 0.500000 0.710631
O O21 0.000000 0.402792 0.702181
#
# Coordination Sequence:
#
# PCOD8172154 Si02
#       7
#     8   8   8   8   8   8   8
#     4   9  16  26  39  59  88 121 154 189 231 275
#     4   8  16  32  52  71  91 120 157 194 232 277
#     4  10  18  29  46  68  95 122 152 191 233 277
#     4  10  20  32  48  71 100 130 161 199 242 287
#     4  10  16  23  37  58  85 118 154 188 226 271
#     4  10  17  26  39  58  88 121 153 187 226 272
#     4   9  18  34  54  73  95 125 161 199 240 288
#
# _framework density 17.820978
#
# number of rings (size 3 to 8) (size 9 to 14) (size 15 to 20)
#    0.000    2.571    0.000    7.286    0.000    2.571 
#    0.000    2.857    0.000    3.429    0.000    1.000 
#    0.000    5.714    0.000    0.000    0.000    0.000 
#
# Total GULP energy -346919.013902 kJ/mol
# GULP energy per Si atom -12389.964782 kJ/mol
# Density = 1.778042 g / cm^3
# Si number density = 17.820978 Si / 1000 Ang^3
#
#
#
# Elastic Constant Matrix: (Units=GPa)
#
#
# Indices 1 2 3 4 5 6 
#
# 1 100.2677 23.5128 61.5472 0.0000 0.0000 0.0000
# 2 23.5128 43.5464 59.9498 0.0000 0.0000 0.0000
# 3 61.5472 59.9498 192.0883 0.0000 0.0000 0.0000
# 4 0.0000 0.0000 0.0000 -0.5006 0.0000 0.0000
# 5 0.0000 0.0000 0.0000 0.0000 30.4311 0.0000
# 6 0.0000 0.0000 0.0000 0.0000 0.0000 15.8894
#
#
#
# Elastic Compliance Matrix: (Units=1/GPa)
#
#
# Indices 1 2 3 4 5 6 
#
# 1 0.012531 -0.002172 -0.003337 0.000000 0.000000 0.000000
# 2 -0.002172 0.040640 -0.011988 0.000000 0.000000 0.000000
# 3 -0.003337 -0.011988 0.010017 0.000000 0.000000 0.000000
# 4 0.000000 0.000000 0.000000 -1.997660 0.000000 0.000000
# 5 0.000000 0.000000 0.000000 0.000000 0.032861 0.000000
# 6 0.000000 0.000000 0.000000 0.000000 0.000000 0.062935
#
#
# Mechanical properties :
#
#
# Convention : Reuss Voigt Hill
#
# Bulk Modulus (GPa) = 35.46829 69.54690 52.50760
# Shear Modulus (GPa) = -2.78663 21.89015 9.55176
#
# Velocity S-wave (km/s) = -1.25183 3.50856 2.31764
# Velocity P-wave (km/s) = 4.22567 7.45140 6.05722
#
# Compressibility (1/GPa) = 0.02819420
#
# Stress axis : x y z
#
# Youngs Moduli (GPa) = 79.80136 24.60631 99.83463
#
# Poissons Ratio (x) = 0.05344 0.33318
# Poissons Ratio (y) = 0.17330 1.19679
# Poissons Ratio (z) = 0.26632 0.29497
#
# Static dielectric constant tensor:
#      x y z
#    x 3.240190 0.000000 0.000000 
#    y 0.000000 2.852810 0.000000 
#    z 0.000000 0.000000 4.875930 
# 
# 
# High freq. dielectric constant tensor:
#      x y z
#    x 1.691700 0.000000 0.000000 
#    y 0.000000 1.619860 0.000000 
#    z 0.000000 0.000000 1.722560 
# 
# From -- ./inp_files/18266.got.cif
#   From: 2010.03.12/outbox.cif.g09.slc.cpg/sg35_10_cif.got.tgz:18266.got - 2010.04.14 02:02:04.
