data_PCOD8172991
_publ_section_title
;
Structure prediction by ZEFSAII (Michael W. Deem and Ramdas Pophale) SiO2 
 PCOD8172991
Probable space group: C M M 2
;
_chemical_formula_sum "Si O2"
_cell_formula_units_Z 48
_cell_length_a 18.260870
_cell_length_b 7.472379
_cell_length_c 17.463208
_cell_angle_alpha 90.000000
_cell_angle_beta 90.000000
_cell_angle_gamma 90.000000
_cell_volume 2382.892129
_symmetry_space_group_name_H-M "C M M 2"
_symmetry_group_IT_number 35
_symmetry_cell_setting 'orthorhombic'
loop_
_space_group_symop_operation_xyz
x,y,z
-x,-y,z
-x,y,z
x,-y,z
1/2+x,1/2+y,z
1/2-x,1/2-y,z
1/2-x,1/2+y,z
1/2+x,1/2-y,z
loop_
_atom_site_type_symbol
_atom_site_label
_atom_site_fract_x
_atom_site_fract_y
_atom_site_fract_z
Si Si1 0.417180 0.712315 0.663630
Si Si2 0.087580 0.500000 0.079347
Si Si3 0.586206 0.704640 0.368629
Si Si4 0.086497 0.500000 0.252290
Si Si5 0.164857 0.209595 0.980135
Si Si6 0.334392 0.291440 0.518878
Si Si7 0.418181 0.711937 0.831656
O O1 0.500000 0.773167 0.646898
O O2 0.411377 0.500000 0.663351
O O3 0.365969 0.796284 0.597186
O O4 0.392887 0.784150 0.747886
O O5 0.117172 0.500000 0.166422
O O6 0.119065 0.319762 0.042101
O O7 0.000000 0.500000 0.073200
O O8 0.500000 0.722214 0.382001
O O9 0.609323 0.500000 0.352034
O O10 0.613346 0.822191 0.296729
O O11 0.624718 0.785060 0.444329
O O12 0.000000 0.500000 0.248408
O O13 0.250000 0.250000 0.988661
O O14 0.148515 0.000000 0.993089
O O15 0.138556 0.276733 0.896272
O O16 0.350593 0.500000 0.521624
O O17 0.250000 0.250000 0.511921
O O18 0.500000 0.784118 0.850748
O O19 0.420775 0.500000 0.829204
#
# Coordination Sequence:
#
# PCOD8172991 Si02
#       7
#     8   4   8   4   8   8   8
#     4   8  14  28  50  76 106 144 192 237 277 329
#     4  11  24  42  66  95 122 154 199 251 306 366
#     4   9  18  35  59  83 108 142 187 231 279 338
#     4   9  20  38  62  89 113 140 181 237 291 342
#     4  11  22  39  62  88 125 164 200 246 301 365
#     4  10  20  31  49  75 108 146 184 229 278 335
#     4   8  15  29  53  83 111 147 197 243 288 343
#
# _framework density 20.143588000000001
#
# number of rings (size 3 to 8) (size 9 to 14) (size 15 to 20)
#    0.000    2.667    0.833    2.000    1.167    4.333 
#    0.000    2.500    1.833    0.000    0.000    0.000 
#    0.000    0.000    0.000    0.000    0.000    0.000 
#
# Total GULP energy -297485.187724 kJ/mol
# GULP energy per Si atom -12395.216155 kJ/mol
# Density = 2.009774 g / cm^3
# Si number density = 20.143588 Si / 1000 Ang^3
#
#
#
# Elastic Constant Matrix: (Units=GPa)
#
#
# Indices 1 2 3 4 5 6 
#
# 1 99.4866 27.2113 74.7852 0.0000 0.0000 0.0000
# 2 27.2113 78.5982 57.4048 0.0000 0.0000 0.0000
# 3 74.7852 57.4048 201.8932 0.0000 0.0000 0.0000
# 4 0.0000 0.0000 0.0000 -17.6491 0.0000 0.0000
# 5 0.0000 0.0000 0.0000 0.0000 14.9359 0.0000
# 6 0.0000 0.0000 0.0000 0.0000 0.0000 10.5334
#
#
#
# Elastic Compliance Matrix: (Units=1/GPa)
#
#
# Indices 1 2 3 4 5 6 
#
# 1 0.014042 -0.001341 -0.004820 0.000000 0.000000 0.000000
# 2 -0.001341 0.016186 -0.004105 0.000000 0.000000 0.000000
# 3 -0.004820 -0.004105 0.007906 0.000000 0.000000 0.000000
# 4 0.000000 0.000000 0.000000 -0.056660 0.000000 0.000000
# 5 0.000000 0.000000 0.000000 0.000000 0.066953 0.000000
# 6 0.000000 0.000000 0.000000 0.000000 0.000000 0.094936
#
#
# Mechanical properties :
#
#
# Convention : Reuss Voigt Hill
#
# Bulk Modulus (GPa) = 56.81709 77.64228 67.22969
# Shear Modulus (GPa) = 29.45308 16.26914 22.86111
#
# Velocity S-wave (km/s) = 3.82796 2.84502 3.37249
# Velocity P-wave (km/s) = 6.91412 7.02995 6.97228
#
# Compressibility (1/GPa) = 0.01760034
#
# Stress axis : x y z
#
# Youngs Moduli (GPa) = 71.21676 61.78337 126.48891
#
# Poissons Ratio (x) = 0.08285 0.60968
# Poissons Ratio (y) = 0.09550 0.51928
# Poissons Ratio (z) = 0.34327 0.25364
#
# Static dielectric constant tensor:
#      x y z
#    x 3.466790 0.000000 0.000000 
#    y 0.000000 3.564780 0.000000 
#    z 0.000000 0.000000 4.170170 
# 
# 
# High freq. dielectric constant tensor:
#      x y z
#    x 1.768030 0.000000 0.000000 
#    y 0.000000 1.775850 0.000000 
#    z 0.000000 0.000000 1.793190 
# 
# From -- ./inp_files/17089.got.cif
#   From: 2010.03.12/outbox.cif.g09.slc.cpg/sg35_9_cif.got.tgz:17089.got - 2010.04.14 02:02:04.
