data_PCOD8172472
_publ_section_title
;
Structure prediction by ZEFSAII (Michael W. Deem and Ramdas Pophale) SiO2 
 PCOD8172472
Probable space group: C M M 2
;
_chemical_formula_sum "Si O2"
_cell_formula_units_Z 64
_cell_length_a 8.737366
_cell_length_b 30.928116
_cell_length_c 11.797291
_cell_angle_alpha 90.000000
_cell_angle_beta 90.000000
_cell_angle_gamma 90.000000
_cell_volume 3187.985123
_symmetry_space_group_name_H-M "C M M 2"
_symmetry_group_IT_number 35
_symmetry_cell_setting 'orthorhombic'
loop_
_space_group_symop_operation_xyz
x,y,z
-x,-y,z
-x,y,z
x,-y,z
1/2+x,1/2+y,z
1/2-x,1/2-y,z
1/2-x,1/2+y,z
1/2+x,1/2-y,z
loop_
_atom_site_type_symbol
_atom_site_label
_atom_site_fract_x
_atom_site_fract_y
_atom_site_fract_z
Si Si1 0.822813 0.451658 0.957470
Si Si2 0.823132 0.205536 0.973451
Si Si3 0.175556 0.178386 0.722206
Si Si4 0.181903 0.952209 0.492762
Si Si5 0.181049 0.871422 0.351792
Si Si6 0.320140 0.794466 0.496263
Si Si7 0.180594 0.627643 0.106555
Si Si8 0.319301 0.580355 0.732764
O O1 0.791537 0.500000 0.004492
O O2 0.740359 0.446934 0.837864
O O3 0.000000 0.443130 0.934974
O O4 0.762784 0.417218 0.049736
O O5 0.750000 0.250000 0.018701
O O6 0.727057 0.166489 0.024942
O O7 0.000000 0.202237 0.011464
O O8 0.807816 0.204587 0.838121
O O9 0.280070 0.201241 0.628811
O O10 0.235522 0.129788 0.742068
O O11 0.000000 0.178087 0.678987
O O12 0.239692 0.917516 0.400436
O O13 0.246618 0.939812 0.616685
O O14 0.000000 0.951811 0.497490
O O15 0.242593 0.000000 0.459017
O O16 0.252403 0.833997 0.426910
O O17 0.232823 0.866687 0.223745
O O18 0.000000 0.867482 0.360283
O O19 0.500000 0.793099 0.479550
O O20 0.250000 0.750000 0.448137
O O21 0.000000 0.628134 0.127901
O O22 0.500000 0.577636 0.735265
#
# Coordination Sequence:
#
# PCOD8172472 Si02
#       8
#     8   8   8   8   8   8   8   8
#     4  10  22  39  59  87 125 164 201 247 302 358
#     4  11  23  40  63  91 123 158 199 246 301 360
#     4  10  20  37  62  93 126 159 197 245 300 357
#     4   9  18  34  59  90 122 156 194 242 298 352
#     4  11  23  42  64  87 120 158 203 256 304 354
#     4  12  25  41  64  92 124 160 201 245 300 362
#     4  11  24  42  62  86 118 159 207 253 303 359
#     4  10  18  34  61  91 123 158 198 244 298 356
#
# _framework density 20.075377
#
# number of rings (size 3 to 8) (size 9 to 14) (size 15 to 20)
#    0.000    1.500    2.500    3.000    0.000    4.750 
#    0.000    2.500    0.000    1.875    0.000    0.000 
#    0.000    0.000    0.000    0.000    0.000    0.000 
#
# Total GULP energy -396908.679146 kJ/mol
# GULP energy per Si atom -12403.396223 kJ/mol
# Density = 2.002968 g / cm^3
# Si number density = 20.075377 Si / 1000 Ang^3
#
#
#
# Elastic Constant Matrix: (Units=GPa)
#
#
# Indices 1 2 3 4 5 6 
#
# 1 74.2040 42.9214 31.7037 0.0000 0.0000 0.0000
# 2 42.9214 148.3355 30.4949 0.0000 0.0000 0.0000
# 3 31.7037 30.4949 88.3099 0.0000 0.0000 0.0000
# 4 0.0000 0.0000 0.0000 8.9504 0.0000 0.0000
# 5 0.0000 0.0000 0.0000 0.0000 30.7255 0.0000
# 6 0.0000 0.0000 0.0000 0.0000 0.0000 26.3474
#
#
#
# Elastic Compliance Matrix: (Units=1/GPa)
#
#
# Indices 1 2 3 4 5 6 
#
# 1 0.018049 -0.004188 -0.005034 0.000000 0.000000 0.000000
# 2 -0.004188 0.008228 -0.001338 0.000000 0.000000 0.000000
# 3 -0.005034 -0.001338 0.013593 0.000000 0.000000 0.000000
# 4 0.000000 0.000000 0.000000 0.111727 0.000000 0.000000
# 5 0.000000 0.000000 0.000000 0.000000 0.032546 0.000000
# 6 0.000000 0.000000 0.000000 0.000000 0.000000 0.037954
#
#
# Mechanical properties :
#
#
# Convention : Reuss Voigt Hill
#
# Bulk Modulus (GPa) = 53.32857 57.89883 55.61370
# Shear Modulus (GPa) = 20.04271 26.91994 23.48132
#
# Velocity S-wave (km/s) = 3.16313 3.66586 3.42374
# Velocity P-wave (km/s) = 6.32158 6.84262 6.58725
#
# Compressibility (1/GPa) = 0.01875168
#
# Stress axis : x y z
#
# Youngs Moduli (GPa) = 55.40364 121.53206 73.56783
#
# Poissons Ratio (x) = 0.50895 0.37032
# Poissons Ratio (y) = 0.23202 0.09843
# Poissons Ratio (z) = 0.27889 0.16260
#
# Static dielectric constant tensor:
#      x y z
#    x 3.510310 0.000000 0.000000 
#    y 0.000000 3.974290 0.000000 
#    z 0.000000 0.000000 3.585030 
# 
# 
# High freq. dielectric constant tensor:
#      x y z
#    x 1.769920 0.000000 0.000000 
#    y 0.000000 1.803200 0.000000 
#    z 0.000000 0.000000 1.778290 
# 
# From -- ./inp_files/11996.got.cif
#   From: 2010.03.12/outbox.cif.g09.slc.cpg/sg35_6_cif.got.tgz:11996.got - 2010.04.14 02:02:04.
