data_PCOD8172540
_publ_section_title
;
Structure prediction by ZEFSAII (Michael W. Deem and Ramdas Pophale) SiO2 
 PCOD8172540
Probable space group: C M M 2
;
_chemical_formula_sum "Si O2"
_cell_formula_units_Z 64
_cell_length_a 8.638322
_cell_length_b 18.472851
_cell_length_c 20.776807
_cell_angle_alpha 90.000000
_cell_angle_beta 90.000000
_cell_angle_gamma 90.000000
_cell_volume 3315.447242
_symmetry_space_group_name_H-M "C M M 2"
_symmetry_group_IT_number 35
_symmetry_cell_setting 'orthorhombic'
loop_
_space_group_symop_operation_xyz
x,y,z
-x,-y,z
-x,y,z
x,-y,z
1/2+x,1/2+y,z
1/2-x,1/2-y,z
1/2-x,1/2+y,z
1/2+x,1/2-y,z
loop_
_atom_site_type_symbol
_atom_site_label
_atom_site_fract_x
_atom_site_fract_y
_atom_site_fract_z
Si Si1 0.684133 0.671115 0.350070
Si Si2 0.181952 0.671168 0.217100
Si Si3 0.683976 0.418488 0.610685
Si Si4 0.182909 0.170102 0.976296
Si Si5 0.183828 0.829312 0.730762
Si Si6 0.683831 0.419277 0.469132
Si Si7 0.815777 0.081734 0.853971
Si Si8 0.819644 0.084370 0.102910
O O1 0.500000 0.671164 0.348761
O O2 0.750000 0.750000 0.358553
O O3 0.746128 0.638720 0.282902
O O4 0.752594 0.627440 0.410830
O O5 0.250000 0.750000 0.200098
O O6 0.219919 0.614334 0.161673
O O7 0.000000 0.679793 0.225509
O O8 0.500000 0.420654 0.615046
O O9 0.747004 0.500000 0.622406
O O10 0.750058 0.364523 0.664882
O O11 0.736183 0.390206 0.539736
O O12 0.250000 0.250000 0.978507
O O13 0.248737 0.126822 0.914708
O O14 0.000000 0.175985 0.972114
O O15 0.234887 0.126209 0.039230
O O16 0.250000 0.750000 0.739704
O O17 0.242454 0.879074 0.789352
O O18 0.000000 0.824826 0.729718
O O19 0.500000 0.419041 0.465309
O O20 0.748036 0.500000 0.460255
O O21 0.000000 0.078982 0.856115
O O22 0.749196 0.000000 0.855827
O O23 0.000000 0.097915 0.117155
O O24 0.783774 0.000000 0.093212
#
# Coordination Sequence:
#
# PCOD8172540 Si02
#       8
#     8   8   8   8   8   8   8   8
#     4  10  19  32  51  74 100 131 166 205 252 304
#     4  11  22  37  56  77 103 135 171 211 256 305
#     4   8  14  27  47  70  95 126 168 211 246 287
#     4  10  20  34  54  78 104 135 169 208 252 298
#     4  10  19  30  48  74 102 132 165 205 251 296
#     4   8  15  28  47  71  97 126 164 209 251 292
#     4   9  17  31  52  76 100 130 172 214 247 287
#     4  10  21  37  56  78 104 135 171 210 254 304
#
# _framework density 19.303578999999999
#
# number of rings (size 3 to 8) (size 9 to 14) (size 15 to 20)
#    0.000    2.500    0.000    4.500    0.000    5.750 
#    0.000    1.250    0.000    5.250    0.000    3.500 
#    0.000    0.000    0.000    0.000    0.000    0.000 
#
# Total GULP energy -396730.011216 kJ/mol
# GULP energy per Si atom -12397.812851 kJ/mol
# Density = 1.925964 g / cm^3
# Si number density = 19.303579 Si / 1000 Ang^3
#
#
#
# Elastic Constant Matrix: (Units=GPa)
#
#
# Indices 1 2 3 4 5 6 
#
# 1 41.2418 23.6907 32.1400 0.0000 0.0000 0.0000
# 2 23.6907 135.1932 96.5996 0.0000 0.0000 0.0000
# 3 32.1400 96.5996 195.1793 0.0000 0.0000 0.0000
# 4 0.0000 0.0000 0.0000 45.7326 0.0000 0.0000
# 5 0.0000 0.0000 0.0000 0.0000 8.3377 0.0000
# 6 0.0000 0.0000 0.0000 0.0000 0.0000 23.9128
#
#
#
# Elastic Compliance Matrix: (Units=1/GPa)
#
#
# Indices 1 2 3 4 5 6 
#
# 1 0.028364 -0.002527 -0.003420 0.000000 0.000000 0.000000
# 2 -0.002527 0.011669 -0.005359 0.000000 0.000000 0.000000
# 3 -0.003420 -0.005359 0.008339 0.000000 0.000000 0.000000
# 4 0.000000 0.000000 0.000000 0.021866 0.000000 0.000000
# 5 0.000000 0.000000 0.000000 0.000000 0.119938 0.000000
# 6 0.000000 0.000000 0.000000 0.000000 0.000000 0.041819
#
#
# Mechanical properties :
#
#
# Convention : Reuss Voigt Hill
#
# Bulk Modulus (GPa) = 38.81983 75.16386 56.99185
# Shear Modulus (GPa) = 18.99746 30.20889 24.60318
#
# Velocity S-wave (km/s) = 3.14051 3.96022 3.57394
# Velocity P-wave (km/s) = 5.77098 7.74167 6.82780
#
# Compressibility (1/GPa) = 0.02576003
#
# Stress axis : x y z
#
# Youngs Moduli (GPa) = 35.25604 85.69807 119.91683
#
# Poissons Ratio (x) = 0.21652 0.41014
# Poissons Ratio (y) = 0.08908 0.64266
# Poissons Ratio (z) = 0.12058 0.45927
#
# Static dielectric constant tensor:
#      x y z
#    x 3.101640 0.000000 0.000000 
#    y 0.000000 3.632630 0.000000 
#    z 0.000000 0.000000 4.029630 
# 
# 
# High freq. dielectric constant tensor:
#      x y z
#    x 1.707930 0.000000 0.000000 
#    y 0.000000 1.752440 0.000000 
#    z 0.000000 0.000000 1.773230 
# 
# From -- ./inp_files/18410.got.cif
#   From: 2010.03.12/outbox.cif.g09.slc.cpg/sg35_10_cif.got.tgz:18410.got - 2010.04.14 02:02:04.
