data_PCOD8172255
_publ_section_title
;
Structure prediction by ZEFSAII (Michael W. Deem and Ramdas Pophale) SiO2 
 PCOD8172255
Probable space group: C M M 2
;
_chemical_formula_sum "Si O2"
_cell_formula_units_Z 56
_cell_length_a 8.770479
_cell_length_b 19.136021
_cell_length_c 18.391807
_cell_angle_alpha 90.000000
_cell_angle_beta 90.000000
_cell_angle_gamma 90.000000
_cell_volume 3086.735046
_symmetry_space_group_name_H-M "C M M 2"
_symmetry_group_IT_number 35
_symmetry_cell_setting 'orthorhombic'
loop_
_space_group_symop_operation_xyz
x,y,z
-x,-y,z
-x,y,z
x,-y,z
1/2+x,1/2+y,z
1/2-x,1/2-y,z
1/2-x,1/2+y,z
1/2+x,1/2-y,z
loop_
_atom_site_type_symbol
_atom_site_label
_atom_site_fract_x
_atom_site_fract_y
_atom_site_fract_z
Si Si1 0.321388 0.326071 0.799990
Si Si2 0.820830 0.673497 0.499110
Si Si3 0.675211 0.582027 0.377315
Si Si4 0.669257 0.082927 0.232070
Si Si5 0.681037 0.826786 0.943353
Si Si6 0.681542 0.077830 0.073531
Si Si7 0.321648 0.325971 0.642514
O O1 0.500000 0.319894 0.816360
O O2 0.250000 0.250000 0.794662
O O3 0.239369 0.363947 0.868252
O O4 0.293301 0.363846 0.721197
O O5 0.750000 0.750000 0.486931
O O6 0.780122 0.623173 0.433109
O O7 0.757793 0.636585 0.573524
O O8 0.000000 0.681655 0.504610
O O9 0.500000 0.600391 0.391897
O O10 0.708143 0.500000 0.386559
O O11 0.717723 0.607401 0.295910
O O12 0.500000 0.113543 0.247382
O O13 0.731777 0.107807 0.152945
O O14 0.658952 0.000000 0.228749
O O15 0.500000 0.823021 0.942829
O O16 0.750000 0.750000 0.950592
O O17 0.744644 0.871846 0.010624
O O18 0.500000 0.074710 0.071452
O O19 0.748167 0.000000 0.060478
O O20 0.500000 0.319953 0.626509
O O21 0.250000 0.250000 0.646616
#
# Coordination Sequence:
#
# PCOD8172255 Si02
#       7
#     8   8   8   8   8   8   8
#     4   9  16  26  42  64  91 122 156 192 229 273
#     4  11  21  33  51  74 101 129 160 198 241 288
#     4  10  20  34  52  74 100 128 160 198 240 286
#     4   8  14  28  50  71  90 117 158 201 235 274
#     4  10  18  28  45  68  95 123 152 190 235 280
#     4   8  15  29  49  70  90 118 158 198 233 272
#     4   9  16  27  44  66  92 122 157 195 235 277
#
# _framework density 18.142146
#
# number of rings (size 3 to 8) (size 9 to 14) (size 15 to 20)
#    0.000    2.714    0.000    5.571    0.000    2.571 
#    0.000    2.143    0.000    6.000    0.000    4.000 
#    0.000    0.000    0.000    0.000    0.000    0.000 
#
# Total GULP energy -346904.630023 kJ/mol
# GULP energy per Si atom -12389.451072 kJ/mol
# Density = 1.810085 g / cm^3
# Si number density = 18.142146 Si / 1000 Ang^3
#
#
#
# Elastic Constant Matrix: (Units=GPa)
#
#
# Indices 1 2 3 4 5 6 
#
# 1 99.3739 23.5077 55.7191 0.0000 0.0000 0.0000
# 2 23.5077 36.2010 45.2429 0.0000 0.0000 0.0000
# 3 55.7191 45.2429 186.3016 0.0000 0.0000 0.0000
# 4 0.0000 0.0000 0.0000 3.9193 0.0000 0.0000
# 5 0.0000 0.0000 0.0000 0.0000 30.8756 0.0000
# 6 0.0000 0.0000 0.0000 0.0000 0.0000 15.6575
#
#
#
# Elastic Compliance Matrix: (Units=1/GPa)
#
#
# Indices 1 2 3 4 5 6 
#
# 1 0.012696 -0.005024 -0.002577 0.000000 0.000000 0.000000
# 2 -0.005024 0.041648 -0.008612 0.000000 0.000000 0.000000
# 3 -0.002577 -0.008612 0.008230 0.000000 0.000000 0.000000
# 4 0.000000 0.000000 0.000000 0.255151 0.000000 0.000000
# 5 0.000000 0.000000 0.000000 0.000000 0.032388 0.000000
# 6 0.000000 0.000000 0.000000 0.000000 0.000000 0.063867
#
#
# Mechanical properties :
#
#
# Convention : Reuss Voigt Hill
#
# Bulk Modulus (GPa) = 33.16826 63.42402 48.29614
# Shear Modulus (GPa) = 10.95397 23.25093 17.10245
#
# Velocity S-wave (km/s) = 2.45987 3.58382 3.07366
# Velocity P-wave (km/s) = 5.13713 7.22222 6.26700
#
# Compressibility (1/GPa) = 0.03014930
#
# Stress axis : x y z
#
# Youngs Moduli (GPa) = 78.76200 24.01053 121.50964
#
# Poissons Ratio (x) = 0.12062 0.31316
# Poissons Ratio (y) = 0.39567 1.04641
# Poissons Ratio (z) = 0.20299 0.20677
#
# Static dielectric constant tensor:
#      x y z
#    x 3.332970 0.000000 0.000000 
#    y 0.000000 2.881380 0.000000 
#    z 0.000000 0.000000 4.404100 
# 
# 
# High freq. dielectric constant tensor:
#      x y z
#    x 1.701790 0.000000 0.000000 
#    y 0.000000 1.635580 0.000000 
#    z 0.000000 0.000000 1.734430 
# 
# From -- ./inp_files/18232.got.cif
#   From: 2010.03.12/outbox.cif.g09.slc.cpg/sg35_10_cif.got.tgz:18232.got - 2010.04.14 02:02:04.
