data_PCOD8172321
_publ_section_title
;
Structure prediction by ZEFSAII (Michael W. Deem and Ramdas Pophale) SiO2 
 PCOD8172321
Probable space group: C M M 2
;
_chemical_formula_sum "Si O2"
_cell_formula_units_Z 56
_cell_length_a 14.057555
_cell_length_b 19.113091
_cell_length_c 12.319555
_cell_angle_alpha 90.000000
_cell_angle_beta 90.000000
_cell_angle_gamma 90.000000
_cell_volume 3310.059036
_symmetry_space_group_name_H-M "C M M 2"
_symmetry_group_IT_number 35
_symmetry_cell_setting 'orthorhombic'
loop_
_space_group_symop_operation_xyz
x,y,z
-x,-y,z
-x,y,z
x,-y,z
1/2+x,1/2+y,z
1/2-x,1/2-y,z
1/2-x,1/2+y,z
1/2+x,1/2-y,z
loop_
_atom_site_type_symbol
_atom_site_label
_atom_site_fract_x
_atom_site_fract_y
_atom_site_fract_z
Si Si1 0.110516 0.201229 0.000000
Si Si2 0.393595 0.144253 0.928332
Si Si3 0.888903 0.078222 0.374882
Si Si4 0.775253 0.171992 0.213483
Si Si5 0.109195 0.080399 0.626056
Si Si6 0.776568 0.828880 0.791474
Si Si7 0.392804 0.921172 0.146954
O O1 0.129856 0.284227 0.994449
O O2 0.147048 0.167306 0.888569
O O3 0.000000 0.183128 0.015478
O O4 0.168959 0.169013 0.099552
O O5 0.500000 0.147367 0.878862
O O6 0.320526 0.132941 0.829935
O O7 0.382574 0.083039 0.016199
O O8 0.838487 0.137702 0.306090
O O9 0.865279 0.090545 0.500616
O O10 0.000000 0.085438 0.353814
O O11 0.855377 0.000000 0.340499
O O12 0.750000 0.250000 0.249843
O O13 0.677383 0.129838 0.208970
O O14 0.180635 0.130343 0.690342
O O15 0.000000 0.102229 0.648730
O O16 0.124886 0.000000 0.661398
O O17 0.750000 0.750000 0.756596
O O18 0.500000 0.899711 0.180423
O O19 0.369692 0.000000 0.182084
#
# Coordination Sequence:
#
# PCOD8172321 Si02
#       7
#     8   8   8   8   8   8   8
#     4  10  18  30  48  76 110 137 161 202 260 310
#     4   9  17  31  47  69 104 140 169 197 239 298
#     4   9  20  38  56  74  99 135 173 211 261 312
#     4  12  20  32  52  79 106 132 171 215 257 301
#     4   9  19  37  57  75 100 134 171 211 259 314
#     4  10  18  31  51  78 105 133 169 208 255 301
#     4  10  20  33  48  68 101 142 176 203 239 300
#
# _framework density 16.918126999999998
#
# number of rings (size 3 to 8) (size 9 to 14) (size 15 to 20)
#    0.000    2.143    2.857    2.571    0.000    2.286 
#    0.000    0.000    0.000    3.429    0.000    2.000 
#    0.000    0.000    0.000    0.000    0.000    0.000 
#
# Total GULP energy -347202.101797 kJ/mol
# GULP energy per Si atom -12400.075064 kJ/mol
# Density = 1.687962 g / cm^3
# Si number density = 16.918127 Si / 1000 Ang^3
#
#
#
# Elastic Constant Matrix: (Units=GPa)
#
#
# Indices 1 2 3 4 5 6 
#
# 1 101.1186 56.7040 49.4487 0.0000 0.0000 0.0000
# 2 56.7040 92.8627 53.8116 0.0000 0.0000 0.0000
# 3 49.4487 53.8116 79.4421 0.0000 0.0000 0.0000
# 4 0.0000 0.0000 0.0000 13.1331 0.0000 0.0000
# 5 0.0000 0.0000 0.0000 0.0000 31.6819 0.0000
# 6 0.0000 0.0000 0.0000 0.0000 0.0000 29.9081
#
#
#
# Elastic Compliance Matrix: (Units=1/GPa)
#
#
# Indices 1 2 3 4 5 6 
#
# 1 0.016450 -0.006768 -0.005655 0.000000 0.000000 0.000000
# 2 -0.006768 0.020511 -0.009681 0.000000 0.000000 0.000000
# 3 -0.005655 -0.009681 0.022665 0.000000 0.000000 0.000000
# 4 0.000000 0.000000 0.000000 0.076143 0.000000 0.000000
# 5 0.000000 0.000000 0.000000 0.000000 0.031564 0.000000
# 6 0.000000 0.000000 0.000000 0.000000 0.000000 0.033436
#
#
# Mechanical properties :
#
#
# Convention : Reuss Voigt Hill
#
# Bulk Modulus (GPa) = 64.85558 65.92799 65.39179
# Shear Modulus (GPa) = 19.99074 22.50857 21.24966
#
# Velocity S-wave (km/s) = 3.44119 3.65148 3.54789
# Velocity P-wave (km/s) = 7.36256 7.53865 7.45112
#
# Compressibility (1/GPa) = 0.01541887
#
# Stress axis : x y z
#
# Youngs Moduli (GPa) = 60.79067 48.75443 44.12044
#
# Poissons Ratio (x) = 0.32996 0.24950
# Poissons Ratio (y) = 0.41142 0.42712
# Poissons Ratio (z) = 0.34377 0.47199
#
# Static dielectric constant tensor:
#      x y z
#    x 3.309490 0.000000 0.000000 
#    y 0.000000 3.109650 0.000000 
#    z 0.000000 0.000000 2.880640 
# 
# 
# High freq. dielectric constant tensor:
#      x y z
#    x 1.665800 0.000000 0.000000 
#    y 0.000000 1.645970 0.000000 
#    z 0.000000 0.000000 1.625860 
# 
# From -- ./inp_files/7670.got.cif
#   From: 2010.03.12/outbox.cif.g09.slc.cpg/sg35_4_cif.got.tgz:7670.got - 2010.04.14 02:02:04.
