data_PCOD8172336
_publ_section_title
;
Structure prediction by ZEFSAII (Michael W. Deem and Ramdas Pophale) SiO2 
 PCOD8172336
Probable space group: C M M 2
;
_chemical_formula_sum "Si O2"
_cell_formula_units_Z 64
_cell_length_a 8.844745
_cell_length_b 29.238473
_cell_length_c 12.243858
_cell_angle_alpha 90.000000
_cell_angle_beta 90.000000
_cell_angle_gamma 90.000000
_cell_volume 3166.345401
_symmetry_space_group_name_H-M "C M M 2"
_symmetry_group_IT_number 35
_symmetry_cell_setting 'orthorhombic'
loop_
_space_group_symop_operation_xyz
x,y,z
-x,-y,z
-x,y,z
x,-y,z
1/2+x,1/2+y,z
1/2-x,1/2-y,z
1/2-x,1/2+y,z
1/2+x,1/2-y,z
loop_
_atom_site_type_symbol
_atom_site_label
_atom_site_fract_x
_atom_site_fract_y
_atom_site_fract_z
Si Si1 0.668102 0.331206 0.827140
Si Si2 0.830471 0.068313 0.750471
Si Si3 0.827624 0.550288 0.526107
Si Si4 0.322849 0.852779 0.040960
Si Si5 0.176792 0.356206 0.432622
Si Si6 0.176677 0.795716 0.602474
Si Si7 0.321173 0.699878 0.239267
Si Si8 0.176328 0.549502 0.970715
O O1 0.500000 0.325030 0.878059
O O2 0.677667 0.377428 0.758018
O O3 0.700974 0.293833 0.733737
O O4 0.790788 0.329181 0.923658
O O5 0.770691 0.052317 0.634472
O O6 0.738775 0.046073 0.849041
O O7 0.000000 0.050134 0.761272
O O8 0.804887 0.500000 0.471821
O O9 0.786402 0.589295 0.436728
O O10 0.000000 0.558055 0.562996
O O11 0.500000 0.849500 0.068038
O O12 0.230030 0.824894 0.129199
O O13 0.262611 0.905912 0.037161
O O14 0.230912 0.337245 0.549274
O O15 0.272234 0.332314 0.338369
O O16 0.000000 0.346730 0.412467
O O17 0.250000 0.750000 0.552500
O O18 0.000000 0.798966 0.571317
O O19 0.500000 0.705572 0.239269
O O20 0.250000 0.750000 0.249382
O O21 0.211919 0.500000 0.028540
O O22 0.000000 0.557565 0.959497
#
# Coordination Sequence:
#
# PCOD8172336 Si02
#       8
#     8   8   8   8   8   8   8   8
#     4   9  19  35  54  80 121 163 197 240 295 351
#     4  10  18  30  50  80 118 161 204 246 290 339
#     4  10  21  36  56  84 119 159 200 242 290 347
#     4  10  21  38  62  90 120 155 200 248 296 349
#     4  11  23  41  64  88 118 154 198 247 296 351
#     4  11  22  37  57  85 120 157 196 240 295 359
#     4  12  26  46  70  91 115 148 194 248 303 361
#     4   9  18  33  54  83 121 164 205 242 285 343
#
# _framework density 20.212577
#
# number of rings (size 3 to 8) (size 9 to 14) (size 15 to 20)
#    0.000    1.750    1.250    3.375    0.000    5.000 
#    0.000    1.875    0.000    3.750    0.000    0.000 
#    0.000    0.000    0.000    0.000    0.000    0.000 
#
# Total GULP energy -396655.375213 kJ/mol
# GULP energy per Si atom -12395.480475 kJ/mol
# Density = 2.016657 g / cm^3
# Si number density = 20.212577 Si / 1000 Ang^3
#
#
#
# Elastic Constant Matrix: (Units=GPa)
#
#
# Indices 1 2 3 4 5 6 
#
# 1 69.5892 41.6950 33.0840 0.0000 0.0000 0.0000
# 2 41.6950 130.5061 48.8832 0.0000 0.0000 0.0000
# 3 33.0840 48.8832 85.7610 0.0000 0.0000 0.0000
# 4 0.0000 0.0000 0.0000 22.1595 0.0000 0.0000
# 5 0.0000 0.0000 0.0000 0.0000 32.7949 0.0000
# 6 0.0000 0.0000 0.0000 0.0000 0.0000 23.7909
#
#
#
# Elastic Compliance Matrix: (Units=1/GPa)
#
#
# Indices 1 2 3 4 5 6 
#
# 1 0.019325 -0.004300 -0.005004 0.000000 0.000000 0.000000
# 2 -0.004300 0.010699 -0.004440 0.000000 0.000000 0.000000
# 3 -0.005004 -0.004440 0.016121 0.000000 0.000000 0.000000
# 4 0.000000 0.000000 0.000000 0.045127 0.000000 0.000000
# 5 0.000000 0.000000 0.000000 0.000000 0.030493 0.000000
# 6 0.000000 0.000000 0.000000 0.000000 0.000000 0.042033
#
#
# Mechanical properties :
#
#
# Convention : Reuss Voigt Hill
#
# Bulk Modulus (GPa) = 53.59519 59.24231 56.41875
# Shear Modulus (GPa) = 25.31567 26.56199 25.93883
#
# Velocity S-wave (km/s) = 3.54287 3.62903 3.58621
# Velocity P-wave (km/s) = 6.58097 6.85077 6.71723
#
# Compressibility (1/GPa) = 0.01865839
#
# Stress axis : x y z
#
# Youngs Moduli (GPa) = 51.74522 93.46524 62.02916
#
# Poissons Ratio (x) = 0.40188 0.31042
# Poissons Ratio (y) = 0.22249 0.27539
# Poissons Ratio (z) = 0.25895 0.41496
#
# Static dielectric constant tensor:
#      x y z
#    x 3.701050 0.000000 0.000000 
#    y 0.000000 4.118000 0.000000 
#    z 0.000000 0.000000 3.410930 
# 
# 
# High freq. dielectric constant tensor:
#      x y z
#    x 1.792470 0.000000 0.000000 
#    y 0.000000 1.806260 0.000000 
#    z 0.000000 0.000000 1.761750 
# 
# From -- ./inp_files/11897.got.cif
#   From: 2010.03.12/outbox.cif.g09.slc.cpg/sg35_6_cif.got.tgz:11897.got - 2010.04.14 02:02:04.
