data_PCOD8172598
_publ_section_title
;
Structure prediction by ZEFSAII (Michael W. Deem and Ramdas Pophale) SiO2 
 PCOD8172598
Probable space group: C M M 2
;
_chemical_formula_sum "Si O2"
_cell_formula_units_Z 64
_cell_length_a 26.500413
_cell_length_b 9.561325
_cell_length_c 14.174894
_cell_angle_alpha 90.000000
_cell_angle_beta 90.000000
_cell_angle_gamma 90.000000
_cell_volume 3591.621336
_symmetry_space_group_name_H-M "C M M 2"
_symmetry_group_IT_number 35
_symmetry_cell_setting 'orthorhombic'
loop_
_space_group_symop_operation_xyz
x,y,z
-x,-y,z
-x,y,z
x,-y,z
1/2+x,1/2+y,z
1/2-x,1/2-y,z
1/2-x,1/2+y,z
1/2+x,1/2-y,z
loop_
_atom_site_type_symbol
_atom_site_label
_atom_site_fract_x
_atom_site_fract_y
_atom_site_fract_z
Si Si1 0.298779 0.338571 0.224700
Si Si2 0.798580 0.162071 0.008823
Si Si3 0.942072 0.347954 0.203997
Si Si4 0.104879 0.165531 0.351039
Si Si5 0.557914 0.348752 0.050227
Si Si6 0.441721 0.839342 0.504911
Si Si7 0.610925 0.659289 0.870631
Si Si8 0.557085 0.839483 0.724487
O O1 0.284136 0.500000 0.235157
O O2 0.250000 0.250000 0.253451
O O3 0.315666 0.304939 0.116822
O O4 0.342328 0.299046 0.299786
O O5 0.750000 0.250000 0.980405
O O6 0.784935 0.000000 0.997930
O O7 0.841511 0.206582 0.934177
O O8 0.915695 0.500000 0.219945
O O9 0.938336 0.244597 0.292359
O O10 0.916458 0.271477 0.113649
O O11 0.000000 0.375635 0.182642
O O12 0.098381 0.235321 0.454154
O O13 0.094953 0.000000 0.356173
O O14 0.500000 0.360989 0.078055
O O15 0.584826 0.500000 0.072379
O O16 0.562912 0.319178 0.939345
O O17 0.500000 0.798360 0.483397
O O18 0.430340 0.822548 0.614971
O O19 0.432518 0.000000 0.472894
O O20 0.616934 0.500000 0.835687
O O21 0.600207 0.754187 0.780043
O O22 0.500000 0.784889 0.744704
O O23 0.561180 0.000000 0.755719
#
# Coordination Sequence:
#
# PCOD8172598 Si02
#       8
#     8   8   8   8   8   8   8   8
#     4   9  19  35  53  74 101 131 164 203 247 296
#     4   9  18  33  51  72 100 132 165 203 247 294
#     4  10  20  31  43  64  96 132 167 200 235 283
#     4  11  21  32  50  75 100 127 162 205 251 298
#     4   9  17  29  44  64  94 129 160 194 240 291
#     4   9  19  36  54  73 101 135 169 206 248 294
#     4  10  19  31  50  74  99 128 163 205 251 297
#     4   9  19  35  53  74 102 134 167 206 250 295
#
# _framework density 17.819251000000001
#
# number of rings (size 3 to 8) (size 9 to 14) (size 15 to 20)
#    0.000    2.500    0.000    3.000    0.000    7.750 
#    0.000    5.000    0.000    0.750    0.000    0.000 
#    0.000    0.000    0.000    0.000    0.000    0.000 
#
# Total GULP energy -396539.657045 kJ/mol
# GULP energy per Si atom -12391.864283 kJ/mol
# Density = 1.777869 g / cm^3
# Si number density = 17.819251 Si / 1000 Ang^3
#
#
#
# Elastic Constant Matrix: (Units=GPa)
#
#
# Indices 1 2 3 4 5 6 
#
# 1 77.9906 51.5345 46.9124 0.0000 0.0000 0.0000
# 2 51.5345 108.3286 60.8681 0.0000 0.0000 0.0000
# 3 46.9124 60.8681 92.9217 0.0000 0.0000 0.0000
# 4 0.0000 0.0000 0.0000 32.5081 0.0000 0.0000
# 5 0.0000 0.0000 0.0000 0.0000 30.7670 0.0000
# 6 0.0000 0.0000 0.0000 0.0000 0.0000 26.5802
#
#
#
# Elastic Compliance Matrix: (Units=1/GPa)
#
#
# Indices 1 2 3 4 5 6 
#
# 1 0.020840 -0.006334 -0.006373 0.000000 0.000000 0.000000
# 2 -0.006334 0.016533 -0.007632 0.000000 0.000000 0.000000
# 3 -0.006373 -0.007632 0.018978 0.000000 0.000000 0.000000
# 4 0.000000 0.000000 0.000000 0.030762 0.000000 0.000000
# 5 0.000000 0.000000 0.000000 0.000000 0.032502 0.000000
# 6 0.000000 0.000000 0.000000 0.000000 0.000000 0.037622
#
#
# Mechanical properties :
#
#
# Convention : Reuss Voigt Hill
#
# Bulk Modulus (GPa) = 63.79680 66.43008 65.11344
# Shear Modulus (GPa) = 24.61373 25.96613 25.28993
#
# Velocity S-wave (km/s) = 3.72062 3.82146 3.77138
# Velocity P-wave (km/s) = 7.37138 7.53872 7.45552
#
# Compressibility (1/GPa) = 0.01567477
#
# Stress axis : x y z
#
# Youngs Moduli (GPa) = 47.98372 60.48687 52.69156
#
# Poissons Ratio (x) = 0.38310 0.33579
# Poissons Ratio (y) = 0.30391 0.40214
# Poissons Ratio (z) = 0.30578 0.46164
#
# Static dielectric constant tensor:
#      x y z
#    x 3.085150 0.000000 0.000000 
#    y 0.000000 3.564820 0.000000 
#    z 0.000000 0.000000 3.204660 
# 
# 
# High freq. dielectric constant tensor:
#      x y z
#    x 1.665200 0.000000 0.000000 
#    y 0.000000 1.696570 0.000000 
#    z 0.000000 0.000000 1.677130 
# 
# From -- ./inp_files/17765.got.cif
#   From: 2010.03.12/outbox.cif.g09.slc.cpg/sg35_9_cif.got.tgz:17765.got - 2010.04.14 02:02:04.
