data_PCOD8172431
_publ_section_title
;
Structure prediction by ZEFSAII (Michael W. Deem and Ramdas Pophale) SiO2 
 PCOD8172431
Probable space group: C M M 2
;
_chemical_formula_sum "Si O2"
_cell_formula_units_Z 64
_cell_length_a 14.586309
_cell_length_b 18.588944
_cell_length_c 11.953664
_cell_angle_alpha 90.000000
_cell_angle_beta 90.000000
_cell_angle_gamma 90.000000
_cell_volume 3241.165242
_symmetry_space_group_name_H-M "C M M 2"
_symmetry_group_IT_number 35
_symmetry_cell_setting 'orthorhombic'
loop_
_space_group_symop_operation_xyz
x,y,z
-x,-y,z
-x,y,z
x,-y,z
1/2+x,1/2+y,z
1/2-x,1/2-y,z
1/2-x,1/2+y,z
1/2+x,1/2-y,z
loop_
_atom_site_type_symbol
_atom_site_label
_atom_site_fract_x
_atom_site_fract_y
_atom_site_fract_z
Si Si1 0.891597 0.110021 0.391520
Si Si2 0.395241 0.705707 0.786370
Si Si3 0.102847 0.729517 0.394560
Si Si4 0.607442 0.157389 0.174605
Si Si5 0.327500 0.419383 0.633138
Si Si6 0.319717 0.191474 0.609696
Si Si7 0.393507 0.299708 0.035306
Si Si8 0.711714 0.579175 0.170789
O O1 0.854945 0.191323 0.404719
O O2 0.874102 0.074007 0.511874
O O3 0.826863 0.074852 0.297789
O O4 0.000000 0.101898 0.361697
O O5 0.500000 0.724630 0.801251
O O6 0.385034 0.632870 0.714473
O O7 0.352947 0.776143 0.727425
O O8 0.352171 0.697428 0.909672
O O9 0.146527 0.684790 0.294090
O O10 0.104122 0.686299 0.512533
O O11 0.000000 0.741679 0.355345
O O12 0.500000 0.131721 0.175249
O O13 0.622540 0.220235 0.084060
O O14 0.678586 0.092484 0.154475
O O15 0.322611 0.500000 0.684055
O O16 0.224706 0.386705 0.627650
O O17 0.250000 0.250000 0.557614
O O18 0.500000 0.320246 0.037899
O O19 0.342986 0.359334 0.107271
O O20 0.694577 0.500000 0.118431
#
# Coordination Sequence:
#
# PCOD8172431 Si02
#       8
#     8   8   8   8   8   8   8   8
#     4  11  21  35  56  86 120 150 188 235 285 343
#     4  10  21  38  60  83 107 142 188 237 284 330
#     4  10  18  32  57  84 106 139 187 235 279 322
#     4  10  22  39  61  84 111 148 192 239 280 331
#     4  11  23  35  52  82 118 154 185 221 280 342
#     4  10  19  32  55  81 110 143 187 232 271 320
#     4  10  22  40  61  85 111 143 191 243 288 336
#     4  12  25  37  57  86 118 154 186 226 287 348
#
# _framework density 19.745985000000001
#
# number of rings (size 3 to 8) (size 9 to 14) (size 15 to 20)
#    0.000    1.500    3.750    2.625    0.000    6.250 
#    0.000    1.250    0.000    2.250    0.000    1.750 
#    0.000    0.000    0.000    0.125    0.000    0.000 
#
# Total GULP energy -396539.730569 kJ/mol
# GULP energy per Si atom -12391.866580 kJ/mol
# Density = 1.970104 g / cm^3
# Si number density = 19.745985 Si / 1000 Ang^3
#
#
#
# Elastic Constant Matrix: (Units=GPa)
#
#
# Indices 1 2 3 4 5 6 
#
# 1 76.3055 38.0081 24.9405 0.0000 0.0000 0.0000
# 2 38.0081 70.0287 17.8973 0.0000 0.0000 0.0000
# 3 24.9405 17.8973 122.0040 0.0000 0.0000 0.0000
# 4 0.0000 0.0000 0.0000 4.1789 0.0000 0.0000
# 5 0.0000 0.0000 0.0000 0.0000 22.1921 0.0000
# 6 0.0000 0.0000 0.0000 0.0000 0.0000 11.5038
#
#
#
# Elastic Compliance Matrix: (Units=1/GPa)
#
#
# Indices 1 2 3 4 5 6 
#
# 1 0.018621 -0.009490 -0.002415 0.000000 0.000000 0.000000
# 2 -0.009490 0.019672 -0.000946 0.000000 0.000000 0.000000
# 3 -0.002415 -0.000946 0.008829 0.000000 0.000000 0.000000
# 4 0.000000 0.000000 0.000000 0.239295 0.000000 0.000000
# 5 0.000000 0.000000 0.000000 0.000000 0.045061 0.000000
# 6 0.000000 0.000000 0.000000 0.000000 0.000000 0.086928
#
#
# Mechanical properties :
#
#
# Convention : Reuss Voigt Hill
#
# Bulk Modulus (GPa) = 46.68088 47.78112 47.23100
# Shear Modulus (GPa) = 11.08041 20.07444 15.57743
#
# Velocity S-wave (km/s) = 2.37142 3.19193 2.81177
# Velocity P-wave (km/s) = 5.58482 6.15101 5.87474
#
# Compressibility (1/GPa) = 0.02142205
#
# Stress axis : x y z
#
# Youngs Moduli (GPa) = 53.70213 50.83341 113.26561
#
# Poissons Ratio (x) = 0.48239 0.27349
# Poissons Ratio (y) = 0.50961 0.10714
# Poissons Ratio (z) = 0.12967 0.04808
#
# Static dielectric constant tensor:
#      x y z
#    x 3.642850 0.000000 0.000000 
#    y 0.000000 3.425570 0.000000 
#    z 0.000000 0.000000 3.762140 
# 
# 
# High freq. dielectric constant tensor:
#      x y z
#    x 1.771180 0.000000 0.000000 
#    y 0.000000 1.745400 0.000000 
#    z 0.000000 0.000000 1.770670 
# 
# From -- ./inp_files/13224.got.cif
#   From: 2010.03.12/outbox.cif.g09.slc.cpg/sg35_7_cif.got.tgz:13224.got - 2010.04.14 02:02:04.
