data_PCOD8172904
_publ_section_title
;
Structure prediction by ZEFSAII (Michael W. Deem and Ramdas Pophale) SiO2 
 PCOD8172904
Probable space group: C M M 2
;
_chemical_formula_sum "Si O2"
_cell_formula_units_Z 48
_cell_length_a 8.804240
_cell_length_b 15.497017
_cell_length_c 17.106443
_cell_angle_alpha 90.000000
_cell_angle_beta 90.000000
_cell_angle_gamma 90.000000
_cell_volume 2333.993793
_symmetry_space_group_name_H-M "C M M 2"
_symmetry_group_IT_number 35
_symmetry_cell_setting 'orthorhombic'
loop_
_space_group_symop_operation_xyz
x,y,z
-x,-y,z
-x,y,z
x,-y,z
1/2+x,1/2+y,z
1/2-x,1/2-y,z
1/2-x,1/2+y,z
1/2+x,1/2-y,z
loop_
_atom_site_type_symbol
_atom_site_label
_atom_site_fract_x
_atom_site_fract_y
_atom_site_fract_z
Si Si1 0.174522 0.897927 0.008750
Si Si2 0.175953 0.100712 0.696108
Si Si3 0.680589 0.500000 0.252334
Si Si4 0.320132 0.160530 0.162963
Si Si5 0.819847 0.838422 0.528503
Si Si6 0.319969 0.500000 0.431415
Si Si7 0.670596 0.102618 0.851828
O O1 0.278885 0.851004 0.072096
O O2 0.000000 0.871905 0.022272
O O3 0.198001 0.000000 0.016964
O O4 0.226468 0.864631 0.923609
O O5 0.233425 0.147681 0.617867
O O6 0.266168 0.139689 0.770091
O O7 0.000000 0.117632 0.711907
O O8 0.208639 0.000000 0.684480
O O9 0.500000 0.500000 0.241818
O O10 0.747399 0.584539 0.212849
O O11 0.732819 0.500000 0.342066
O O12 0.500000 0.160769 0.173694
O O13 0.250000 0.250000 0.194158
O O14 0.750000 0.750000 0.496234
O O15 0.000000 0.834812 0.523284
O O16 0.755136 0.915159 0.474388
O O17 0.500000 0.500000 0.438521
O O18 0.500000 0.136142 0.864242
O O19 0.677629 0.000000 0.848392
#
# Coordination Sequence:
#
# PCOD8172904 Si02
#       7
#     8   8   4   8   8   4   8
#     4  10  19  34  58  86 120 160 206 252 303 362
#     4   9  16  30  53  77 108 153 202 245 293 354
#     4  11  23  43  69  96 125 160 201 249 308 373
#     4  12  25  42  65  93 127 164 205 253 306 366
#     4  10  20  37  60  88 119 156 198 244 296 355
#     4   9  20  41  67  90 119 158 195 237 296 365
#     4   9  17  28  47  79 117 154 199 251 303 350
#
# _framework density 20.565607
#
# number of rings (size 3 to 8) (size 9 to 14) (size 15 to 20)
#    0.000    2.000    1.667    2.750    0.000    4.000 
#    0.000    4.583    0.000    2.000    0.000    0.000 
#    0.000    0.000    0.000    0.000    0.000    0.000 
#
# Total GULP energy -297659.398617 kJ/mol
# GULP energy per Si atom -12402.474942 kJ/mol
# Density = 2.051880 g / cm^3
# Si number density = 20.565607 Si / 1000 Ang^3
#
#
#
# Elastic Constant Matrix: (Units=GPa)
#
#
# Indices 1 2 3 4 5 6 
#
# 1 99.5376 42.7948 49.2246 0.0000 0.0000 0.0000
# 2 42.7948 116.4872 67.1803 0.0000 0.0000 0.0000
# 3 49.2246 67.1803 147.8106 0.0000 0.0000 0.0000
# 4 0.0000 0.0000 0.0000 0.4719 0.0000 0.0000
# 5 0.0000 0.0000 0.0000 0.0000 21.7794 0.0000
# 6 0.0000 0.0000 0.0000 0.0000 0.0000 28.7640
#
#
#
# Elastic Compliance Matrix: (Units=1/GPa)
#
#
# Indices 1 2 3 4 5 6 
#
# 1 0.012773 -0.003035 -0.002874 0.000000 0.000000 0.000000
# 2 -0.003035 0.012355 -0.004605 0.000000 0.000000 0.000000
# 3 -0.002874 -0.004605 0.009816 0.000000 0.000000 0.000000
# 4 0.000000 0.000000 0.000000 2.119166 0.000000 0.000000
# 5 0.000000 0.000000 0.000000 0.000000 0.045915 0.000000
# 6 0.000000 0.000000 0.000000 0.000000 0.000000 0.034766
#
#
# Mechanical properties :
#
#
# Convention : Reuss Voigt Hill
#
# Bulk Modulus (GPa) = 71.86153 75.80387 73.83270
# Shear Modulus (GPa) = 2.21194 23.84544 13.02869
#
# Velocity S-wave (km/s) = 1.03821 3.40881 2.51971
# Velocity P-wave (km/s) = 6.03785 7.24105 6.66665
#
# Compressibility (1/GPa) = 0.01391565
#
# Stress axis : x y z
#
# Youngs Moduli (GPa) = 78.29240 80.93756 101.87924
#
# Poissons Ratio (x) = 0.24562 0.29283
# Poissons Ratio (y) = 0.23759 0.46914
# Poissons Ratio (z) = 0.22504 0.37270
#
# Static dielectric constant tensor:
#      x y z
#    x 3.606220 0.000000 0.000000 
#    y 0.000000 3.656450 0.000000 
#    z 0.000000 0.000000 3.911110 
# 
# 
# High freq. dielectric constant tensor:
#      x y z
#    x 1.794680 0.000000 0.000000 
#    y 0.000000 1.795280 0.000000 
#    z 0.000000 0.000000 1.808250 
# 
# From -- ./inp_files/17874.got.cif
#   From: 2010.03.12/outbox.cif.g09.slc.cpg/sg35_9_cif.got.tgz:17874.got - 2010.04.14 02:02:04.
