data_PCOD8172616
_publ_section_title
;
Structure prediction by ZEFSAII (Michael W. Deem and Ramdas Pophale) SiO2 
 PCOD8172616
Probable space group: C M M 2
;
_chemical_formula_sum "Si O2"
_cell_formula_units_Z 64
_cell_length_a 29.373669
_cell_length_b 9.121712
_cell_length_c 12.245246
_cell_angle_alpha 90.000000
_cell_angle_beta 90.000000
_cell_angle_gamma 90.000000
_cell_volume 3280.968547
_symmetry_space_group_name_H-M "C M M 2"
_symmetry_group_IT_number 35
_symmetry_cell_setting 'orthorhombic'
loop_
_space_group_symop_operation_xyz
x,y,z
-x,-y,z
-x,y,z
x,-y,z
1/2+x,1/2+y,z
1/2-x,1/2-y,z
1/2-x,1/2+y,z
1/2+x,1/2-y,z
loop_
_atom_site_type_symbol
_atom_site_label
_atom_site_fract_x
_atom_site_fract_y
_atom_site_fract_z
Si Si1 0.860605 0.671367 0.879600
Si Si2 0.708286 0.831935 0.474378
Si Si3 0.859044 0.332021 0.282951
Si Si4 0.431672 0.663261 0.593629
Si Si5 0.450079 0.828488 0.376637
Si Si6 0.949428 0.171347 0.836487
Si Si7 0.831442 0.165690 0.665172
Si Si8 0.201509 0.328379 0.088339
O O1 0.865365 0.500000 0.853479
O O2 0.911329 0.736344 0.902032
O O3 0.837013 0.753380 0.779671
O O4 0.828387 0.701223 0.981826
O O5 0.750000 0.750000 0.413455
O O6 0.663840 0.814175 0.400803
O O7 0.703834 0.755515 0.592147
O O8 0.720986 0.000000 0.492809
O O9 0.864083 0.500000 0.247163
O O10 0.910049 0.262885 0.297969
O O11 0.828022 0.258779 0.188735
O O12 0.450331 0.500000 0.571597
O O13 0.449755 0.765191 0.498114
O O14 0.450112 0.721385 0.709936
O O15 0.377467 0.663618 0.596029
O O16 0.500000 0.797487 0.324290
O O17 0.440727 0.000000 0.390223
O O18 0.000000 0.199618 0.886082
O O19 0.935895 0.000000 0.843013
O O20 0.814045 0.000000 0.686392
O O21 0.211245 0.500000 0.106530
O O22 0.250000 0.250000 0.078945
#
# Coordination Sequence:
#
# PCOD8172616 Si02
#       8
#     8   8   8   8   8   8   8   8
#     4  10  21  36  56  83 114 145 186 238 286 334
#     4  11  21  34  55  81 112 145 180 225 277 339
#     4   9  19  37  57  80 112 144 180 229 279 329
#     4   9  17  30  49  74 108 147 184 223 264 313
#     4  10  19  31  51  79 110 146 184 220 265 323
#     4   9  18  33  53  79 114 155 193 230 276 330
#     4  10  20  35  54  78 112 151 187 224 276 335
#     4  10  22  41  63  84 107 140 186 238 288 339
#
# _framework density 19.506436000000001
#
# number of rings (size 3 to 8) (size 9 to 14) (size 15 to 20)
#    0.000    2.250    1.250    2.625    0.000    4.500 
#    0.000    3.125    0.000    2.250    0.000    0.000 
#    0.000    0.000    0.000    0.000    0.000    0.000 
#
# Total GULP energy -396640.104770 kJ/mol
# GULP energy per Si atom -12395.003274 kJ/mol
# Density = 1.946204 g / cm^3
# Si number density = 19.506436 Si / 1000 Ang^3
#
#
#
# Elastic Constant Matrix: (Units=GPa)
#
#
# Indices 1 2 3 4 5 6 
#
# 1 148.0729 55.8367 51.6537 0.0000 0.0000 0.0000
# 2 55.8367 92.0850 46.0404 0.0000 0.0000 0.0000
# 3 51.6537 46.0404 80.1614 0.0000 0.0000 0.0000
# 4 0.0000 0.0000 0.0000 16.4584 0.0000 0.0000
# 5 0.0000 0.0000 0.0000 0.0000 20.8108 0.0000
# 6 0.0000 0.0000 0.0000 0.0000 0.0000 24.8632
#
#
#
# Elastic Compliance Matrix: (Units=1/GPa)
#
#
# Indices 1 2 3 4 5 6 
#
# 1 0.009583 -0.003820 -0.003981 0.000000 0.000000 0.000000
# 2 -0.003820 0.016757 -0.007163 0.000000 0.000000 0.000000
# 3 -0.003981 -0.007163 0.019154 0.000000 0.000000 0.000000
# 4 0.000000 0.000000 0.000000 0.060759 0.000000 0.000000
# 5 0.000000 0.000000 0.000000 0.000000 0.048052 0.000000
# 6 0.000000 0.000000 0.000000 0.000000 0.000000 0.040220
#
#
# Mechanical properties :
#
#
# Convention : Reuss Voigt Hill
#
# Bulk Modulus (GPa) = 64.24150 69.70897 66.97524
# Shear Modulus (GPa) = 21.77312 23.54571 22.65941
#
# Velocity S-wave (km/s) = 3.34458 3.47807 3.41198
# Velocity P-wave (km/s) = 6.92243 7.20717 7.06623
#
# Compressibility (1/GPa) = 0.01556626
#
# Stress axis : x y z
#
# Youngs Moduli (GPa) = 104.35558 59.67566 52.20921
#
# Poissons Ratio (x) = 0.22798 0.20782
# Poissons Ratio (y) = 0.39867 0.37396
# Poissons Ratio (z) = 0.41539 0.42744
#
# Static dielectric constant tensor:
#      x y z
#    x 3.883130 0.000000 0.000000 
#    y 0.000000 3.472590 0.000000 
#    z 0.000000 0.000000 3.309140 
# 
# 
# High freq. dielectric constant tensor:
#      x y z
#    x 1.777640 0.000000 0.000000 
#    y 0.000000 1.744830 0.000000 
#    z 0.000000 0.000000 1.733080 
# 
# From -- ./inp_files/11918.got.cif
#   From: 2010.03.12/outbox.cif.g09.slc.cpg/sg35_6_cif.got.tgz:11918.got - 2010.04.14 02:02:04.
