data_PCOD8172428
_publ_section_title
;
Structure prediction by ZEFSAII (Michael W. Deem and Ramdas Pophale) SiO2 
 PCOD8172428
Probable space group: C M M 2
;
_chemical_formula_sum "Si O2"
_cell_formula_units_Z 48
_cell_length_a 20.630143
_cell_length_b 17.601841
_cell_length_c 7.619239
_cell_angle_alpha 90.000000
_cell_angle_beta 90.000000
_cell_angle_gamma 90.000000
_cell_volume 2766.762806
_symmetry_space_group_name_H-M "C M M 2"
_symmetry_group_IT_number 35
_symmetry_cell_setting 'orthorhombic'
loop_
_space_group_symop_operation_xyz
x,y,z
-x,-y,z
-x,y,z
x,-y,z
1/2+x,1/2+y,z
1/2-x,1/2-y,z
1/2-x,1/2+y,z
1/2+x,1/2-y,z
loop_
_atom_site_type_symbol
_atom_site_label
_atom_site_fract_x
_atom_site_fract_y
_atom_site_fract_z
Si Si1 0.813817 0.198547 0.286400
Si Si2 0.727301 0.411527 0.577592
Si Si3 0.427221 0.185324 0.301334
Si Si4 0.132729 0.588945 0.998058
Si Si5 0.733512 0.334997 0.929142
Si Si6 0.621402 0.913485 0.600380
O O1 0.750000 0.250000 0.307828
O O2 0.811607 0.129803 0.423672
O O3 0.879234 0.244280 0.318860
O O4 0.818024 0.166760 0.087824
O O5 0.711440 0.500000 0.566088
O O6 0.703130 0.380510 0.766133
O O7 0.803587 0.394495 0.561427
O O8 0.500000 0.216509 0.280063
O O9 0.423771 0.138060 0.481104
O O10 0.412185 0.130994 0.137223
O O11 0.136245 0.500000 0.044329
O O12 0.204286 0.623090 0.010241
O O13 0.104366 0.602266 0.803473
O O14 0.750000 0.250000 0.863761
O O15 0.606716 0.000000 0.551806
#
# Coordination Sequence:
#
# PCOD8172428 Si02
#       6
#     8   8   8   8   8   8
#     4  11  20  36  57  80 107 145 183 222 271 323
#     4  10  20  33  57  87 110 135 177 232 281 322
#     4  12  24  36  52  79 111 148 186 221 262 316
#     4  10  20  35  54  80 113 147 182 218 261 319
#     4  10  18  32  56  82 110 143 177 225 270 318
#     4   9  19  34  53  79 111 145 179 216 260 318
#
# _framework density 17.348794000000002
#
# number of rings (size 3 to 8) (size 9 to 14) (size 15 to 20)
#    0.000    1.667    5.000    2.500    2.333    4.667 
#    0.000    1.667    0.000    0.500    0.000    0.000 
#    0.000    0.000    0.000    0.000    0.000    0.000 
#
# Total GULP energy -297637.857157 kJ/mol
# GULP energy per Si atom -12401.577382 kJ/mol
# Density = 1.730931 g / cm^3
# Si number density = 17.348794 Si / 1000 Ang^3
#
#
#
# Elastic Constant Matrix: (Units=GPa)
#
#
# Indices 1 2 3 4 5 6 
#
# 1 69.8597 50.5595 27.7343 0.0000 0.0000 0.0000
# 2 50.5595 108.1346 64.9451 0.0000 0.0000 0.0000
# 3 27.7343 64.9451 101.3487 0.0000 0.0000 0.0000
# 4 0.0000 0.0000 0.0000 36.6285 0.0000 0.0000
# 5 0.0000 0.0000 0.0000 0.0000 3.6637 0.0000
# 6 0.0000 0.0000 0.0000 0.0000 0.0000 16.9508
#
#
#
# Elastic Compliance Matrix: (Units=1/GPa)
#
#
# Indices 1 2 3 4 5 6 
#
# 1 0.021688 -0.010690 0.000915 0.000000 0.000000 0.000000
# 2 -0.010690 0.020303 -0.010085 0.000000 0.000000 0.000000
# 3 0.000915 -0.010085 0.016079 0.000000 0.000000 0.000000
# 4 0.000000 0.000000 0.000000 0.027301 0.000000 0.000000
# 5 0.000000 0.000000 0.000000 0.000000 0.272949 0.000000
# 6 0.000000 0.000000 0.000000 0.000000 0.000000 0.058994
#
#
# Mechanical properties :
#
#
# Convention : Reuss Voigt Hill
#
# Bulk Modulus (GPa) = 54.49481 62.86898 58.68189
# Shear Modulus (GPa) = 10.79564 20.52220 15.65892
#
# Velocity S-wave (km/s) = 2.49724 3.44309 3.00758
# Velocity P-wave (km/s) = 6.30828 7.21965 6.77930
#
# Compressibility (1/GPa) = 0.01835037
#
# Stress axis : x y z
#
# Youngs Moduli (GPa) = 46.10893 49.25370 62.19308
#
# Poissons Ratio (x) = 0.52653 -0.05694
# Poissons Ratio (y) = 0.49291 0.62722
# Poissons Ratio (z) = -0.04221 0.49672
#
# Static dielectric constant tensor:
#      x y z
#    x 2.874450 0.000000 0.000000 
#    y 0.000000 3.279670 0.000000 
#    z 0.000000 0.000000 3.489800 
# 
# 
# High freq. dielectric constant tensor:
#      x y z
#    x 1.619200 0.000000 0.000000 
#    y 0.000000 1.669340 0.000000 
#    z 0.000000 0.000000 1.693030 
# 
# From -- ./inp_files/7457.got.cif
#   From: 2010.03.12/outbox.cif.g09.slc.cpg/sg35_4_cif.got.tgz:7457.got - 2010.04.14 02:02:04.
