data_PCOD8172664
_publ_section_title
;
Structure prediction by ZEFSAII (Michael W. Deem and Ramdas Pophale) SiO2 
 PCOD8172664
Probable space group: C M M 2
;
_chemical_formula_sum "Si O2"
_cell_formula_units_Z 48
_cell_length_a 8.534359
_cell_length_b 30.809058
_cell_length_c 9.539312
_cell_angle_alpha 90.000000
_cell_angle_beta 90.000000
_cell_angle_gamma 90.000000
_cell_volume 2508.224356
_symmetry_space_group_name_H-M "C M M 2"
_symmetry_group_IT_number 35
_symmetry_cell_setting 'orthorhombic'
loop_
_space_group_symop_operation_xyz
x,y,z
-x,-y,z
-x,y,z
x,-y,z
1/2+x,1/2+y,z
1/2-x,1/2-y,z
1/2-x,1/2+y,z
1/2+x,1/2-y,z
loop_
_atom_site_type_symbol
_atom_site_label
_atom_site_fract_x
_atom_site_fract_y
_atom_site_fract_z
Si Si1 0.813862 0.951951 0.023090
Si Si2 0.813763 0.874212 0.522862
Si Si3 0.314442 0.296688 0.716991
Si Si4 0.813546 0.951867 0.708824
Si Si5 0.686772 0.627903 0.204998
Si Si6 0.815104 0.296747 0.018147
O O1 0.749597 0.915573 0.129033
O O2 0.000000 0.951414 0.024574
O O3 0.754748 0.000000 0.069457
O O4 0.753348 0.941493 0.866071
O O5 0.754937 0.831117 0.602211
O O6 0.743606 0.916478 0.601691
O O7 0.752317 0.873822 0.364290
O O8 0.000000 0.876258 0.525215
O O9 0.500000 0.294694 0.724970
O O10 0.250000 0.250000 0.671610
O O11 0.252451 0.311436 0.868353
O O12 0.000000 0.949886 0.707862
O O13 0.757232 0.000000 0.662824
O O14 0.500000 0.631735 0.195231
O O15 0.763618 0.669614 0.135561
O O16 0.750000 0.250000 0.062714
O O17 0.000000 0.294016 0.007008
#
# Coordination Sequence:
#
# PCOD8172664 Si02
#       6
#     8   8   8   8   8   8
#     4   8  14  25  45  73 103 136 173 211 249 290
#     4   9  18  29  45  72 104 137 167 201 249 300
#     4  10  19  34  54  75  99 128 166 209 253 298
#     4   8  13  23  40  65  98 133 168 206 247 290
#     4  10  19  32  50  75 108 140 170 206 251 301
#     4  11  22  37  56  77  99 128 169 211 256 304
#
# _framework density 19.137043999999999
#
# number of rings (size 3 to 8) (size 9 to 14) (size 15 to 20)
#    0.000    2.667    0.000    5.000    0.000    4.000 
#    0.000    6.667    0.000    0.500    0.000    0.000 
#    0.000    4.667    0.000    0.000    0.000    0.000 
#
# Total GULP energy -297541.181200 kJ/mol
# GULP energy per Si atom -12397.549217 kJ/mol
# Density = 1.909349 g / cm^3
# Si number density = 19.137044 Si / 1000 Ang^3
#
#
#
# Elastic Constant Matrix: (Units=GPa)
#
#
# Indices 1 2 3 4 5 6 
#
# 1 47.7047 28.4123 24.0949 0.0000 0.0000 0.0000
# 2 28.4123 174.4487 123.2461 0.0000 0.0000 0.0000
# 3 24.0949 123.2461 167.9786 0.0000 0.0000 0.0000
# 4 0.0000 0.0000 0.0000 20.7177 0.0000 0.0000
# 5 0.0000 0.0000 0.0000 0.0000 14.4129 0.0000
# 6 0.0000 0.0000 0.0000 0.0000 0.0000 18.7157
#
#
#
# Elastic Compliance Matrix: (Units=1/GPa)
#
#
# Indices 1 2 3 4 5 6 
#
# 1 0.023322 -0.002979 -0.001159 0.000000 0.000000 0.000000
# 2 -0.002979 0.012282 -0.008584 0.000000 0.000000 0.000000
# 3 -0.001159 -0.008584 0.012418 0.000000 0.000000 0.000000
# 4 0.000000 0.000000 0.000000 0.048268 0.000000 0.000000
# 5 0.000000 0.000000 0.000000 0.000000 0.069382 0.000000
# 6 0.000000 0.000000 0.000000 0.000000 0.000000 0.053431
#
#
# Mechanical properties :
#
#
# Convention : Reuss Voigt Hill
#
# Bulk Modulus (GPa) = 44.29402 82.40429 63.34916
# Shear Modulus (GPa) = 19.83540 25.06117 22.44828
#
# Velocity S-wave (km/s) = 3.22295 3.62271 3.42866
# Velocity P-wave (km/s) = 6.08653 7.78796 6.98921
#
# Compressibility (1/GPa) = 0.02257641
#
# Stress axis : x y z
#
# Youngs Moduli (GPa) = 42.87729 81.41898 80.53101
#
# Poissons Ratio (x) = 0.24258 0.09336
# Poissons Ratio (y) = 0.12775 0.69128
# Poissons Ratio (z) = 0.04971 0.69891
#
# Static dielectric constant tensor:
#      x y z
#    x 2.999550 0.000000 0.000000 
#    y 0.000000 3.864290 0.000000 
#    z 0.000000 0.000000 3.684200 
# 
# 
# High freq. dielectric constant tensor:
#      x y z
#    x 1.694430 0.000000 0.000000 
#    y 0.000000 1.761510 0.000000 
#    z 0.000000 0.000000 1.742440 
# 
# From -- ./inp_files/5317.got.cif
#   From: 2010.03.12/outbox.cif.g09.slc.cpg/sg35_3_cif.got.tgz:5317.got - 2010.04.14 02:02:04.
