data_PCOD8172076
_publ_section_title
;
Structure prediction by ZEFSAII (Michael W. Deem and Ramdas Pophale) SiO2 
 PCOD8172076
Probable space group: P N N 2
;
_chemical_formula_sum "Si O2"
_cell_formula_units_Z 28
_cell_length_a 10.888131
_cell_length_b 21.179422
_cell_length_c 4.940989
_cell_angle_alpha 90.000000
_cell_angle_beta 90.000000
_cell_angle_gamma 90.000000
_cell_volume 1139.413415
_symmetry_space_group_name_H-M "P N N 2"
_symmetry_group_IT_number 34
_symmetry_cell_setting 'orthorhombic'
loop_
_space_group_symop_operation_xyz
x,y,z
-x,-y,z
1/2-x,1/2+y,1/2+z
1/2+x,1/2-y,1/2+z
loop_
_atom_site_type_symbol
_atom_site_label
_atom_site_fract_x
_atom_site_fract_y
_atom_site_fract_z
Si Si1 0.000000 0.500000 0.675470
Si Si2 0.081211 0.202594 0.993454
Si Si3 0.318546 0.833446 0.373383
Si Si4 0.500000 0.500000 0.925080
Si Si5 0.939222 0.621745 0.349102
Si Si6 0.708589 0.872981 0.763071
Si Si7 0.751717 0.451765 0.765705
Si Si8 0.040903 0.856180 0.502455
O O1 0.038089 0.444719 0.478864
O O2 0.121066 0.513852 0.858323
O O3 0.105478 0.276988 0.024927
O O4 0.211417 0.184243 0.866880
O O5 0.975777 0.182690 0.779481
O O6 0.056052 0.166815 0.274976
O O7 0.364323 0.890184 0.569682
O O8 0.172049 0.835621 0.382312
O O9 0.362064 0.836253 0.063442
O O10 0.627806 0.494112 0.759415
O O11 0.480301 0.431616 0.074929
O O12 0.070136 0.652969 0.272423
O O13 0.757247 0.891881 0.465533
O O14 0.730526 0.933284 0.954677
#
# Coordination Sequence:
#
# PCOD8172076 Si02
#       8
#     2   4   4   2   4   4   4   4
#     4  10  24  46  72 108 156 188 252 298 374 456
#     4  12  26  48  71 100 144 192 246 295 362 445
#     4  12  28  47  74 107 149 186 255 309 366 442
#     4  12  24  46  74 106 156 184 246 310 384 452
#     4  11  25  46  73 109 140 193 237 306 365 431
#     4  11  23  45  68 102 135 193 244 284 367 438
#     4  11  24  41  71 104 148 194 238 302 367 450
#     4  12  28  48  74 111 142 200 239 311 381 439
#
# _framework density 24.574048999999999
#
# number of rings (size 3 to 8) (size 9 to 14) (size 15 to 20)
#    0.000    0.571    2.857    4.286    4.000    9.714 
#    0.000    0.000    0.000    0.000    0.000    0.000 
#    0.000    0.000    0.000    0.000    0.000    0.000 
#
# Total GULP energy -346910.206482 kJ/mol
# GULP energy per Si atom -12389.650232 kJ/mol
# Density = 2.451812 g / cm^3
# Si number density = 24.574049 Si / 1000 Ang^3
#
#
#
# Elastic Constant Matrix: (Units=GPa)
#
#
# Indices 1 2 3 4 5 6 
#
# 1 146.9242 20.4712 23.6142 0.0000 0.0000 0.0000
# 2 20.4712 84.1462 1.6767 0.0000 0.0000 0.0000
# 3 23.6142 1.6767 93.6715 0.0000 0.0000 0.0000
# 4 0.0000 0.0000 0.0000 12.8394 0.0000 0.0000
# 5 0.0000 0.0000 0.0000 0.0000 35.8700 0.0000
# 6 0.0000 0.0000 0.0000 0.0000 0.0000 35.2863
#
#
#
# Elastic Compliance Matrix: (Units=1/GPa)
#
#
# Indices 1 2 3 4 5 6 
#
# 1 0.007343 -0.001750 -0.001820 0.000000 0.000000 0.000000
# 2 -0.001750 0.012305 0.000221 0.000000 0.000000 0.000000
# 3 -0.001820 0.000221 0.011130 0.000000 0.000000 0.000000
# 4 0.000000 0.000000 0.000000 0.077885 0.000000 0.000000
# 5 0.000000 0.000000 0.000000 0.000000 0.027878 0.000000
# 6 0.000000 0.000000 0.000000 0.000000 0.000000 0.028340
#
#
# Mechanical properties :
#
#
# Convention : Reuss Voigt Hill
#
# Bulk Modulus (GPa) = 41.52702 46.25178 43.88940
# Shear Modulus (GPa) = 27.83866 35.39778 31.61822
#
# Velocity S-wave (km/s) = 3.36943 3.79945 3.59088
# Velocity P-wave (km/s) = 5.66329 6.17333 5.92380
#
# Compressibility (1/GPa) = 0.02408071
#
# Stress axis : x y z
#
# Youngs Moduli (GPa) = 136.19269 81.26491 89.84408
#
# Poissons Ratio (x) = 0.14222 0.16349
# Poissons Ratio (y) = 0.23834 -0.01985
# Poissons Ratio (z) = 0.24783 -0.01795
#
# Static dielectric constant tensor:
#      x y z
#    x 5.348050 0.000000 0.000000 
#    y 0.000000 4.321450 0.000000 
#    z 0.000000 0.000000 4.316260 
# 
# 
# High freq. dielectric constant tensor:
#      x y z
#    x 2.006090 0.000000 0.000000 
#    y 0.000000 1.967260 0.000000 
#    z 0.000000 0.000000 1.969790 
# 
# From -- ./inp_files/1031.got.cif
#   From: 2010.03.12/outbox.cif.g09.slc.cpg/sg34_1_cif.got.tgz:1031.got - 2010.04.14 01:56:33.
