data_PCOD8172803
_publ_section_title
;
Structure prediction by ZEFSAII (Michael W. Deem and Ramdas Pophale) SiO2 
 PCOD8172803
Probable space group: C M M 2
;
_chemical_formula_sum "Si O2"
_cell_formula_units_Z 56
_cell_length_a 8.703006
_cell_length_b 23.247934
_cell_length_c 15.541747
_cell_angle_alpha 90.000000
_cell_angle_beta 90.000000
_cell_angle_gamma 90.000000
_cell_volume 3144.513632
_symmetry_space_group_name_H-M "C M M 2"
_symmetry_group_IT_number 35
_symmetry_cell_setting 'orthorhombic'
loop_
_space_group_symop_operation_xyz
x,y,z
-x,-y,z
-x,y,z
x,-y,z
1/2+x,1/2+y,z
1/2-x,1/2-y,z
1/2-x,1/2+y,z
1/2+x,1/2-y,z
loop_
_atom_site_type_symbol
_atom_site_label
_atom_site_fract_x
_atom_site_fract_y
_atom_site_fract_z
Si Si1 0.176893 0.889382 0.613490
Si Si2 0.323089 0.310696 0.779055
Si Si3 0.818576 0.382089 0.930661
Si Si4 0.178105 0.188649 0.272067
Si Si5 0.181438 0.186896 0.457682
Si Si6 0.681605 0.500000 0.869145
Si Si7 0.821801 0.500000 0.682073
Si Si8 0.818211 0.813937 0.085001
O O1 0.194822 0.849811 0.696211
O O2 0.243827 0.856051 0.530532
O O3 0.000000 0.907952 0.600329
O O4 0.281774 0.945014 0.624757
O O5 0.500000 0.303580 0.806487
O O6 0.250000 0.250000 0.755701
O O7 0.230887 0.338071 0.857222
O O8 0.745185 0.444203 0.916647
O O9 0.000000 0.388589 0.930166
O O10 0.762561 0.358033 0.021469
O O11 0.250000 0.250000 0.267612
O O12 0.228713 0.159760 0.363301
O O13 0.218011 0.158723 0.180592
O O14 0.000000 0.199373 0.277415
O O15 0.250000 0.250000 0.471034
O O16 0.000000 0.192906 0.468675
O O17 0.500000 0.500000 0.876027
O O18 0.724153 0.500000 0.769095
O O19 0.000000 0.500000 0.707111
O O20 0.750000 0.750000 0.073596
O O21 0.000000 0.810843 0.067003
#
# Coordination Sequence:
#
# PCOD8172803 Si02
#       8
#     8   8   8   8   8   4   4   8
#     4  10  21  36  55  76 106 143 179 220 267 315
#     4  11  22  35  52  76 108 144 176 215 264 318
#     4  12  24  38  56  79 106 139 179 223 265 317
#     4   8  15  28  49  76 108 141 178 217 261 316
#     4   9  17  31  52  81 111 143 178 217 265 318
#     4  12  24  42  62  79 102 135 178 223 270 320
#     4  12  24  38  58  79 102 137 184 227 264 310
#     4  10  19  33  53  80 112 146 180 222 270 321
#
# _framework density 17.808795
#
# number of rings (size 3 to 8) (size 9 to 14) (size 15 to 20)
#    0.000    1.714    1.429    4.286    0.000    1.714 
#    0.000    0.000    0.000    0.857    0.000    3.000 
#    0.000    0.000    0.000    0.000    0.000    0.000 
#
# Total GULP energy -347046.896236 kJ/mol
# GULP energy per Si atom -12394.532008 kJ/mol
# Density = 1.776826 g / cm^3
# Si number density = 17.808795 Si / 1000 Ang^3
#
#
#
# Elastic Constant Matrix: (Units=GPa)
#
#
# Indices 1 2 3 4 5 6 
#
# 1 99.9282 43.0364 48.8351 0.0000 0.0000 0.0000
# 2 43.0364 99.7102 49.5518 0.0000 0.0000 0.0000
# 3 48.8351 49.5518 137.8536 0.0000 0.0000 0.0000
# 4 0.0000 0.0000 0.0000 -24.2349 0.0000 0.0000
# 5 0.0000 0.0000 0.0000 0.0000 -43.5408 0.0000
# 6 0.0000 0.0000 0.0000 0.0000 0.0000 30.5521
#
#
#
# Elastic Compliance Matrix: (Units=1/GPa)
#
#
# Indices 1 2 3 4 5 6 
#
# 1 0.013387 -0.004165 -0.003245 0.000000 0.000000 0.000000
# 2 -0.004165 0.013506 -0.003379 0.000000 0.000000 0.000000
# 3 -0.003245 -0.003379 0.009618 0.000000 0.000000 0.000000
# 4 0.000000 0.000000 0.000000 -0.041263 0.000000 0.000000
# 5 0.000000 0.000000 0.000000 0.000000 -0.022967 0.000000
# 6 0.000000 0.000000 0.000000 0.000000 0.000000 0.032731
#
#
# Mechanical properties :
#
#
# Convention : Reuss Voigt Hill
#
# Bulk Modulus (GPa) = 66.96978 68.92651 67.94815
# Shear Modulus (GPa) = 158.37945 5.62651 82.00298
#
# Velocity S-wave (km/s) = 9.44067 1.77940 6.79311
# Velocity P-wave (km/s) = 12.51086 6.55815 9.98827
#
# Compressibility (1/GPa) = 0.01493211
#
# Stress axis : x y z
#
# Youngs Moduli (GPa) = 74.69939 74.03990 103.96776
#
# Poissons Ratio (x) = 0.30840 0.33739
# Poissons Ratio (y) = 0.31115 0.35133
# Poissons Ratio (z) = 0.24241 0.25020
#
# Static dielectric constant tensor:
#      x y z
#    x 3.707560 0.000000 0.000000 
#    y 0.000000 3.265730 0.000000 
#    z 0.000000 0.000000 4.026730 
# 
# 
# High freq. dielectric constant tensor:
#      x y z
#    x 1.698280 0.000000 0.000000 
#    y 0.000000 1.663860 0.000000 
#    z 0.000000 0.000000 1.705990 
# 
# From -- ./inp_files/15804.got.cif
#   From: 2010.03.12/outbox.cif.g09.slc.cpg/sg35_8_cif.got.tgz:15804.got - 2010.04.14 02:02:04.
