data_PCOD8172518
_publ_section_title
;
Structure prediction by ZEFSAII (Michael W. Deem and Ramdas Pophale) SiO2 
 PCOD8172518
Probable space group: C M M 2
;
_chemical_formula_sum "Si O2"
_cell_formula_units_Z 56
_cell_length_a 9.026206
_cell_length_b 29.947503
_cell_length_c 12.637800
_cell_angle_alpha 90.000000
_cell_angle_beta 90.000000
_cell_angle_gamma 90.000000
_cell_volume 3416.153180
_symmetry_space_group_name_H-M "C M M 2"
_symmetry_group_IT_number 35
_symmetry_cell_setting 'orthorhombic'
loop_
_space_group_symop_operation_xyz
x,y,z
-x,-y,z
-x,y,z
x,-y,z
1/2+x,1/2+y,z
1/2-x,1/2-y,z
1/2-x,1/2+y,z
1/2+x,1/2-y,z
loop_
_atom_site_type_symbol
_atom_site_label
_atom_site_fract_x
_atom_site_fract_y
_atom_site_fract_z
Si Si1 0.669861 0.447056 0.675810
Si Si2 0.333103 0.053103 0.467039
Si Si3 0.328872 0.448903 0.259174
Si Si4 0.677314 0.110451 0.849437
Si Si5 0.837682 0.708272 0.834358
Si Si6 0.666182 0.207075 0.085345
Si Si7 0.325807 0.382893 0.070607
O O1 0.500000 0.431402 0.684203
O O2 0.683568 0.500000 0.684375
O O3 0.736523 0.429186 0.565421
O O4 0.765496 0.427022 0.770618
O O5 0.500000 0.071426 0.478228
O O6 0.263783 0.070769 0.357627
O O7 0.330030 0.000000 0.466613
O O8 0.500000 0.444955 0.290920
O O9 0.285124 0.500000 0.234888
O O10 0.291131 0.420987 0.155413
O O11 0.500000 0.108922 0.860465
O O12 0.729717 0.159459 0.807043
O O13 0.747868 0.101066 0.963447
O O14 0.750000 0.750000 0.784250
O O15 0.000000 0.711852 0.784609
O O16 0.843415 0.712429 0.960057
O O17 0.500000 0.203962 0.132712
O O18 0.750000 0.250000 0.134461
O O19 0.758241 0.163047 0.115202
O O20 0.500000 0.376381 0.050426
#
# Coordination Sequence:
#
# PCOD8172518 Si02
#       7
#     8   8   8   8   8   8   8
#     4  10  20  33  49  68  91 121 156 192 231 275
#     4   9  17  30  49  70  89 112 148 194 237 272
#     4   9  18  32  48  66  91 123 157 192 228 269
#     4  10  20  32  45  66  96 126 157 191 228 274
#     4   8  15  26  41  61  85 114 147 184 223 263
#     4   9  16  27  43  63  88 118 153 192 232 273
#     4  10  19  30  45  67  96 128 159 190 228 276
#
# _framework density 16.392709
#
# number of rings (size 3 to 8) (size 9 to 14) (size 15 to 20)
#    0.000    2.714    0.000    3.000    0.000    8.286 
#    0.000    1.429    0.000    0.000    0.000    1.000 
#    0.000    2.286    0.000    0.000    0.000    0.000 
#
# Total GULP energy -347121.214668 kJ/mol
# GULP energy per Si atom -12397.186238 kJ/mol
# Density = 1.635540 g / cm^3
# Si number density = 16.392709 Si / 1000 Ang^3
#
#
#
# Elastic Constant Matrix: (Units=GPa)
#
#
# Indices 1 2 3 4 5 6 
#
# 1 110.2853 44.8555 53.0675 0.0000 0.0000 0.0000
# 2 44.8555 68.7565 43.5071 0.0000 0.0000 0.0000
# 3 53.0675 43.5071 82.7516 0.0000 0.0000 0.0000
# 4 0.0000 0.0000 0.0000 0.5227 0.0000 0.0000
# 5 0.0000 0.0000 0.0000 0.0000 20.2138 0.0000
# 6 0.0000 0.0000 0.0000 0.0000 0.0000 27.5796
#
#
#
# Elastic Compliance Matrix: (Units=1/GPa)
#
#
# Indices 1 2 3 4 5 6 
#
# 1 0.014288 -0.005280 -0.006387 0.000000 0.000000 0.000000
# 2 -0.005280 0.023746 -0.009099 0.000000 0.000000 0.000000
# 3 -0.006387 -0.009099 0.020964 0.000000 0.000000 0.000000
# 4 0.000000 0.000000 0.000000 1.913066 0.000000 0.000000
# 5 0.000000 0.000000 0.000000 0.000000 0.049471 0.000000
# 6 0.000000 0.000000 0.000000 0.000000 0.000000 0.036259
#
#
# Mechanical properties :
#
#
# Convention : Reuss Voigt Hill
#
# Bulk Modulus (GPa) = 57.25040 60.51705 58.88373
# Shear Modulus (GPa) = 2.37513 17.68745 10.03129
#
# Velocity S-wave (km/s) = 1.20501 3.28835 2.47642
# Velocity P-wave (km/s) = 6.07751 7.17042 6.64647
#
# Compressibility (1/GPa) = 0.01746713
#
# Stress axis : x y z
#
# Youngs Moduli (GPa) = 69.98837 42.11252 47.70130
#
# Poissons Ratio (x) = 0.22235 0.30466
# Poissons Ratio (y) = 0.36953 0.43402
# Poissons Ratio (z) = 0.44700 0.38317
#
# Static dielectric constant tensor:
#      x y z
#    x 3.329140 0.000000 0.000000 
#    y 0.000000 3.109620 0.000000 
#    z 0.000000 0.000000 2.817810 
# 
# 
# High freq. dielectric constant tensor:
#      x y z
#    x 1.647470 0.000000 0.000000 
#    y 0.000000 1.617840 0.000000 
#    z 0.000000 0.000000 1.593930 
# 
# From -- ./inp_files/16086.got.cif
#   From: 2010.03.12/outbox.cif.g09.slc.cpg/sg35_9_cif.got.tgz:16086.got - 2010.04.14 02:02:04.
