data_PCOD8172668
_publ_section_title
;
Structure prediction by ZEFSAII (Michael W. Deem and Ramdas Pophale) SiO2 
 PCOD8172668
Probable space group: C M M 2
;
_chemical_formula_sum "Si O2"
_cell_formula_units_Z 56
_cell_length_a 8.772105
_cell_length_b 19.471992
_cell_length_c 17.751570
_cell_angle_alpha 90.000000
_cell_angle_beta 90.000000
_cell_angle_gamma 90.000000
_cell_volume 3032.152034
_symmetry_space_group_name_H-M "C M M 2"
_symmetry_group_IT_number 35
_symmetry_cell_setting 'orthorhombic'
loop_
_space_group_symop_operation_xyz
x,y,z
-x,-y,z
-x,y,z
x,-y,z
1/2+x,1/2+y,z
1/2-x,1/2-y,z
1/2-x,1/2+y,z
1/2+x,1/2-y,z
loop_
_atom_site_type_symbol
_atom_site_label
_atom_site_fract_x
_atom_site_fract_y
_atom_site_fract_z
Si Si1 0.180432 0.321429 0.960870
Si Si2 0.180788 0.422848 0.088064
Si Si3 0.178241 0.320418 0.790880
Si Si4 0.817909 0.823337 0.379889
Si Si5 0.818401 0.323826 0.221779
Si Si6 0.673667 0.580855 0.676392
Si Si7 0.818904 0.075864 0.509231
O O1 0.250000 0.250000 0.990419
O O2 0.235882 0.336585 0.875692
O O3 0.000000 0.314813 0.966665
O O4 0.240033 0.383501 0.013428
O O5 0.250419 0.500000 0.090217
O O6 0.233824 0.380202 0.161048
O O7 0.000000 0.427438 0.086570
O O8 0.250000 0.250000 0.760197
O O9 0.221287 0.382929 0.737429
O O10 0.000000 0.310334 0.790550
O O11 0.750000 0.750000 0.400792
O O12 0.750320 0.849417 0.300891
O O13 0.757570 0.873656 0.445092
O O14 0.000000 0.819970 0.375055
O O15 0.750000 0.250000 0.199084
O O16 0.000000 0.316956 0.227632
O O17 0.500000 0.604902 0.688279
O O18 0.688918 0.500000 0.688241
O O19 0.731618 0.601080 0.592467
O O20 0.000000 0.072318 0.507983
O O21 0.752077 0.000000 0.493074
#
# Coordination Sequence:
#
# PCOD8172668 Si02
#       7
#     8   8   8   8   8   8   8
#     4   9  18  33  53  73  96 129 164 200 241 288
#     4   9  18  32  50  73  99 127 160 197 239 286
#     4  10  20  33  51  76 103 131 167 209 250 294
#     4  10  19  32  51  73  98 126 159 200 241 285
#     4  10  19  32  51  72  96 127 161 197 238 286
#     4   9  18  34  54  74 100 134 168 203 248 300
#     4   8  16  32  52  72  95 128 166 199 238 290
#
# _framework density 18.468730000000001
#
# number of rings (size 3 to 8) (size 9 to 14) (size 15 to 20)
#    0.000    2.714    0.000    3.429    0.000    2.571 
#    0.000    5.000    0.000    6.429    0.000    0.000 
#    0.000    0.000    0.000    0.000    0.000    0.000 
#
# Total GULP energy -347148.688490 kJ/mol
# GULP energy per Si atom -12398.167446 kJ/mol
# Density = 1.842669 g / cm^3
# Si number density = 18.468730 Si / 1000 Ang^3
#
#
#
# Elastic Constant Matrix: (Units=GPa)
#
#
# Indices 1 2 3 4 5 6 
#
# 1 45.7650 26.1042 28.9569 0.0000 0.0000 0.0000
# 2 26.1042 123.0696 93.6981 0.0000 0.0000 0.0000
# 3 28.9569 93.6981 141.9119 0.0000 0.0000 0.0000
# 4 0.0000 0.0000 0.0000 33.3330 0.0000 0.0000
# 5 0.0000 0.0000 0.0000 0.0000 19.7344 0.0000
# 6 0.0000 0.0000 0.0000 0.0000 0.0000 24.4660
#
#
#
# Elastic Compliance Matrix: (Units=1/GPa)
#
#
# Indices 1 2 3 4 5 6 
#
# 1 0.025602 -0.002922 -0.003295 0.000000 0.000000 0.000000
# 2 -0.002922 0.016672 -0.010412 0.000000 0.000000 0.000000
# 3 -0.003295 -0.010412 0.014593 0.000000 0.000000 0.000000
# 4 0.000000 0.000000 0.000000 0.030000 0.000000 0.000000
# 5 0.000000 0.000000 0.000000 0.000000 0.050673 0.000000
# 6 0.000000 0.000000 0.000000 0.000000 0.000000 0.040873
#
#
# Mechanical properties :
#
#
# Convention : Reuss Voigt Hill
#
# Bulk Modulus (GPa) = 42.35372 67.58496 54.96934
# Shear Modulus (GPa) = 22.77483 26.30584 24.54034
#
# Velocity S-wave (km/s) = 3.51544 3.77814 3.64916
# Velocity P-wave (km/s) = 6.28174 7.46366 6.89806
#
# Compressibility (1/GPa) = 0.02361068
#
# Stress axis : x y z
#
# Youngs Moduli (GPa) = 39.05923 59.98069 68.52492
#
# Poissons Ratio (x) = 0.17526 0.22578
# Poissons Ratio (y) = 0.11413 0.71345
# Poissons Ratio (z) = 0.12869 0.62449
#
# Static dielectric constant tensor:
#      x y z
#    x 3.145790 0.000000 0.000000 
#    y 0.000000 3.533290 0.000000 
#    z 0.000000 0.000000 3.653050 
# 
# 
# High freq. dielectric constant tensor:
#      x y z
#    x 1.692500 0.000000 0.000000 
#    y 0.000000 1.714450 0.000000 
#    z 0.000000 0.000000 1.727510 
# 
# From -- ./inp_files/15635.got.cif
#   From: 2010.03.12/outbox.cif.g09.slc.cpg/sg35_8_cif.got.tgz:15635.got - 2010.04.14 02:02:04.
