data_PCOD8172435
_publ_section_title
;
Structure prediction by ZEFSAII (Michael W. Deem and Ramdas Pophale) SiO2 
 PCOD8172435
Probable space group: C M M 2
;
_chemical_formula_sum "Si O2"
_cell_formula_units_Z 32
_cell_length_a 17.823851
_cell_length_b 7.673351
_cell_length_c 12.021937
_cell_angle_alpha 90.000000
_cell_angle_beta 90.000000
_cell_angle_gamma 90.000000
_cell_volume 1644.224273
_symmetry_space_group_name_H-M "C M M 2"
_symmetry_group_IT_number 35
_symmetry_cell_setting 'orthorhombic'
loop_
_space_group_symop_operation_xyz
x,y,z
-x,-y,z
-x,y,z
x,-y,z
1/2+x,1/2+y,z
1/2-x,1/2-y,z
1/2-x,1/2+y,z
1/2+x,1/2-y,z
loop_
_atom_site_type_symbol
_atom_site_label
_atom_site_fract_x
_atom_site_fract_y
_atom_site_fract_z
Si Si1 0.410839 0.194270 0.931780
Si Si2 0.085928 0.795530 0.688845
Si Si3 0.335727 0.195877 0.471786
Si Si4 0.910489 0.000000 0.086267
Si Si5 0.588874 0.500000 0.337559
O O1 0.500000 0.206253 0.930185
O O2 0.381297 0.246335 0.809662
O O3 0.383317 0.000000 0.962993
O O4 0.378998 0.328660 0.023213
O O5 0.135927 0.698019 0.598368
O O6 0.000000 0.732496 0.677236
O O7 0.092119 0.000000 0.668363
O O8 0.250000 0.250000 0.468249
O O9 0.383954 0.325097 0.396630
O O10 0.344887 0.000000 0.424842
O O11 0.879971 0.000000 0.211697
O O12 0.000000 0.000000 0.084983
O O13 0.500000 0.500000 0.341235
#
# Coordination Sequence:
#
# PCOD8172435 Si02
#       5
#     8   8   8   4   4
#     4   9  16  28  50  82 118 153 188 236 301 357
#     4  10  18  32  57  89 123 155 193 245 300 361
#     4  12  24  41  62  87 120 167 202 247 312 368
#     4   9  18  33  53  81 119 155 193 248 298 340
#     4  11  24  41  63  93 122 157 213 262 293 350
#
# _framework density 19.462067000000001
#
# number of rings (size 3 to 8) (size 9 to 14) (size 15 to 20)
#    0.000    1.750    3.750    1.500    0.000    4.000 
#    0.000    2.500    0.000    1.500    0.000    0.000 
#    0.000    0.000    0.000    0.000    0.000    0.000 
#
# Total GULP energy -198416.018296 kJ/mol
# GULP energy per Si atom -12401.001143 kJ/mol
# Density = 1.941777 g / cm^3
# Si number density = 19.462067 Si / 1000 Ang^3
#
#
#
# Elastic Constant Matrix: (Units=GPa)
#
#
# Indices 1 2 3 4 5 6 
#
# 1 53.6636 32.0356 33.2807 0.0000 0.0000 0.0000
# 2 32.0356 169.0451 70.9053 0.0000 0.0000 0.0000
# 3 33.2807 70.9053 152.3617 0.0000 0.0000 0.0000
# 4 0.0000 0.0000 0.0000 -42.3637 0.0000 0.0000
# 5 0.0000 0.0000 0.0000 0.0000 -0.0676 0.0000
# 6 0.0000 0.0000 0.0000 0.0000 0.0000 18.8588
#
#
#
# Elastic Compliance Matrix: (Units=1/GPa)
#
#
# Indices 1 2 3 4 5 6 
#
# 1 0.022532 -0.002741 -0.003646 0.000000 0.000000 0.000000
# 2 -0.002741 0.007684 -0.002977 0.000000 0.000000 0.000000
# 3 -0.003646 -0.002977 0.008745 0.000000 0.000000 0.000000
# 4 0.000000 0.000000 0.000000 -0.023605 0.000000 0.000000
# 5 0.000000 0.000000 0.000000 0.000000-14.789570 0.000000
# 6 0.000000 0.000000 0.000000 0.000000 0.000000 0.053026
#
#
# Mechanical properties :
#
#
# Convention : Reuss Voigt Hill
#
# Bulk Modulus (GPa) = 49.42451 71.94595 60.68523
# Shear Modulus (GPa) = -0.34024 11.20875 5.43426
#
# Velocity S-wave (km/s) = -0.41857 2.40245 1.67281
# Velocity P-wave (km/s) = 5.02164 6.68904 5.91439
#
# Compressibility (1/GPa) = 0.02023288
#
# Stress axis : x y z
#
# Youngs Moduli (GPa) = 44.38129 130.14544 114.34711
#
# Poissons Ratio (x) = 0.35668 0.41695
# Poissons Ratio (y) = 0.12163 0.34043
# Poissons Ratio (z) = 0.16183 0.38747
#
# Static dielectric constant tensor:
#      x y z
#    x 3.160240 0.000000 0.000000 
#    y 0.000000 3.976090 0.000000 
#    z 0.000000 0.000000 3.723190 
# 
# 
# High freq. dielectric constant tensor:
#      x y z
#    x 1.712630 0.000000 0.000000 
#    y 0.000000 1.776870 0.000000 
#    z 0.000000 0.000000 1.758780 
# 
# From -- ./inp_files/10979.got.cif
#   From: 2010.03.12/outbox.cif.g09.slc.cpg/sg35_6_cif.got.tgz:10979.got - 2010.04.14 02:02:04.
