data_PCOD8172274
_publ_section_title
;
Structure prediction by ZEFSAII (Michael W. Deem and Ramdas Pophale) SiO2 
 PCOD8172274
Probable space group: C M M 2
;
_chemical_formula_sum "Si O2"
_cell_formula_units_Z 64
_cell_length_a 8.822332
_cell_length_b 29.004910
_cell_length_c 15.642831
_cell_angle_alpha 90.000000
_cell_angle_beta 90.000000
_cell_angle_gamma 90.000000
_cell_volume 4002.858817
_symmetry_space_group_name_H-M "C M M 2"
_symmetry_group_IT_number 35
_symmetry_cell_setting 'orthorhombic'
loop_
_space_group_symop_operation_xyz
x,y,z
-x,-y,z
-x,y,z
x,-y,z
1/2+x,1/2+y,z
1/2-x,1/2-y,z
1/2-x,1/2+y,z
1/2+x,1/2-y,z
loop_
_atom_site_type_symbol
_atom_site_label
_atom_site_fract_x
_atom_site_fract_y
_atom_site_fract_z
Si Si1 0.177588 0.700161 0.408900
Si Si2 0.677408 0.200208 0.221453
Si Si3 0.322395 0.855116 0.728349
Si Si4 0.321188 0.699505 0.576795
Si Si5 0.677021 0.799317 0.898522
Si Si6 0.820443 0.550348 0.799643
Si Si7 0.319608 0.050332 0.991617
Si Si8 0.819317 0.644558 0.061130
O O1 0.250000 0.750000 0.404348
O O2 0.209566 0.677752 0.315499
O O3 0.259112 0.675250 0.489128
O O4 0.000000 0.703313 0.428293
O O5 0.500000 0.207729 0.208545
O O6 0.750000 0.250000 0.209303
O O7 0.742980 0.165222 0.150303
O O8 0.500000 0.851037 0.705660
O O9 0.223121 0.833290 0.654139
O O10 0.284100 0.829950 0.816627
O O11 0.267234 0.908325 0.737774
O O12 0.500000 0.704817 0.572110
O O13 0.250000 0.750000 0.590432
O O14 0.500000 0.791948 0.908574
O O15 0.750000 0.750000 0.886394
O O16 0.742329 0.824501 0.982798
O O17 0.768483 0.500000 0.763797
O O18 0.756143 0.557259 0.895487
O O19 0.000000 0.552626 0.806075
O O20 0.500000 0.052223 0.989004
O O21 0.266566 0.000000 0.026977
O O22 0.257748 0.092021 0.050839
O O23 0.000000 0.644311 0.060092
#
# Coordination Sequence:
#
# PCOD8172274 Si02
#       8
#     8   8   8   8   8   8   8   8
#     4   9  16  28  44  62  82 109 142 179 220 257
#     4   9  17  27  42  62  87 115 143 175 212 252
#     4  10  18  29  44  64  89 117 146 179 216 255
#     4  11  21  32  46  64  86 114 146 182 220 262
#     4  10  19  28  39  56  84 120 149 172 201 241
#     4   8  13  23  41  64  87 112 145 183 219 254
#     4   8  12  20  37  60  85 112 142 177 214 250
#     4   9  15  25  38  58  87 116 143 172 208 249
#
# _framework density 15.988572
#
# number of rings (size 3 to 8) (size 9 to 14) (size 15 to 20)
#    0.000    2.750    1.250    3.750    0.000    2.000 
#    0.000    0.000    0.000    0.375    0.000    0.875 
#    0.000    7.000    0.000    0.000    0.000    0.000 
#
# Total GULP energy -396480.863789 kJ/mol
# GULP energy per Si atom -12390.026993 kJ/mol
# Density = 1.595218 g / cm^3
# Si number density = 15.988572 Si / 1000 Ang^3
#
#
#
# Elastic Constant Matrix: (Units=GPa)
#
#
# Indices 1 2 3 4 5 6 
#
# 1 45.0529 30.3752 41.3639 0.0000 0.0000 0.0000
# 2 30.3752 116.1581 56.0592 0.0000 0.0000 0.0000
# 3 41.3639 56.0592 119.7793 0.0000 0.0000 0.0000
# 4 0.0000 0.0000 0.0000 21.7632 0.0000 0.0000
# 5 0.0000 0.0000 0.0000 0.0000 15.3735 0.0000
# 6 0.0000 0.0000 0.0000 0.0000 0.0000 11.9734
#
#
#
# Elastic Compliance Matrix: (Units=1/GPa)
#
#
# Indices 1 2 3 4 5 6 
#
# 1 0.033992 -0.004164 -0.009790 0.000000 0.000000 0.000000
# 2 -0.004164 0.011631 -0.004005 0.000000 0.000000 0.000000
# 3 -0.009790 -0.004005 0.013604 0.000000 0.000000 0.000000
# 4 0.000000 0.000000 0.000000 0.045949 0.000000 0.000000
# 5 0.000000 0.000000 0.000000 0.000000 0.065047 0.000000
# 6 0.000000 0.000000 0.000000 0.000000 0.000000 0.083518
#
#
# Mechanical properties :
#
#
# Convention : Reuss Voigt Hill
#
# Bulk Modulus (GPa) = 42.90349 59.62076 51.26212
# Shear Modulus (GPa) = 16.81074 20.03483 18.42278
#
# Velocity S-wave (km/s) = 3.24608 3.54372 3.39816
# Velocity P-wave (km/s) = 6.39855 7.35625 6.89405
#
# Compressibility (1/GPa) = 0.02330813
#
# Stress axis : x y z
#
# Youngs Moduli (GPa) = 29.41896 85.97720 73.50767
#
# Poissons Ratio (x) = 0.35803 0.71961
# Poissons Ratio (y) = 0.12251 0.29443
# Poissons Ratio (z) = 0.28800 0.34438
#
# Static dielectric constant tensor:
#      x y z
#    x 2.749660 0.000000 0.000000 
#    y 0.000000 3.204750 0.000000 
#    z 0.000000 0.000000 3.515070 
# 
# 
# High freq. dielectric constant tensor:
#      x y z
#    x 1.583470 0.000000 0.000000 
#    y 0.000000 1.597810 0.000000 
#    z 0.000000 0.000000 1.610250 
# 
# From -- ./inp_files/16256.got.cif
#   From: 2010.03.12/outbox.cif.g09.slc.cpg/sg35_9_cif.got.tgz:16256.got - 2010.04.14 02:02:04.
