data_PCOD8172880
_publ_section_title
;
Structure prediction by ZEFSAII (Michael W. Deem and Ramdas Pophale) SiO2 
 PCOD8172880
Probable space group: C M M 2
;
_chemical_formula_sum "Si O2"
_cell_formula_units_Z 40
_cell_length_a 25.643659
_cell_length_b 8.716371
_cell_length_c 9.746897
_cell_angle_alpha 90.000000
_cell_angle_beta 90.000000
_cell_angle_gamma 90.000000
_cell_volume 2178.622964
_symmetry_space_group_name_H-M "C M M 2"
_symmetry_group_IT_number 35
_symmetry_cell_setting 'orthorhombic'
loop_
_space_group_symop_operation_xyz
x,y,z
-x,-y,z
-x,y,z
x,-y,z
1/2+x,1/2+y,z
1/2-x,1/2-y,z
1/2-x,1/2+y,z
1/2+x,1/2-y,z
loop_
_atom_site_type_symbol
_atom_site_label
_atom_site_fract_x
_atom_site_fract_y
_atom_site_fract_z
Si Si1 0.305212 0.682425 0.967350
Si Si2 0.000000 0.328842 0.771992
Si Si3 0.892715 0.818773 0.449039
Si Si4 0.500000 0.174562 0.445930
Si Si5 0.104944 0.179494 0.764473
Si Si6 0.694469 0.818014 0.259479
O O1 0.301442 0.500000 0.978695
O O2 0.250000 0.750000 0.920333
O O3 0.346601 0.737430 0.854196
O O4 0.322552 0.750157 0.113135
O O5 0.947877 0.249005 0.827965
O O6 0.000000 0.500000 0.828713
O O7 0.000000 0.320438 0.608877
O O8 0.948747 0.762898 0.391838
O O9 0.886021 0.770549 0.607629
O O10 0.847884 0.729206 0.370511
O O11 0.887407 0.000000 0.426286
O O12 0.500000 0.000000 0.391046
O O13 0.098218 0.000000 0.774795
O O14 0.750000 0.750000 0.305577
O O15 0.698936 0.000000 0.249300
#
# Coordination Sequence:
#
# PCOD8172880 Si02
#       6
#     8   4   8   4   8   8
#     4  10  20  36  55  76 102 136 173 212 258 310
#     4   9  17  29  50  77 106 137 170 208 254 301
#     4  10  19  34  55  80 107 138 173 213 258 307
#     4   9  17  31  50  77 108 139 172 210 256 307
#     4   9  19  34  54  78 106 137 171 209 255 307
#     4  11  22  37  55  76 103 138 175 215 260 311
#
# _framework density 18.360222
#
# number of rings (size 3 to 8) (size 9 to 14) (size 15 to 20)
#    0.000    2.200    0.000    4.800    0.000    5.600 
#    0.000    3.000    0.000    3.600    0.000    0.000 
#    0.000    0.000    0.000    0.000    0.000    0.000 
#
# Total GULP energy -248024.836424 kJ/mol
# GULP energy per Si atom -12401.241821 kJ/mol
# Density = 1.831843 g / cm^3
# Si number density = 18.360222 Si / 1000 Ang^3
#
#
#
# Elastic Constant Matrix: (Units=GPa)
#
#
# Indices 1 2 3 4 5 6 
#
# 1 164.5738 60.2551 79.6886 0.0000 0.0000 0.0000
# 2 60.2551 88.9359 37.8480 0.0000 0.0000 0.0000
# 3 79.6886 37.8480 71.3226 0.0000 0.0000 0.0000
# 4 0.0000 0.0000 0.0000 24.7505 0.0000 0.0000
# 5 0.0000 0.0000 0.0000 0.0000 -3.6337 0.0000
# 6 0.0000 0.0000 0.0000 0.0000 0.0000 38.6638
#
#
#
# Elastic Compliance Matrix: (Units=1/GPa)
#
#
# Indices 1 2 3 4 5 6 
#
# 1 0.014115 -0.003683 -0.013815 0.000000 0.000000 0.000000
# 2 -0.003683 0.015485 -0.004102 0.000000 0.000000 0.000000
# 3 -0.013815 -0.004102 0.031634 0.000000 0.000000 0.000000
# 4 0.000000 0.000000 0.000000 0.040403 0.000000 0.000000
# 5 0.000000 0.000000 0.000000 0.000000 -0.275202 0.000000
# 6 0.000000 0.000000 0.000000 0.000000 0.000000 0.025864
#
#
# Mechanical properties :
#
#
# Convention : Reuss Voigt Hill
#
# Bulk Modulus (GPa) = 55.45805 75.60173 65.52989
# Shear Modulus (GPa) = -50.76684 21.75883 -14.50401
#
# Velocity S-wave (km/s) = -5.26407 3.44627 -2.81369
# Velocity P-wave (km/s) = 2.58383 7.55659 5.02125
#
# Compressibility (1/GPa) = 0.01803165
#
# Stress axis : x y z
#
# Youngs Moduli (GPa) = 70.84909 64.57768 31.61199
#
# Poissons Ratio (x) = 0.23786 0.43674
# Poissons Ratio (y) = 0.26096 0.12967
# Poissons Ratio (z) = 0.97882 0.26490
#
# Static dielectric constant tensor:
#      x y z
#    x 3.609490 0.000000 0.000000 
#    y 0.000000 3.477360 0.000000 
#    z 0.000000 0.000000 3.252500 
# 
# 
# High freq. dielectric constant tensor:
#      x y z
#    x 1.725950 0.000000 0.000000 
#    y 0.000000 1.725780 0.000000 
#    z 0.000000 0.000000 1.684800 
# 
# From -- ./inp_files/5011.got.cif
#   From: 2010.03.12/outbox.cif.g09.slc.cpg/sg35_3_cif.got.tgz:5011.got - 2010.04.14 02:02:04.
