data_PCOD8172339
_publ_section_title
;
Structure prediction by ZEFSAII (Michael W. Deem and Ramdas Pophale) SiO2 
 PCOD8172339
Probable space group: C M M 2
;
_chemical_formula_sum "Si O2"
_cell_formula_units_Z 48
_cell_length_a 18.395761
_cell_length_b 10.175413
_cell_length_c 14.167461
_cell_angle_alpha 90.000000
_cell_angle_beta 90.000000
_cell_angle_gamma 90.000000
_cell_volume 2651.928617
_symmetry_space_group_name_H-M "C M M 2"
_symmetry_group_IT_number 35
_symmetry_cell_setting 'orthorhombic'
loop_
_space_group_symop_operation_xyz
x,y,z
-x,-y,z
-x,y,z
x,-y,z
1/2+x,1/2+y,z
1/2-x,1/2-y,z
1/2-x,1/2+y,z
1/2+x,1/2-y,z
loop_
_atom_site_type_symbol
_atom_site_label
_atom_site_fract_x
_atom_site_fract_y
_atom_site_fract_z
Si Si1 0.163901 0.240825 0.848130
Si Si2 0.915231 0.000000 0.158190
Si Si3 0.586924 0.000000 0.158333
Si Si4 0.155960 0.500000 0.952080
Si Si5 0.414571 0.245917 0.274634
Si Si6 0.318549 0.655745 0.648547
Si Si7 0.416659 0.348277 0.469249
Si Si8 0.828754 0.000000 0.969946
O O1 0.250000 0.250000 0.843456
O O2 0.131056 0.375846 0.888843
O O3 0.138089 0.203415 0.742403
O O4 0.139128 0.127085 0.918453
O O5 0.893745 0.874867 0.218391
O O6 0.860332 0.000000 0.072849
O O7 0.000000 0.000000 0.127088
O O8 0.618386 0.876505 0.217141
O O9 0.500000 0.000000 0.152424
O O10 0.615896 0.000000 0.052022
O O11 0.241617 0.500000 0.972302
O O12 0.500000 0.228619 0.281359
O O13 0.385637 0.259841 0.382377
O O14 0.296801 0.500000 0.657275
O O15 0.250000 0.750000 0.632154
O O16 0.371411 0.682307 0.561987
O O17 0.500000 0.312582 0.491289
O O18 0.410142 0.500000 0.438597
#
# Coordination Sequence:
#
# PCOD8172339 Si02
#       8
#     8   4   4   4   8   8   8   4
#     4   9  18  32  52  73  97 134 171 202 248 308
#     4  10  18  30  51  74  96 128 171 212 247 296
#     4  10  20  34  51  74 104 136 169 208 255 308
#     4  10  20  34  51  72 100 136 169 206 253 300
#     4   9  17  32  53  74  98 135 173 202 249 311
#     4  10  20  35  56  81 106 137 174 216 263 312
#     4   9  17  34  58  80 103 136 177 218 259 308
#     4  10  18  32  49  72  98 126 169 212 245 296
#
# _framework density 18.100034000000001
#
# number of rings (size 3 to 8) (size 9 to 14) (size 15 to 20)
#    0.000    2.500    1.667    1.000    3.500    0.000 
#    1.500    3.333    0.000    0.000    0.000    0.000 
#    0.000    0.000    0.000    0.000    0.000    0.000 
#
# Total GULP energy -297458.123991 kJ/mol
# GULP energy per Si atom -12394.088500 kJ/mol
# Density = 1.805884 g / cm^3
# Si number density = 18.100034 Si / 1000 Ang^3
#
#
#
# Elastic Constant Matrix: (Units=GPa)
#
#
# Indices 1 2 3 4 5 6 
#
# 1 34.2979 29.4936 41.6664 0.0000 0.0000 0.0000
# 2 29.4936 152.3050 81.3421 0.0000 0.0000 0.0000
# 3 41.6664 81.3421 171.3252 0.0000 0.0000 0.0000
# 4 0.0000 0.0000 0.0000 39.6832 0.0000 0.0000
# 5 0.0000 0.0000 0.0000 0.0000 33.2488 0.0000
# 6 0.0000 0.0000 0.0000 0.0000 0.0000 54.6529
#
#
#
# Elastic Compliance Matrix: (Units=1/GPa)
#
#
# Indices 1 2 3 4 5 6 
#
# 1 0.042854 -0.003661 -0.008684 0.000000 0.000000 0.000000
# 2 -0.003661 0.009109 -0.003434 0.000000 0.000000 0.000000
# 3 -0.008684 -0.003434 0.009579 0.000000 0.000000 0.000000
# 4 0.000000 0.000000 0.000000 0.025200 0.000000 0.000000
# 5 0.000000 0.000000 0.000000 0.000000 0.030076 0.000000
# 6 0.000000 0.000000 0.000000 0.000000 0.000000 0.018297
#
#
# Mechanical properties :
#
#
# Convention : Reuss Voigt Hill
#
# Bulk Modulus (GPa) = 33.35130 73.65912 53.50521
# Shear Modulus (GPa) = 28.30162 39.21205 33.75683
#
# Velocity S-wave (km/s) = 3.95856 4.65952 4.32327
# Velocity P-wave (km/s) = 6.27373 8.35057 7.38552
#
# Compressibility (1/GPa) = 0.02998384
#
# Stress axis : x y z
#
# Youngs Moduli (GPa) = 23.33514 109.78254 104.39008
#
# Poissons Ratio (x) = 0.40187 0.90653
# Poissons Ratio (y) = 0.08542 0.35853
# Poissons Ratio (z) = 0.20264 0.37705
#
# Static dielectric constant tensor:
#      x y z
#    x 2.882670 0.000000 0.000000 
#    y 0.000000 3.656790 0.000000 
#    z 0.000000 0.000000 3.614150 
# 
# 
# High freq. dielectric constant tensor:
#      x y z
#    x 1.651840 0.000000 0.000000 
#    y 0.000000 1.711830 0.000000 
#    z 0.000000 0.000000 1.721320 
# 
# From -- ./inp_files/15293.got.cif
#   From: 2010.03.12/outbox.cif.g09.slc.cpg/sg35_8_cif.got.tgz:15293.got - 2010.04.14 02:02:04.
