data_PCOD8172385
_publ_section_title
;
Structure prediction by ZEFSAII (Michael W. Deem and Ramdas Pophale) SiO2 
 PCOD8172385
Probable space group: C M M 2
;
_chemical_formula_sum "Si O2"
_cell_formula_units_Z 32
_cell_length_a 8.796960
_cell_length_b 15.305512
_cell_length_c 12.048221
_cell_angle_alpha 90.000000
_cell_angle_beta 90.000000
_cell_angle_gamma 90.000000
_cell_volume 1622.196293
_symmetry_space_group_name_H-M "C M M 2"
_symmetry_group_IT_number 35
_symmetry_cell_setting 'orthorhombic'
loop_
_space_group_symop_operation_xyz
x,y,z
-x,-y,z
-x,y,z
x,-y,z
1/2+x,1/2+y,z
1/2-x,1/2-y,z
1/2-x,1/2+y,z
1/2+x,1/2-y,z
loop_
_atom_site_type_symbol
_atom_site_label
_atom_site_fract_x
_atom_site_fract_y
_atom_site_fract_z
Si Si1 0.178562 0.500000 0.917810
Si Si2 0.171114 0.395828 0.529115
Si Si3 0.663716 0.402531 0.740414
Si Si4 0.680342 0.500000 0.156155
Si Si5 0.181717 0.658684 0.289299
O O1 0.224501 0.588158 0.847807
O O2 0.000000 0.500000 0.943232
O O3 0.278101 0.500000 0.027341
O O4 0.177019 0.500000 0.524722
O O5 0.259725 0.354481 0.635013
O O6 0.239747 0.358558 0.414783
O O7 0.000000 0.363025 0.542677
O O8 0.500000 0.358179 0.770944
O O9 0.630410 0.500000 0.697424
O O10 0.500000 0.500000 0.171395
O O11 0.752036 0.414620 0.209811
O O12 0.250000 0.750000 0.247715
O O13 0.000000 0.657438 0.281138
#
# Coordination Sequence:
#
# PCOD8172385 Si02
#       5
#     4   8   8   4   8
#     4  10  18  31  52  79 110 147 191 235 287 348
#     4   9  16  30  53  79 111 148 183 225 281 341
#     4   8  15  26  45  77 109 137 179 229 276 335
#     4  12  24  39  60  85 114 155 201 245 295 348
#     4  11  23  40  59  86 120 156 198 244 292 348
#
# _framework density 19.726341999999999
#
# number of rings (size 3 to 8) (size 9 to 14) (size 15 to 20)
#    0.750    1.500    1.250    3.375    0.000    2.000 
#    0.000    0.000    0.000    1.500    0.000    7.000 
#    0.000    0.000    0.000    0.000    0.000    0.000 
#
# Total GULP energy -198213.866185 kJ/mol
# GULP energy per Si atom -12388.366637 kJ/mol
# Density = 1.968144 g / cm^3
# Si number density = 19.726342 Si / 1000 Ang^3
#
#
#
# Elastic Constant Matrix: (Units=GPa)
#
#
# Indices 1 2 3 4 5 6 
#
# 1 110.9943 26.4044 40.7753 0.0000 0.0000 0.0000
# 2 26.4044 64.5685 38.6849 0.0000 0.0000 0.0000
# 3 40.7753 38.6849 130.0764 0.0000 0.0000 0.0000
# 4 0.0000 0.0000 0.0000 -7.2164 0.0000 0.0000
# 5 0.0000 0.0000 0.0000 0.0000 34.7197 0.0000
# 6 0.0000 0.0000 0.0000 0.0000 0.0000 19.2703
#
#
#
# Elastic Compliance Matrix: (Units=1/GPa)
#
#
# Indices 1 2 3 4 5 6 
#
# 1 0.010597 -0.002851 -0.002474 0.000000 0.000000 0.000000
# 2 -0.002851 0.019612 -0.004939 0.000000 0.000000 0.000000
# 3 -0.002474 -0.004939 0.009932 0.000000 0.000000 0.000000
# 4 0.000000 0.000000 0.000000 -0.138574 0.000000 0.000000
# 5 0.000000 0.000000 0.000000 0.000000 0.028802 0.000000
# 6 0.000000 0.000000 0.000000 0.000000 0.000000 0.051893
#
#
# Mechanical properties :
#
#
# Convention : Reuss Voigt Hill
#
# Bulk Modulus (GPa) = 50.98615 57.48540 54.23577
# Shear Modulus (GPa) = 535.99271 22.67303 279.33287
#
# Velocity S-wave (km/s) = 16.50164 3.39393 11.91266
# Velocity P-wave (km/s) = 19.72245 6.67555 14.72308
#
# Compressibility (1/GPa) = 0.01961317
#
# Stress axis : x y z
#
# Youngs Moduli (GPa) = 94.37061 50.98794 100.68354
#
# Poissons Ratio (x) = 0.14538 0.24907
# Poissons Ratio (y) = 0.26907 0.49728
# Poissons Ratio (z) = 0.23345 0.25183
#
# Static dielectric constant tensor:
#      x y z
#    x 3.838040 0.000000 0.000000 
#    y 0.000000 3.116920 0.000000 
#    z 0.000000 0.000000 3.608390 
# 
# 
# High freq. dielectric constant tensor:
#      x y z
#    x 1.781060 0.000000 0.000000 
#    y 0.000000 1.721760 0.000000 
#    z 0.000000 0.000000 1.769170 
# 
# From -- ./inp_files/10906.got.cif
#   From: 2010.03.12/outbox.cif.g09.slc.cpg/sg35_6_cif.got.tgz:10906.got - 2010.04.14 02:02:04.
