data_PCOD8172902
_publ_section_title
;
Structure prediction by ZEFSAII (Michael W. Deem and Ramdas Pophale) SiO2 
 PCOD8172902
Probable space group: C M M 2
;
_chemical_formula_sum "Si O2"
_cell_formula_units_Z 48
_cell_length_a 28.023621
_cell_length_b 8.877041
_cell_length_c 10.222809
_cell_angle_alpha 90.000000
_cell_angle_beta 90.000000
_cell_angle_gamma 90.000000
_cell_volume 2543.095815
_symmetry_space_group_name_H-M "C M M 2"
_symmetry_group_IT_number 35
_symmetry_cell_setting 'orthorhombic'
loop_
_space_group_symop_operation_xyz
x,y,z
-x,-y,z
-x,y,z
x,-y,z
1/2+x,1/2+y,z
1/2-x,1/2-y,z
1/2-x,1/2+y,z
1/2+x,1/2-y,z
loop_
_atom_site_type_symbol
_atom_site_label
_atom_site_fract_x
_atom_site_fract_y
_atom_site_fract_z
Si Si1 0.396175 0.821819 0.537640
Si Si2 0.555680 0.176479 0.275311
Si Si3 0.107045 0.822897 0.034965
Si Si4 0.799138 0.322740 0.956072
Si Si5 0.298574 0.823144 0.654137
Si Si6 0.444212 0.827451 0.800394
O O1 0.416042 0.757859 0.401161
O O2 0.342724 0.761648 0.567526
O O3 0.431627 0.773499 0.654230
O O4 0.395461 0.000000 0.528339
O O5 0.500000 0.207606 0.296974
O O6 0.573362 0.266495 0.150390
O O7 0.565442 0.000000 0.253268
O O8 0.113976 0.000000 0.044772
O O9 0.158632 0.744427 0.044301
O O10 0.082426 0.781881 0.898850
O O11 0.796552 0.500000 0.977241
O O12 0.750000 0.250000 0.005598
O O13 0.808307 0.278866 0.804734
O O14 0.250000 0.750000 0.600990
O O15 0.292945 0.000000 0.639833
O O16 0.500000 0.813735 0.823817
O O17 0.426720 0.000000 0.823499
#
# Coordination Sequence:
#
# PCOD8172902 Si02
#       6
#     8   8   8   8   8   8
#     4   9  17  34  58  85 110 140 185 238 289 340
#     4  10  21  38  60  82 108 149 197 241 289 343
#     4  12  24  37  54  80 116 155 193 232 280 339
#     4  10  19  35  59  87 117 147 185 233 285 339
#     4   9  17  31  54  83 115 143 175 223 279 334
#     4  10  19  34  58  84 109 140 186 242 293 342
#
# _framework density 18.874631999999998
#
# number of rings (size 3 to 8) (size 9 to 14) (size 15 to 20)
#    0.000    2.000    1.667    3.000    0.000    5.333 
#    0.000    2.500    0.000    4.000    0.000    0.000 
#    0.000    0.000    0.000    0.000    0.000    0.000 
#
# Total GULP energy -297642.864656 kJ/mol
# GULP energy per Si atom -12401.786027 kJ/mol
# Density = 1.883167 g / cm^3
# Si number density = 18.874632 Si / 1000 Ang^3
#
#
#
# Elastic Constant Matrix: (Units=GPa)
#
#
# Indices 1 2 3 4 5 6 
#
# 1 114.6008 40.5054 28.4744 0.0000 0.0000 0.0000
# 2 40.5054 67.4091 23.6958 0.0000 0.0000 0.0000
# 3 28.4744 23.6958 65.7945 0.0000 0.0000 0.0000
# 4 0.0000 0.0000 0.0000 1.9788 0.0000 0.0000
# 5 0.0000 0.0000 0.0000 0.0000 35.5217 0.0000
# 6 0.0000 0.0000 0.0000 0.0000 0.0000 29.7448
#
#
#
# Elastic Compliance Matrix: (Units=1/GPa)
#
#
# Indices 1 2 3 4 5 6 
#
# 1 0.011529 -0.005924 -0.002856 0.000000 0.000000 0.000000
# 2 -0.005924 0.020029 -0.004650 0.000000 0.000000 0.000000
# 3 -0.002856 -0.004650 0.018110 0.000000 0.000000 0.000000
# 4 0.000000 0.000000 0.000000 0.505361 0.000000 0.000000
# 5 0.000000 0.000000 0.000000 0.000000 0.028152 0.000000
# 6 0.000000 0.000000 0.000000 0.000000 0.000000 0.033619
#
#
# Mechanical properties :
#
#
# Convention : Reuss Voigt Hill
#
# Bulk Modulus (GPa) = 43.84364 48.12840 45.98602
# Shear Modulus (GPa) = 7.67740 23.79098 15.73419
#
# Velocity S-wave (km/s) = 2.01901 3.55417 2.89037
# Velocity P-wave (km/s) = 5.35859 6.51131 5.96287
#
# Compressibility (1/GPa) = 0.02280832
#
# Stress axis : x y z
#
# Youngs Moduli (GPa) = 86.73490 49.92801 55.21960
#
# Poissons Ratio (x) = 0.29577 0.15772
# Poissons Ratio (y) = 0.51381 0.25675
# Poissons Ratio (z) = 0.24773 0.23215
#
# Static dielectric constant tensor:
#      x y z
#    x 3.724530 0.000000 0.000000 
#    y 0.000000 3.228460 0.000000 
#    z 0.000000 0.000000 3.450770 
# 
# 
# High freq. dielectric constant tensor:
#      x y z
#    x 1.752300 0.000000 0.000000 
#    y 0.000000 1.708390 0.000000 
#    z 0.000000 0.000000 1.717700 
# 
# From -- ./inp_files/10474.got.cif
#   From: 2010.03.12/outbox.cif.g09.slc.cpg/sg35_6_cif.got.tgz:10474.got - 2010.04.14 02:02:04.
