data_PCOD8172723
_publ_section_title
;
Structure prediction by ZEFSAII (Michael W. Deem and Ramdas Pophale) SiO2 
 PCOD8172723
Probable space group: C M M 2
;
_chemical_formula_sum "Si O2"
_cell_formula_units_Z 64
_cell_length_a 9.024737
_cell_length_b 29.237678
_cell_length_c 12.371365
_cell_angle_alpha 90.000000
_cell_angle_beta 90.000000
_cell_angle_gamma 90.000000
_cell_volume 3264.337497
_symmetry_space_group_name_H-M "C M M 2"
_symmetry_group_IT_number 35
_symmetry_cell_setting 'orthorhombic'
loop_
_space_group_symop_operation_xyz
x,y,z
-x,-y,z
-x,y,z
x,-y,z
1/2+x,1/2+y,z
1/2-x,1/2-y,z
1/2-x,1/2+y,z
1/2+x,1/2-y,z
loop_
_atom_site_type_symbol
_atom_site_label
_atom_site_fract_x
_atom_site_fract_y
_atom_site_fract_z
Si Si1 0.327113 0.204603 0.328970
Si Si2 0.328143 0.612673 0.268055
Si Si3 0.672728 0.393305 0.859721
Si Si4 0.331726 0.950036 0.681856
Si Si5 0.824154 0.947965 0.070434
Si Si6 0.172225 0.319833 0.571507
Si Si7 0.327285 0.293795 0.787930
Si Si8 0.329225 0.409808 0.507318
O O1 0.500000 0.205852 0.302429
O O2 0.250000 0.250000 0.280861
O O3 0.259802 0.160246 0.269868
O O4 0.295978 0.204539 0.457186
O O5 0.500000 0.624656 0.248286
O O6 0.265262 0.578836 0.176076
O O7 0.305566 0.585130 0.379610
O O8 0.500000 0.403580 0.840305
O O9 0.765154 0.412866 0.761522
O O10 0.703519 0.338767 0.861083
O O11 0.729164 0.417783 0.968699
O O12 0.500000 0.936706 0.654261
O O13 0.233954 0.953558 0.571203
O O14 0.323159 0.000000 0.736763
O O15 0.000000 0.950767 0.074157
O O16 0.759650 0.000000 0.065890
O O17 0.263870 0.296272 0.666519
O O18 0.227622 0.371123 0.560015
O O19 0.000000 0.318963 0.601866
O O20 0.500000 0.284293 0.777572
O O21 0.250000 0.250000 0.845425
O O22 0.500000 0.400036 0.534810
#
# Coordination Sequence:
#
# PCOD8172723 Si02
#       8
#     8   8   8   8   8   8   8   8
#     4  10  20  33  52  80 114 153 193 231 278 333
#     4   9  19  35  57  84 114 146 186 236 285 336
#     4  10  21  38  60  84 111 145 188 236 283 339
#     4  11  23  36  53  80 114 151 188 229 284 344
#     4   9  18  36  63  89 110 140 187 240 290 338
#     4  10  19  32  52  78 112 152 188 230 278 331
#     4  11  22  34  52  80 112 149 191 231 279 336
#     4  10  19  32  52  80 114 151 187 228 278 338
#
# _framework density 19.605816000000001
#
# number of rings (size 3 to 8) (size 9 to 14) (size 15 to 20)
#    0.000    2.000    1.250    2.625    0.000    5.500 
#    0.000    2.500    0.000    2.625    0.000    0.000 
#    0.000    0.000    0.000    0.000    0.000    0.000 
#
# Total GULP energy -396704.158464 kJ/mol
# GULP energy per Si atom -12397.004952 kJ/mol
# Density = 1.956119 g / cm^3
# Si number density = 19.605816 Si / 1000 Ang^3
#
#
#
# Elastic Constant Matrix: (Units=GPa)
#
#
# Indices 1 2 3 4 5 6 
#
# 1 82.0646 60.6013 43.3933 0.0000 0.0000 0.0000
# 2 60.6013 145.2475 64.8574 0.0000 0.0000 0.0000
# 3 43.3933 64.8574 104.0019 0.0000 0.0000 0.0000
# 4 0.0000 0.0000 0.0000 22.3774 0.0000 0.0000
# 5 0.0000 0.0000 0.0000 0.0000 14.4159 0.0000
# 6 0.0000 0.0000 0.0000 0.0000 0.0000 29.2460
#
#
#
# Elastic Compliance Matrix: (Units=1/GPa)
#
#
# Indices 1 2 3 4 5 6 
#
# 1 0.018788 -0.006013 -0.004089 0.000000 0.000000 0.000000
# 2 -0.006013 0.011466 -0.004642 0.000000 0.000000 0.000000
# 3 -0.004089 -0.004642 0.014216 0.000000 0.000000 0.000000
# 4 0.000000 0.000000 0.000000 0.044688 0.000000 0.000000
# 5 0.000000 0.000000 0.000000 0.000000 0.069368 0.000000
# 6 0.000000 0.000000 0.000000 0.000000 0.000000 0.034193
#
#
# Mechanical properties :
#
#
# Convention : Reuss Voigt Hill
#
# Bulk Modulus (GPa) = 66.74454 74.33531 70.53993
# Shear Modulus (GPa) = 22.00694 24.03867 23.02280
#
# Velocity S-wave (km/s) = 3.35396 3.50537 3.43050
# Velocity P-wave (km/s) = 7.00827 7.37433 7.19363
#
# Compressibility (1/GPa) = 0.01498250
#
# Stress axis : x y z
#
# Youngs Moduli (GPa) = 53.22518 87.21255 70.34286
#
# Poissons Ratio (x) = 0.52440 0.28765
# Poissons Ratio (y) = 0.32004 0.32651
# Poissons Ratio (z) = 0.21765 0.40482
#
# Static dielectric constant tensor:
#      x y z
#    x 3.476740 0.000000 0.000000 
#    y 0.000000 3.801880 0.000000 
#    z 0.000000 0.000000 3.521720 
# 
# 
# High freq. dielectric constant tensor:
#      x y z
#    x 1.755850 0.000000 0.000000 
#    y 0.000000 1.774220 0.000000 
#    z 0.000000 0.000000 1.741410 
# 
# From -- ./inp_files/12025.got.cif
#   From: 2010.03.12/outbox.cif.g09.slc.cpg/sg35_7_cif.got.tgz:12025.got - 2010.04.14 02:02:04.
