data_PCOD8172303
_publ_section_title
;
Structure prediction by ZEFSAII (Michael W. Deem and Ramdas Pophale) SiO2 
 PCOD8172303
Probable space group: C M M 2
;
_chemical_formula_sum "Si O2"
_cell_formula_units_Z 64
_cell_length_a 23.352603
_cell_length_b 14.141075
_cell_length_c 10.163651
_cell_angle_alpha 90.000000
_cell_angle_beta 90.000000
_cell_angle_gamma 90.000000
_cell_volume 3356.351723
_symmetry_space_group_name_H-M "C M M 2"
_symmetry_group_IT_number 35
_symmetry_cell_setting 'orthorhombic'
loop_
_space_group_symop_operation_xyz
x,y,z
-x,-y,z
-x,y,z
x,-y,z
1/2+x,1/2+y,z
1/2-x,1/2-y,z
1/2-x,1/2+y,z
1/2+x,1/2-y,z
loop_
_atom_site_type_symbol
_atom_site_label
_atom_site_fract_x
_atom_site_fract_y
_atom_site_fract_z
Si Si1 0.567320 0.105142 0.833990
Si Si2 0.775012 0.890944 0.318829
Si Si3 0.063651 0.895814 0.682846
Si Si4 0.842018 0.706383 0.352477
Si Si5 0.131540 0.707903 0.056778
Si Si6 0.065322 0.295139 0.565778
Si Si7 0.638471 0.395212 0.930871
Si Si8 0.742855 0.104696 0.023453
O O1 0.500000 0.103047 0.841429
O O2 0.586478 0.165966 0.707230
O O3 0.592634 0.000000 0.816360
O O4 0.587436 0.146539 0.973125
O O5 0.823057 0.816694 0.370586
O O6 0.712689 0.861357 0.374023
O O7 0.775038 0.878753 0.161906
O O8 0.788830 0.000000 0.360487
O O9 0.068180 0.818938 0.567880
O O10 0.110856 0.872490 0.791335
O O11 0.000000 0.889603 0.747544
O O12 0.073965 0.000000 0.621827
O O13 0.870819 0.685139 0.210881
O O14 0.890294 0.672622 0.454839
O O15 0.195144 0.684284 0.000276
O O16 0.116970 0.818126 0.035608
O O17 0.000000 0.329206 0.533891
O O18 0.620372 0.500000 0.980737
O O19 0.707502 0.388833 0.913385
O O20 0.714152 0.000000 0.022284
#
# Coordination Sequence:
#
# PCOD8172303 Si02
#       8
#     8   8   8   8   8   8   8   8
#     4  10  22  40  60  80 106 145 187 225 275 331
#     4   9  18  35  55  77 114 154 186 224 273 331
#     4   9  18  34  55  78 106 145 188 224 267 327
#     4  10  21  34  57  89 112 145 189 227 276 333
#     4  11  19  33  56  84 114 141 180 230 272 323
#     4  10  21  39  57  79 112 149 185 229 280 333
#     4  10  18  29  51  82 111 144 182 221 268 322
#     4   9  17  30  50  78 111 146 179 218 275 329
#
# _framework density 19.068325000000002
#
# number of rings (size 3 to 8) (size 9 to 14) (size 15 to 20)
#    0.000    2.250    2.500    0.750    0.000    2.000 
#    0.000    2.500    0.000    3.000    0.000    0.000 
#    0.000    0.000    0.000    0.000    0.000    0.000 
#
# Total GULP energy -396594.838116 kJ/mol
# GULP energy per Si atom -12393.588691 kJ/mol
# Density = 1.902492 g / cm^3
# Si number density = 19.068325 Si / 1000 Ang^3
#
#
#
# Elastic Constant Matrix: (Units=GPa)
#
#
# Indices 1 2 3 4 5 6 
#
# 1 65.6973 19.5472 45.1161 0.0000 0.0000 0.0000
# 2 19.5472 97.4212 23.8474 0.0000 0.0000 0.0000
# 3 45.1161 23.8474 75.9195 0.0000 0.0000 0.0000
# 4 0.0000 0.0000 0.0000 17.2805 0.0000 0.0000
# 5 0.0000 0.0000 0.0000 0.0000 34.3254 0.0000
# 6 0.0000 0.0000 0.0000 0.0000 0.0000 25.2916
#
#
#
# Elastic Compliance Matrix: (Units=1/GPa)
#
#
# Indices 1 2 3 4 5 6 
#
# 1 0.025930 -0.001550 -0.014922 0.000000 0.000000 0.000000
# 2 -0.001550 0.011212 -0.002601 0.000000 0.000000 0.000000
# 3 -0.014922 -0.002601 0.022857 0.000000 0.000000 0.000000
# 4 0.000000 0.000000 0.000000 0.057869 0.000000 0.000000
# 5 0.000000 0.000000 0.000000 0.000000 0.029133 0.000000
# 6 0.000000 0.000000 0.000000 0.000000 0.000000 0.039539
#
#
# Mechanical properties :
#
#
# Convention : Reuss Voigt Hill
#
# Bulk Modulus (GPa) = 45.76117 46.22883 45.99500
# Shear Modulus (GPa) = 21.55448 25.41465 23.48456
#
# Velocity S-wave (km/s) = 3.36576 3.65474 3.51322
# Velocity P-wave (km/s) = 6.25740 6.48891 6.37421
#
# Compressibility (1/GPa) = 0.02185259
#
# Stress axis : x y z
#
# Youngs Moduli (GPa) = 38.56517 89.18726 43.75094
#
# Poissons Ratio (x) = 0.13824 0.65287
# Poissons Ratio (y) = 0.05978 0.11379
# Poissons Ratio (z) = 0.57549 0.23196
#
# Static dielectric constant tensor:
#      x y z
#    x 3.430520 0.000000 0.000000 
#    y 0.000000 3.858060 0.000000 
#    z 0.000000 0.000000 3.109420 
# 
# 
# High freq. dielectric constant tensor:
#      x y z
#    x 1.730540 0.000000 0.000000 
#    y 0.000000 1.761750 0.000000 
#    z 0.000000 0.000000 1.699080 
# 
# From -- ./inp_files/9910.got.cif
#   From: 2010.03.12/outbox.cif.g09.slc.cpg/sg35_5_cif.got.tgz:9910.got - 2010.04.14 02:02:04.
