data_PCOD8172395
_publ_section_title
;
Structure prediction by ZEFSAII (Michael W. Deem and Ramdas Pophale) SiO2 
 PCOD8172395
Probable space group: C M M 2
;
_chemical_formula_sum "Si O2"
_cell_formula_units_Z 64
_cell_length_a 8.938118
_cell_length_b 29.128968
_cell_length_c 12.194574
_cell_angle_alpha 90.000000
_cell_angle_beta 90.000000
_cell_angle_gamma 90.000000
_cell_volume 3174.956766
_symmetry_space_group_name_H-M "C M M 2"
_symmetry_group_IT_number 35
_symmetry_cell_setting 'orthorhombic'
loop_
_space_group_symop_operation_xyz
x,y,z
-x,-y,z
-x,y,z
x,-y,z
1/2+x,1/2+y,z
1/2-x,1/2-y,z
1/2-x,1/2+y,z
1/2+x,1/2-y,z
loop_
_atom_site_type_symbol
_atom_site_label
_atom_site_fract_x
_atom_site_fract_y
_atom_site_fract_z
Si Si1 0.673540 0.570855 0.328930
Si Si2 0.672763 0.292733 0.209305
Si Si3 0.326766 0.449306 0.573092
Si Si4 0.328811 0.050826 0.108092
Si Si5 0.171673 0.661267 0.388541
Si Si6 0.677921 0.300160 0.823054
Si Si7 0.171879 0.863204 0.021556
Si Si8 0.327608 0.857781 0.636074
O O1 0.500000 0.567308 0.299589
O O2 0.712361 0.546599 0.444111
O O3 0.760752 0.547724 0.229624
O O4 0.718766 0.623255 0.340088
O O5 0.500000 0.282606 0.232340
O O6 0.750000 0.250000 0.145307
O O7 0.766502 0.294675 0.323725
O O8 0.694598 0.338238 0.137359
O O9 0.500000 0.435442 0.588106
O O10 0.294352 0.500000 0.623954
O O11 0.227719 0.410723 0.633133
O O12 0.500000 0.065256 0.120113
O O13 0.253343 0.087754 0.027108
O O14 0.311238 0.000000 0.055282
O O15 0.191180 0.666382 0.518335
O O16 0.000000 0.650494 0.358731
O O17 0.500000 0.294111 0.823723
O O18 0.750000 0.250000 0.828321
O O19 0.727759 0.327035 0.714923
O O20 0.735319 0.330676 0.925407
O O21 0.000000 0.873746 0.997120
O O22 0.500000 0.857902 0.674147
#
# Coordination Sequence:
#
# PCOD8172395 Si02
#       8
#     8   8   8   8   8   8   8   8
#     4  10  18  31  53  82 118 161 203 243 289 347
#     4  11  22  36  57  86 118 154 193 236 295 361
#     4   9  18  33  55  85 121 162 205 246 293 351
#     4  11  23  36  55  86 122 161 202 243 292 349
#     4  10  20  35  55  83 120 159 196 241 295 350
#     4  11  24  44  69  93 116 149 198 250 304 361
#     4  10  23  42  63  88 117 152 197 247 298 354
#     4  10  22  39  60  88 121 156 199 249 300 353
#
# _framework density 20.157754000000001
#
# number of rings (size 3 to 8) (size 9 to 14) (size 15 to 20)
#    0.000    1.750    1.250    3.000    0.000    5.750 
#    0.000    0.625    0.000    0.750    0.000    0.000 
#    0.000    0.000    0.000    0.000    0.000    0.000 
#
# Total GULP energy -396728.683061 kJ/mol
# GULP energy per Si atom -12397.771346 kJ/mol
# Density = 2.011187 g / cm^3
# Si number density = 20.157754 Si / 1000 Ang^3
#
#
#
# Elastic Constant Matrix: (Units=GPa)
#
#
# Indices 1 2 3 4 5 6 
#
# 1 89.0930 57.7403 43.2476 0.0000 0.0000 0.0000
# 2 57.7403 128.0139 48.1330 0.0000 0.0000 0.0000
# 3 43.2476 48.1330 81.8097 0.0000 0.0000 0.0000
# 4 0.0000 0.0000 0.0000 4.6380 0.0000 0.0000
# 5 0.0000 0.0000 0.0000 0.0000 25.6519 0.0000
# 6 0.0000 0.0000 0.0000 0.0000 0.0000 35.0577
#
#
#
# Elastic Compliance Matrix: (Units=1/GPa)
#
#
# Indices 1 2 3 4 5 6 
#
# 1 0.017931 -0.005809 -0.006062 0.000000 0.000000 0.000000
# 2 -0.005809 0.011912 -0.003938 0.000000 0.000000 0.000000
# 3 -0.006062 -0.003938 0.017745 0.000000 0.000000 0.000000
# 4 0.000000 0.000000 0.000000 0.215611 0.000000 0.000000
# 5 0.000000 0.000000 0.000000 0.000000 0.038983 0.000000
# 6 0.000000 0.000000 0.000000 0.000000 0.000000 0.028524
#
#
# Mechanical properties :
#
#
# Convention : Reuss Voigt Hill
#
# Bulk Modulus (GPa) = 62.60995 66.35093 64.48044
# Shear Modulus (GPa) = 13.60000 23.05590 18.32795
#
# Velocity S-wave (km/s) = 2.60027 3.38564 3.01861
# Velocity P-wave (km/s) = 6.33582 6.94771 6.64881
#
# Compressibility (1/GPa) = 0.01597190
#
# Stress axis : x y z
#
# Youngs Moduli (GPa) = 55.76883 83.94677 56.35472
#
# Poissons Ratio (x) = 0.48762 0.34159
# Poissons Ratio (y) = 0.32394 0.22192
# Poissons Ratio (z) = 0.33804 0.33058
#
# Static dielectric constant tensor:
#      x y z
#    x 3.685760 0.000000 0.000000 
#    y 0.000000 3.936780 0.000000 
#    z 0.000000 0.000000 3.508170 
# 
# 
# High freq. dielectric constant tensor:
#      x y z
#    x 1.793580 0.000000 0.000000 
#    y 0.000000 1.797690 0.000000 
#    z 0.000000 0.000000 1.765510 
# 
# From -- ./inp_files/12000.got.cif
#   From: 2010.03.12/outbox.cif.g09.slc.cpg/sg35_6_cif.got.tgz:12000.got - 2010.04.14 02:02:04.
