data_PCOD8172997
_publ_section_title
;
Structure prediction by ZEFSAII (Michael W. Deem and Ramdas Pophale) SiO2 
 PCOD8172997
Probable space group: C M M 2
;
_chemical_formula_sum "Si O2"
_cell_formula_units_Z 64
_cell_length_a 20.768901
_cell_length_b 18.002512
_cell_length_c 9.511107
_cell_angle_alpha 90.000000
_cell_angle_beta 90.000000
_cell_angle_gamma 90.000000
_cell_volume 3556.130523
_symmetry_space_group_name_H-M "C M M 2"
_symmetry_group_IT_number 35
_symmetry_cell_setting 'orthorhombic'
loop_
_space_group_symop_operation_xyz
x,y,z
-x,-y,z
-x,y,z
x,-y,z
1/2+x,1/2+y,z
1/2-x,1/2-y,z
1/2-x,1/2+y,z
1/2+x,1/2-y,z
loop_
_atom_site_type_symbol
_atom_site_label
_atom_site_fract_x
_atom_site_fract_y
_atom_site_fract_z
Si Si1 0.802946 0.587834 0.024000
Si Si2 0.068118 0.584707 0.725093
Si Si3 0.320586 0.588311 0.197723
Si Si4 0.429351 0.164950 0.014567
Si Si5 0.925760 0.161412 0.010979
Si Si6 0.682289 0.412114 0.513668
Si Si7 0.573444 0.413766 0.723680
Si Si8 0.705738 0.913788 0.703864
O O1 0.810042 0.500000 0.030845
O O2 0.743299 0.615911 0.117026
O O3 0.869579 0.621994 0.087155
O O4 0.791628 0.616606 0.864004
O O5 0.073124 0.500000 0.783459
O O6 0.066141 0.640630 0.853663
O O7 0.133750 0.600578 0.637772
O O8 0.000000 0.594192 0.639218
O O9 0.326163 0.500000 0.192866
O O10 0.317108 0.619959 0.356340
O O11 0.384313 0.621473 0.129409
O O12 0.500000 0.148688 0.085524
O O13 0.413931 0.251530 0.020006
O O14 0.903609 0.132856 0.858055
O O15 0.000000 0.139637 0.036768
O O16 0.690333 0.500000 0.504306
O O17 0.616002 0.389810 0.590185
O O18 0.741559 0.375935 0.602535
O O19 0.500000 0.396294 0.682820
O O20 0.583840 0.500000 0.761138
O O21 0.723000 0.000000 0.710567
#
# Coordination Sequence:
#
# PCOD8172997 Si02
#       8
#     8   8   8   8   8   8   8   8
#     4   9  17  30  51  75  96 122 156 195 237 278
#     4   8  13  23  43  71  97 119 148 190 235 275
#     4  10  20  32  47  69  96 126 161 198 234 276
#     4   9  17  29  47  72  99 124 155 194 235 280
#     4  10  20  32  48  70  96 127 158 192 236 281
#     4   9  17  29  46  67  91 119 152 193 235 274
#     4   9  17  30  48  69  92 119 153 192 233 277
#     4   8  13  23  42  67  91 114 143 182 227 271
#
# _framework density 17.997088999999999
#
# number of rings (size 3 to 8) (size 9 to 14) (size 15 to 20)
#    0.000    3.000    0.000    2.250    0.000    4.500 
#    0.000    1.250    0.000    6.750    0.000    8.750 
#    0.000    0.000    0.000    0.000    0.000    0.000 
#
# Total GULP energy -396477.723431 kJ/mol
# GULP energy per Si atom -12389.928857 kJ/mol
# Density = 1.795613 g / cm^3
# Si number density = 17.997089 Si / 1000 Ang^3
#
#
#
# Elastic Constant Matrix: (Units=GPa)
#
#
# Indices 1 2 3 4 5 6 
#
# 1 152.6438 31.1115 77.5248 0.0000 0.0000 0.0000
# 2 31.1115 30.0087 20.0413 0.0000 0.0000 0.0000
# 3 77.5248 20.0413 104.8765 0.0000 0.0000 0.0000
# 4 0.0000 0.0000 0.0000 5.4393 0.0000 0.0000
# 5 0.0000 0.0000 0.0000 0.0000 8.6891 0.0000
# 6 0.0000 0.0000 0.0000 0.0000 0.0000 20.6260
#
#
#
# Elastic Compliance Matrix: (Units=1/GPa)
#
#
# Indices 1 2 3 4 5 6 
#
# 1 0.011738 -0.007307 -0.007280 0.000000 0.000000 0.000000
# 2 -0.007307 0.042748 -0.002767 0.000000 0.000000 0.000000
# 3 -0.007280 -0.002767 0.015446 0.000000 0.000000 0.000000
# 4 0.000000 0.000000 0.000000 0.183849 0.000000 0.000000
# 5 0.000000 0.000000 0.000000 0.000000 0.115087 0.000000
# 6 0.000000 0.000000 0.000000 0.000000 0.000000 0.048483
#
#
# Mechanical properties :
#
#
# Convention : Reuss Voigt Hill
#
# Bulk Modulus (GPa) = 28.39191 60.54269 44.46730
# Shear Modulus (GPa) = 10.78051 17.54096 14.16073
#
# Velocity S-wave (km/s) = 2.45013 3.12533 2.80810
# Velocity P-wave (km/s) = 4.87999 6.83644 5.93933
#
# Compressibility (1/GPa) = 0.03522130
#
# Stress axis : x y z
#
# Youngs Moduli (GPa) = 85.19220 23.39311 64.74346
#
# Poissons Ratio (x) = 0.17094 0.47136
# Poissons Ratio (y) = 0.62252 0.17916
# Poissons Ratio (z) = 0.62024 0.06474
#
# Static dielectric constant tensor:
#      x y z
#    x 3.868150 0.000000 0.000000 
#    y 0.000000 3.017960 0.000000 
#    z 0.000000 0.000000 3.145660 
# 
# 
# High freq. dielectric constant tensor:
#      x y z
#    x 1.725540 0.000000 0.000000 
#    y 0.000000 1.662880 0.000000 
#    z 0.000000 0.000000 1.652700 
# 
# From -- ./inp_files/9456.got.cif
#   From: 2010.03.12/outbox.cif.g09.slc.cpg/sg35_5_cif.got.tgz:9456.got - 2010.04.14 02:02:04.
