data_PCOD8172063
_publ_section_title
;
Structure prediction by ZEFSAII (Michael W. Deem and Ramdas Pophale) SiO2 
 PCOD8172063
Probable space group: P N N 2
;
_chemical_formula_sum "Si O2"
_cell_formula_units_Z 24
_cell_length_a 7.417187
_cell_length_b 11.551080
_cell_length_c 11.352414
_cell_angle_alpha 90.000000
_cell_angle_beta 90.000000
_cell_angle_gamma 90.000000
_cell_volume 972.635330
_symmetry_space_group_name_H-M "P N N 2"
_symmetry_group_IT_number 34
_symmetry_cell_setting 'orthorhombic'
loop_
_space_group_symop_operation_xyz
x,y,z
-x,-y,z
1/2-x,1/2+y,1/2+z
1/2+x,1/2-y,1/2+z
loop_
_atom_site_type_symbol
_atom_site_label
_atom_site_fract_x
_atom_site_fract_y
_atom_site_fract_z
Si Si1 0.259527 0.591717 0.724530
Si Si2 0.318216 0.726964 0.510051
Si Si3 0.165659 0.158778 0.615873
Si Si4 0.834377 0.158813 0.286820
Si Si5 0.181851 0.772969 0.892655
Si Si6 0.740462 0.591776 0.178204
O O1 0.231486 0.618436 0.583853
O O2 0.458681 0.633776 0.761549
O O3 0.223750 0.459979 0.761107
O O4 0.123735 0.673600 0.798146
O O5 0.184175 0.789082 0.418088
O O6 0.500067 0.679090 0.451369
O O7 0.376217 0.826386 0.604521
O O8 0.250193 0.250034 0.701216
O O9 0.184095 0.210735 0.484537
O O10 0.958726 0.133858 0.641293
O O11 0.276193 0.039966 0.641643
O O12 0.268640 0.881483 0.818862
#
# Coordination Sequence:
#
# PCOD8172063 Si02
#       6
#     4   4   4   4   4   4
#     4  10  24  42  65  99 134 177 232 281 345 417
#     4  11  22  42  67  97 134 177 230 286 343 409
#     4  11  22  42  66  97 134 182 223 282 353 407
#     4  11  22  42  66  97 134 182 223 282 353 407
#     4  11  22  42  67  97 134 177 230 286 343 409
#     4  10  24  42  65  99 134 177 232 281 345 417
#
# _framework density 24.675229999999999
#
# number of rings (size 3 to 8) (size 9 to 14) (size 15 to 20)
#    0.000    1.333    3.333    2.000    0.000    6.667 
#    0.000    0.000    0.000    4.000    0.000    0.000 
#    0.000    0.000    0.000    0.000    0.000    0.000 
#
# Total GULP energy -297396.615193 kJ/mol
# GULP energy per Si atom -12391.525633 kJ/mol
# Density = 2.461907 g / cm^3
# Si number density = 24.675230 Si / 1000 Ang^3
#
#
#
# Elastic Constant Matrix: (Units=GPa)
#
#
# Indices 1 2 3 4 5 6 
#
# 1 13.7413 9.7988 15.4630 0.0000 0.0000 0.0000
# 2 9.7988 59.1258 51.2478 0.0000 0.0000 0.0000
# 3 15.4630 51.2478 179.2967 0.0000 0.0000 0.0000
# 4 0.0000 0.0000 0.0000 39.6283 0.0000 0.0000
# 5 0.0000 0.0000 0.0000 0.0000 43.4157 0.0000
# 6 0.0000 0.0000 0.0000 0.0000 0.0000 31.9629
#
#
#
# Elastic Compliance Matrix: (Units=1/GPa)
#
#
# Indices 1 2 3 4 5 6 
#
# 1 0.085054 -0.010286 -0.004395 0.000000 0.000000 0.000000
# 2 -0.010286 0.023727 -0.005895 0.000000 0.000000 0.000000
# 3 -0.004395 -0.005895 0.007641 0.000000 0.000000 0.000000
# 4 0.000000 0.000000 0.000000 0.025234 0.000000 0.000000
# 5 0.000000 0.000000 0.000000 0.000000 0.023033 0.000000
# 6 0.000000 0.000000 0.000000 0.000000 0.000000 0.031286
#
#
# Mechanical properties :
#
#
# Convention : Reuss Voigt Hill
#
# Bulk Modulus (GPa) = 13.28552 45.02035 29.15293
# Shear Modulus (GPa) = 19.06805 34.71166 26.88986
#
# Velocity S-wave (km/s) = 2.78287 3.75472 3.30472
# Velocity P-wave (km/s) = 3.96506 6.08950 5.13827
#
# Compressibility (1/GPa) = 0.07526993
#
# Stress axis : x y z
#
# Youngs Moduli (GPa) = 11.75724 42.14580 130.86827
#
# Poissons Ratio (x) = 0.43353 0.57518
# Poissons Ratio (y) = 0.12094 0.77143
# Poissons Ratio (z) = 0.05167 0.24844
#
# Static dielectric constant tensor:
#      x y z
#    x 4.361000 0.000000 0.000000 
#    y 0.000000 5.189520 0.000000 
#    z 0.000000 0.000000 5.880890 
# 
# 
# High freq. dielectric constant tensor:
#      x y z
#    x 1.966030 0.000000 0.000000 
#    y 0.000000 1.977040 0.000000 
#    z 0.000000 0.000000 1.999510 
# 
# From -- ./inp_files/4945.got.cif
#   From: 2010.03.12/outbox.cif.g09.slc.cpg/sg34_3_cif.got.tgz:4945.got - 2010.04.14 01:56:33.
