data_PCOD8172626
_publ_section_title
;
Structure prediction by ZEFSAII (Michael W. Deem and Ramdas Pophale) SiO2 
 PCOD8172626
Probable space group: C M M 2
;
_chemical_formula_sum "Si O2"
_cell_formula_units_Z 40
_cell_length_a 7.727150
_cell_length_b 18.337851
_cell_length_c 14.633507
_cell_angle_alpha 90.000000
_cell_angle_beta 90.000000
_cell_angle_gamma 90.000000
_cell_volume 2073.558069
_symmetry_space_group_name_H-M "C M M 2"
_symmetry_group_IT_number 35
_symmetry_cell_setting 'orthorhombic'
loop_
_space_group_symop_operation_xyz
x,y,z
-x,-y,z
-x,y,z
x,-y,z
1/2+x,1/2+y,z
1/2-x,1/2-y,z
1/2-x,1/2+y,z
1/2+x,1/2-y,z
loop_
_atom_site_type_symbol
_atom_site_label
_atom_site_fract_x
_atom_site_fract_y
_atom_site_fract_z
Si Si1 0.691677 0.583694 0.027600
Si Si2 0.799254 0.667153 0.655230
Si Si3 0.500000 0.086643 0.151186
Si Si4 0.000000 0.412938 0.358308
Si Si5 0.195301 0.834602 0.462452
Si Si6 0.201426 0.665984 0.854710
O O1 0.500000 0.592471 0.070396
O O2 0.738213 0.500000 0.008857
O O3 0.829778 0.616947 0.099049
O O4 0.692102 0.623303 0.930470
O O5 0.750000 0.750000 0.668225
O O6 0.698301 0.635304 0.567409
O O7 0.753345 0.631697 0.754024
O O8 0.000000 0.658560 0.631938
O O9 0.500000 0.115735 0.254277
O O10 0.500000 0.000000 0.153587
O O11 0.174738 0.382473 0.402922
O O12 0.000000 0.500000 0.366428
O O13 0.250000 0.750000 0.460319
O O14 0.000000 0.843667 0.424500
O O15 0.250000 0.750000 0.860531
O O16 0.000000 0.655842 0.875029
#
# Coordination Sequence:
#
# PCOD8172626 Si02
#       6
#     8   8   4   4   8   8
#     4  10  20  36  59  82 107 147 194 231 277 346
#     4   9  16  29  51  83 113 152 192 231 274 342
#     4   9  20  40  61  79 109 150 191 236 294 355
#     4  11  24  42  63  91 122 150 197 262 309 351
#     4  11  20  37  65  89 119 159 203 241 294 360
#     4  10  19  31  53  82 118 149 186 231 282 331
#
# _framework density 19.290514000000002
#
# number of rings (size 3 to 8) (size 9 to 14) (size 15 to 20)
#    0.000    2.000    3.000    2.400    0.000    3.600 
#    0.000    4.000    0.000    0.000    0.000    0.000 
#    0.000    0.000    0.000    0.000    0.000    0.000 
#
# Total GULP energy -247859.772896 kJ/mol
# GULP energy per Si atom -12392.988645 kJ/mol
# Density = 1.924661 g / cm^3
# Si number density = 19.290514 Si / 1000 Ang^3
#
#
#
# Elastic Constant Matrix: (Units=GPa)
#
#
# Indices 1 2 3 4 5 6 
#
# 1 142.3781 31.2850 65.2396 0.0000 0.0000 0.0000
# 2 31.2850 47.8823 38.6982 0.0000 0.0000 0.0000
# 3 65.2396 38.6982 149.0759 0.0000 0.0000 0.0000
# 4 0.0000 0.0000 0.0000 28.8177 0.0000 0.0000
# 5 0.0000 0.0000 0.0000 0.0000 18.5904 0.0000
# 6 0.0000 0.0000 0.0000 0.0000 0.0000 24.1606
#
#
#
# Elastic Compliance Matrix: (Units=1/GPa)
#
#
# Indices 1 2 3 4 5 6 
#
# 1 0.009226 -0.003499 -0.003129 0.000000 0.000000 0.000000
# 2 -0.003499 0.027756 -0.005674 0.000000 0.000000 0.000000
# 3 -0.003129 -0.005674 0.009550 0.000000 0.000000 0.000000
# 4 0.000000 0.000000 0.000000 0.034701 0.000000 0.000000
# 5 0.000000 0.000000 0.000000 0.000000 0.053791 0.000000
# 6 0.000000 0.000000 0.000000 0.000000 0.000000 0.041390
#
#
# Mechanical properties :
#
#
# Convention : Reuss Voigt Hill
#
# Bulk Modulus (GPa) = 45.60310 67.75355 56.67833
# Shear Modulus (GPa) = 24.00050 27.92131 25.96091
#
# Velocity S-wave (km/s) = 3.53109 3.80861 3.67248
# Velocity P-wave (km/s) = 6.34951 7.38510 6.88680
#
# Compressibility (1/GPa) = 0.02192833
#
# Stress axis : x y z
#
# Youngs Moduli (GPa) = 108.38540 36.02776 104.70802
#
# Poissons Ratio (x) = 0.12606 0.32767
# Poissons Ratio (y) = 0.37925 0.59410
# Poissons Ratio (z) = 0.33918 0.20442
#
# Static dielectric constant tensor:
#      x y z
#    x 3.722950 0.000000 0.000000 
#    y 0.000000 3.082740 0.000000 
#    z 0.000000 0.000000 3.904000 
# 
# 
# High freq. dielectric constant tensor:
#      x y z
#    x 1.767840 0.000000 0.000000 
#    y 0.000000 1.701560 0.000000 
#    z 0.000000 0.000000 1.757740 
# 
# From -- ./inp_files/14822.got.cif
#   From: 2010.03.12/outbox.cif.g09.slc.cpg/sg35_8_cif.got.tgz:14822.got - 2010.04.14 02:02:04.
