data_PCOD8172985
_publ_section_title
;
Structure prediction by ZEFSAII (Michael W. Deem and Ramdas Pophale) SiO2 
 PCOD8172985
Probable space group: C M M 2
;
_chemical_formula_sum "Si O2"
_cell_formula_units_Z 64
_cell_length_a 8.770478
_cell_length_b 28.512930
_cell_length_c 15.668419
_cell_angle_alpha 90.000000
_cell_angle_beta 90.000000
_cell_angle_gamma 90.000000
_cell_volume 3918.233272
_symmetry_space_group_name_H-M "C M M 2"
_symmetry_group_IT_number 35
_symmetry_cell_setting 'orthorhombic'
loop_
_space_group_symop_operation_xyz
x,y,z
-x,-y,z
-x,y,z
x,-y,z
1/2+x,1/2+y,z
1/2-x,1/2-y,z
1/2-x,1/2+y,z
1/2+x,1/2-y,z
loop_
_atom_site_type_symbol
_atom_site_label
_atom_site_fract_x
_atom_site_fract_y
_atom_site_fract_z
Si Si1 0.679061 0.300911 0.713570
Si Si2 0.320776 0.699635 0.387242
Si Si3 0.180282 0.854827 0.551740
Si Si4 0.678895 0.300927 0.900321
Si Si5 0.820183 0.301544 0.068981
Si Si6 0.823055 0.553149 0.287209
Si Si7 0.321854 0.641739 0.220489
Si Si8 0.823653 0.947833 0.468390
O O1 0.500000 0.294106 0.702190
O O2 0.750000 0.250000 0.701329
O O3 0.747087 0.335833 0.641470
O O4 0.713589 0.323736 0.807218
O O5 0.500000 0.705726 0.393592
O O6 0.250000 0.750000 0.371918
O O7 0.254641 0.676262 0.473574
O O8 0.275614 0.666607 0.308627
O O9 0.226779 0.909411 0.538850
O O10 0.000000 0.850256 0.553109
O O11 0.500000 0.298214 0.918701
O O12 0.750000 0.250000 0.895806
O O13 0.759905 0.326066 0.980838
O O14 0.750000 0.250000 0.082117
O O15 0.773216 0.334850 0.145571
O O16 0.000000 0.296501 0.065646
O O17 0.788817 0.500000 0.257622
O O18 0.725238 0.587288 0.226902
O O19 0.777250 0.559800 0.385296
O O20 0.000000 0.565622 0.277859
O O21 0.500000 0.646255 0.200331
O O22 0.000000 0.939973 0.441684
O O23 0.798959 0.000000 0.506911
#
# Coordination Sequence:
#
# PCOD8172985 Si02
#       8
#     8   8   8   8   8   8   8   8
#     4   9  17  28  45  65  92 122 153 192 232 275
#     4  10  20  31  43  61  90 126 158 188 222 266
#     4   9  16  29  44  65  92 120 155 193 231 275
#     4   9  16  28  45  66  88 119 155 193 237 278
#     4  11  21  33  49  70  96 127 158 197 239 283
#     4  10  20  33  49  70  95 121 154 199 244 283
#     4  11  21  34  50  69  93 126 162 197 234 279
#     4   9  16  29  49  67  87 120 159 197 237 280
#
# _framework density 16.333893
#
# number of rings (size 3 to 8) (size 9 to 14) (size 15 to 20)
#    0.000    2.250    1.250    3.750    0.000    3.250 
#    0.000    0.625    0.000    0.000    0.000    0.875 
#    0.000    3.000    0.000    0.000    0.000    0.000 
#
# Total GULP energy -396640.680261 kJ/mol
# GULP energy per Si atom -12395.021258 kJ/mol
# Density = 1.629672 g / cm^3
# Si number density = 16.333893 Si / 1000 Ang^3
#
#
#
# Elastic Constant Matrix: (Units=GPa)
#
#
# Indices 1 2 3 4 5 6 
#
# 1 60.2972 31.2335 42.6470 0.0000 0.0000 0.0000
# 2 31.2335 94.9218 47.7746 0.0000 0.0000 0.0000
# 3 42.6470 47.7746 120.3855 0.0000 0.0000 0.0000
# 4 0.0000 0.0000 0.0000 46.8299 0.0000 0.0000
# 5 0.0000 0.0000 0.0000 0.0000 18.4252 0.0000
# 6 0.0000 0.0000 0.0000 0.0000 0.0000 18.9370
#
#
#
# Elastic Compliance Matrix: (Units=1/GPa)
#
#
# Indices 1 2 3 4 5 6 
#
# 1 0.023533 -0.004433 -0.006577 0.000000 0.000000 0.000000
# 2 -0.004433 0.013999 -0.003985 0.000000 0.000000 0.000000
# 3 -0.006577 -0.003985 0.012218 0.000000 0.000000 0.000000
# 4 0.000000 0.000000 0.000000 0.021354 0.000000 0.000000
# 5 0.000000 0.000000 0.000000 0.000000 0.054274 0.000000
# 6 0.000000 0.000000 0.000000 0.000000 0.000000 0.052807
#
#
# Mechanical properties :
#
#
# Convention : Reuss Voigt Hill
#
# Bulk Modulus (GPa) = 50.60896 57.65720 54.13308
# Shear Modulus (GPa) = 23.28158 27.10172 25.19165
#
# Velocity S-wave (km/s) = 3.77948 4.07779 3.93146
# Velocity P-wave (km/s) = 7.07794 7.58596 7.33635
#
# Compressibility (1/GPa) = 0.01975935
#
# Stress axis : x y z
#
# Youngs Moduli (GPa) = 42.49391 71.43162 81.84487
#
# Poissons Ratio (x) = 0.31665 0.53832
# Poissons Ratio (y) = 0.18837 0.32617
# Poissons Ratio (z) = 0.27950 0.28467
#
# Static dielectric constant tensor:
#      x y z
#    x 3.055830 0.000000 0.000000 
#    y 0.000000 3.068440 0.000000 
#    z 0.000000 0.000000 3.606850 
# 
# 
# High freq. dielectric constant tensor:
#      x y z
#    x 1.626630 0.000000 0.000000 
#    y 0.000000 1.607340 0.000000 
#    z 0.000000 0.000000 1.622950 
# 
# From -- ./inp_files/16150.got.cif
#   From: 2010.03.12/outbox.cif.g09.slc.cpg/sg35_9_cif.got.tgz:16150.got - 2010.04.14 02:02:04.
