data_PCOD8172574
_publ_section_title
;
Structure prediction by ZEFSAII (Michael W. Deem and Ramdas Pophale) SiO2 
 PCOD8172574
Probable space group: C M M 2
;
_chemical_formula_sum "Si O2"
_cell_formula_units_Z 64
_cell_length_a 9.202574
_cell_length_b 19.158768
_cell_length_c 20.915302
_cell_angle_alpha 90.000000
_cell_angle_beta 90.000000
_cell_angle_gamma 90.000000
_cell_volume 3687.576483
_symmetry_space_group_name_H-M "C M M 2"
_symmetry_group_IT_number 35
_symmetry_cell_setting 'orthorhombic'
loop_
_space_group_symop_operation_xyz
x,y,z
-x,-y,z
-x,y,z
x,-y,z
1/2+x,1/2+y,z
1/2-x,1/2-y,z
1/2-x,1/2+y,z
1/2+x,1/2-y,z
loop_
_atom_site_type_symbol
_atom_site_label
_atom_site_fract_x
_atom_site_fract_y
_atom_site_fract_z
Si Si1 0.671310 0.579379 0.133640
Si Si2 0.163547 0.582918 0.255796
Si Si3 0.337045 0.583178 0.516228
Si Si4 0.831173 0.579778 0.640270
Si Si5 0.663823 0.083084 0.396048
Si Si6 0.670500 0.676467 0.880134
Si Si7 0.831305 0.177484 0.020950
Si Si8 0.327068 0.175444 0.759680
O O1 0.500000 0.583262 0.139986
O O2 0.724302 0.500000 0.123525
O O3 0.736723 0.612431 0.198725
O O4 0.728406 0.623044 0.073031
O O5 0.169109 0.500000 0.254975
O O6 0.218848 0.608653 0.325830
O O7 0.000000 0.609482 0.244280
O O8 0.500000 0.611998 0.519492
O O9 0.332478 0.500000 0.513933
O O10 0.253168 0.609758 0.578898
O O11 0.264330 0.614540 0.451994
O O12 0.786487 0.500000 0.655355
O O13 0.788260 0.626350 0.700543
O O14 0.000000 0.585090 0.623911
O O15 0.500000 0.109429 0.407538
O O16 0.667600 0.000000 0.398572
O O17 0.500000 0.684252 0.863479
O O18 0.750000 0.750000 0.883669
O O19 0.755087 0.637227 0.822303
O O20 0.691855 0.642502 0.950452
O O21 0.750000 0.250000 0.029231
O O22 0.000000 0.193570 0.031835
O O23 0.500000 0.184418 0.768611
O O24 0.250000 0.250000 0.748632
#
# Coordination Sequence:
#
# PCOD8172574 Si02
#       8
#     8   8   8   8   8   8   8   8
#     4   9  17  29  44  63  90 120 146 177 220 266
#     4   8  14  24  38  58  84 114 148 182 215 254
#     4   9  16  24  37  60  87 113 144 183 221 255
#     4   9  18  32  47  63  88 122 152 177 213 262
#     4   8  13  22  36  54  80 114 147 178 214 258
#     4   9  16  28  46  66  88 113 144 182 220 258
#     4   9  18  31  47  67  88 114 148 182 218 260
#     4  10  19  31  49  70  90 114 146 183 220 260
#
# _framework density 17.355573
#
# number of rings (size 3 to 8) (size 9 to 14) (size 15 to 20)
#    0.000    3.125    0.000    2.625    0.000    4.000 
#    0.000    3.125    0.000    0.750    0.000    0.875 
#    0.000    6.000    0.000    0.000    0.000    0.000 
#
# Total GULP energy -396503.349922 kJ/mol
# GULP energy per Si atom -12390.729685 kJ/mol
# Density = 1.731607 g / cm^3
# Si number density = 17.355573 Si / 1000 Ang^3
#
#
#
# Elastic Constant Matrix: (Units=GPa)
#
#
# Indices 1 2 3 4 5 6 
#
# 1 81.9848 24.9652 77.7310 0.0000 0.0000 0.0000
# 2 24.9652 34.3843 47.1160 0.0000 0.0000 0.0000
# 3 77.7310 47.1160 199.4603 0.0000 0.0000 0.0000
# 4 0.0000 0.0000 0.0000 4.3937 0.0000 0.0000
# 5 0.0000 0.0000 0.0000 0.0000 35.4142 0.0000
# 6 0.0000 0.0000 0.0000 0.0000 0.0000 12.9516
#
#
#
# Elastic Compliance Matrix: (Units=1/GPa)
#
#
# Indices 1 2 3 4 5 6 
#
# 1 0.020073 -0.005700 -0.006476 0.000000 0.000000 0.000000
# 2 -0.005700 0.044621 -0.008319 0.000000 0.000000 0.000000
# 3 -0.006476 -0.008319 0.009502 0.000000 0.000000 0.000000
# 4 0.000000 0.000000 0.000000 0.227598 0.000000 0.000000
# 5 0.000000 0.000000 0.000000 0.000000 0.028237 0.000000
# 6 0.000000 0.000000 0.000000 0.000000 0.000000 0.077210
#
#
# Mechanical properties :
#
#
# Convention : Reuss Voigt Hill
#
# Bulk Modulus (GPa) = 30.11508 68.38377 49.24943
# Shear Modulus (GPa) = 10.88609 21.61971 16.25290
#
# Velocity S-wave (km/s) = 2.50719 3.53327 3.06349
# Velocity P-wave (km/s) = 5.07650 7.49216 6.39935
#
# Compressibility (1/GPa) = 0.03320596
#
# Stress axis : x y z
#
# Youngs Moduli (GPa) = 49.81721 22.41104 105.23672
#
# Poissons Ratio (x) = 0.12775 0.68153
# Poissons Ratio (y) = 0.28398 0.87544
# Poissons Ratio (z) = 0.32263 0.18643
#
# Static dielectric constant tensor:
#      x y z
#    x 3.323100 0.000000 0.000000 
#    y 0.000000 2.704240 0.000000 
#    z 0.000000 0.000000 3.954660 
# 
# 
# High freq. dielectric constant tensor:
#      x y z
#    x 1.673210 0.000000 0.000000 
#    y 0.000000 1.600010 0.000000 
#    z 0.000000 0.000000 1.695480 
# 
# From -- ./inp_files/18511.got.cif
#   From: 2010.03.12/outbox.cif.g09.slc.cpg/sg35_10_cif.got.tgz:18511.got - 2010.04.14 02:02:04.
