data_PCOD8172571
_publ_section_title
;
Structure prediction by ZEFSAII (Michael W. Deem and Ramdas Pophale) SiO2 
 PCOD8172571
Probable space group: C M M 2
;
_chemical_formula_sum "Si O2"
_cell_formula_units_Z 56
_cell_length_a 8.880817
_cell_length_b 28.698250
_cell_length_c 12.842015
_cell_angle_alpha 90.000000
_cell_angle_beta 90.000000
_cell_angle_gamma 90.000000
_cell_volume 3272.966110
_symmetry_space_group_name_H-M "C M M 2"
_symmetry_group_IT_number 35
_symmetry_cell_setting 'orthorhombic'
loop_
_space_group_symop_operation_xyz
x,y,z
-x,-y,z
-x,y,z
x,-y,z
1/2+x,1/2+y,z
1/2-x,1/2-y,z
1/2-x,1/2+y,z
1/2+x,1/2-y,z
loop_
_atom_site_type_symbol
_atom_site_label
_atom_site_fract_x
_atom_site_fract_y
_atom_site_fract_z
Si Si1 0.173914 0.945297 0.437830
Si Si2 0.176613 0.202952 0.924421
Si Si3 0.176870 0.609579 0.618424
Si Si4 0.322759 0.297819 0.684019
Si Si5 0.674554 0.554733 0.803595
Si Si6 0.821483 0.948314 0.204183
Si Si7 0.178910 0.106764 0.009174
O O1 0.281448 0.916190 0.512046
O O2 0.220097 0.931252 0.320055
O O3 0.000000 0.932865 0.460632
O O4 0.200361 0.000000 0.456183
O O5 0.250000 0.250000 0.968601
O O6 0.221170 0.194317 0.804556
O O7 0.000000 0.208343 0.936602
O O8 0.239281 0.159202 0.990596
O O9 0.256597 0.659677 0.618151
O O10 0.228223 0.578268 0.714547
O O11 0.000000 0.617220 0.624367
O O12 0.500000 0.295323 0.667243
O O13 0.250000 0.250000 0.642625
O O14 0.500000 0.567716 0.784452
O O15 0.701486 0.500000 0.800146
O O16 0.730561 0.573503 0.914950
O O17 0.754125 0.913070 0.117616
O O18 0.000000 0.951019 0.193369
O O19 0.754979 0.000000 0.184150
O O20 0.000000 0.107671 0.013361
#
# Coordination Sequence:
#
# PCOD8172571 Si02
#       7
#     8   8   8   8   8   8   8
#     4   9  18  33  52  73  97 129 171 217 259 298
#     4   9  17  29  47  70  99 129 160 196 238 291
#     4  12  23  33  48  71 101 136 171 208 249 296
#     4  10  19  34  53  75 102 131 166 205 250 300
#     4  10  19  31  48  71 101 134 164 201 252 306
#     4   8  14  26  48  76  99 122 162 211 252 295
#     4   9  15  27  47  74 101 126 158 202 252 302
#
# _framework density 17.109864000000002
#
# number of rings (size 3 to 8) (size 9 to 14) (size 15 to 20)
#    0.000    2.429    1.429    3.429    0.000    4.571 
#    0.000    0.000    0.000    2.571    0.000    4.000 
#    0.000    0.000    0.000    0.000    0.000    0.000 
#
# Total GULP energy -347172.878256 kJ/mol
# GULP energy per Si atom -12399.031366 kJ/mol
# Density = 1.707092 g / cm^3
# Si number density = 17.109864 Si / 1000 Ang^3
#
#
#
# Elastic Constant Matrix: (Units=GPa)
#
#
# Indices 1 2 3 4 5 6 
#
# 1 52.8786 40.6376 31.9476 0.0000 0.0000 0.0000
# 2 40.6376 118.8416 62.0165 0.0000 0.0000 0.0000
# 3 31.9476 62.0165 107.1174 0.0000 0.0000 0.0000
# 4 0.0000 0.0000 0.0000 20.4812 0.0000 0.0000
# 5 0.0000 0.0000 0.0000 0.0000 7.0320 0.0000
# 6 0.0000 0.0000 0.0000 0.0000 0.0000 26.4514
#
#
#
# Elastic Compliance Matrix: (Units=1/GPa)
#
#
# Indices 1 2 3 4 5 6 
#
# 1 0.026710 -0.007131 -0.003838 0.000000 0.000000 0.000000
# 2 -0.007131 0.013961 -0.005956 0.000000 0.000000 0.000000
# 3 -0.003838 -0.005956 0.013929 0.000000 0.000000 0.000000
# 4 0.000000 0.000000 0.000000 0.048825 0.000000 0.000000
# 5 0.000000 0.000000 0.000000 0.000000 0.142207 0.000000
# 6 0.000000 0.000000 0.000000 0.000000 0.000000 0.037805
#
#
# Mechanical properties :
#
#
# Convention : Reuss Voigt Hill
#
# Bulk Modulus (GPa) = 48.19227 60.89344 54.54285
# Shear Modulus (GPa) = 15.42242 20.40865 17.91554
#
# Velocity S-wave (km/s) = 3.00555 3.45744 3.23938
# Velocity P-wave (km/s) = 6.34602 7.18369 6.77781
#
# Compressibility (1/GPa) = 0.02075021
#
# Stress axis : x y z
#
# Youngs Moduli (GPa) = 37.43927 71.62801 71.79507
#
# Poissons Ratio (x) = 0.51075 0.27554
# Poissons Ratio (y) = 0.26697 0.42762
# Poissons Ratio (z) = 0.14369 0.42663
#
# Static dielectric constant tensor:
#      x y z
#    x 2.898050 0.000000 0.000000 
#    y 0.000000 3.406990 0.000000 
#    z 0.000000 0.000000 3.265460 
# 
# 
# High freq. dielectric constant tensor:
#      x y z
#    x 1.630260 0.000000 0.000000 
#    y 0.000000 1.666930 0.000000 
#    z 0.000000 0.000000 1.646050 
# 
# From -- ./inp_files/16109.got.cif
#   From: 2010.03.12/outbox.cif.g09.slc.cpg/sg35_9_cif.got.tgz:16109.got - 2010.04.14 02:02:04.
