data_PCOD8172758
_publ_section_title
;
Structure prediction by ZEFSAII (Michael W. Deem and Ramdas Pophale) SiO2 
 PCOD8172758
Probable space group: C M M 2
;
_chemical_formula_sum "Si O2"
_cell_formula_units_Z 64
_cell_length_a 32.857400
_cell_length_b 8.859709
_cell_length_c 11.332409
_cell_angle_alpha 90.000000
_cell_angle_beta 90.000000
_cell_angle_gamma 90.000000
_cell_volume 3298.943615
_symmetry_space_group_name_H-M "C M M 2"
_symmetry_group_IT_number 35
_symmetry_cell_setting 'orthorhombic'
loop_
_space_group_symop_operation_xyz
x,y,z
-x,-y,z
-x,y,z
x,-y,z
1/2+x,1/2+y,z
1/2-x,1/2-y,z
1/2-x,1/2+y,z
1/2+x,1/2-y,z
loop_
_atom_site_type_symbol
_atom_site_label
_atom_site_fract_x
_atom_site_fract_y
_atom_site_fract_z
Si Si1 0.678187 0.178209 0.175120
Si Si2 0.705965 0.820259 0.435615
Si Si3 0.453799 0.335425 0.228459
Si Si4 0.609490 0.671880 0.047182
Si Si5 0.452845 0.175545 0.460151
Si Si6 0.130977 0.330567 0.812482
Si Si7 0.713762 0.164266 0.934646
Si Si8 0.127129 0.178329 0.567618
O O1 0.699374 0.222030 0.298016
O O2 0.635916 0.264749 0.157485
O O3 0.670013 0.000000 0.166182
O O4 0.703550 0.238408 0.061817
O O5 0.750000 0.750000 0.474637
O O6 0.666720 0.756788 0.506955
O O7 0.707602 0.000000 0.455477
O O8 0.500000 0.336100 0.195708
O O9 0.440102 0.500000 0.280639
O O10 0.435018 0.310282 0.099987
O O11 0.444211 0.204616 0.322388
O O12 0.622033 0.500000 0.017213
O O13 0.608853 0.770060 0.928957
O O14 0.500000 0.226385 0.492201
O O15 0.417380 0.266823 0.525852
O O16 0.447385 0.000000 0.488497
O O17 0.115007 0.500000 0.782520
O O18 0.178351 0.336716 0.840400
O O19 0.125802 0.216603 0.705419
O O20 0.750000 0.250000 0.870402
O O21 0.729953 0.000000 0.963587
O O22 0.131285 0.000000 0.548284
#
# Coordination Sequence:
#
# PCOD8172758 Si02
#       8
#     8   8   8   8   8   8   8   8
#     4   9  19  34  52  77 110 146 182 226 281 337
#     4  11  23  39  59  85 119 157 198 242 290 345
#     4   9  18  33  54  83 118 149 178 219 273 334
#     4  10  19  32  54  82 109 142 184 228 279 339
#     4  10  21  38  62  91 120 151 190 236 288 346
#     4  10  22  40  57  75 105 144 187 234 283 336
#     4   9  18  32  52  77 103 134 173 221 275 327
#     4  12  25  41  61  84 113 152 198 245 294 345
#
# _framework density 19.400151000000001
#
# number of rings (size 3 to 8) (size 9 to 14) (size 15 to 20)
#    0.000    2.000    0.000    4.500    0.000    7.750 
#    0.000    1.875    0.000    2.250    0.000    0.000 
#    0.000    0.000    0.000    0.000    0.000    0.000 
#
# Total GULP energy -396435.412061 kJ/mol
# GULP energy per Si atom -12388.606627 kJ/mol
# Density = 1.935600 g / cm^3
# Si number density = 19.400151 Si / 1000 Ang^3
#
#
#
# Elastic Constant Matrix: (Units=GPa)
#
#
# Indices 1 2 3 4 5 6 
#
# 1 94.6897 50.8254 58.5404 0.0000 0.0000 0.0000
# 2 50.8254 96.2119 40.0716 0.0000 0.0000 0.0000
# 3 58.5404 40.0716 77.9474 0.0000 0.0000 0.0000
# 4 0.0000 0.0000 0.0000 29.8764 0.0000 0.0000
# 5 0.0000 0.0000 0.0000 0.0000 7.0751 0.0000
# 6 0.0000 0.0000 0.0000 0.0000 0.0000 31.5664
#
#
#
# Elastic Compliance Matrix: (Units=1/GPa)
#
#
# Indices 1 2 3 4 5 6 
#
# 1 0.022202 -0.006087 -0.013545 0.000000 0.000000 0.000000
# 2 -0.006087 0.014894 -0.003085 0.000000 0.000000 0.000000
# 3 -0.013545 -0.003085 0.024588 0.000000 0.000000 0.000000
# 4 0.000000 0.000000 0.000000 0.033471 0.000000 0.000000
# 5 0.000000 0.000000 0.000000 0.000000 0.141341 0.000000
# 6 0.000000 0.000000 0.000000 0.000000 0.000000 0.031679
#
#
# Mechanical properties :
#
#
# Convention : Reuss Voigt Hill
#
# Bulk Modulus (GPa) = 61.54094 63.08042 62.31068
# Shear Modulus (GPa) = 15.67261 21.66436 18.66849
#
# Velocity S-wave (km/s) = 2.84537 3.34535 3.10544
# Velocity P-wave (km/s) = 6.52576 6.89259 6.71168
#
# Compressibility (1/GPa) = 0.01624935
#
# Stress axis : x y z
#
# Youngs Moduli (GPa) = 45.04065 67.13922 40.67037
#
# Poissons Ratio (x) = 0.40869 0.55088
# Poissons Ratio (y) = 0.27417 0.12548
# Poissons Ratio (z) = 0.61008 0.20715
#
# Static dielectric constant tensor:
#      x y z
#    x 3.799220 0.000000 0.000000 
#    y 0.000000 3.826730 0.000000 
#    z 0.000000 0.000000 3.430540 
# 
# 
# High freq. dielectric constant tensor:
#      x y z
#    x 1.757600 0.000000 0.000000 
#    y 0.000000 1.763070 0.000000 
#    z 0.000000 0.000000 1.744500 
# 
# From -- ./inp_files/14593.got.cif
#   From: 2010.03.12/outbox.cif.g09.slc.cpg/sg35_8_cif.got.tgz:14593.got - 2010.04.14 02:02:04.
