data_PCOD8172325
_publ_section_title
;
Structure prediction by ZEFSAII (Michael W. Deem and Ramdas Pophale) SiO2 
 PCOD8172325
Probable space group: C M M 2
;
_chemical_formula_sum "Si O2"
_cell_formula_units_Z 64
_cell_length_a 19.079343
_cell_length_b 16.728171
_cell_length_c 10.589072
_cell_angle_alpha 90.000000
_cell_angle_beta 90.000000
_cell_angle_gamma 90.000000
_cell_volume 3379.634822
_symmetry_space_group_name_H-M "C M M 2"
_symmetry_group_IT_number 35
_symmetry_cell_setting 'orthorhombic'
loop_
_space_group_symop_operation_xyz
x,y,z
-x,-y,z
-x,y,z
x,-y,z
1/2+x,1/2+y,z
1/2-x,1/2-y,z
1/2-x,1/2+y,z
1/2+x,1/2-y,z
loop_
_atom_site_type_symbol
_atom_site_label
_atom_site_fract_x
_atom_site_fract_y
_atom_site_fract_z
Si Si1 0.419883 0.404593 0.331900
Si Si2 0.423061 0.909688 0.981382
Si Si3 0.923061 0.590312 0.682418
Si Si4 0.719827 0.837504 0.684740
Si Si5 0.280173 0.162496 0.979060
Si Si6 0.650463 0.407692 0.583209
Si Si7 0.578995 0.404653 0.831900
Si Si8 0.650462 0.592308 0.080591
O O1 0.500000 0.375062 0.331900
O O2 0.415854 0.500000 0.331900
O O3 0.380509 0.368997 0.455247
O O4 0.380509 0.368997 0.208553
O O5 0.500000 0.882263 0.033833
O O6 0.426450 0.909515 0.831900
O O7 0.360761 0.849414 0.025055
O O8 0.406576 0.000000 0.028529
O O9 0.906576 0.500000 0.635271
O O10 0.860761 0.650586 0.638745
O O11 0.000000 0.617737 0.629967
O O12 0.750000 0.750000 0.658592
O O13 0.727308 0.861502 0.831900
O O14 0.766277 0.896185 0.597491
O O15 0.250000 0.250000 0.005208
O O16 0.233723 0.103815 0.066308
O O17 0.630476 0.500000 0.580628
O O18 0.614962 0.367501 0.707145
O O19 0.500000 0.374681 0.831899
O O20 0.585338 0.500000 0.831900
O O21 0.614962 0.367501 0.956655
O O22 0.630476 0.500000 0.083172
#
# Coordination Sequence:
#
# PCOD8172325 Si02
#       8
#     8   8   8   8   8   8   8   8
#     4   9  18  32  49  70  99 131 167 210 244 284
#     4   8  14  26  45  66  89 122 163 203 242 288
#     4   8  14  26  45  66  89 122 163 203 242 288
#     4  10  19  30  45  69 104 130 156 201 259 310
#     4  10  19  30  45  69 104 130 156 201 259 310
#     4  10  18  30  49  71  94 128 169 205 248 297
#     4   9  16  26  43  68  95 121 155 196 236 284
#     4  10  18  30  49  71  94 128 169 205 248 297
#
# _framework density 18.936958000000001
#
# number of rings (size 3 to 8) (size 9 to 14) (size 15 to 20)
#    0.000    2.750    1.250    2.250    0.000    4.000 
#    0.000    3.125    0.000    0.000    0.000    0.875 
#    0.000    5.000    0.000    0.000    0.000    0.000 
#
# Total GULP energy -396511.195102 kJ/mol
# GULP energy per Si atom -12390.974847 kJ/mol
# Density = 1.889386 g / cm^3
# Si number density = 18.936958 Si / 1000 Ang^3
#
#
#
# Elastic Constant Matrix: (Units=GPa)
#
#
# Indices 1 2 3 4 5 6 
#
# 1 193.7536 41.1061 58.5812 0.0000 0.0000 0.0000
# 2 41.1061 36.6258 12.9122 0.0000 0.0000 0.0000
# 3 58.5812 12.9122 110.8091 0.0000 0.0000 0.0000
# 4 0.0000 0.0000 0.0000 7.5768 0.0000 0.0000
# 5 0.0000 0.0000 0.0000 0.0000 19.4671 0.0000
# 6 0.0000 0.0000 0.0000 0.0000 0.0000 23.1895
#
#
#
# Elastic Compliance Matrix: (Units=1/GPa)
#
#
# Indices 1 2 3 4 5 6 
#
# 1 0.007732 -0.007547 -0.003208 0.000000 0.000000 0.000000
# 2 -0.007547 0.035839 -0.000186 0.000000 0.000000 0.000000
# 3 -0.003208 -0.000186 0.010742 0.000000 0.000000 0.000000
# 4 0.000000 0.000000 0.000000 0.131983 0.000000 0.000000
# 5 0.000000 0.000000 0.000000 0.000000 0.051369 0.000000
# 6 0.000000 0.000000 0.000000 0.000000 0.000000 0.043123
#
#
# Mechanical properties :
#
#
# Convention : Reuss Voigt Hill
#
# Bulk Modulus (GPa) = 30.83536 62.93197 46.88366
# Shear Modulus (GPa) = 15.94986 25.28594 20.61790
#
# Velocity S-wave (km/s) = 2.90532 3.65810 3.30322
# Velocity P-wave (km/s) = 5.25100 7.15169 6.27375
#
# Compressibility (1/GPa) = 0.03243030
#
# Stress axis : x y z
#
# Youngs Moduli (GPa) = 129.32483 27.90235 93.08869
#
# Poissons Ratio (x) = 0.21059 0.29867
# Poissons Ratio (y) = 0.97604 0.01734
# Poissons Ratio (z) = 0.41493 0.00520
#
# Static dielectric constant tensor:
#      x y z
#    x 3.917700 0.000000 0.000000 
#    y 0.000000 3.030750 0.000000 
#    z 0.000000 0.000000 3.309620 
# 
# 
# High freq. dielectric constant tensor:
#      x y z
#    x 1.755010 0.000000 0.000000 
#    y 0.000000 1.690240 0.000000 
#    z 0.000000 0.000000 1.688560 
# 
# From -- ./inp_files/13664.got.cif
#   From: 2010.03.12/outbox.cif.g09.slc.cpg/sg35_7_cif.got.tgz:13664.got - 2010.04.14 02:02:04.
