data_PCOD8172681
_publ_section_title
;
Structure prediction by ZEFSAII (Michael W. Deem and Ramdas Pophale) SiO2 
 PCOD8172681
Probable space group: C M M 2
;
_chemical_formula_sum "Si O2"
_cell_formula_units_Z 40
_cell_length_a 8.782925
_cell_length_b 26.124682
_cell_length_c 9.779089
_cell_angle_alpha 90.000000
_cell_angle_beta 90.000000
_cell_angle_gamma 90.000000
_cell_volume 2243.822950
_symmetry_space_group_name_H-M "C M M 2"
_symmetry_group_IT_number 35
_symmetry_cell_setting 'orthorhombic'
loop_
_space_group_symop_operation_xyz
x,y,z
-x,-y,z
-x,y,z
x,-y,z
1/2+x,1/2+y,z
1/2-x,1/2-y,z
1/2-x,1/2+y,z
1/2+x,1/2-y,z
loop_
_atom_site_type_symbol
_atom_site_label
_atom_site_fract_x
_atom_site_fract_y
_atom_site_fract_z
Si Si1 0.818500 0.110700 0.088680
Si Si2 0.679690 0.197238 0.590206
Si Si3 0.179801 0.697008 0.901250
Si Si4 0.824659 0.000000 0.086334
Si Si5 0.828327 0.500000 0.363018
Si Si6 0.175893 0.611576 0.384076
O O1 0.759171 0.054583 0.032846
O O2 0.768258 0.119339 0.244680
O O3 0.000000 0.115008 0.081633
O O4 0.742180 0.151721 0.992531
O O5 0.500000 0.202022 0.582107
O O6 0.750000 0.250000 0.534219
O O7 0.732737 0.186981 0.745522
O O8 0.740553 0.150558 0.497417
O O9 0.250000 0.750000 0.955407
O O10 0.000000 0.699980 0.915310
O O11 0.799723 0.000000 0.248181
O O12 0.000000 0.000000 0.052387
O O13 0.806273 0.446593 0.445716
O O14 0.000000 0.500000 0.299109
O O15 0.000000 0.623731 0.352514
#
# Coordination Sequence:
#
# PCOD8172681 Si02
#       6
#     8   8   8   4   4   8
#     4  10  19  32  51  75 100 129 163 201 241 285
#     4   9  19  34  51  70  95 126 160 196 239 288
#     4  10  20  35  52  71  96 129 165 202 244 291
#     4   8  16  30  47  68  98 130 160 194 237 284
#     4   8  14  26  47  70  94 124 156 192 239 284
#     4   9  17  31  50  73  98 125 159 200 240 284
#
# _framework density 17.826719000000001
#
# number of rings (size 3 to 8) (size 9 to 14) (size 15 to 20)
#    0.000    2.800    0.000    1.200    0.000    3.200 
#    0.000    3.000    0.000    2.400    0.000    4.200 
#    0.000    0.000    0.000    0.000    0.000    0.000 
#
# Total GULP energy -247787.332168 kJ/mol
# GULP energy per Si atom -12389.366608 kJ/mol
# Density = 1.778614 g / cm^3
# Si number density = 17.826719 Si / 1000 Ang^3
#
#
#
# Elastic Constant Matrix: (Units=GPa)
#
#
# Indices 1 2 3 4 5 6 
#
# 1 41.9760 40.6843 25.8605 0.0000 0.0000 0.0000
# 2 40.6843 203.8585 84.0054 0.0000 0.0000 0.0000
# 3 25.8605 84.0054 71.0892 0.0000 0.0000 0.0000
# 4 0.0000 0.0000 0.0000 -13.9621 0.0000 0.0000
# 5 0.0000 0.0000 0.0000 0.0000 18.9677 0.0000
# 6 0.0000 0.0000 0.0000 0.0000 0.0000 27.1843
#
#
#
# Elastic Compliance Matrix: (Units=1/GPa)
#
#
# Indices 1 2 3 4 5 6 
#
# 1 0.031657 -0.003065 -0.007895 0.000000 0.000000 0.000000
# 2 -0.003065 0.009858 -0.010534 0.000000 0.000000 0.000000
# 3 -0.007895 -0.010534 0.029387 0.000000 0.000000 0.000000
# 4 0.000000 0.000000 0.000000 -0.071623 0.000000 0.000000
# 5 0.000000 0.000000 0.000000 0.000000 0.052721 0.000000
# 6 0.000000 0.000000 0.000000 0.000000 0.000000 0.036786
#
#
# Mechanical properties :
#
#
# Convention : Reuss Voigt Hill
#
# Bulk Modulus (GPa) = 35.82304 68.66935 52.24620
# Shear Modulus (GPa) = 35.44150 17.52958 26.48554
#
# Velocity S-wave (km/s) = 4.46366 3.13921 3.85869
# Velocity P-wave (km/s) = 6.83407 7.19331 7.01599
#
# Compressibility (1/GPa) = 0.02791500
#
# Stress axis : x y z
#
# Youngs Moduli (GPa) = 31.58841 101.44242 34.02907
#
# Poissons Ratio (x) = 0.31089 0.26865
# Poissons Ratio (y) = 0.09681 0.35846
# Poissons Ratio (z) = 0.24938 1.06860
#
# Static dielectric constant tensor:
#      x y z
#    x 3.279780 0.000000 0.000000 
#    y 0.000000 3.908130 0.000000 
#    z 0.000000 0.000000 3.092890 
# 
# 
# High freq. dielectric constant tensor:
#      x y z
#    x 1.688390 0.000000 0.000000 
#    y 0.000000 1.714960 0.000000 
#    z 0.000000 0.000000 1.651710 
# 
# From -- ./inp_files/4993.got.cif
#   From: 2010.03.12/outbox.cif.g09.slc.cpg/sg35_3_cif.got.tgz:4993.got - 2010.04.14 02:02:04.
