data_PCOD8172747
_publ_section_title
;
Structure prediction by ZEFSAII (Michael W. Deem and Ramdas Pophale) SiO2 
 PCOD8172747
Probable space group: C M M 2
;
_chemical_formula_sum "Si O2"
_cell_formula_units_Z 56
_cell_length_a 23.289488
_cell_length_b 8.718690
_cell_length_c 15.544559
_cell_angle_alpha 90.000000
_cell_angle_beta 90.000000
_cell_angle_gamma 90.000000
_cell_volume 3156.382180
_symmetry_space_group_name_H-M "C M M 2"
_symmetry_group_IT_number 35
_symmetry_cell_setting 'orthorhombic'
loop_
_space_group_symop_operation_xyz
x,y,z
-x,-y,z
-x,y,z
x,-y,z
1/2+x,1/2+y,z
1/2-x,1/2-y,z
1/2-x,1/2+y,z
1/2+x,1/2-y,z
loop_
_atom_site_type_symbol
_atom_site_label
_atom_site_fract_x
_atom_site_fract_y
_atom_site_fract_z
Si Si1 0.811032 0.677532 0.805380
Si Si2 0.500000 0.681071 0.214296
Si Si3 0.888040 0.176620 0.470279
Si Si4 0.500000 0.179189 0.402734
Si Si5 0.383590 0.818780 0.153095
Si Si6 0.687113 0.181045 0.991038
Si Si7 0.186381 0.318933 0.618569
Si Si8 0.811132 0.177541 0.303509
O O1 0.800087 0.500000 0.813397
O O2 0.750000 0.750000 0.797525
O O3 0.839157 0.730901 0.896615
O O4 0.841779 0.713970 0.714069
O O5 0.500000 0.500000 0.215675
O O6 0.500000 0.734189 0.312414
O O7 0.444612 0.738906 0.163747
O O8 0.855854 0.236144 0.553886
O O9 0.847991 0.198953 0.388469
O O10 0.944890 0.276402 0.458458
O O11 0.905168 0.000000 0.482928
O O12 0.500000 0.000000 0.383139
O O13 0.340235 0.771121 0.227504
O O14 0.392678 0.000000 0.155693
O O15 0.357210 0.760062 0.062862
O O16 0.750000 0.250000 0.006582
O O17 0.693800 0.000000 0.999893
O O18 0.189703 0.500000 0.599276
O O19 0.250000 0.250000 0.609227
O O20 0.750000 0.250000 0.323461
O O21 0.805383 0.000000 0.277109
#
# Coordination Sequence:
#
# PCOD8172747 Si02
#       8
#     8   4   8   4   8   8   8   8
#     4   8  15  29  49  75 108 142 176 217 263 317
#     4  12  24  40  58  77 104 139 182 225 268 316
#     4  11  23  38  56  78 108 142 179 222 267 316
#     4  12  24  40  62  81 102 135 182 227 266 316
#     4  11  22  36  56  79 105 139 181 225 267 317
#     4   9  18  32  52  80 111 142 177 217 267 320
#     4  10  19  32  53  81 112 145 182 222 269 321
#     4  11  23  36  52  75 108 143 175 214 265 319
#
# _framework density 17.741831999999999
#
# number of rings (size 3 to 8) (size 9 to 14) (size 15 to 20)
#    0.000    1.714    1.429    3.857    0.000    5.714 
#    0.000    0.000    0.000    0.857    0.000    3.000 
#    0.000    0.000    0.000    0.000    0.000    0.000 
#
# Total GULP energy -347041.683857 kJ/mol
# GULP energy per Si atom -12394.345852 kJ/mol
# Density = 1.770145 g / cm^3
# Si number density = 17.741832 Si / 1000 Ang^3
#
#
#
# Elastic Constant Matrix: (Units=GPa)
#
#
# Indices 1 2 3 4 5 6 
#
# 1 96.1602 37.5843 45.9043 0.0000 0.0000 0.0000
# 2 37.5843 81.4438 43.5148 0.0000 0.0000 0.0000
# 3 45.9043 43.5148 136.5746 0.0000 0.0000 0.0000
# 4 0.0000 0.0000 0.0000 15.0281 0.0000 0.0000
# 5 0.0000 0.0000 0.0000 0.0000 6.2738 0.0000
# 6 0.0000 0.0000 0.0000 0.0000 0.0000 30.0593
#
#
#
# Elastic Compliance Matrix: (Units=1/GPa)
#
#
# Indices 1 2 3 4 5 6 
#
# 1 0.013711 -0.004658 -0.003124 0.000000 0.000000 0.000000
# 2 -0.004658 0.016380 -0.003653 0.000000 0.000000 0.000000
# 3 -0.003124 -0.003653 0.009536 0.000000 0.000000 0.000000
# 4 0.000000 0.000000 0.000000 0.066542 0.000000 0.000000
# 5 0.000000 0.000000 0.000000 0.000000 0.159394 0.000000
# 6 0.000000 0.000000 0.000000 0.000000 0.000000 0.033268
#
#
# Mechanical properties :
#
#
# Convention : Reuss Voigt Hill
#
# Bulk Modulus (GPa) = 59.68046 63.13172 61.40609
# Shear Modulus (GPa) = 15.27709 22.75059 19.01384
#
# Velocity S-wave (km/s) = 2.93760 3.58483 3.27723
# Velocity P-wave (km/s) = 6.72438 7.26605 7.00045
#
# Compressibility (1/GPa) = 0.01675590
#
# Stress axis : x y z
#
# Youngs Moduli (GPa) = 72.93164 61.05037 104.86418
#
# Poissons Ratio (x) = 0.28438 0.32764
# Poissons Ratio (y) = 0.33973 0.38309
# Poissons Ratio (z) = 0.22787 0.22303
#
# Static dielectric constant tensor:
#      x y z
#    x 3.460280 0.000000 0.000000 
#    y 0.000000 3.452730 0.000000 
#    z 0.000000 0.000000 3.948730 
# 
# 
# High freq. dielectric constant tensor:
#      x y z
#    x 1.661840 0.000000 0.000000 
#    y 0.000000 1.700220 0.000000 
#    z 0.000000 0.000000 1.702990 
# 
# From -- ./inp_files/17460.got.cif
#   From: 2010.03.12/outbox.cif.g09.slc.cpg/sg35_9_cif.got.tgz:17460.got - 2010.04.14 02:02:04.
