data_PCOD8172949
_publ_section_title
;
Structure prediction by ZEFSAII (Michael W. Deem and Ramdas Pophale) SiO2 
 PCOD8172949
Probable space group: C M M 2
;
_chemical_formula_sum "Si O2"
_cell_formula_units_Z 64
_cell_length_a 8.947761
_cell_length_b 30.824943
_cell_length_c 11.873006
_cell_angle_alpha 90.000000
_cell_angle_beta 90.000000
_cell_angle_gamma 90.000000
_cell_volume 3274.743922
_symmetry_space_group_name_H-M "C M M 2"
_symmetry_group_IT_number 35
_symmetry_cell_setting 'orthorhombic'
loop_
_space_group_symop_operation_xyz
x,y,z
-x,-y,z
-x,y,z
x,-y,z
1/2+x,1/2+y,z
1/2-x,1/2-y,z
1/2-x,1/2+y,z
1/2+x,1/2-y,z
loop_
_atom_site_type_symbol
_atom_site_label
_atom_site_fract_x
_atom_site_fract_y
_atom_site_fract_z
Si Si1 0.174312 0.077670 0.953900
Si Si2 0.674380 0.048287 0.176188
Si Si3 0.322631 0.873888 0.581650
Si Si4 0.674273 0.705622 0.709997
Si Si5 0.677417 0.125653 0.326463
Si Si6 0.827616 0.822586 0.960285
Si Si7 0.327054 0.549646 0.708289
Si Si8 0.323470 0.793460 0.181191
O O1 0.222426 0.127708 0.948722
O O2 0.222505 0.055211 0.837613
O O3 0.000000 0.072424 0.975360
O O4 0.256498 0.053244 0.053559
O O5 0.500000 0.056838 0.162188
O O6 0.742273 0.082627 0.265283
O O7 0.708068 0.000000 0.222043
O O8 0.500000 0.869164 0.589690
O O9 0.247630 0.834961 0.648599
O O10 0.263478 0.871946 0.453530
O O11 0.274589 0.920245 0.630488
O O12 0.500000 0.706652 0.679940
O O13 0.750000 0.750000 0.667180
O O14 0.701283 0.701198 0.842809
O O15 0.500000 0.124320 0.326467
O O16 0.736313 0.167083 0.257317
O O17 0.000000 0.818771 0.997338
O O18 0.724800 0.799641 0.052212
O O19 0.500000 0.563617 0.694791
O O20 0.301606 0.500000 0.671217
O O21 0.500000 0.789076 0.186670
O O22 0.250000 0.750000 0.230845
#
# Coordination Sequence:
#
# PCOD8172949 Si02
#       8
#     8   8   8   8   8   8   8   8
#     4  10  19  35  59  86 118 152 186 230 287 346
#     4  10  20  36  59  86 116 150 189 234 285 341
#     4  11  23  40  62  86 115 153 201 247 290 341
#     4  11  23  41  62  88 121 154 192 237 292 349
#     4   9  21  40  58  81 113 152 193 239 289 336
#     4  10  20  36  60  88 117 150 188 230 285 345
#     4  10  21  39  61  86 120 158 193 237 295 349
#     4  11  22  38  60  85 117 150 188 233 285 342
#
# _framework density 19.543512
#
# number of rings (size 3 to 8) (size 9 to 14) (size 15 to 20)
#    0.000    1.750    2.500    1.875    0.000    4.500 
#    0.000    6.250    0.000    0.000    0.000    0.000 
#    0.000    0.000    0.000    0.000    0.000    0.000 
#
# Total GULP energy -396914.804151 kJ/mol
# GULP energy per Si atom -12403.587630 kJ/mol
# Density = 1.949903 g / cm^3
# Si number density = 19.543512 Si / 1000 Ang^3
#
#
#
# Elastic Constant Matrix: (Units=GPa)
#
#
# Indices 1 2 3 4 5 6 
#
# 1 67.0639 48.4917 45.6007 0.0000 0.0000 0.0000
# 2 48.4917 143.9092 57.5008 0.0000 0.0000 0.0000
# 3 45.6007 57.5008 113.5755 0.0000 0.0000 0.0000
# 4 0.0000 0.0000 0.0000 6.7935 0.0000 0.0000
# 5 0.0000 0.0000 0.0000 0.0000 15.2770 0.0000
# 6 0.0000 0.0000 0.0000 0.0000 0.0000 32.4036
#
#
#
# Elastic Compliance Matrix: (Units=1/GPa)
#
#
# Indices 1 2 3 4 5 6 
#
# 1 0.023184 -0.005131 -0.006711 0.000000 0.000000 0.000000
# 2 -0.005131 0.009846 -0.002925 0.000000 0.000000 0.000000
# 3 -0.006711 -0.002925 0.012980 0.000000 0.000000 0.000000
# 4 0.000000 0.000000 0.000000 0.147200 0.000000 0.000000
# 5 0.000000 0.000000 0.000000 0.000000 0.065458 0.000000
# 6 0.000000 0.000000 0.000000 0.000000 0.000000 0.030861
#
#
# Mechanical properties :
#
#
# Convention : Reuss Voigt Hill
#
# Bulk Modulus (GPa) = 60.68956 69.74834 65.21895
# Shear Modulus (GPa) = 15.40571 22.42517 18.91544
#
# Velocity S-wave (km/s) = 2.81067 3.39108 3.11442
# Velocity P-wave (km/s) = 6.45400 7.14834 6.81003
#
# Compressibility (1/GPa) = 0.01647730
#
# Stress axis : x y z
#
# Youngs Moduli (GPa) = 43.13297 101.55982 77.04145
#
# Poissons Ratio (x) = 0.52107 0.51702
# Poissons Ratio (y) = 0.22130 0.22535
# Poissons Ratio (z) = 0.28946 0.29707
#
# Static dielectric constant tensor:
#      x y z
#    x 3.400600 0.000000 0.000000 
#    y 0.000000 3.803320 0.000000 
#    z 0.000000 0.000000 3.612560 
# 
# 
# High freq. dielectric constant tensor:
#      x y z
#    x 1.746860 0.000000 0.000000 
#    y 0.000000 1.780310 0.000000 
#    z 0.000000 0.000000 1.756640 
# 
# From -- ./inp_files/11835.got.cif
#   From: 2010.03.12/outbox.cif.g09.slc.cpg/sg35_6_cif.got.tgz:11835.got - 2010.04.14 02:02:04.
