data_PCOD8172526
_publ_section_title
;
Structure prediction by ZEFSAII (Michael W. Deem and Ramdas Pophale) SiO2 
 PCOD8172526
Probable space group: C M M 2
;
_chemical_formula_sum "Si O2"
_cell_formula_units_Z 64
_cell_length_a 9.102511
_cell_length_b 19.279959
_cell_length_c 20.476119
_cell_angle_alpha 90.000000
_cell_angle_beta 90.000000
_cell_angle_gamma 90.000000
_cell_volume 3593.477776
_symmetry_space_group_name_H-M "C M M 2"
_symmetry_group_IT_number 35
_symmetry_cell_setting 'orthorhombic'
loop_
_space_group_symop_operation_xyz
x,y,z
-x,-y,z
-x,y,z
x,-y,z
1/2+x,1/2+y,z
1/2-x,1/2-y,z
1/2-x,1/2+y,z
1/2+x,1/2-y,z
loop_
_atom_site_type_symbol
_atom_site_label
_atom_site_fract_x
_atom_site_fract_y
_atom_site_fract_z
Si Si1 0.666478 0.918460 0.985380
Si Si2 0.175645 0.421985 0.362762
Si Si3 0.171343 0.180369 0.891313
Si Si4 0.175017 0.675707 0.246142
Si Si5 0.828277 0.581058 0.644181
Si Si6 0.672015 0.319901 0.741089
Si Si7 0.674203 0.076988 0.131552
Si Si8 0.660882 0.082091 0.502950
O O1 0.500000 0.892087 0.974385
O O2 0.774237 0.883541 0.934057
O O3 0.675112 0.000000 0.974050
O O4 0.720552 0.899935 0.058678
O O5 0.230244 0.500000 0.344912
O O6 0.230200 0.367585 0.308948
O O7 0.240859 0.397989 0.434241
O O8 0.000000 0.422764 0.366550
O O9 0.250000 0.250000 0.915644
O O10 0.210585 0.164398 0.816284
O O11 0.000000 0.190725 0.901884
O O12 0.250000 0.750000 0.247035
O O13 0.232498 0.633709 0.182805
O O14 0.000000 0.684627 0.245696
O O15 0.806048 0.500000 0.655084
O O16 0.732823 0.617095 0.699228
O O17 0.764718 0.604012 0.572030
O O18 0.000000 0.600838 0.650374
O O19 0.500000 0.311528 0.729727
O O20 0.750000 0.250000 0.717249
O O21 0.500000 0.072133 0.135795
O O22 0.737870 0.000000 0.147757
O O23 0.500000 0.116709 0.502559
O O24 0.642605 0.000000 0.503625
#
# Coordination Sequence:
#
# PCOD8172526 Si02
#       8
#     8   8   8   8   8   8   8   8
#     4   9  18  33  53  76 101 127 156 195 242 289
#     4   8  13  24  46  71  90 117 161 202 231 268
#     4  10  21  36  53  72  96 127 163 201 240 285
#     4  10  19  30  46  69  97 126 156 194 237 278
#     4   9  17  30  50  75 101 128 158 196 242 290
#     4  10  21  36  52  70  95 128 164 202 241 284
#     4   8  15  30  51  72  93 121 160 199 230 268
#     4   7  11  22  42  69  96 119 151 196 237 273
#
# _framework density 17.810044000000001
#
# number of rings (size 3 to 8) (size 9 to 14) (size 15 to 20)
#    0.000    3.125    0.000    3.375    0.000    4.500 
#    0.000    5.000    0.000    4.500    0.000    1.750 
#    0.000    0.000    0.000    0.000    0.000    0.000 
#
# Total GULP energy -396521.230473 kJ/mol
# GULP energy per Si atom -12391.288452 kJ/mol
# Density = 1.776951 g / cm^3
# Si number density = 17.810044 Si / 1000 Ang^3
#
#
#
# Elastic Constant Matrix: (Units=GPa)
#
#
# Indices 1 2 3 4 5 6 
#
# 1 43.3976 33.2163 41.4629 0.0000 0.0000 0.0000
# 2 33.2163 88.3456 70.3951 0.0000 0.0000 0.0000
# 3 41.4629 70.3951 130.4116 0.0000 0.0000 0.0000
# 4 0.0000 0.0000 0.0000 11.1362 0.0000 0.0000
# 5 0.0000 0.0000 0.0000 0.0000 14.9236 0.0000
# 6 0.0000 0.0000 0.0000 0.0000 0.0000 29.5917
#
#
#
# Elastic Compliance Matrix: (Units=1/GPa)
#
#
# Indices 1 2 3 4 5 6 
#
# 1 0.035864 -0.007718 -0.007236 0.000000 0.000000 0.000000
# 2 -0.007718 0.021523 -0.009164 0.000000 0.000000 0.000000
# 3 -0.007236 -0.009164 0.014915 0.000000 0.000000 0.000000
# 4 0.000000 0.000000 0.000000 0.089797 0.000000 0.000000
# 5 0.000000 0.000000 0.000000 0.000000 0.067008 0.000000
# 6 0.000000 0.000000 0.000000 0.000000 0.000000 0.033793
#
#
# Mechanical properties :
#
#
# Convention : Reuss Voigt Hill
#
# Bulk Modulus (GPa) = 41.55358 61.36705 51.46031
# Shear Modulus (GPa) = 15.66613 18.93567 17.30090
#
# Velocity S-wave (km/s) = 2.96906 3.26421 3.12013
# Velocity P-wave (km/s) = 5.92756 6.98126 6.47588
#
# Compressibility (1/GPa) = 0.02406531
#
# Stress axis : x y z
#
# Youngs Moduli (GPa) = 27.88324 46.46150 67.04450
#
# Poissons Ratio (x) = 0.35860 0.48515
# Poissons Ratio (y) = 0.21521 0.61441
# Poissons Ratio (z) = 0.20177 0.42578
#
# Static dielectric constant tensor:
#      x y z
#    x 2.893520 0.000000 0.000000 
#    y 0.000000 3.162230 0.000000 
#    z 0.000000 0.000000 3.742470 
# 
# 
# High freq. dielectric constant tensor:
#      x y z
#    x 1.645140 0.000000 0.000000 
#    y 0.000000 1.673350 0.000000 
#    z 0.000000 0.000000 1.708100 
# 
# From -- ./inp_files/18432.got.cif
#   From: 2010.03.12/outbox.cif.g09.slc.cpg/sg35_10_cif.got.tgz:18432.got - 2010.04.14 02:02:04.
