data_PCOD8172814
_publ_section_title
;
Structure prediction by ZEFSAII (Michael W. Deem and Ramdas Pophale) SiO2 
 PCOD8172814
Probable space group: C M M 2
;
_chemical_formula_sum "Si O2"
_cell_formula_units_Z 48
_cell_length_a 8.690949
_cell_length_b 19.103721
_cell_length_c 15.203161
_cell_angle_alpha 90.000000
_cell_angle_beta 90.000000
_cell_angle_gamma 90.000000
_cell_volume 2524.172686
_symmetry_space_group_name_H-M "C M M 2"
_symmetry_group_IT_number 35
_symmetry_cell_setting 'orthorhombic'
loop_
_space_group_symop_operation_xyz
x,y,z
-x,-y,z
-x,y,z
x,-y,z
1/2+x,1/2+y,z
1/2-x,1/2-y,z
1/2-x,1/2+y,z
1/2+x,1/2-y,z
loop_
_atom_site_type_symbol
_atom_site_label
_atom_site_fract_x
_atom_site_fract_y
_atom_site_fract_z
Si Si1 0.819917 0.418872 0.670580
Si Si2 0.818534 0.175615 0.816975
Si Si3 0.317158 0.824529 0.003980
Si Si4 0.817095 0.578102 0.161785
Si Si5 0.817627 0.676402 0.315216
Si Si6 0.319439 0.822862 0.512340
O O1 0.776562 0.500000 0.665802
O O2 0.722450 0.384037 0.747659
O O3 0.770273 0.384801 0.577781
O O4 0.000000 0.407251 0.689377
O O5 0.750000 0.250000 0.785982
O O6 0.748370 0.152148 0.909980
O O7 0.000000 0.183666 0.826033
O O8 0.500000 0.819202 0.998349
O O9 0.250000 0.750000 0.033028
O O10 0.261247 0.881231 0.075021
O O11 0.747337 0.500000 0.159932
O O12 0.755722 0.616713 0.249462
O O13 0.000000 0.575260 0.163543
O O14 0.750000 0.750000 0.283297
O O15 0.759984 0.658551 0.414117
O O16 0.000000 0.681517 0.310732
O O17 0.500000 0.812807 0.511102
O O18 0.250000 0.750000 0.546546
#
# Coordination Sequence:
#
# PCOD8172814 Si02
#       6
#     8   8   8   8   8   8
#     4  10  21  36  53  76 107 140 173 211 258 310
#     4  11  22  37  57  79 103 133 173 217 261 309
#     4  10  19  33  54  77 101 132 170 211 255 302
#     4   9  18  31  49  75 104 134 168 206 250 300
#     4   9  17  31  52  76 102 132 169 211 251 295
#     4   9  18  32  52  77 102 133 171 211 254 299
#
# _framework density 19.016131999999999
#
# number of rings (size 3 to 8) (size 9 to 14) (size 15 to 20)
#    0.000    2.333    0.000    4.000    0.000    3.667 
#    0.000    5.833    0.000    4.000    0.000    4.667 
#    0.000    0.000    0.000    0.000    0.000    0.000 
#
# Total GULP energy -297622.919380 kJ/mol
# GULP energy per Si atom -12400.954974 kJ/mol
# Density = 1.897285 g / cm^3
# Si number density = 19.016132 Si / 1000 Ang^3
#
#
#
# Elastic Constant Matrix: (Units=GPa)
#
#
# Indices 1 2 3 4 5 6 
#
# 1 56.2747 34.9374 36.5080 0.0000 0.0000 0.0000
# 2 34.9374 160.8503 102.1569 0.0000 0.0000 0.0000
# 3 36.5080 102.1569 140.0058 0.0000 0.0000 0.0000
# 4 0.0000 0.0000 0.0000 451.4776 0.0000 0.0000
# 5 0.0000 0.0000 0.0000 0.0000 10.1900 0.0000
# 6 0.0000 0.0000 0.0000 0.0000 0.0000 26.0751
#
#
#
# Elastic Compliance Matrix: (Units=1/GPa)
#
#
# Indices 1 2 3 4 5 6 
#
# 1 0.021760 -0.002092 -0.004147 0.000000 0.000000 0.000000
# 2 -0.002092 0.011787 -0.008055 0.000000 0.000000 0.000000
# 3 -0.004147 -0.008055 0.014102 0.000000 0.000000 0.000000
# 4 0.000000 0.000000 0.000000 0.002215 0.000000 0.000000
# 5 0.000000 0.000000 0.000000 0.000000 0.098136 0.000000
# 6 0.000000 0.000000 0.000000 0.000000 0.000000 0.038351
#
#
# Mechanical properties :
#
#
# Convention : Reuss Voigt Hill
#
# Bulk Modulus (GPa) = 52.46918 78.25948 65.36433
# Shear Modulus (GPa) = 22.59455 109.78377 66.18916
#
# Velocity S-wave (km/s) = 3.45074 7.60640 5.90613
# Velocity P-wave (km/s) = 6.59762 10.88056 8.99764
#
# Compressibility (1/GPa) = 0.01905881
#
# Stress axis : x y z
#
# Youngs Moduli (GPa) = 45.95687 84.83718 70.91394
#
# Poissons Ratio (x) = 0.17750 0.29411
# Poissons Ratio (y) = 0.09615 0.57122
# Poissons Ratio (z) = 0.19060 0.68338
#
# Static dielectric constant tensor:
#      x y z
#    x 3.273270 0.000000 0.000000 
#    y 0.000000 1.676590 0.000000 
#    z 0.000000 0.000000 3.779960 
# 
# 
# High freq. dielectric constant tensor:
#      x y z
#    x 1.719730 0.000000 0.000000 
#    y 0.000000 1.735200 0.000000 
#    z 0.000000 0.000000 1.753670 
# 
# From -- ./inp_files/15168.got.cif
#   From: 2010.03.12/outbox.cif.g09.slc.cpg/sg35_8_cif.got.tgz:15168.got - 2010.04.14 02:02:04.
