data_PCOD8172860
_publ_section_title
;
Structure prediction by ZEFSAII (Michael W. Deem and Ramdas Pophale) SiO2 
 PCOD8172860
Probable space group: C M M 2
;
_chemical_formula_sum "Si O2"
_cell_formula_units_Z 64
_cell_length_a 18.085500
_cell_length_b 15.641970
_cell_length_c 11.743024
_cell_angle_alpha 90.000000
_cell_angle_beta 90.000000
_cell_angle_gamma 90.000000
_cell_volume 3322.017509
_symmetry_space_group_name_H-M "C M M 2"
_symmetry_group_IT_number 35
_symmetry_cell_setting 'orthorhombic'
loop_
_space_group_symop_operation_xyz
x,y,z
-x,-y,z
-x,y,z
x,-y,z
1/2+x,1/2+y,z
1/2-x,1/2-y,z
1/2-x,1/2+y,z
1/2+x,1/2-y,z
loop_
_atom_site_type_symbol
_atom_site_label
_atom_site_fract_x
_atom_site_fract_y
_atom_site_fract_z
Si Si1 0.741457 0.651009 0.320160
Si Si2 0.418008 0.750300 0.088440
Si Si3 0.080521 0.179087 0.329871
Si Si4 0.836387 0.902295 0.966344
Si Si5 0.916452 0.259234 0.574245
Si Si6 0.691092 0.096428 0.555815
Si Si7 0.699848 0.331397 0.726367
Si Si8 0.813656 0.594294 0.096156
O O1 0.750000 0.750000 0.285798
O O2 0.654467 0.620718 0.319382
O O3 0.773253 0.638043 0.444656
O O4 0.786278 0.598244 0.226674
O O5 0.500000 0.764730 0.039400
O O6 0.419222 0.744249 0.224624
O O7 0.370984 0.833630 0.056793
O O8 0.388193 0.662066 0.035869
O O9 0.087639 0.235596 0.442084
O O10 0.000000 0.129272 0.331057
O O11 0.835346 0.876931 0.834664
O O12 0.865650 0.000000 0.980209
O O13 0.754212 0.893066 0.012198
O O14 0.883396 0.353874 0.588727
O O15 0.869021 0.192977 0.647083
O O16 0.000000 0.258824 0.620425
O O17 0.749776 0.101403 0.658157
O O18 0.668407 0.000000 0.531841
O O19 0.750000 0.250000 0.760257
O O20 0.849229 0.500000 0.079632
#
# Coordination Sequence:
#
# PCOD8172860 Si02
#       8
#     8   8   8   8   8   8   8   8
#     4  12  17  34  58  82 115 151 194 233 278 336
#     4  11  22  38  60  84 118 158 189 231 290 347
#     4  10  19  33  57  83 114 151 186 227 281 344
#     4  11  23  39  61  87 113 147 193 245 292 344
#     4  10  20  36  58  82 110 150 191 228 283 347
#     4  11  21  33  54  86 117 147 187 236 286 339
#     4  10  20  37  59  82 109 148 192 239 286 342
#     4  11  22  36  59  89 117 150 194 241 286 341
#
# _framework density 19.265402000000002
#
# number of rings (size 3 to 8) (size 9 to 14) (size 15 to 20)
#    0.000    1.250    5.000    2.250    0.000    1.250 
#    0.000    0.000    0.000    7.125    0.000    3.500 
#    0.000    0.000    0.000    0.000    0.000    0.000 
#
# Total GULP energy -396722.683295 kJ/mol
# GULP energy per Si atom -12397.583853 kJ/mol
# Density = 1.922155 g / cm^3
# Si number density = 19.265402 Si / 1000 Ang^3
#
#
#
# Elastic Constant Matrix: (Units=GPa)
#
#
# Indices 1 2 3 4 5 6 
#
# 1 126.6357 55.3978 27.0879 0.0000 0.0000 0.0000
# 2 55.3978 110.9353 32.7275 0.0000 0.0000 0.0000
# 3 27.0879 32.7275 88.4308 0.0000 0.0000 0.0000
# 4 0.0000 0.0000 0.0000 23.6902 0.0000 0.0000
# 5 0.0000 0.0000 0.0000 0.0000 0.2938 0.0000
# 6 0.0000 0.0000 0.0000 0.0000 0.0000 16.7487
#
#
#
# Elastic Compliance Matrix: (Units=1/GPa)
#
#
# Indices 1 2 3 4 5 6 
#
# 1 0.010256 -0.004709 -0.001399 0.000000 0.000000 0.000000
# 2 -0.004709 0.012281 -0.003103 0.000000 0.000000 0.000000
# 3 -0.001399 -0.003103 0.012885 0.000000 0.000000 0.000000
# 4 0.000000 0.000000 0.000000 0.042212 0.000000 0.000000
# 5 0.000000 0.000000 0.000000 0.000000 3.403223 0.000000
# 6 0.000000 0.000000 0.000000 0.000000 0.000000 0.059706
#
#
# Mechanical properties :
#
#
# Convention : Reuss Voigt Hill
#
# Bulk Modulus (GPa) = 58.81940 61.82536 60.32238
# Shear Modulus (GPa) = 1.40266 22.19911 11.80089
#
# Velocity S-wave (km/s) = 0.85420 3.39821 2.47765
# Velocity P-wave (km/s) = 5.61874 6.89624 6.29001
#
# Compressibility (1/GPa) = 0.01700119
#
# Stress axis : x y z
#
# Youngs Moduli (GPa) = 97.50614 81.42654 77.60919
#
# Poissons Ratio (x) = 0.38342 0.10856
# Poissons Ratio (y) = 0.45913 0.24080
# Poissons Ratio (z) = 0.13640 0.25264
#
# Static dielectric constant tensor:
#      x y z
#    x 3.826230 0.000000 0.000000 
#    y 0.000000 3.416690 0.000000 
#    z 0.000000 0.000000 3.502680 
# 
# 
# High freq. dielectric constant tensor:
#      x y z
#    x 1.751380 0.000000 0.000000 
#    y 0.000000 1.730710 0.000000 
#    z 0.000000 0.000000 1.754360 
# 
# From -- ./inp_files/13173.got.cif
#   From: 2010.03.12/outbox.cif.g09.slc.cpg/sg35_7_cif.got.tgz:13173.got - 2010.04.14 02:02:04.
