data_PCOD8172976
_publ_section_title
;
Structure prediction by ZEFSAII (Michael W. Deem and Ramdas Pophale) SiO2 
 PCOD8172976
Probable space group: C M M 2
;
_chemical_formula_sum "Si O2"
_cell_formula_units_Z 48
_cell_length_a 10.159655
_cell_length_b 17.236643
_cell_length_c 14.039695
_cell_angle_alpha 90.000000
_cell_angle_beta 90.000000
_cell_angle_gamma 90.000000
_cell_volume 2458.608170
_symmetry_space_group_name_H-M "C M M 2"
_symmetry_group_IT_number 35
_symmetry_cell_setting 'orthorhombic'
loop_
_space_group_symop_operation_xyz
x,y,z
-x,-y,z
-x,y,z
x,-y,z
1/2+x,1/2+y,z
1/2-x,1/2-y,z
1/2-x,1/2+y,z
1/2+x,1/2-y,z
loop_
_atom_site_type_symbol
_atom_site_label
_atom_site_fract_x
_atom_site_fract_y
_atom_site_fract_z
Si Si1 0.500000 0.592424 0.930450
Si Si2 0.650718 0.089778 0.638255
Si Si3 0.000000 0.408079 0.918192
Si Si4 0.000000 0.591873 0.129284
Si Si5 0.760433 0.407825 0.255143
Si Si6 0.654483 0.822066 0.443758
Si Si7 0.000000 0.908026 0.148693
Si Si8 0.252782 0.341461 0.819959
O O1 0.500000 0.500000 0.928542
O O2 0.624007 0.624344 0.874552
O O3 0.500000 0.623377 0.039872
O O4 0.500000 0.101741 0.672652
O O5 0.668915 0.121211 0.532604
O O6 0.750575 0.134840 0.708604
O O7 0.689628 0.000000 0.638425
O O8 0.873035 0.378799 0.866187
O O9 0.000000 0.500000 0.918624
O O10 0.000000 0.372714 0.024147
O O11 0.128324 0.621534 0.183257
O O12 0.000000 0.500000 0.123814
O O13 0.762582 0.500000 0.270279
O O14 0.786377 0.367844 0.355005
O O15 0.625297 0.378223 0.208025
O O16 0.500000 0.798560 0.428810
O O17 0.750000 0.750000 0.462432
O O18 0.000000 0.000000 0.143322
O O19 0.250000 0.250000 0.829761
#
# Coordination Sequence:
#
# PCOD8172976 Si02
#       8
#     4   8   4   4   8   8   4   8
#     4  11  23  41  64  91 128 171 215 262 314 373
#     4  10  21  41  69  93 116 157 214 261 302 367
#     4  11  21  39  66  89 118 165 223 264 300 373
#     4   9  18  33  60  91 114 149 213 270 296 343
#     4  10  19  37  63  90 118 157 210 259 304 358
#     4  11  24  41  62  91 127 163 199 250 317 377
#     4   9  20  37  60  89 124 165 207 258 310 357
#     4  12  24  40  61  94 131 166 204 259 327 375
#
# _framework density 19.523240999999999
#
# number of rings (size 3 to 8) (size 9 to 14) (size 15 to 20)
#    0.000    1.500    1.667    4.000    1.167    3.333 
#    1.500    5.000    0.000    0.000    0.000    0.000 
#    0.000    0.000    0.000    0.000    0.000    0.000 
#
# Total GULP energy -297605.131942 kJ/mol
# GULP energy per Si atom -12400.213831 kJ/mol
# Density = 1.947881 g / cm^3
# Si number density = 19.523241 Si / 1000 Ang^3
#
#
#
# Elastic Constant Matrix: (Units=GPa)
#
#
# Indices 1 2 3 4 5 6 
#
# 1 157.6981 37.0107 67.3246 0.0000 0.0000 0.0000
# 2 37.0107 85.5555 34.2332 0.0000 0.0000 0.0000
# 3 67.3246 34.2332 141.2970 0.0000 0.0000 0.0000
# 4 0.0000 0.0000 0.0000 1.0822 0.0000 0.0000
# 5 0.0000 0.0000 0.0000 0.0000 47.2645 0.0000
# 6 0.0000 0.0000 0.0000 0.0000 0.0000 21.1319
#
#
#
# Elastic Compliance Matrix: (Units=1/GPa)
#
#
# Indices 1 2 3 4 5 6 
#
# 1 0.008328 -0.002231 -0.003428 0.000000 0.000000 0.000000
# 2 -0.002231 0.013541 -0.002218 0.000000 0.000000 0.000000
# 3 -0.003428 -0.002218 0.009248 0.000000 0.000000 0.000000
# 4 0.000000 0.000000 0.000000 0.924067 0.000000 0.000000
# 5 0.000000 0.000000 0.000000 0.000000 0.021158 0.000000
# 6 0.000000 0.000000 0.000000 0.000000 0.000000 0.047322
#
#
# Mechanical properties :
#
#
# Convention : Reuss Voigt Hill
#
# Bulk Modulus (GPa) = 65.08712 73.52085 69.30398
# Shear Modulus (GPa) = 4.78681 30.29454 17.54067
#
# Velocity S-wave (km/s) = 1.56754 3.94346 3.00067
# Velocity P-wave (km/s) = 6.05697 7.64685 6.89787
#
# Compressibility (1/GPa) = 0.01536402
#
# Stress axis : x y z
#
# Youngs Moduli (GPa) = 120.07397 73.85076 108.13485
#
# Poissons Ratio (x) = 0.16478 0.37064
# Poissons Ratio (y) = 0.26791 0.23979
# Poissons Ratio (z) = 0.41157 0.16376
#
# Static dielectric constant tensor:
#      x y z
#    x 3.599570 0.000000 0.000000 
#    y 0.000000 3.462580 0.000000 
#    z 0.000000 0.000000 3.867320 
# 
# 
# High freq. dielectric constant tensor:
#      x y z
#    x 1.767210 0.000000 0.000000 
#    y 0.000000 1.748690 0.000000 
#    z 0.000000 0.000000 1.783050 
# 
# From -- ./inp_files/15301.got.cif
#   From: 2010.03.12/outbox.cif.g09.slc.cpg/sg35_8_cif.got.tgz:15301.got - 2010.04.14 02:02:04.
