data_PCOD8172242
_publ_section_title
;
Structure prediction by ZEFSAII (Michael W. Deem and Ramdas Pophale) SiO2 
 PCOD8172242
Probable space group: C M M 2
;
_chemical_formula_sum "Si O2"
_cell_formula_units_Z 48
_cell_length_a 26.039433
_cell_length_b 9.129101
_cell_length_c 11.618838
_cell_angle_alpha 90.000000
_cell_angle_beta 90.000000
_cell_angle_gamma 90.000000
_cell_volume 2761.990826
_symmetry_space_group_name_H-M "C M M 2"
_symmetry_group_IT_number 35
_symmetry_cell_setting 'orthorhombic'
loop_
_space_group_symop_operation_xyz
x,y,z
-x,-y,z
-x,y,z
x,-y,z
1/2+x,1/2+y,z
1/2-x,1/2-y,z
1/2-x,1/2+y,z
1/2+x,1/2-y,z
loop_
_atom_site_type_symbol
_atom_site_label
_atom_site_fract_x
_atom_site_fract_y
_atom_site_fract_z
Si Si1 0.302685 0.329352 0.142540
Si Si2 0.441878 0.828655 0.780494
Si Si3 0.381761 0.339428 0.959122
Si Si4 0.696506 0.328222 0.408574
Si Si5 0.205505 0.839341 0.776062
Si Si6 0.856348 0.326451 0.600158
O O1 0.294831 0.500000 0.113148
O O2 0.250000 0.250000 0.106984
O O3 0.316122 0.302068 0.274986
O O4 0.351682 0.269591 0.068765
O O5 0.500000 0.781967 0.752133
O O6 0.426307 0.760790 0.904737
O O7 0.407729 0.779025 0.670394
O O8 0.435642 0.000000 0.798201
O O9 0.404516 0.500000 0.991544
O O10 0.341590 0.359722 0.858373
O O11 0.700526 0.500000 0.437882
O O12 0.750000 0.250000 0.441072
O O13 0.648467 0.253772 0.476356
O O14 0.250000 0.750000 0.842843
O O15 0.192584 0.735402 0.668293
O O16 0.223805 0.000000 0.733741
O O17 0.853477 0.500000 0.583618
#
# Coordination Sequence:
#
# PCOD8172242 Si02
#       6
#     8   8   8   8   8   8
#     4   9  18  31  47  69  98 130 161 191 223 264
#     4   9  19  35  53  72  92 116 150 195 244 287
#     4   9  18  31  47  69  94 121 153 188 229 277
#     4  10  19  31  47  68  97 130 162 193 224 265
#     4  10  18  27  41  63  92 121 150 184 224 273
#     4  10  19  31  47  66  90 120 154 191 233 279
#
# _framework density 17.378768999999998
#
# number of rings (size 3 to 8) (size 9 to 14) (size 15 to 20)
#    0.000    2.500    0.000    2.500    0.000    3.000 
#    0.000    0.000    0.000    1.000    0.000    4.667 
#    0.000    0.000    0.000    0.000    0.000    0.000 
#
# Total GULP energy -297392.867218 kJ/mol
# GULP energy per Si atom -12391.369467 kJ/mol
# Density = 1.733921 g / cm^3
# Si number density = 17.378769 Si / 1000 Ang^3
#
#
#
# Elastic Constant Matrix: (Units=GPa)
#
#
# Indices 1 2 3 4 5 6 
#
# 1 88.6441 48.4060 44.6792 0.0000 0.0000 0.0000
# 2 48.4060 82.7664 40.8874 0.0000 0.0000 0.0000
# 3 44.6792 40.8874 96.4664 0.0000 0.0000 0.0000
# 4 0.0000 0.0000 0.0000 25.3899 0.0000 0.0000
# 5 0.0000 0.0000 0.0000 0.0000 24.3218 0.0000
# 6 0.0000 0.0000 0.0000 0.0000 0.0000 22.5071
#
#
#
# Elastic Compliance Matrix: (Units=1/GPa)
#
#
# Indices 1 2 3 4 5 6 
#
# 1 0.018288 -0.008236 -0.004980 0.000000 0.000000 0.000000
# 2 -0.008236 0.018991 -0.004235 0.000000 0.000000 0.000000
# 3 -0.004980 -0.004235 0.014468 0.000000 0.000000 0.000000
# 4 0.000000 0.000000 0.000000 0.039386 0.000000 0.000000
# 5 0.000000 0.000000 0.000000 0.000000 0.041115 0.000000
# 6 0.000000 0.000000 0.000000 0.000000 0.000000 0.044430
#
#
# Mechanical properties :
#
#
# Convention : Reuss Voigt Hill
#
# Bulk Modulus (GPa) = 59.36048 59.53578 59.44813
# Shear Modulus (GPa) = 23.02082 23.37072 23.19577
#
# Velocity S-wave (km/s) = 3.64353 3.67111 3.65734
# Velocity P-wave (km/s) = 7.20635 7.23198 7.21917
#
# Compressibility (1/GPa) = 0.01684622
#
# Stress axis : x y z
#
# Youngs Moduli (GPa) = 54.67958 52.65637 69.12013
#
# Poissons Ratio (x) = 0.43368 0.34419
# Poissons Ratio (y) = 0.45034 0.29271
# Poissons Ratio (z) = 0.27228 0.22299
#
# Static dielectric constant tensor:
#      x y z
#    x 3.199140 0.000000 0.000000 
#    y 0.000000 3.424620 0.000000 
#    z 0.000000 0.000000 3.359780 
# 
# 
# High freq. dielectric constant tensor:
#      x y z
#    x 1.639280 0.000000 0.000000 
#    y 0.000000 1.679340 0.000000 
#    z 0.000000 0.000000 1.667250 
# 
# From -- ./inp_files/11366.got.cif
#   From: 2010.03.12/outbox.cif.g09.slc.cpg/sg35_6_cif.got.tgz:11366.got - 2010.04.14 02:02:04.
