data_PCOD8172140
_publ_section_title
;
Structure prediction by ZEFSAII (Michael W. Deem and Ramdas Pophale) SiO2 
 PCOD8172140
Probable space group: P N N 2
;
_chemical_formula_sum "Si O2"
_cell_formula_units_Z 12
_cell_length_a 12.407313
_cell_length_b 6.520733
_cell_length_c 6.565251
_cell_angle_alpha 90.000000
_cell_angle_beta 90.000000
_cell_angle_gamma 90.000000
_cell_volume 531.160157
_symmetry_space_group_name_H-M "P N N 2"
_symmetry_group_IT_number 34
_symmetry_cell_setting 'orthorhombic'
loop_
_space_group_symop_operation_xyz
x,y,z
-x,-y,z
1/2-x,1/2+y,1/2+z
1/2+x,1/2-y,1/2+z
loop_
_atom_site_type_symbol
_atom_site_label
_atom_site_fract_x
_atom_site_fract_y
_atom_site_fract_z
Si Si1 0.640706 0.144161 0.573470
Si Si2 0.000000 0.500000 0.730812
Si Si3 0.138461 0.705051 0.422702
Si Si4 0.000000 0.000000 0.212298
O O1 0.607888 0.039972 0.361138
O O2 0.750663 0.268266 0.544564
O O3 0.540546 0.300726 0.593027
O O4 0.648161 0.982886 0.760221
O O5 0.039344 0.677835 0.578946
O O6 0.107717 0.924561 0.327840
#
# Coordination Sequence:
#
# PCOD8172140 Si02
#       4
#     4   2   4   2
#     4  12  28  48  73 111 142 190 247 295 365 430
#     4  12  24  50  72 104 154 180 240 302 356 436
#     4  12  28  48  73 111 142 190 247 295 365 430
#     4  12  24  50  72 104 154 180 240 302 356 436
#
# _framework density 22.592055999999999
#
# number of rings (size 3 to 8) (size 9 to 14) (size 15 to 20)
#    0.000    0.000    6.667    2.000    9.333    5.333 
#    0.000    0.000    0.000    0.000    0.000    0.000 
#    0.000    0.000    0.000    0.000    0.000    0.000 
#
# Total GULP energy -148661.459325 kJ/mol
# GULP energy per Si atom -12388.454944 kJ/mol
# Density = 2.254064 g / cm^3
# Si number density = 22.592056 Si / 1000 Ang^3
#
#
#
# Elastic Constant Matrix: (Units=GPa)
#
#
# Indices 1 2 3 4 5 6 
#
# 1 122.8596 31.9669 37.3689 0.0000 0.0000 0.0000
# 2 31.9669 102.4139 38.8761 0.0000 0.0000 0.0000
# 3 37.3689 38.8761 110.2776 0.0000 0.0000 0.0000
# 4 0.0000 0.0000 0.0000 9.0814 0.0000 0.0000
# 5 0.0000 0.0000 0.0000 0.0000 40.1127 0.0000
# 6 0.0000 0.0000 0.0000 0.0000 0.0000 51.1740
#
#
#
# Elastic Compliance Matrix: (Units=1/GPa)
#
#
# Indices 1 2 3 4 5 6 
#
# 1 0.009415 -0.001995 -0.002487 0.000000 0.000000 0.000000
# 2 -0.001995 0.011695 -0.003447 0.000000 0.000000 0.000000
# 3 -0.002487 -0.003447 0.011126 0.000000 0.000000 0.000000
# 4 0.000000 0.000000 0.000000 0.110115 0.000000 0.000000
# 5 0.000000 0.000000 0.000000 0.000000 0.024930 0.000000
# 6 0.000000 0.000000 0.000000 0.000000 0.000000 0.019541
#
#
# Mechanical properties :
#
#
# Convention : Reuss Voigt Hill
#
# Bulk Modulus (GPa) = 61.05535 61.33055 61.19295
# Shear Modulus (GPa) = 24.02238 35.22958 29.62598
#
# Velocity S-wave (km/s) = 3.26438 3.95318 3.62518
# Velocity P-wave (km/s) = 6.42589 6.93129 6.68337
#
# Compressibility (1/GPa) = 0.01637858
#
# Stress axis : x y z
#
# Youngs Moduli (GPa) = 106.21535 85.50384 89.87929
#
# Poissons Ratio (x) = 0.17054 0.22355
# Poissons Ratio (y) = 0.21185 0.30982
# Poissons Ratio (z) = 0.26418 0.29474
#
# Static dielectric constant tensor:
#      x y z
#    x 4.010960 0.000000 0.000000 
#    y 0.000000 3.961760 0.000000 
#    z 0.000000 0.000000 4.114570 
# 
# 
# High freq. dielectric constant tensor:
#      x y z
#    x 1.906910 0.000000 0.000000 
#    y 0.000000 1.893340 0.000000 
#    z 0.000000 0.000000 1.895510 
# 
# From -- ./inp_files/261.got.cif
#   From: 2010.03.12/outbox.cif.g09.slc.cpg/sg34_1_cif.got.tgz:261.got - 2010.04.14 01:56:33.
