data_PCOD8172508
_publ_section_title
;
Structure prediction by ZEFSAII (Michael W. Deem and Ramdas Pophale) SiO2 
 PCOD8172508
Probable space group: C M M 2
;
_chemical_formula_sum "Si O2"
_cell_formula_units_Z 64
_cell_length_a 30.167743
_cell_length_b 9.068732
_cell_length_c 15.121744
_cell_angle_alpha 90.000000
_cell_angle_beta 90.000000
_cell_angle_gamma 90.000000
_cell_volume 4137.054755
_symmetry_space_group_name_H-M "C M M 2"
_symmetry_group_IT_number 35
_symmetry_cell_setting 'orthorhombic'
loop_
_space_group_symop_operation_xyz
x,y,z
-x,-y,z
-x,y,z
x,-y,z
1/2+x,1/2+y,z
1/2-x,1/2-y,z
1/2-x,1/2+y,z
1/2+x,1/2-y,z
loop_
_atom_site_type_symbol
_atom_site_label
_atom_site_fract_x
_atom_site_fract_y
_atom_site_fract_z
Si Si1 0.050533 0.328296 0.632590
Si Si2 0.207474 0.834824 0.491127
Si Si3 0.382563 0.826044 0.284011
Si Si4 0.947189 0.166406 0.807033
Si Si5 0.447858 0.671495 0.154997
Si Si6 0.552712 0.166266 0.978505
Si Si7 0.879375 0.329193 0.487708
Si Si8 0.293355 0.667347 0.280584
O O1 0.054378 0.500000 0.655472
O O2 0.069702 0.240475 0.716590
O O3 0.078274 0.285208 0.545997
O O4 0.000000 0.283214 0.612194
O O5 0.250000 0.750000 0.529944
O O6 0.162753 0.758471 0.525079
O O7 0.208751 0.832107 0.385768
O O8 0.208667 0.000000 0.528158
O O9 0.424012 0.755294 0.234463
O O10 0.390100 0.787871 0.386807
O O11 0.336994 0.754301 0.248531
O O12 0.380687 0.000000 0.266705
O O13 0.928015 0.256652 0.890479
O O14 0.000000 0.169559 0.809635
O O15 0.929134 0.000000 0.811886
O O16 0.500000 0.695702 0.168063
O O17 0.435184 0.500000 0.155643
O O18 0.431195 0.740769 0.062877
O O19 0.500000 0.164192 0.974497
O O20 0.571421 0.000000 0.984863
O O21 0.867346 0.500000 0.495875
O O22 0.294635 0.500000 0.244311
O O23 0.250000 0.750000 0.242127
#
# Coordination Sequence:
#
# PCOD8172508 Si02
#       8
#     8   8   8   8   8   8   8   8
#     4   9  17  29  43  59  82 114 149 181 212 248
#     4   9  16  26  42  61  81 105 135 173 217 261
#     4  10  19  30  44  62  85 115 150 184 217 255
#     4   9  16  26  41  61  83 106 134 172 217 259
#     4  10  20  32  44  60  85 116 148 182 218 255
#     4   9  16  27  44  63  81 104 136 174 216 260
#     4   9  18  30  43  60  84 114 148 183 215 249
#     4   9  16  27  43  62  83 107 137 175 219 262
#
# _framework density 15.469942
#
# number of rings (size 3 to 8) (size 9 to 14) (size 15 to 20)
#    0.000    2.750    0.000    2.250    0.000    8.250 
#    0.000    1.250    0.000    1.500    0.000    0.000 
#    0.000    1.000    0.000    7.000    0.000    6.000 
#
# Total GULP energy -396790.748911 kJ/mol
# GULP energy per Si atom -12399.710903 kJ/mol
# Density = 1.543473 g / cm^3
# Si number density = 15.469942 Si / 1000 Ang^3
#
#
#
# Elastic Constant Matrix: (Units=GPa)
#
#
# Indices 1 2 3 4 5 6 
#
# 1 70.0195 49.3996 43.0128 0.0000 0.0000 0.0000
# 2 49.3996 118.1000 51.8315 0.0000 0.0000 0.0000
# 3 43.0128 51.8315 78.5485 0.0000 0.0000 0.0000
# 4 0.0000 0.0000 0.0000 22.8050 0.0000 0.0000
# 5 0.0000 0.0000 0.0000 0.0000 1.4328 0.0000
# 6 0.0000 0.0000 0.0000 0.0000 0.0000 25.8394
#
#
#
# Elastic Compliance Matrix: (Units=1/GPa)
#
#
# Indices 1 2 3 4 5 6 
#
# 1 0.024271 -0.006080 -0.009279 0.000000 0.000000 0.000000
# 2 -0.006080 0.013442 -0.005541 0.000000 0.000000 0.000000
# 3 -0.009279 -0.005541 0.021468 0.000000 0.000000 0.000000
# 4 0.000000 0.000000 0.000000 0.043850 0.000000 0.000000
# 5 0.000000 0.000000 0.000000 0.000000 0.697936 0.000000
# 6 0.000000 0.000000 0.000000 0.000000 0.000000 0.038701
#
#
# Mechanical properties :
#
#
# Convention : Reuss Voigt Hill
#
# Bulk Modulus (GPa) = 57.52895 61.68397 59.60646
# Shear Modulus (GPa) = 5.63531 18.17705 11.90618
#
# Velocity S-wave (km/s) = 1.91067 3.43153 2.77724
# Velocity P-wave (km/s) = 6.49121 7.46060 6.99272
#
# Compressibility (1/GPa) = 0.01738255
#
# Stress axis : x y z
#
# Youngs Moduli (GPa) = 41.20102 74.39209 46.58069
#
# Poissons Ratio (x) = 0.45231 0.43221
# Poissons Ratio (y) = 0.25050 0.25809
# Poissons Ratio (z) = 0.38230 0.41218
#
# Static dielectric constant tensor:
#      x y z
#    x 2.788720 0.000000 0.000000 
#    y 0.000000 3.163580 0.000000 
#    z 0.000000 0.000000 2.795080 
# 
# 
# High freq. dielectric constant tensor:
#      x y z
#    x 1.562850 0.000000 0.000000 
#    y 0.000000 1.611910 0.000000 
#    z 0.000000 0.000000 1.563330 
# 
# From -- ./inp_files/16135.got.cif
#   From: 2010.03.12/outbox.cif.g09.slc.cpg/sg35_9_cif.got.tgz:16135.got - 2010.04.14 02:02:04.
