data_PCOD8172048
_publ_section_title
;
Structure prediction by ZEFSAII (Michael W. Deem and Ramdas Pophale) SiO2 
 PCOD8172048
Probable space group: P N N 2
;
_chemical_formula_sum "Si O2"
_cell_formula_units_Z 16
_cell_length_a 20.215384
_cell_length_b 5.092444
_cell_length_c 6.798468
_cell_angle_alpha 90.000000
_cell_angle_beta 90.000000
_cell_angle_gamma 90.000000
_cell_volume 699.873122
_symmetry_space_group_name_H-M "P N N 2"
_symmetry_group_IT_number 34
_symmetry_cell_setting 'orthorhombic'
loop_
_space_group_symop_operation_xyz
x,y,z
-x,-y,z
1/2-x,1/2+y,1/2+z
1/2+x,1/2-y,1/2+z
loop_
_atom_site_type_symbol
_atom_site_label
_atom_site_fract_x
_atom_site_fract_y
_atom_site_fract_z
Si Si1 0.643555 0.063304 0.787440
Si Si2 0.785315 0.054227 0.219676
Si Si3 0.343726 0.734444 0.382211
Si Si4 0.541699 0.244262 0.093339
O O1 0.698276 0.287409 0.840007
O O2 0.629756 0.070566 0.552312
O O3 0.672640 0.777218 0.833820
O O4 0.576013 0.119985 0.901142
O O5 0.707605 0.116111 0.237376
O O6 0.807776 0.014176 0.990668
O O7 0.405793 0.648238 0.252151
O O8 0.500000 0.500000 0.030865
O O9 0.500000 0.000000 0.182778
#
# Coordination Sequence:
#
# PCOD8172048 Si02
#       4
#     4   4   4   4
#     4  10  25  44  66 102 139 175 227 289 339 417
#     4  10  23  41  73 101 136 168 224 288 369 392
#     4  10  26  42  73 101 141 175 228 291 350 416
#     4  12  28  45  70  98 140 192 239 276 338 417
#
# _framework density 22.861284999999999
#
# number of rings (size 3 to 8) (size 9 to 14) (size 15 to 20)
#    1.500    0.000    0.000    3.000   10.500    2.000 
#    0.000    0.000    0.000    0.000    0.000    0.000 
#    0.000    0.000    0.000    0.000    0.000    0.000 
#
# Total GULP energy -198254.341246 kJ/mol
# GULP energy per Si atom -12390.896328 kJ/mol
# Density = 2.280925 g / cm^3
# Si number density = 22.861285 Si / 1000 Ang^3
#
#
#
# Elastic Constant Matrix: (Units=GPa)
#
#
# Indices 1 2 3 4 5 6 
#
# 1 126.5332 40.8437 59.2049 0.0000 0.0000 0.0000
# 2 40.8437 136.6721 29.4040 0.0000 0.0000 0.0000
# 3 59.2049 29.4040 98.6914 0.0000 0.0000 0.0000
# 4 0.0000 0.0000 0.0000 27.9638 0.0000 0.0000
# 5 0.0000 0.0000 0.0000 0.0000 32.6934 0.0000
# 6 0.0000 0.0000 0.0000 0.0000 0.0000 33.2360
#
#
#
# Elastic Compliance Matrix: (Units=1/GPa)
#
#
# Indices 1 2 3 4 5 6 
#
# 1 0.011520 -0.002090 -0.006288 0.000000 0.000000 0.000000
# 2 -0.002090 0.008197 -0.001189 0.000000 0.000000 0.000000
# 3 -0.006288 -0.001189 0.014259 0.000000 0.000000 0.000000
# 4 0.000000 0.000000 0.000000 0.035760 0.000000 0.000000
# 5 0.000000 0.000000 0.000000 0.000000 0.030587 0.000000
# 6 0.000000 0.000000 0.000000 0.000000 0.000000 0.030088
#
#
# Mechanical properties :
#
#
# Convention : Reuss Voigt Hill
#
# Bulk Modulus (GPa) = 67.37230 68.97798 68.17514
# Shear Modulus (GPa) = 32.36416 34.27492 33.31954
#
# Velocity S-wave (km/s) = 3.76663 3.87622 3.82182
# Velocity P-wave (km/s) = 6.96065 7.09023 7.02574
#
# Compressibility (1/GPa) = 0.01484290
#
# Stress axis : x y z
#
# Youngs Moduli (GPa) = 86.80678 121.99567 70.13143
#
# Poissons Ratio (x) = 0.25495 0.44099
# Poissons Ratio (y) = 0.18141 0.08335
# Poissons Ratio (z) = 0.54585 0.14500
#
# Static dielectric constant tensor:
#      x y z
#    x 3.869760 0.000000 0.000000 
#    y 0.000000 3.959470 0.000000 
#    z 0.000000 0.000000 3.864650 
# 
# 
# High freq. dielectric constant tensor:
#      x y z
#    x 1.891480 0.000000 0.000000 
#    y 0.000000 1.902820 0.000000 
#    z 0.000000 0.000000 1.894390 
# 
# From -- ./inp_files/3769.got.cif
#   From: 2010.03.12/outbox.cif.g09.slc.cpg/sg34_2_cif.got.tgz:3769.got - 2010.04.14 01:56:33.
