data_PCOD8172866
_publ_section_title
;
Structure prediction by ZEFSAII (Michael W. Deem and Ramdas Pophale) SiO2 
 PCOD8172866
Probable space group: C M M 2
;
_chemical_formula_sum "Si O2"
_cell_formula_units_Z 64
_cell_length_a 15.135162
_cell_length_b 17.938340
_cell_length_c 11.672878
_cell_angle_alpha 90.000000
_cell_angle_beta 90.000000
_cell_angle_gamma 90.000000
_cell_volume 3169.182664
_symmetry_space_group_name_H-M "C M M 2"
_symmetry_group_IT_number 35
_symmetry_cell_setting 'orthorhombic'
loop_
_space_group_symop_operation_xyz
x,y,z
-x,-y,z
-x,y,z
x,-y,z
1/2+x,1/2+y,z
1/2-x,1/2-y,z
1/2-x,1/2+y,z
1/2+x,1/2-y,z
loop_
_atom_site_type_symbol
_atom_site_label
_atom_site_fract_x
_atom_site_fract_y
_atom_site_fract_z
Si Si1 0.351500 0.660916 0.363000
Si Si2 0.748906 0.661334 0.788869
Si Si3 0.400998 0.683113 0.617723
Si Si4 0.833052 0.585826 0.397194
Si Si5 0.098051 0.083796 0.154577
Si Si6 0.099347 0.311142 0.227533
Si Si7 0.398955 0.143289 0.629799
Si Si8 0.755662 0.665680 0.040395
O O1 0.390975 0.653198 0.489449
O O2 0.248987 0.640002 0.371105
O O3 0.403758 0.598371 0.290607
O O4 0.361488 0.740650 0.298316
O O5 0.750000 0.750000 0.792857
O O6 0.663710 0.641748 0.708790
O O7 0.836560 0.624098 0.736264
O O8 0.751492 0.624552 0.916361
O O9 0.500000 0.668191 0.662919
O O10 0.382250 0.770449 0.601750
O O11 0.810762 0.500000 0.369557
O O12 0.907945 0.618062 0.312673
O O13 0.868387 0.591978 0.525510
O O14 0.167659 0.142126 0.105764
O O15 0.000000 0.097367 0.103362
O O16 0.129454 0.000000 0.128357
O O17 0.157388 0.340929 0.119463
O O18 0.000000 0.291544 0.184886
O O19 0.500000 0.126011 0.662247
O O20 0.750000 0.750000 0.004685
#
# Coordination Sequence:
#
# PCOD8172866 Si02
#       8
#     8   8   8   8   8   8   8   8
#     4  12  21  38  62  91 122 155 200 250 305 362
#     4   9  20  36  57  87 121 156 204 254 303 355
#     4  10  19  33  60  92 121 153 196 255 309 358
#     4  12  24  38  60  90 127 165 199 245 309 374
#     4  11  24  41  62  90 125 164 204 250 308 372
#     4  12  24  38  62  94 126 161 201 251 305 364
#     4  10  20  36  57  86 121 159 200 248 305 361
#     4  11  22  39  62  89 121 162 208 257 303 356
#
# _framework density 20.194482000000001
#
# number of rings (size 3 to 8) (size 9 to 14) (size 15 to 20)
#    0.000    1.125    5.000    2.250    0.000    2.000 
#    0.000    3.125    0.000    0.000    0.000    1.750 
#    0.000    0.000    0.000    0.000    0.000    0.000 
#
# Total GULP energy -396486.342390 kJ/mol
# GULP energy per Si atom -12390.198200 kJ/mol
# Density = 2.014852 g / cm^3
# Si number density = 20.194482 Si / 1000 Ang^3
#
#
#
# Elastic Constant Matrix: (Units=GPa)
#
#
# Indices 1 2 3 4 5 6 
#
# 1 147.6677 43.4141 59.5615 0.0000 0.0000 0.0000
# 2 43.4141 57.3633 28.3460 0.0000 0.0000 0.0000
# 3 59.5615 28.3460 144.0880 0.0000 0.0000 0.0000
# 4 0.0000 0.0000 0.0000 20.4943 0.0000 0.0000
# 5 0.0000 0.0000 0.0000 0.0000 5.3945 0.0000
# 6 0.0000 0.0000 0.0000 0.0000 0.0000 17.5010
#
#
#
# Elastic Compliance Matrix: (Units=1/GPa)
#
#
# Indices 1 2 3 4 5 6 
#
# 1 0.009648 -0.005905 -0.002827 0.000000 0.000000 0.000000
# 2 -0.005905 0.022924 -0.002069 0.000000 0.000000 0.000000
# 3 -0.002827 -0.002069 0.008516 0.000000 0.000000 0.000000
# 4 0.000000 0.000000 0.000000 0.048794 0.000000 0.000000
# 5 0.000000 0.000000 0.000000 0.000000 0.185373 0.000000
# 6 0.000000 0.000000 0.000000 0.000000 0.000000 0.057140
#
#
# Mechanical properties :
#
#
# Convention : Reuss Voigt Hill
#
# Bulk Modulus (GPa) = 51.31648 67.97359 59.64503
# Shear Modulus (GPa) = 13.86995 23.19780 18.53387
#
# Velocity S-wave (km/s) = 2.62357 3.39295 3.03276
# Velocity P-wave (km/s) = 5.88590 7.00586 6.47016
#
# Compressibility (1/GPa) = 0.01948692
#
# Stress axis : x y z
#
# Youngs Moduli (GPa) = 103.64650 43.62180 117.43174
#
# Poissons Ratio (x) = 0.25760 0.33192
# Poissons Ratio (y) = 0.61206 0.24294
# Poissons Ratio (z) = 0.29296 0.09024
#
# Static dielectric constant tensor:
#      x y z
#    x 3.850890 0.000000 0.000000 
#    y 0.000000 3.341170 0.000000 
#    z 0.000000 0.000000 3.861820 
# 
# 
# High freq. dielectric constant tensor:
#      x y z
#    x 1.798890 0.000000 0.000000 
#    y 0.000000 1.752570 0.000000 
#    z 0.000000 0.000000 1.787570 
# 
# From -- ./inp_files/13163.got.cif
#   From: 2010.03.12/outbox.cif.g09.slc.cpg/sg35_7_cif.got.tgz:13163.got - 2010.04.14 02:02:04.
