data_PCOD8172912
_publ_section_title
;
Structure prediction by ZEFSAII (Michael W. Deem and Ramdas Pophale) SiO2 
 PCOD8172912
Probable space group: C M M 2
;
_chemical_formula_sum "Si O2"
_cell_formula_units_Z 64
_cell_length_a 8.726570
_cell_length_b 30.604099
_cell_length_c 11.890860
_cell_angle_alpha 90.000000
_cell_angle_beta 90.000000
_cell_angle_gamma 90.000000
_cell_volume 3175.677856
_symmetry_space_group_name_H-M "C M M 2"
_symmetry_group_IT_number 35
_symmetry_cell_setting 'orthorhombic'
loop_
_space_group_symop_operation_xyz
x,y,z
-x,-y,z
-x,y,z
x,-y,z
1/2+x,1/2+y,z
1/2-x,1/2-y,z
1/2-x,1/2+y,z
1/2+x,1/2-y,z
loop_
_atom_site_type_symbol
_atom_site_label
_atom_site_fract_x
_atom_site_fract_y
_atom_site_fract_z
Si Si1 0.175538 0.074480 0.944850
Si Si2 0.675248 0.049410 0.168192
Si Si3 0.179313 0.871145 0.555197
Si Si4 0.819332 0.703572 0.699913
Si Si5 0.822779 0.127371 0.293004
Si Si6 0.824222 0.823179 0.934304
Si Si7 0.317960 0.548356 0.699899
Si Si8 0.319563 0.794006 0.160465
O O1 0.189545 0.126008 0.961188
O O2 0.242323 0.060685 0.823861
O O3 0.000000 0.059085 0.958070
O O4 0.277547 0.050966 0.037880
O O5 0.500000 0.064878 0.179573
O O6 0.782364 0.080291 0.242523
O O7 0.695927 0.000000 0.212193
O O8 0.270225 0.830477 0.604815
O O9 0.214088 0.873853 0.424107
O O10 0.242356 0.915974 0.610954
O O11 0.000000 0.864818 0.581722
O O12 0.750000 0.750000 0.666038
O O13 0.761769 0.688058 0.820497
O O14 0.000000 0.707517 0.702802
O O15 0.723005 0.164851 0.236380
O O16 0.000000 0.137193 0.268043
O O17 0.000000 0.808500 0.921936
O O18 0.747581 0.797228 0.035483
O O19 0.500000 0.549168 0.700909
O O20 0.257595 0.500000 0.666223
O O21 0.500000 0.790116 0.153610
O O22 0.250000 0.750000 0.215902
#
# Coordination Sequence:
#
# PCOD8172912 Si02
#       8
#     8   8   8   8   8   8   8   8
#     4  10  19  34  62  91 123 161 201 249 304 368
#     4  11  24  40  60  89 128 168 206 254 310 370
#     4  10  22  42  64  89 122 159 206 260 308 359
#     4  12  25  41  64  92 125 164 205 250 307 367
#     4  11  24  42  65  90 120 162 211 262 313 367
#     4  11  21  38  64  94 128 161 201 250 307 367
#     4   9  17  33  60  92 122 154 194 243 298 353
#     4  12  25  42  65  92 125 160 202 252 310 375
#
# _framework density 20.153179000000002
#
# number of rings (size 3 to 8) (size 9 to 14) (size 15 to 20)
#    0.000    1.250    2.500    4.125    0.000    4.000 
#    0.000    1.250    0.000    0.375    0.000    0.000 
#    0.000    0.000    0.000    0.000    0.000    0.000 
#
# Total GULP energy -396958.911342 kJ/mol
# GULP energy per Si atom -12404.965979 kJ/mol
# Density = 2.010731 g / cm^3
# Si number density = 20.153179 Si / 1000 Ang^3
#
#
#
# Elastic Constant Matrix: (Units=GPa)
#
#
# Indices 1 2 3 4 5 6 
#
# 1 100.5358 43.6840 44.4223 0.0000 0.0000 0.0000
# 2 43.6840 113.3375 40.1835 0.0000 0.0000 0.0000
# 3 44.4223 40.1835 109.0621 0.0000 0.0000 0.0000
# 4 0.0000 0.0000 0.0000 7.0470 0.0000 0.0000
# 5 0.0000 0.0000 0.0000 0.0000 21.1168 0.0000
# 6 0.0000 0.0000 0.0000 0.0000 0.0000 26.2999
#
#
#
# Elastic Compliance Matrix: (Units=1/GPa)
#
#
# Indices 1 2 3 4 5 6 
#
# 1 0.013357 -0.003703 -0.004076 0.000000 0.000000 0.000000
# 2 -0.003703 0.011176 -0.002609 0.000000 0.000000 0.000000
# 3 -0.004076 -0.002609 0.011791 0.000000 0.000000 0.000000
# 4 0.000000 0.000000 0.000000 0.141904 0.000000 0.000000
# 5 0.000000 0.000000 0.000000 0.000000 0.047356 0.000000
# 6 0.000000 0.000000 0.000000 0.000000 0.000000 0.038023
#
#
# Mechanical properties :
#
#
# Convention : Reuss Voigt Hill
#
# Bulk Modulus (GPa) = 64.32375 64.39057 64.35716
# Shear Modulus (GPa) = 17.26734 23.86912 20.56823
#
# Velocity S-wave (km/s) = 2.93030 3.44522 3.19814
# Velocity P-wave (km/s) = 6.59057 6.91708 6.75580
#
# Compressibility (1/GPa) = 0.01554636
#
# Stress axis : x y z
#
# Youngs Moduli (GPa) = 74.86885 89.48079 84.81265
#
# Poissons Ratio (x) = 0.33134 0.34570
# Poissons Ratio (y) = 0.27724 0.22131
# Poissons Ratio (z) = 0.30517 0.23349
#
# Static dielectric constant tensor:
#      x y z
#    x 3.575060 0.000000 0.000000 
#    y 0.000000 3.973360 0.000000 
#    z 0.000000 0.000000 3.632620 
# 
# 
# High freq. dielectric constant tensor:
#      x y z
#    x 1.777610 0.000000 0.000000 
#    y 0.000000 1.805530 0.000000 
#    z 0.000000 0.000000 1.784450 
# 
# From -- ./inp_files/11949.got.cif
#   From: 2010.03.12/outbox.cif.g09.slc.cpg/sg35_6_cif.got.tgz:11949.got - 2010.04.14 02:02:04.
