data_PCOD8172704
_publ_section_title
;
Structure prediction by ZEFSAII (Michael W. Deem and Ramdas Pophale) SiO2 
 PCOD8172704
Probable space group: C M M 2
;
_chemical_formula_sum "Si O2"
_cell_formula_units_Z 56
_cell_length_a 18.271588
_cell_length_b 8.749177
_cell_length_c 18.018808
_cell_angle_alpha 90.000000
_cell_angle_beta 90.000000
_cell_angle_gamma 90.000000
_cell_volume 2880.511107
_symmetry_space_group_name_H-M "C M M 2"
_symmetry_group_IT_number 35
_symmetry_cell_setting 'orthorhombic'
loop_
_space_group_symop_operation_xyz
x,y,z
-x,-y,z
-x,y,z
x,-y,z
1/2+x,1/2+y,z
1/2-x,1/2-y,z
1/2-x,1/2+y,z
1/2+x,1/2-y,z
loop_
_atom_site_type_symbol
_atom_site_label
_atom_site_fract_x
_atom_site_fract_y
_atom_site_fract_z
Si Si1 0.082362 0.181841 0.269730
Si Si2 0.581825 0.681610 0.555029
Si Si3 0.415443 0.176853 0.995454
Si Si4 0.829740 0.820237 0.127702
Si Si5 0.170037 0.181590 0.413154
Si Si6 0.328688 0.681378 0.696369
Si Si7 0.327465 0.178708 0.849981
O O1 0.124848 0.244754 0.197646
O O2 0.123694 0.240691 0.342905
O O3 0.000000 0.248441 0.269241
O O4 0.079661 0.000000 0.268654
O O5 0.500000 0.748999 0.548657
O O6 0.579374 0.500000 0.551418
O O7 0.630266 0.744082 0.486963
O O8 0.616093 0.736925 0.632576
O O9 0.500000 0.223226 0.998261
O O10 0.371740 0.279929 0.052794
O O11 0.403229 0.000000 0.015876
O O12 0.386447 0.212395 0.913302
O O13 0.750000 0.750000 0.127482
O O14 0.821170 0.000000 0.133299
O O15 0.250000 0.250000 0.408333
O O16 0.175806 0.000000 0.413597
O O17 0.322785 0.500000 0.700006
O O18 0.250000 0.750000 0.677326
O O19 0.357747 0.744679 0.774809
O O20 0.250000 0.250000 0.873905
O O21 0.315807 0.000000 0.835989
#
# Coordination Sequence:
#
# PCOD8172704 Si02
#       7
#     8   8   8   8   8   8   8
#     4   9  18  33  54  80 107 137 176 218 259 307
#     4   9  18  32  51  76 103 134 174 215 255 302
#     4  10  22  39  57  79 108 140 175 218 268 319
#     4  11  22  36  56  81 109 141 179 221 263 313
#     4  10  19  33  55  78 104 138 174 214 257 304
#     4  10  19  32  52  76 103 134 170 214 259 307
#     4  10  20  35  55  77 103 136 174 214 258 312
#
# _framework density 19.440995000000001
#
# number of rings (size 3 to 8) (size 9 to 14) (size 15 to 20)
#    0.000    2.143    0.000    4.286    0.000    5.429 
#    0.000    1.429    0.000    6.429    0.000    0.000 
#    0.000    0.000    0.000    0.000    0.000    0.000 
#
# Total GULP energy -347266.254147 kJ/mol
# GULP energy per Si atom -12402.366220 kJ/mol
# Density = 1.939675 g / cm^3
# Si number density = 19.440995 Si / 1000 Ang^3
#
#
#
# Elastic Constant Matrix: (Units=GPa)
#
#
# Indices 1 2 3 4 5 6 
#
# 1 174.5742 35.3827 96.2576 0.0000 0.0000 0.0000
# 2 35.3827 53.3797 39.4008 0.0000 0.0000 0.0000
# 3 96.2576 39.4008 155.7165 0.0000 0.0000 0.0000
# 4 0.0000 0.0000 0.0000 10.9542 0.0000 0.0000
# 5 0.0000 0.0000 0.0000 0.0000 41.1811 0.0000
# 6 0.0000 0.0000 0.0000 0.0000 0.0000 13.8138
#
#
#
# Elastic Compliance Matrix: (Units=1/GPa)
#
#
# Indices 1 2 3 4 5 6 
#
# 1 0.008907 -0.002262 -0.004933 0.000000 0.000000 0.000000
# 2 -0.002262 0.023611 -0.004576 0.000000 0.000000 0.000000
# 3 -0.004933 -0.004576 0.010629 0.000000 0.000000 0.000000
# 4 0.000000 0.000000 0.000000 0.091289 0.000000 0.000000
# 5 0.000000 0.000000 0.000000 0.000000 0.024283 0.000000
# 6 0.000000 0.000000 0.000000 0.000000 0.000000 0.072392
#
#
# Mechanical properties :
#
#
# Convention : Reuss Voigt Hill
#
# Bulk Modulus (GPa) = 51.01007 80.63916 65.82462
# Shear Modulus (GPa) = 19.14326 27.36511 23.25418
#
# Velocity S-wave (km/s) = 3.14137 3.75587 3.46228
# Velocity P-wave (km/s) = 6.28116 7.77031 7.06508
#
# Compressibility (1/GPa) = 0.01960397
#
# Stress axis : x y z
#
# Youngs Moduli (GPa) = 112.27068 42.35352 94.07884
#
# Poissons Ratio (x) = 0.09582 0.46414
# Poissons Ratio (y) = 0.25401 0.43047
# Poissons Ratio (z) = 0.55389 0.19379
#
# Static dielectric constant tensor:
#      x y z
#    x 3.678590 0.000000 0.000000 
#    y 0.000000 3.303040 0.000000 
#    z 0.000000 0.000000 3.810580 
# 
# 
# High freq. dielectric constant tensor:
#      x y z
#    x 1.766170 0.000000 0.000000 
#    y 0.000000 1.730140 0.000000 
#    z 0.000000 0.000000 1.775110 
# 
# From -- ./inp_files/17408.got.cif
#   From: 2010.03.12/outbox.cif.g09.slc.cpg/sg35_9_cif.got.tgz:17408.got - 2010.04.14 02:02:04.
