data_PCOD8172314
_publ_section_title
;
Structure prediction by ZEFSAII (Michael W. Deem and Ramdas Pophale) SiO2 
 PCOD8172314
Probable space group: C M M 2
;
_chemical_formula_sum "Si O2"
_cell_formula_units_Z 64
_cell_length_a 28.515836
_cell_length_b 8.804543
_cell_length_c 15.686964
_cell_angle_alpha 90.000000
_cell_angle_beta 90.000000
_cell_angle_gamma 90.000000
_cell_volume 3938.508862
_symmetry_space_group_name_H-M "C M M 2"
_symmetry_group_IT_number 35
_symmetry_cell_setting 'orthorhombic'
loop_
_space_group_symop_operation_xyz
x,y,z
-x,-y,z
-x,y,z
x,-y,z
1/2+x,1/2+y,z
1/2-x,1/2-y,z
1/2-x,1/2+y,z
1/2+x,1/2-y,z
loop_
_atom_site_type_symbol
_atom_site_label
_atom_site_fract_x
_atom_site_fract_y
_atom_site_fract_z
Si Si1 0.394649 0.821302 0.734260
Si Si2 0.298871 0.319304 0.475834
Si Si3 0.447359 0.819069 0.569248
Si Si4 0.611563 0.819819 0.407351
Si Si5 0.444286 0.328811 0.072126
Si Si6 0.053856 0.320598 0.900140
Si Si7 0.702101 0.179322 0.659293
Si Si8 0.946782 0.320901 0.243803
O O1 0.422475 0.752151 0.653616
O O2 0.415288 0.753845 0.822054
O O3 0.339426 0.783516 0.725846
O O4 0.403209 0.000000 0.734345
O O5 0.295566 0.500000 0.479548
O O6 0.250000 0.250000 0.442781
O O7 0.338775 0.265603 0.410302
O O8 0.310725 0.254000 0.569144
O O9 0.500000 0.754563 0.565212
O O10 0.419681 0.762627 0.486345
O O11 0.447721 0.000000 0.571173
O O12 0.585437 0.767374 0.321718
O O13 0.619592 0.000000 0.410204
O O14 0.500000 0.317676 0.071828
O O15 0.425906 0.500000 0.072030
O O16 0.425182 0.247982 0.157160
O O17 0.425084 0.247744 0.987192
O O18 0.058073 0.500000 0.907015
O O19 0.000000 0.270930 0.885132
O O20 0.750000 0.250000 0.696749
O O21 0.708020 0.000000 0.644894
O O22 0.946426 0.500000 0.234371
O O23 0.000000 0.263276 0.260002
#
# Coordination Sequence:
#
# PCOD8172314 Si02
#       8
#     8   8   8   8   8   8   8   8
#     4   9  16  26  43  68  93 118 152 192 231 268
#     4  11  21  33  49  67  89 120 157 197 238 277
#     4   9  15  24  41  65  93 124 156 186 217 261
#     4  10  18  30  47  70  96 122 154 192 232 274
#     4   9  17  29  44  63  90 124 156 190 234 276
#     4   9  16  27  45  68  91 117 153 193 228 269
#     4  10  18  31  48  67  90 118 153 196 238 277
#     4   9  17  29  47  71  96 124 159 195 228 268
#
# _framework density 16.249806
#
# number of rings (size 3 to 8) (size 9 to 14) (size 15 to 20)
#    0.000    2.500    1.250    3.375    0.000    5.000 
#    0.000    1.250    0.000    1.125    0.000    0.875 
#    0.000    2.000    0.000    0.000    0.000    0.000 
#
# Total GULP energy -396747.915594 kJ/mol
# GULP energy per Si atom -12398.372362 kJ/mol
# Density = 1.621282 g / cm^3
# Si number density = 16.249806 Si / 1000 Ang^3
#
#
#
# Elastic Constant Matrix: (Units=GPa)
#
#
# Indices 1 2 3 4 5 6 
#
# 1 108.7001 35.3181 70.5551 0.0000 0.0000 0.0000
# 2 35.3181 52.3743 36.6483 0.0000 0.0000 0.0000
# 3 70.5551 36.6483 149.6996 0.0000 0.0000 0.0000
# 4 0.0000 0.0000 0.0000 13.4284 0.0000 0.0000
# 5 0.0000 0.0000 0.0000 0.0000 14.7023 0.0000
# 6 0.0000 0.0000 0.0000 0.0000 0.0000 19.9240
#
#
#
# Elastic Compliance Matrix: (Units=1/GPa)
#
#
# Indices 1 2 3 4 5 6 
#
# 1 0.014718 -0.006119 -0.005439 0.000000 0.000000 0.000000
# 2 -0.006119 0.025584 -0.003379 0.000000 0.000000 0.000000
# 3 -0.005439 -0.003379 0.010071 0.000000 0.000000 0.000000
# 4 0.000000 0.000000 0.000000 0.074469 0.000000 0.000000
# 5 0.000000 0.000000 0.000000 0.000000 0.068017 0.000000
# 6 0.000000 0.000000 0.000000 0.000000 0.000000 0.050191
#
#
# Mechanical properties :
#
#
# Convention : Reuss Voigt Hill
#
# Bulk Modulus (GPa) = 48.78390 66.20189 57.49290
# Shear Modulus (GPa) = 17.87266 20.82777 19.35022
#
# Velocity S-wave (km/s) = 3.32003 3.58400 3.45454
# Velocity P-wave (km/s) = 6.69202 7.61284 7.16723
#
# Compressibility (1/GPa) = 0.02049856
#
# Stress axis : x y z
#
# Youngs Moduli (GPa) = 67.94408 39.08625 99.29849
#
# Poissons Ratio (x) = 0.23918 0.54005
# Poissons Ratio (y) = 0.41577 0.33556
# Poissons Ratio (z) = 0.36953 0.13208
#
# Static dielectric constant tensor:
#      x y z
#    x 3.070830 0.000000 0.000000 
#    y 0.000000 2.858550 0.000000 
#    z 0.000000 0.000000 3.155510 
# 
# 
# High freq. dielectric constant tensor:
#      x y z
#    x 1.607820 0.000000 0.000000 
#    y 0.000000 1.605930 0.000000 
#    z 0.000000 0.000000 1.615890 
# 
# From -- ./inp_files/16129.got.cif
#   From: 2010.03.12/outbox.cif.g09.slc.cpg/sg35_9_cif.got.tgz:16129.got - 2010.04.14 02:02:04.
