data_PCOD8172941
_publ_section_title
;
Structure prediction by ZEFSAII (Michael W. Deem and Ramdas Pophale) SiO2 
 PCOD8172941
Probable space group: C M M 2
;
_chemical_formula_sum "Si O2"
_cell_formula_units_Z 40
_cell_length_a 8.710260
_cell_length_b 15.643992
_cell_length_c 14.504535
_cell_angle_alpha 90.000000
_cell_angle_beta 90.000000
_cell_angle_gamma 90.000000
_cell_volume 1976.434901
_symmetry_space_group_name_H-M "C M M 2"
_symmetry_group_IT_number 35
_symmetry_cell_setting 'orthorhombic'
loop_
_space_group_symop_operation_xyz
x,y,z
-x,-y,z
-x,y,z
x,-y,z
1/2+x,1/2+y,z
1/2-x,1/2-y,z
1/2-x,1/2+y,z
1/2+x,1/2-y,z
loop_
_atom_site_type_symbol
_atom_site_label
_atom_site_fract_x
_atom_site_fract_y
_atom_site_fract_z
Si Si1 0.682303 0.000000 0.748111
Si Si2 0.318066 0.837435 0.636007
Si Si3 0.823613 0.398534 0.242413
Si Si4 0.317835 0.000000 0.957910
Si Si5 0.182104 0.405367 0.445199
Si Si6 0.319865 0.660844 0.062169
O O1 0.746127 0.084286 0.696962
O O2 0.740370 0.000000 0.852834
O O3 0.500000 0.000000 0.742963
O O4 0.500000 0.833913 0.641587
O O5 0.250000 0.750000 0.676588
O O6 0.259856 0.847393 0.529956
O O7 0.804261 0.500000 0.232458
O O8 0.769562 0.368743 0.344881
O O9 0.715305 0.350240 0.170518
O O10 0.000000 0.372629 0.223107
O O11 0.500000 0.000000 0.965739
O O12 0.255855 0.915624 0.006109
O O13 0.252179 0.500000 0.458660
O O14 0.000000 0.413187 0.447688
O O15 0.500000 0.660644 0.045011
O O16 0.250000 0.750000 0.026167
#
# Coordination Sequence:
#
# PCOD8172941 Si02
#       6
#     4   8   8   4   8   8
#     4   9  20  39  64  85 110 150 191 233 288 355
#     4  10  19  35  58  86 117 151 193 235 280 339
#     4   9  17  32  57  87 119 157 198 239 286 343
#     4  11  23  43  66  89 116 150 195 249 306 359
#     4   8  14  28  54  83 113 155 198 230 272 337
#     4  12  25  41  62  89 120 157 198 244 297 354
#
# _framework density 20.238461000000001
#
# number of rings (size 3 to 8) (size 9 to 14) (size 15 to 20)
#    0.000    2.200    2.000    3.300    0.000    1.600 
#    0.000    7.500    0.000    1.200    0.000    0.000 
#    0.000    0.000    0.000    0.000    0.000    0.000 
#
# Total GULP energy -247957.794606 kJ/mol
# GULP energy per Si atom -12397.889730 kJ/mol
# Density = 2.019240 g / cm^3
# Si number density = 20.238461 Si / 1000 Ang^3
#
#
#
# Elastic Constant Matrix: (Units=GPa)
#
#
# Indices 1 2 3 4 5 6 
#
# 1 68.1208 38.0263 35.3422 0.0000 0.0000 0.0000
# 2 38.0263 155.0107 75.2676 0.0000 0.0000 0.0000
# 3 35.3422 75.2676 144.0139 0.0000 0.0000 0.0000
# 4 0.0000 0.0000 0.0000 6.6068 0.0000 0.0000
# 5 0.0000 0.0000 0.0000 0.0000 14.7084 0.0000
# 6 0.0000 0.0000 0.0000 0.0000 0.0000 29.3699
#
#
#
# Elastic Compliance Matrix: (Units=1/GPa)
#
#
# Indices 1 2 3 4 5 6 
#
# 1 0.017812 -0.003011 -0.002797 0.000000 0.000000 0.000000
# 2 -0.003011 0.009154 -0.004045 0.000000 0.000000 0.000000
# 3 -0.002797 -0.004045 0.009745 0.000000 0.000000 0.000000
# 4 0.000000 0.000000 0.000000 0.151359 0.000000 0.000000
# 5 0.000000 0.000000 0.000000 0.000000 0.067988 0.000000
# 6 0.000000 0.000000 0.000000 0.000000 0.000000 0.034048
#
#
# Mechanical properties :
#
#
# Convention : Reuss Voigt Hill
#
# Bulk Modulus (GPa) = 58.81399 73.82417 66.31908
# Shear Modulus (GPa) = 15.84876 24.70431 20.27654
#
# Velocity S-wave (km/s) = 2.80143 3.49759 3.16868
# Velocity P-wave (km/s) = 6.29187 7.27098 6.79907
#
# Compressibility (1/GPa) = 0.01700276
#
# Stress axis : x y z
#
# Youngs Moduli (GPa) = 56.14166 109.24019 102.62135
#
# Poissons Ratio (x) = 0.32895 0.28708
# Poissons Ratio (y) = 0.16905 0.41514
# Poissons Ratio (z) = 0.15705 0.44192
#
# Static dielectric constant tensor:
#      x y z
#    x 3.233600 0.000000 0.000000 
#    y 0.000000 3.706070 0.000000 
#    z 0.000000 0.000000 4.011940 
# 
# 
# High freq. dielectric constant tensor:
#      x y z
#    x 1.751710 0.000000 0.000000 
#    y 0.000000 1.793290 0.000000 
#    z 0.000000 0.000000 1.796080 
# 
# From -- ./inp_files/14740.got.cif
#   From: 2010.03.12/outbox.cif.g09.slc.cpg/sg35_8_cif.got.tgz:14740.got - 2010.04.14 02:02:04.
