data_PCOD8172916
_publ_section_title
;
Structure prediction by ZEFSAII (Michael W. Deem and Ramdas Pophale) SiO2 
 PCOD8172916
Probable space group: C M M 2
;
_chemical_formula_sum "Si O2"
_cell_formula_units_Z 40
_cell_length_a 7.810991
_cell_length_b 28.916102
_cell_length_c 9.543798
_cell_angle_alpha 90.000000
_cell_angle_beta 90.000000
_cell_angle_gamma 90.000000
_cell_volume 2155.594784
_symmetry_space_group_name_H-M "C M M 2"
_symmetry_group_IT_number 35
_symmetry_cell_setting 'orthorhombic'
loop_
_space_group_symop_operation_xyz
x,y,z
-x,-y,z
-x,y,z
x,-y,z
1/2+x,1/2+y,z
1/2-x,1/2-y,z
1/2-x,1/2+y,z
1/2+x,1/2-y,z
loop_
_atom_site_type_symbol
_atom_site_label
_atom_site_fract_x
_atom_site_fract_y
_atom_site_fract_z
Si Si1 0.000000 0.551387 0.098890
Si Si2 0.696186 0.383700 0.100639
Si Si3 0.197813 0.799777 0.901722
Si Si4 0.310092 0.385333 0.424888
Si Si5 0.307546 0.198415 0.593896
Si Si6 0.000000 0.448328 0.431288
O O1 0.173166 0.576847 0.047481
O O2 0.000000 0.548300 0.265239
O O3 0.000000 0.500000 0.033379
O O4 0.500000 0.399504 0.071324
O O5 0.727417 0.373103 0.263519
O O6 0.742971 0.337100 0.019019
O O7 0.250000 0.750000 0.963979
O O8 0.300324 0.810482 0.760054
O O9 0.000000 0.800077 0.860484
O O10 0.500000 0.407380 0.440372
O O11 0.308916 0.338066 0.512173
O O12 0.170311 0.421618 0.483450
O O13 0.500000 0.190943 0.541670
O O14 0.250000 0.250000 0.555814
O O15 0.000000 0.500000 0.496331
#
# Coordination Sequence:
#
# PCOD8172916 Si02
#       6
#     4   8   8   8   8   4
#     4   9  18  32  55  79 107 141 175 217 268 313
#     4   9  20  34  53  79 108 137 174 217 264 312
#     4  10  20  34  51  76 104 140 179 215 259 315
#     4  10  19  35  54  79 109 139 174 220 266 311
#     4  11  21  34  52  77 105 142 181 217 260 318
#     4   9  18  34  53  81 109 139 179 219 266 321
#
# _framework density 18.556365
#
# number of rings (size 3 to 8) (size 9 to 14) (size 15 to 20)
#    0.000    2.200    1.000    3.600    2.800    1.600 
#    0.000    6.000    0.000    2.400    0.000    2.800 
#    0.000    0.000    0.000    0.000    0.000    0.000 
#
# Total GULP energy -248003.835578 kJ/mol
# GULP energy per Si atom -12400.191779 kJ/mol
# Density = 1.851413 g / cm^3
# Si number density = 18.556365 Si / 1000 Ang^3
#
#
#
# Elastic Constant Matrix: (Units=GPa)
#
#
# Indices 1 2 3 4 5 6 
#
# 1 123.8941 68.8395 25.6025 0.0000 0.0000 0.0000
# 2 68.8395 153.2665 48.7959 0.0000 0.0000 0.0000
# 3 25.6025 48.7959 40.7148 0.0000 0.0000 0.0000
# 4 0.0000 0.0000 0.0000 4.0217 0.0000 0.0000
# 5 0.0000 0.0000 0.0000 0.0000 20.6947 0.0000
# 6 0.0000 0.0000 0.0000 0.0000 0.0000 30.3406
#
#
#
# Elastic Compliance Matrix: (Units=1/GPa)
#
#
# Indices 1 2 3 4 5 6 
#
# 1 0.010818 -0.004355 -0.001584 0.000000 0.000000 0.000000
# 2 -0.004355 0.012303 -0.012007 0.000000 0.000000 0.000000
# 3 -0.001584 -0.012007 0.039947 0.000000 0.000000 0.000000
# 4 0.000000 0.000000 0.000000 0.248653 0.000000 0.000000
# 5 0.000000 0.000000 0.000000 0.000000 0.048321 0.000000
# 6 0.000000 0.000000 0.000000 0.000000 0.000000 0.032959
#
#
# Mechanical properties :
#
#
# Convention : Reuss Voigt Hill
#
# Bulk Modulus (GPa) = 36.79465 67.15013 51.97239
# Shear Modulus (GPa) = 11.41681 22.65390 17.03535
#
# Velocity S-wave (km/s) = 2.48311 3.49781 3.03319
# Velocity P-wave (km/s) = 5.30026 7.25111 6.35104
#
# Compressibility (1/GPa) = 0.02717786
#
# Stress axis : x y z
#
# Youngs Moduli (GPa) = 92.43532 81.27986 25.03342
#
# Poissons Ratio (x) = 0.35396 0.03964
# Poissons Ratio (y) = 0.40255 0.30057
# Poissons Ratio (z) = 0.14638 0.97590
#
# Static dielectric constant tensor:
#      x y z
#    x 3.654240 0.000000 0.000000 
#    y 0.000000 3.482780 0.000000 
#    z 0.000000 0.000000 3.078530 
# 
# 
# High freq. dielectric constant tensor:
#      x y z
#    x 1.741640 0.000000 0.000000 
#    y 0.000000 1.711870 0.000000 
#    z 0.000000 0.000000 1.687370 
# 
# From -- ./inp_files/5040.got.cif
#   From: 2010.03.12/outbox.cif.g09.slc.cpg/sg35_3_cif.got.tgz:5040.got - 2010.04.14 02:02:04.
