data_PCOD8172810
_publ_section_title
;
Structure prediction by ZEFSAII (Michael W. Deem and Ramdas Pophale) SiO2 
 PCOD8172810
Probable space group: C M M 2
;
_chemical_formula_sum "Si O2"
_cell_formula_units_Z 64
_cell_length_a 29.142010
_cell_length_b 8.865425
_cell_length_c 12.369033
_cell_angle_alpha 90.000000
_cell_angle_beta 90.000000
_cell_angle_gamma 90.000000
_cell_volume 3195.617650
_symmetry_space_group_name_H-M "C M M 2"
_symmetry_group_IT_number 35
_symmetry_cell_setting 'orthorhombic'
loop_
_space_group_symop_operation_xyz
x,y,z
-x,-y,z
-x,y,z
x,-y,z
1/2+x,1/2+y,z
1/2-x,1/2-y,z
1/2-x,1/2+y,z
1/2+x,1/2-y,z
loop_
_atom_site_type_symbol
_atom_site_label
_atom_site_fract_x
_atom_site_fract_y
_atom_site_fract_z
Si Si1 0.106691 0.823935 0.823780
Si Si2 0.704399 0.322053 0.898855
Si Si3 0.949605 0.669367 0.006769
Si Si4 0.553841 0.676799 0.608917
Si Si5 0.081659 0.830213 0.202894
Si Si6 0.816853 0.831487 0.133071
Si Si7 0.109463 0.678307 0.418739
Si Si8 0.796414 0.181105 0.367965
O O1 0.160942 0.782655 0.822384
O O2 0.081579 0.771004 0.715140
O O3 0.098988 0.000000 0.842631
O O4 0.085746 0.741520 0.925442
O O5 0.710105 0.500000 0.905918
O O6 0.750000 0.250000 0.846193
O O7 0.698435 0.252065 0.020873
O O8 0.933170 0.500000 0.031527
O O9 0.954196 0.758077 0.120186
O O10 0.000000 0.672522 0.953261
O O11 0.500000 0.714946 0.622647
O O12 0.561121 0.500000 0.585882
O O13 0.575165 0.773450 0.513039
O O14 0.128568 0.831656 0.135926
O O15 0.084864 0.728754 0.309019
O O16 0.067150 0.000000 0.236398
O O17 0.798368 0.755601 0.243907
O O18 0.797317 0.000000 0.131684
O O19 0.116733 0.500000 0.419743
O O20 0.159139 0.758404 0.432319
O O21 0.750000 0.250000 0.420493
O O22 0.797123 0.000000 0.374002
#
# Coordination Sequence:
#
# PCOD8172810 Si02
#       8
#     8   8   8   8   8   8   8   8
#     4  10  21  40  64  86 115 154 201 251 295 350
#     4  10  19  33  53  83 118 154 194 236 285 341
#     4  11  23  36  54  86 124 157 191 237 299 366
#     4  10  22  42  67  90 110 146 203 257 306 362
#     4  10  19  36  59  83 116 157 198 243 291 347
#     4   8  15  29  50  78 113 152 193 236 279 332
#     4  11  23  39  60  88 121 156 195 246 309 367
#     4  10  19  33  55  85 122 163 205 246 291 348
#
# _framework density 20.027428
#
# number of rings (size 3 to 8) (size 9 to 14) (size 15 to 20)
#    0.000    2.000    1.250    3.750    0.000    3.250 
#    0.000    1.250    0.000    1.500    0.000    0.000 
#    0.000    0.000    0.000    0.000    0.000    0.000 
#
# Total GULP energy -396677.847395 kJ/mol
# GULP energy per Si atom -12396.182731 kJ/mol
# Density = 1.998184 g / cm^3
# Si number density = 20.027428 Si / 1000 Ang^3
#
#
#
# Elastic Constant Matrix: (Units=GPa)
#
#
# Indices 1 2 3 4 5 6 
#
# 1 133.8115 47.3372 60.3573 0.0000 0.0000 0.0000
# 2 47.3372 84.6543 48.0629 0.0000 0.0000 0.0000
# 3 60.3573 48.0629 88.0366 0.0000 0.0000 0.0000
# 4 0.0000 0.0000 0.0000 2.5888 0.0000 0.0000
# 5 0.0000 0.0000 0.0000 0.0000 23.1789 0.0000
# 6 0.0000 0.0000 0.0000 0.0000 0.0000 30.1153
#
#
#
# Elastic Compliance Matrix: (Units=1/GPa)
#
#
# Indices 1 2 3 4 5 6 
#
# 1 0.011250 -0.002771 -0.006200 0.000000 0.000000 0.000000
# 2 -0.002771 0.017801 -0.007819 0.000000 0.000000 0.000000
# 3 -0.006200 -0.007819 0.019879 0.000000 0.000000 0.000000
# 4 0.000000 0.000000 0.000000 0.386285 0.000000 0.000000
# 5 0.000000 0.000000 0.000000 0.000000 0.043143 0.000000
# 6 0.000000 0.000000 0.000000 0.000000 0.000000 0.033206
#
#
# Mechanical properties :
#
#
# Convention : Reuss Voigt Hill
#
# Bulk Modulus (GPa) = 65.14648 68.66859 66.90754
# Shear Modulus (GPa) = 9.08661 21.22627 15.15644
#
# Velocity S-wave (km/s) = 2.13235 3.25908 2.75396
# Velocity P-wave (km/s) = 6.21786 6.96591 6.60249
#
# Compressibility (1/GPa) = 0.01535002
#
# Stress axis : x y z
#
# Youngs Moduli (GPa) = 88.88825 56.17580 50.30528
#
# Poissons Ratio (x) = 0.15564 0.31191
# Poissons Ratio (y) = 0.24627 0.39334
# Poissons Ratio (z) = 0.55115 0.43924
#
# Static dielectric constant tensor:
#      x y z
#    x 3.833600 0.000000 0.000000 
#    y 0.000000 3.493940 0.000000 
#    z 0.000000 0.000000 3.536470 
# 
# 
# High freq. dielectric constant tensor:
#      x y z
#    x 1.790680 0.000000 0.000000 
#    y 0.000000 1.768880 0.000000 
#    z 0.000000 0.000000 1.760760 
# 
# From -- ./inp_files/14551.got.cif
#   From: 2010.03.12/outbox.cif.g09.slc.cpg/sg35_8_cif.got.tgz:14551.got - 2010.04.14 02:02:04.
