data_PCOD8172299
_publ_section_title
;
Structure prediction by ZEFSAII (Michael W. Deem and Ramdas Pophale) SiO2 
 PCOD8172299
Probable space group: C M M 2
;
_chemical_formula_sum "Si O2"
_cell_formula_units_Z 64
_cell_length_a 8.686275
_cell_length_b 29.708565
_cell_length_c 12.422043
_cell_angle_alpha 90.000000
_cell_angle_beta 90.000000
_cell_angle_gamma 90.000000
_cell_volume 3205.592237
_symmetry_space_group_name_H-M "C M M 2"
_symmetry_group_IT_number 35
_symmetry_cell_setting 'orthorhombic'
loop_
_space_group_symop_operation_xyz
x,y,z
-x,-y,z
-x,y,z
x,-y,z
1/2+x,1/2+y,z
1/2-x,1/2-y,z
1/2-x,1/2+y,z
1/2+x,1/2-y,z
loop_
_atom_site_type_symbol
_atom_site_label
_atom_site_fract_x
_atom_site_fract_y
_atom_site_fract_z
Si Si1 0.322144 0.576847 0.205970
Si Si2 0.823232 0.663303 0.285480
Si Si3 0.321359 0.950529 0.989647
Si Si4 0.178603 0.048227 0.441711
Si Si5 0.678331 0.205081 0.071827
Si Si6 0.319198 0.645521 0.503236
Si Si7 0.318128 0.139996 0.893482
Si Si8 0.682300 0.800186 0.697450
O O1 0.500000 0.592256 0.198424
O O2 0.208895 0.618966 0.215814
O O3 0.275318 0.549595 0.099945
O O4 0.296511 0.547461 0.313319
O O5 0.787307 0.702523 0.199470
O O6 0.709964 0.667983 0.386666
O O7 0.000000 0.663951 0.324722
O O8 0.500000 0.941903 0.018339
O O9 0.297919 0.000000 0.936849
O O10 0.264087 0.912361 0.904140
O O11 0.246972 0.093665 0.497883
O O12 0.000000 0.049427 0.469278
O O13 0.248235 0.000000 0.484702
O O14 0.500000 0.207267 0.048176
O O15 0.750000 0.250000 0.023677
O O16 0.744168 0.163385 0.002673
O O17 0.500000 0.647021 0.528479
O O18 0.227590 0.675463 0.587222
O O19 0.500000 0.141674 0.881509
O O20 0.249949 0.167124 0.791175
O O21 0.500000 0.795343 0.703170
O O22 0.750000 0.750000 0.705594
#
# Coordination Sequence:
#
# PCOD8172299 Si02
#       8
#     8   8   8   8   8   8   8   8
#     4  10  18  29  49  79 116 155 193 236 279 329
#     4  10  19  34  55  79 115 155 190 231 282 339
#     4  10  19  33  55  81 113 154 194 230 278 342
#     4   8  15  29  50  77 111 151 188 223 269 326
#     4  10  20  34  54  79 111 144 179 226 280 342
#     4  10  21  37  58  85 117 148 190 238 288 344
#     4   9  19  38  58  81 112 145 185 235 287 336
#     4  11  23  41  65  85 108 143 191 246 296 349
#
# _framework density 19.965109000000002
#
# number of rings (size 3 to 8) (size 9 to 14) (size 15 to 20)
#    0.000    2.250    1.250    3.000    0.000    2.250 
#    0.000    3.750    0.000    8.250    0.000    0.000 
#    0.000    0.000    0.000    0.000    0.000    0.000 
#
# Total GULP energy -396473.573729 kJ/mol
# GULP energy per Si atom -12389.799179 kJ/mol
# Density = 1.991967 g / cm^3
# Si number density = 19.965109 Si / 1000 Ang^3
#
#
#
# Elastic Constant Matrix: (Units=GPa)
#
#
# Indices 1 2 3 4 5 6 
#
# 1 31.2876 24.2548 21.5827 0.0000 0.0000 0.0000
# 2 24.2548 159.4964 66.8542 0.0000 0.0000 0.0000
# 3 21.5827 66.8542 90.8697 0.0000 0.0000 0.0000
# 4 0.0000 0.0000 0.0000 23.0666 0.0000 0.0000
# 5 0.0000 0.0000 0.0000 0.0000 17.8035 0.0000
# 6 0.0000 0.0000 0.0000 0.0000 0.0000 22.3459
#
#
#
# Elastic Compliance Matrix: (Units=1/GPa)
#
#
# Indices 1 2 3 4 5 6 
#
# 1 0.039177 -0.002975 -0.007116 0.000000 0.000000 0.000000
# 2 -0.002975 0.009291 -0.006129 0.000000 0.000000 0.000000
# 3 -0.007116 -0.006129 0.017204 0.000000 0.000000 0.000000
# 4 0.000000 0.000000 0.000000 0.043353 0.000000 0.000000
# 5 0.000000 0.000000 0.000000 0.000000 0.056169 0.000000
# 6 0.000000 0.000000 0.000000 0.000000 0.000000 0.044751
#
#
# Mechanical properties :
#
#
# Convention : Reuss Voigt Hill
#
# Bulk Modulus (GPa) = 30.09186 56.33745 43.21465
# Shear Modulus (GPa) = 19.72681 23.90732 21.81707
#
# Velocity S-wave (km/s) = 3.14676 3.46418 3.30928
# Velocity P-wave (km/s) = 5.32050 6.65432 6.02444
#
# Compressibility (1/GPa) = 0.03323158
#
# Stress axis : x y z
#
# Youngs Moduli (GPa) = 25.52546 107.62890 58.12502
#
# Poissons Ratio (x) = 0.32017 0.41364
# Poissons Ratio (y) = 0.07593 0.35626
# Poissons Ratio (z) = 0.18165 0.65967
#
# Static dielectric constant tensor:
#      x y z
#    x 3.348700 0.000000 0.000000 
#    y 0.000000 3.869360 0.000000 
#    z 0.000000 0.000000 3.532630 
# 
# 
# High freq. dielectric constant tensor:
#      x y z
#    x 1.752580 0.000000 0.000000 
#    y 0.000000 1.790800 0.000000 
#    z 0.000000 0.000000 1.757990 
# 
# From -- ./inp_files/11926.got.cif
#   From: 2010.03.12/outbox.cif.g09.slc.cpg/sg35_6_cif.got.tgz:11926.got - 2010.04.14 02:02:04.
