data_PCOD8172324
_publ_section_title
;
Structure prediction by ZEFSAII (Michael W. Deem and Ramdas Pophale) SiO2 
 PCOD8172324
Probable space group: C M M 2
;
_chemical_formula_sum "Si O2"
_cell_formula_units_Z 64
_cell_length_a 8.757221
_cell_length_b 19.145268
_cell_length_c 20.912940
_cell_angle_alpha 90.000000
_cell_angle_beta 90.000000
_cell_angle_gamma 90.000000
_cell_volume 3506.249780
_symmetry_space_group_name_H-M "C M M 2"
_symmetry_group_IT_number 35
_symmetry_cell_setting 'orthorhombic'
loop_
_space_group_symop_operation_xyz
x,y,z
-x,-y,z
-x,y,z
x,-y,z
1/2+x,1/2+y,z
1/2-x,1/2-y,z
1/2-x,1/2+y,z
1/2+x,1/2-y,z
loop_
_atom_site_type_symbol
_atom_site_label
_atom_site_fract_x
_atom_site_fract_y
_atom_site_fract_z
Si Si1 0.682240 0.172749 0.570590
Si Si2 0.682127 0.326541 0.442229
Si Si3 0.330280 0.583217 0.187648
Si Si4 0.170550 0.583343 0.061847
Si Si5 0.318045 0.422270 0.326974
Si Si6 0.819614 0.173796 0.699256
Si Si7 0.829957 0.082874 0.935566
Si Si8 0.176012 0.417964 0.806187
O O1 0.500000 0.172296 0.569247
O O2 0.750000 0.250000 0.571102
O O3 0.749601 0.136832 0.506455
O O4 0.744612 0.137930 0.635861
O O5 0.500000 0.323264 0.447078
O O6 0.750000 0.250000 0.433169
O O7 0.741196 0.371354 0.382263
O O8 0.500000 0.613849 0.179169
O O9 0.335936 0.500000 0.185207
O O10 0.230679 0.613530 0.129376
O O11 0.261278 0.605063 0.257119
O O12 0.177673 0.500000 0.062749
O O13 0.000000 0.610626 0.052425
O O14 0.267900 0.613408 0.002551
O O15 0.500000 0.424670 0.325584
O O16 0.253992 0.500000 0.340751
O O17 0.750000 0.250000 0.712889
O O18 0.783462 0.122974 0.757558
O O19 0.000000 0.181115 0.689849
O O20 0.721227 0.106337 0.877516
O O21 0.000000 0.112284 0.923956
O O22 0.832353 0.000000 0.939999
O O23 0.206089 0.500000 0.796936
O O24 0.000000 0.398633 0.794285
#
# Coordination Sequence:
#
# PCOD8172324 Si02
#       8
#     8   8   8   8   8   8   8   8
#     4  10  18  31  50  71  95 122 156 197 239 280
#     4  10  18  30  49  71  94 120 153 193 234 279
#     4   8  13  23  39  58  81 111 148 188 228 271
#     4   9  15  22  34  56  86 118 151 188 232 279
#     4   8  15  28  46  67  91 121 156 192 230 274
#     4  11  21  35  55  77 100 127 163 202 241 287
#     4   9  16  26  41  62  89 123 161 197 234 279
#     4  10  20  34  51  73 103 134 162 198 245 291
#
# _framework density 18.253119999999999
#
# number of rings (size 3 to 8) (size 9 to 14) (size 15 to 20)
#    0.000    2.625    0.000    6.000    0.000    3.750 
#    0.000    1.875    0.000    5.250    0.000    0.875 
#    0.000    2.000    0.000    0.000    0.000    0.000 
#
# Total GULP energy -396613.687615 kJ/mol
# GULP energy per Si atom -12394.177738 kJ/mol
# Density = 1.821157 g / cm^3
# Si number density = 18.253120 Si / 1000 Ang^3
#
#
#
# Elastic Constant Matrix: (Units=GPa)
#
#
# Indices 1 2 3 4 5 6 
#
# 1 114.3596 19.1996 51.9735 0.0000 0.0000 0.0000
# 2 19.1996 30.2902 38.0805 0.0000 0.0000 0.0000
# 3 51.9735 38.0805 171.9562 0.0000 0.0000 0.0000
# 4 0.0000 0.0000 0.0000 0.3032 0.0000 0.0000
# 5 0.0000 0.0000 0.0000 0.0000 31.4408 0.0000
# 6 0.0000 0.0000 0.0000 0.0000 0.0000 14.7702
#
#
#
# Elastic Compliance Matrix: (Units=1/GPa)
#
#
# Indices 1 2 3 4 5 6 
#
# 1 0.010423 -0.003667 -0.002338 0.000000 0.000000 0.000000
# 2 -0.003667 0.047042 -0.009309 0.000000 0.000000 0.000000
# 3 -0.002338 -0.009309 0.008584 0.000000 0.000000 0.000000
# 4 0.000000 0.000000 0.000000 3.298217 0.000000 0.000000
# 5 0.000000 0.000000 0.000000 0.000000 0.031806 0.000000
# 6 0.000000 0.000000 0.000000 0.000000 0.000000 0.067704
#
#
# Mechanical properties :
#
#
# Convention : Reuss Voigt Hill
#
# Bulk Modulus (GPa) = 28.23314 59.45703 43.84508
# Shear Modulus (GPa) = 1.42604 23.12632 12.27618
#
# Velocity S-wave (km/s) = 0.88485 3.56333 2.59617
# Velocity P-wave (km/s) = 4.06757 7.04089 5.74975
#
# Compressibility (1/GPa) = 0.03541937
#
# Stress axis : x y z
#
# Youngs Moduli (GPa) = 95.94519 21.25769 116.49959
#
# Poissons Ratio (x) = 0.07795 0.27239
# Poissons Ratio (y) = 0.35183 1.08453
# Poissons Ratio (z) = 0.22434 0.19789
#
# Static dielectric constant tensor:
#      x y z
#    x 3.382460 0.000000 0.000000 
#    y 0.000000 2.813410 0.000000 
#    z 0.000000 0.000000 4.066460 
# 
# 
# High freq. dielectric constant tensor:
#      x y z
#    x 1.709630 0.000000 0.000000 
#    y 0.000000 1.634420 0.000000 
#    z 0.000000 0.000000 1.734380 
# 
# From -- ./inp_files/18505.got.cif
#   From: 2010.03.12/outbox.cif.g09.slc.cpg/sg35_10_cif.got.tgz:18505.got - 2010.04.14 02:02:04.
