data_PCOD8172463
_publ_section_title
;
Structure prediction by ZEFSAII (Michael W. Deem and Ramdas Pophale) SiO2 
 PCOD8172463
Probable space group: C M M 2
;
_chemical_formula_sum "Si O2"
_cell_formula_units_Z 56
_cell_length_a 23.465876
_cell_length_b 8.851080
_cell_length_c 15.624859
_cell_angle_alpha 90.000000
_cell_angle_beta 90.000000
_cell_angle_gamma 90.000000
_cell_volume 3245.257367
_symmetry_space_group_name_H-M "C M M 2"
_symmetry_group_IT_number 35
_symmetry_cell_setting 'orthorhombic'
loop_
_space_group_symop_operation_xyz
x,y,z
-x,-y,z
-x,y,z
x,-y,z
1/2+x,1/2+y,z
1/2-x,1/2-y,z
1/2-x,1/2+y,z
1/2+x,1/2-y,z
loop_
_atom_site_type_symbol
_atom_site_label
_atom_site_fract_x
_atom_site_fract_y
_atom_site_fract_z
Si Si1 0.311199 0.178682 0.671140
Si Si2 0.687221 0.178817 0.365787
Si Si3 0.312171 0.178602 0.994861
Si Si4 0.500000 0.671594 0.585343
Si Si5 0.809893 0.325646 0.179568
Si Si6 0.380923 0.179378 0.834314
Si Si7 0.878224 0.175902 0.517827
Si Si8 0.500000 0.820606 0.767624
O O1 0.250000 0.250000 0.662096
O O2 0.339270 0.235066 0.759206
O O3 0.349341 0.234183 0.593902
O O4 0.306043 0.000000 0.667072
O O5 0.750000 0.250000 0.377523
O O6 0.660292 0.212935 0.270477
O O7 0.642602 0.256141 0.428548
O O8 0.691698 0.000000 0.383704
O O9 0.250000 0.250000 0.981902
O O10 0.339595 0.220398 0.088928
O O11 0.304941 0.000000 0.983147
O O12 0.356095 0.242581 0.923940
O O13 0.500000 0.500000 0.619169
O O14 0.445724 0.703165 0.525283
O O15 0.500000 0.776240 0.668456
O O16 0.796719 0.500000 0.176089
O O17 0.750000 0.250000 0.181526
O O18 0.444280 0.244318 0.816517
O O19 0.383855 0.000000 0.835684
O O20 0.861914 0.000000 0.523056
O O21 0.500000 0.000000 0.769794
#
# Coordination Sequence:
#
# PCOD8172463 Si02
#       8
#     8   8   8   4   8   8   8   4
#     4  11  21  33  48  71 100 131 160 196 241 291
#     4  10  19  32  50  75 102 131 163 200 245 293
#     4   9  16  29  47  72 101 129 159 195 238 287
#     4  10  22  38  54  71  92 122 166 211 250 285
#     4   8  15  27  46  69  98 129 159 194 235 284
#     4   9  18  30  49  72  96 126 163 201 238 282
#     4  11  22  36  52  71  95 126 162 204 247 293
#     4  10  18  34  54  71  92 126 170 207 240 285
#
# _framework density 17.255952000000001
#
# number of rings (size 3 to 8) (size 9 to 14) (size 15 to 20)
#    0.000    2.286    1.429    2.143    0.000    1.143 
#    0.000    1.429    0.000    0.857    0.000    3.000 
#    0.000    0.000    0.000    0.000    0.000    0.000 
#
# Total GULP energy -346946.333368 kJ/mol
# GULP energy per Si atom -12390.940477 kJ/mol
# Density = 1.721668 g / cm^3
# Si number density = 17.255952 Si / 1000 Ang^3
#
#
#
# Elastic Constant Matrix: (Units=GPa)
#
#
# Indices 1 2 3 4 5 6 
#
# 1 99.3462 28.4020 53.0947 0.0000 0.0000 0.0000
# 2 28.4020 41.1567 31.3435 0.0000 0.0000 0.0000
# 3 53.0947 31.3435 146.2776 0.0000 0.0000 0.0000
# 4 0.0000 0.0000 0.0000 15.9506 0.0000 0.0000
# 5 0.0000 0.0000 0.0000 0.0000 -3.1531 0.0000
# 6 0.0000 0.0000 0.0000 0.0000 0.0000 -22.4390
#
#
#
# Elastic Compliance Matrix: (Units=1/GPa)
#
#
# Indices 1 2 3 4 5 6 
#
# 1 0.013955 -0.006899 -0.003587 0.000000 0.000000 0.000000
# 2 -0.006899 0.032446 -0.004448 0.000000 0.000000 0.000000
# 3 -0.003587 -0.004448 0.009092 0.000000 0.000000 0.000000
# 4 0.000000 0.000000 0.000000 0.062693 0.000000 0.000000
# 5 0.000000 0.000000 0.000000 0.000000 -0.317147 0.000000
# 6 0.000000 0.000000 0.000000 0.000000 0.000000 -0.044565
#
#
# Mechanical properties :
#
#
# Convention : Reuss Voigt Hill
#
# Bulk Modulus (GPa) = 39.02529 56.94009 47.98269
# Shear Modulus (GPa) = -24.37637 9.66771 -7.35433
#
# Velocity S-wave (km/s) = -3.76258 2.36954 -2.06668
# Velocity P-wave (km/s) = 1.94644 6.36830 4.70871
#
# Compressibility (1/GPa) = 0.02562441
#
# Stress axis : x y z
#
# Youngs Moduli (GPa) = 71.65817 30.82072 109.99268
#
# Poissons Ratio (x) = 0.21262 0.39456
# Poissons Ratio (y) = 0.49434 0.48928
# Poissons Ratio (z) = 0.25705 0.13710
#
# Static dielectric constant tensor:
#      x y z
#    x 3.268420 0.000000 0.000000 
#    y 0.000000 3.021440 0.000000 
#    z 0.000000 0.000000 4.026950 
# 
# 
# High freq. dielectric constant tensor:
#      x y z
#    x 1.641730 0.000000 0.000000 
#    y 0.000000 1.661010 0.000000 
#    z 0.000000 0.000000 1.682210 
# 
# From -- ./inp_files/17468.got.cif
#   From: 2010.03.12/outbox.cif.g09.slc.cpg/sg35_9_cif.got.tgz:17468.got - 2010.04.14 02:02:04.
