data_PCOD8172078
_publ_section_title
;
Structure prediction by ZEFSAII (Michael W. Deem and Ramdas Pophale) SiO2 
 PCOD8172078
Probable space group: P N N 2
;
_chemical_formula_sum "Si O2"
_cell_formula_units_Z 20
_cell_length_a 13.609088
_cell_length_b 12.098923
_cell_length_c 4.899452
_cell_angle_alpha 90.000000
_cell_angle_beta 90.000000
_cell_angle_gamma 90.000000
_cell_volume 806.720777
_symmetry_space_group_name_H-M "P N N 2"
_symmetry_group_IT_number 34
_symmetry_cell_setting 'orthorhombic'
loop_
_space_group_symop_operation_xyz
x,y,z
-x,-y,z
1/2-x,1/2+y,1/2+z
1/2+x,1/2-y,1/2+z
loop_
_atom_site_type_symbol
_atom_site_label
_atom_site_fract_x
_atom_site_fract_y
_atom_site_fract_z
Si Si1 0.110337 0.528771 0.231770
Si Si2 0.012534 0.124410 0.597265
Si Si3 0.677806 0.092887 0.262916
Si Si4 0.381119 0.709754 0.580576
Si Si5 0.828524 0.246647 0.464438
O O1 0.146918 0.442502 0.462418
O O2 0.115689 0.656650 0.307144
O O3 0.000000 0.500000 0.155889
O O4 0.179037 0.513527 0.963842
O O5 0.075529 0.116769 0.876030
O O6 0.907014 0.182457 0.653672
O O7 0.068576 0.199424 0.373253
O O8 0.000000 0.000000 0.487146
O O9 0.598553 0.174422 0.418115
O O10 0.783346 0.155305 0.251993
O O11 0.262981 0.698670 0.630617
#
# Coordination Sequence:
#
# PCOD8172078 Si02
#       5
#     4   4   4   4   4
#     4  12  24  44  71 102 134 184 234 289 348 408
#     4  12  26  47  71 103 142 186 232 287 348 410
#     4  10  25  42  68  97 141 174 232 281 354 397
#     4  10  25  43  68 102 139 181 239 275 347 418
#     4  10  28  42  76  99 145 182 234 287 344 417
#
# _framework density 24.791727000000002
#
# number of rings (size 3 to 8) (size 9 to 14) (size 15 to 20)
#    1.200    0.000    0.000    4.800    5.600    6.400 
#    0.000    0.000    0.000    0.000    0.000    0.000 
#    0.000    0.000    0.000    0.000    0.000    0.000 
#
# Total GULP energy -247847.085861 kJ/mol
# GULP energy per Si atom -12392.354293 kJ/mol
# Density = 2.473530 g / cm^3
# Si number density = 24.791727 Si / 1000 Ang^3
#
#
#
# Elastic Constant Matrix: (Units=GPa)
#
#
# Indices 1 2 3 4 5 6 
#
# 1 150.8084 51.5551 35.4870 0.0000 0.0000 0.0000
# 2 51.5551 91.3893 -14.3784 0.0000 0.0000 0.0000
# 3 35.4870 -14.3784 86.4597 0.0000 0.0000 0.0000
# 4 0.0000 0.0000 0.0000 20.4799 0.0000 0.0000
# 5 0.0000 0.0000 0.0000 0.0000 10.0495 0.0000
# 6 0.0000 0.0000 0.0000 0.0000 0.0000 42.6768
#
#
#
# Elastic Compliance Matrix: (Units=1/GPa)
#
#
# Indices 1 2 3 4 5 6 
#
# 1 0.010086 -0.006511 -0.005223 0.000000 0.000000 0.000000
# 2 -0.006511 0.015440 0.005240 0.000000 0.000000 0.000000
# 3 -0.005223 0.005240 0.014581 0.000000 0.000000 0.000000
# 4 0.000000 0.000000 0.000000 0.048828 0.000000 0.000000
# 5 0.000000 0.000000 0.000000 0.000000 0.099508 0.000000
# 6 0.000000 0.000000 0.000000 0.000000 0.000000 0.023432
#
#
# Mechanical properties :
#
#
# Convention : Reuss Voigt Hill
#
# Bulk Modulus (GPa) = 36.87380 52.66499 44.76940
# Shear Modulus (GPa) = 21.37646 31.70747 26.54196
#
# Velocity S-wave (km/s) = 2.93958 3.58013 3.27555
# Velocity P-wave (km/s) = 5.14074 6.19506 5.69237
#
# Compressibility (1/GPa) = 0.02711953
#
# Stress axis : x y z
#
# Youngs Moduli (GPa) = 99.14913 64.76737 68.58183
#
# Poissons Ratio (x) = 0.42172 0.35817
# Poissons Ratio (y) = 0.64559 -0.35939
# Poissons Ratio (z) = 0.51781 -0.33940
#
# Static dielectric constant tensor:
#      x y z
#    x 4.371650 0.000000 0.000000 
#    y 0.000000 4.547820 0.000000 
#    z 0.000000 0.000000 4.046950 
# 
# 
# High freq. dielectric constant tensor:
#      x y z
#    x 1.982040 0.000000 0.000000 
#    y 0.000000 1.996950 0.000000 
#    z 0.000000 0.000000 1.966220 
# 
# From -- ./inp_files/1190.got.cif
#   From: 2010.03.12/outbox.cif.g09.slc.cpg/sg34_1_cif.got.tgz:1190.got - 2010.04.14 01:56:33.
