data_PCOD8172564
_publ_section_title
;
Structure prediction by ZEFSAII (Michael W. Deem and Ramdas Pophale) SiO2 
 PCOD8172564
Probable space group: C M M 2
;
_chemical_formula_sum "Si O2"
_cell_formula_units_Z 48
_cell_length_a 8.974756
_cell_length_b 19.509879
_cell_length_c 15.703361
_cell_angle_alpha 90.000000
_cell_angle_beta 90.000000
_cell_angle_gamma 90.000000
_cell_volume 2749.602036
_symmetry_space_group_name_H-M "C M M 2"
_symmetry_group_IT_number 35
_symmetry_cell_setting 'orthorhombic'
loop_
_space_group_symop_operation_xyz
x,y,z
-x,-y,z
-x,y,z
x,-y,z
1/2+x,1/2+y,z
1/2-x,1/2-y,z
1/2-x,1/2+y,z
1/2+x,1/2-y,z
loop_
_atom_site_type_symbol
_atom_site_label
_atom_site_fract_x
_atom_site_fract_y
_atom_site_fract_z
Si Si1 0.322317 0.675282 0.991380
Si Si2 0.824455 0.077385 0.839978
Si Si3 0.165155 0.581511 0.672828
Si Si4 0.674167 0.176879 0.156474
Si Si5 0.322109 0.923611 0.487080
Si Si6 0.826355 0.322878 0.343696
O O1 0.500000 0.681550 0.995936
O O2 0.250000 0.750000 0.978344
O O3 0.268098 0.626653 0.914946
O O4 0.258890 0.639348 0.078216
O O5 0.767595 0.107709 0.750005
O O6 0.000000 0.076580 0.836215
O O7 0.763534 0.000000 0.855618
O O8 0.159391 0.500000 0.670800
O O9 0.228068 0.605087 0.580249
O O10 0.000000 0.611568 0.687910
O O11 0.500000 0.183574 0.134322
O O12 0.750000 0.250000 0.162803
O O13 0.698478 0.142945 0.249664
O O14 0.500000 0.926219 0.484377
O O15 0.257876 0.874418 0.413524
O O16 0.258078 0.000000 0.471250
O O17 0.750000 0.250000 0.353598
O O18 0.000000 0.310743 0.359662
#
# Coordination Sequence:
#
# PCOD8172564 Si02
#       6
#     8   8   8   8   8   8
#     4  10  19  31  48  67  88 116 148 182 220 261
#     4   9  18  32  48  66  89 117 147 179 219 265
#     4   8  14  26  46  68  87 113 149 183 214 253
#     4   9  16  27  44  65  88 116 149 180 214 258
#     4   8  14  27  47  68  89 115 148 182 216 257
#     4   9  17  29  46  67  90 117 147 180 218 259
#
# _framework density 17.457072
#
# number of rings (size 3 to 8) (size 9 to 14) (size 15 to 20)
#    0.000    3.167    0.000    3.000    0.000    2.000 
#    0.000    2.500    0.000    6.500    0.000    0.000 
#    0.000    0.000    0.000    0.000    0.000    0.000 
#
# Total GULP energy -297337.914447 kJ/mol
# GULP energy per Si atom -12389.079769 kJ/mol
# Density = 1.741734 g / cm^3
# Si number density = 17.457072 Si / 1000 Ang^3
#
#
#
# Elastic Constant Matrix: (Units=GPa)
#
#
# Indices 1 2 3 4 5 6 
#
# 1 43.0183 20.8484 40.8942 0.0000 0.0000 0.0000
# 2 20.8484 59.5444 67.0338 0.0000 0.0000 0.0000
# 3 40.8942 67.0338 193.0168 0.0000 0.0000 0.0000
# 4 0.0000 0.0000 0.0000 33.3035 0.0000 0.0000
# 5 0.0000 0.0000 0.0000 0.0000 25.9241 0.0000
# 6 0.0000 0.0000 0.0000 0.0000 0.0000 14.1582
#
#
#
# Elastic Compliance Matrix: (Units=1/GPa)
#
#
# Indices 1 2 3 4 5 6 
#
# 1 0.030179 -0.005531 -0.004473 0.000000 0.000000 0.000000
# 2 -0.005531 0.028589 -0.008757 0.000000 0.000000 0.000000
# 3 -0.004473 -0.008757 0.009170 0.000000 0.000000 0.000000
# 4 0.000000 0.000000 0.000000 0.030027 0.000000 0.000000
# 5 0.000000 0.000000 0.000000 0.000000 0.038574 0.000000
# 6 0.000000 0.000000 0.000000 0.000000 0.000000 0.070631
#
#
# Mechanical properties :
#
#
# Convention : Reuss Voigt Hill
#
# Bulk Modulus (GPa) = 32.87767 61.45914 47.16840
# Shear Modulus (GPa) = 19.62095 25.79738 22.70916
#
# Velocity S-wave (km/s) = 3.35618 3.84834 3.61065
# Velocity P-wave (km/s) = 5.82176 7.41812 6.66789
#
# Compressibility (1/GPa) = 0.03041578
#
# Stress axis : x y z
#
# Youngs Moduli (GPa) = 33.13611 34.97825 109.05252
#
# Poissons Ratio (x) = 0.19346 0.48780
# Poissons Ratio (y) = 0.18327 0.95498
# Poissons Ratio (z) = 0.14822 0.30631
#
# Static dielectric constant tensor:
#      x y z
#    x 3.116750 0.000000 0.000000 
#    y 0.000000 3.011250 0.000000 
#    z 0.000000 0.000000 4.091850 
# 
# 
# High freq. dielectric constant tensor:
#      x y z
#    x 1.658610 0.000000 0.000000 
#    y 0.000000 1.627160 0.000000 
#    z 0.000000 0.000000 1.699530 
# 
# From -- ./inp_files/11387.got.cif
#   From: 2010.03.12/outbox.cif.g09.slc.cpg/sg35_6_cif.got.tgz:11387.got - 2010.04.14 02:02:04.
