data_PCOD8172083
_publ_section_title
;
Structure prediction by ZEFSAII (Michael W. Deem and Ramdas Pophale) SiO2 
 PCOD8172083
Probable space group: P N N 2
;
_chemical_formula_sum "Si O2"
_cell_formula_units_Z 18
_cell_length_a 5.351945
_cell_length_b 5.333486
_cell_length_c 24.309799
_cell_angle_alpha 90.000000
_cell_angle_beta 90.000000
_cell_angle_gamma 90.000000
_cell_volume 693.911634
_symmetry_space_group_name_H-M "P N N 2"
_symmetry_group_IT_number 34
_symmetry_cell_setting 'orthorhombic'
loop_
_space_group_symop_operation_xyz
x,y,z
-x,-y,z
1/2-x,1/2+y,1/2+z
1/2+x,1/2-y,1/2+z
loop_
_atom_site_type_symbol
_atom_site_label
_atom_site_fract_x
_atom_site_fract_y
_atom_site_fract_z
Si Si1 0.650487 0.760330 0.450940
Si Si2 0.750681 0.164462 0.187311
Si Si3 0.134054 0.250732 0.338308
Si Si4 0.000000 0.000000 0.768510
Si Si5 0.749939 0.156933 0.066665
O O1 0.500000 0.500000 0.451463
O O2 0.863117 0.738575 0.404736
O O3 0.759189 0.830183 0.511794
O O4 0.500000 0.000000 0.429882
O O5 0.724314 0.390991 0.230388
O O6 0.763674 0.293233 0.126032
O O7 0.500000 0.000000 0.191383
O O8 0.000000 0.000000 0.198986
O O9 0.403258 0.273314 0.308092
O O10 0.000000 0.500000 0.316902
O O11 0.000000 0.000000 0.316926
O O12 0.500000 0.000000 0.064225
O O13 0.000000 0.000000 0.060761
#
# Coordination Sequence:
#
# PCOD8172083 Si02
#       5
#     4   4   4   2   4
#     4  11  23  47  76 113 154 200 256 327 401 478
#     4  10  25  49  77 113 157 208 266 329 400 477
#     4  12  29  49  79 114 154 211 267 330 405 476
#     4  12  30  48  76 112 166 208 286 324 408 484
#     4   9  20  45  76 110 154 200 255 324 398 475
#
# _framework density 25.939902
#
# number of rings (size 3 to 8) (size 9 to 14) (size 15 to 20)
#    0.000    1.333    1.111    2.000    6.222    1.778 
#   22.000    0.000    0.000    0.000    0.000    0.000 
#    0.000    0.000    0.000    0.000    0.000    0.000 
#
# Total GULP energy -223008.603529 kJ/mol
# GULP energy per Si atom -12389.366863 kJ/mol
# Density = 2.588086 g / cm^3
# Si number density = 25.939902 Si / 1000 Ang^3
#
#
#
# Elastic Constant Matrix: (Units=GPa)
#
#
# Indices 1 2 3 4 5 6 
#
# 1 142.7873 43.8245 42.0819 0.0000 0.0000 0.0000
# 2 43.8245 145.6678 44.6230 0.0000 0.0000 0.0000
# 3 42.0819 44.6230 208.5079 0.0000 0.0000 0.0000
# 4 0.0000 0.0000 0.0000 17.5337 0.0000 0.0000
# 5 0.0000 0.0000 0.0000 0.0000 57.0074 0.0000
# 6 0.0000 0.0000 0.0000 0.0000 0.0000 41.8203
#
#
#
# Elastic Compliance Matrix: (Units=1/GPa)
#
#
# Indices 1 2 3 4 5 6 
#
# 1 0.007975 -0.002040 -0.001173 0.000000 0.000000 0.000000
# 2 -0.002040 0.007868 -0.001272 0.000000 0.000000 0.000000
# 3 -0.001173 -0.001272 0.005305 0.000000 0.000000 0.000000
# 4 0.000000 0.000000 0.000000 0.057033 0.000000 0.000000
# 5 0.000000 0.000000 0.000000 0.000000 0.017542 0.000000
# 6 0.000000 0.000000 0.000000 0.000000 0.000000 0.023912
#
#
# Mechanical properties :
#
#
# Convention : Reuss Voigt Hill
#
# Bulk Modulus (GPa) = 82.11423 84.22465 83.16944
# Shear Modulus (GPa) = 37.68893 47.70119 42.69506
#
# Velocity S-wave (km/s) = 3.81587 4.29291 4.06140
# Velocity P-wave (km/s) = 7.15114 7.55723 7.35699
#
# Compressibility (1/GPa) = 0.01217816
#
# Stress axis : x y z
#
# Youngs Moduli (GPa) = 125.38770 127.09060 188.50186
#
# Poissons Ratio (x) = 0.25927 0.22111
# Poissons Ratio (y) = 0.25580 0.23981
# Poissons Ratio (z) = 0.14708 0.16168
#
# Static dielectric constant tensor:
#      x y z
#    x 4.707400 0.000000 0.000000 
#    y 0.000000 4.261980 0.000000 
#    z 0.000000 0.000000 5.624110 
# 
# 
# High freq. dielectric constant tensor:
#      x y z
#    x 2.038670 0.000000 0.000000 
#    y 0.000000 2.006180 0.000000 
#    z 0.000000 0.000000 2.079810 
# 
# From -- ./inp_files/8211.got.cif
#   From: 2010.03.12/outbox.cif.g09.slc.cpg/sg34_5_cif.got.tgz:8211.got - 2010.04.14 01:56:33.
