data_PCOD8172407
_publ_section_title
;
Structure prediction by ZEFSAII (Michael W. Deem and Ramdas Pophale) SiO2 
 PCOD8172407
Probable space group: C M M 2
;
_chemical_formula_sum "Si O2"
_cell_formula_units_Z 56
_cell_length_a 27.743409
_cell_length_b 8.996516
_cell_length_c 15.437628
_cell_angle_alpha 90.000000
_cell_angle_beta 90.000000
_cell_angle_gamma 90.000000
_cell_volume 3853.139678
_symmetry_space_group_name_H-M "C M M 2"
_symmetry_group_IT_number 35
_symmetry_cell_setting 'orthorhombic'
loop_
_space_group_symop_operation_xyz
x,y,z
-x,-y,z
-x,y,z
x,-y,z
1/2+x,1/2+y,z
1/2-x,1/2-y,z
1/2-x,1/2+y,z
1/2+x,1/2-y,z
loop_
_atom_site_type_symbol
_atom_site_label
_atom_site_fract_x
_atom_site_fract_y
_atom_site_fract_z
Si Si1 0.801843 0.822932 0.101160
Si Si2 0.057393 0.334045 0.696977
Si Si3 0.056767 0.171266 0.868305
Si Si4 0.444766 0.675299 0.338833
Si Si5 0.057275 0.164694 0.531494
Si Si6 0.122050 0.668033 0.201022
Si Si7 0.118254 0.331687 0.011059
O O1 0.750000 0.750000 0.097329
O O2 0.828924 0.765324 0.188857
O O3 0.798201 0.000000 0.100578
O O4 0.832025 0.763883 0.017163
O O5 0.077470 0.500000 0.709217
O O6 0.075692 0.234595 0.776842
O O7 0.078335 0.270672 0.606492
O O8 0.000000 0.333169 0.693756
O O9 0.081052 0.258296 0.946172
O O10 0.000000 0.195120 0.877436
O O11 0.071380 0.000000 0.873282
O O12 0.500000 0.722217 0.322766
O O13 0.438573 0.500000 0.325741
O O14 0.428221 0.722164 0.435865
O O15 0.411795 0.761901 0.272504
O O16 0.000000 0.157223 0.536924
O O17 0.078394 0.000000 0.547054
O O18 0.135811 0.500000 0.228372
O O19 0.094552 0.667348 0.107693
O O20 0.129936 0.500000 0.980934
#
# Coordination Sequence:
#
# PCOD8172407 Si02
#       7
#     8   8   8   8   8   8   8
#     4  10  18  32  51  67  85 108 136 172 215 257
#     4   9  16  25  38  56  78 107 143 182 219 252
#     4  10  19  29  42  60  84 117 151 181 215 254
#     4   9  17  28  42  60  85 118 151 182 216 253
#     4   8  14  25  39  55  77 107 144 182 216 251
#     4   9  19  31  43  63  87 113 144 178 213 252
#     4   9  19  32  44  63  87 112 143 178 213 252
#
# _framework density 14.533602
#
# number of rings (size 3 to 8) (size 9 to 14) (size 15 to 20)
#    0.857    2.000    0.000    3.429    0.000    4.000 
#    0.000    4.286    0.000    0.000    0.000    0.000 
#    0.000    1.143    0.000    6.286    0.000    7.000 
#
# Total GULP energy -346928.036484 kJ/mol
# GULP energy per Si atom -12390.287017 kJ/mol
# Density = 1.450052 g / cm^3
# Si number density = 14.533602 Si / 1000 Ang^3
#
#
#
# Elastic Constant Matrix: (Units=GPa)
#
#
# Indices 1 2 3 4 5 6 
#
# 1 39.5622 40.6374 32.4387 0.0000 0.0000 0.0000
# 2 40.6374 122.8622 55.0702 0.0000 0.0000 0.0000
# 3 32.4387 55.0702 93.6367 0.0000 0.0000 0.0000
# 4 0.0000 0.0000 0.0000 27.2751 0.0000 0.0000
# 5 0.0000 0.0000 0.0000 0.0000 -1.4396 0.0000
# 6 0.0000 0.0000 0.0000 0.0000 0.0000 22.4940
#
#
#
# Elastic Compliance Matrix: (Units=1/GPa)
#
#
# Indices 1 2 3 4 5 6 
#
# 1 0.043128 -0.010277 -0.008897 0.000000 0.000000 0.000000
# 2 -0.010277 0.013502 -0.004381 0.000000 0.000000 0.000000
# 3 -0.008897 -0.004381 0.016338 0.000000 0.000000 0.000000
# 4 0.000000 0.000000 0.000000 0.036664 0.000000 0.000000
# 5 0.000000 0.000000 0.000000 0.000000 -0.694658 0.000000
# 6 0.000000 0.000000 0.000000 0.000000 0.000000 0.044456
#
#
# Mechanical properties :
#
#
# Convention : Reuss Voigt Hill
#
# Bulk Modulus (GPa) = 38.67098 56.92818 47.79958
# Shear Modulus (GPa) = -10.31264 18.19354 3.94045
#
# Velocity S-wave (km/s) = -2.66667 3.54195 1.64838
# Velocity P-wave (km/s) = 4.14539 7.48213 6.04841
#
# Compressibility (1/GPa) = 0.02585919
#
# Stress axis : x y z
#
# Youngs Moduli (GPa) = 23.18696 74.06387 61.20729
#
# Poissons Ratio (x) = 0.76116 0.54454
# Poissons Ratio (y) = 0.23829 0.26812
# Poissons Ratio (z) = 0.20628 0.32444
#
# Static dielectric constant tensor:
#      x y z
#    x 2.407130 0.000000 0.000000 
#    y 0.000000 3.016800 0.000000 
#    z 0.000000 0.000000 2.882670 
# 
# 
# High freq. dielectric constant tensor:
#      x y z
#    x 1.500020 0.000000 0.000000 
#    y 0.000000 1.573560 0.000000 
#    z 0.000000 0.000000 1.552710 
# 
# From -- ./inp_files/17693.got.cif
#   From: 2010.03.12/outbox.cif.g09.slc.cpg/sg35_9_cif.got.tgz:17693.got - 2010.04.14 02:02:04.
