data_PCOD8172782
_publ_section_title
;
Structure prediction by ZEFSAII (Michael W. Deem and Ramdas Pophale) SiO2 
 PCOD8172782
Probable space group: C M M 2
;
_chemical_formula_sum "Si O2"
_cell_formula_units_Z 48
_cell_length_a 18.768868
_cell_length_b 7.879571
_cell_length_c 17.246990
_cell_angle_alpha 90.000000
_cell_angle_beta 90.000000
_cell_angle_gamma 90.000000
_cell_volume 2550.668182
_symmetry_space_group_name_H-M "C M M 2"
_symmetry_group_IT_number 35
_symmetry_cell_setting 'orthorhombic'
loop_
_space_group_symop_operation_xyz
x,y,z
-x,-y,z
-x,y,z
x,-y,z
1/2+x,1/2+y,z
1/2-x,1/2-y,z
1/2-x,1/2+y,z
1/2+x,1/2-y,z
loop_
_atom_site_type_symbol
_atom_site_label
_atom_site_fract_x
_atom_site_fract_y
_atom_site_fract_z
Si Si1 0.420411 0.694879 0.840420
Si Si2 0.078928 0.299336 0.552008
Si Si3 0.914839 0.000000 0.103027
Si Si4 0.915447 0.686713 0.004152
Si Si5 0.914979 0.000000 0.278241
Si Si6 0.831400 0.699544 0.695289
Si Si7 0.915109 0.689644 0.380218
O O1 0.500000 0.761391 0.818443
O O2 0.424517 0.500000 0.864667
O O3 0.367691 0.717247 0.769322
O O4 0.389152 0.791741 0.915531
O O5 0.073424 0.500000 0.558975
O O6 0.131469 0.226324 0.617719
O O7 0.109175 0.253433 0.466660
O O8 0.000000 0.220189 0.564376
O O9 0.884053 0.168195 0.060599
O O10 0.885995 0.000000 0.190752
O O11 0.000000 0.000000 0.102531
O O12 0.891462 0.500000 0.033969
O O13 0.000000 0.703972 0.004089
O O14 0.885589 0.829620 0.320091
O O15 0.000000 0.000000 0.280877
O O16 0.841098 0.500000 0.701198
O O17 0.750000 0.750000 0.692781
O O18 0.885953 0.500000 0.359295
O O19 0.000000 0.683509 0.378865
#
# Coordination Sequence:
#
# PCOD8172782 Si02
#       7
#     8   8   4   8   4   8   8
#     4  10  19  33  52  73  98 130 172 217 254 300
#     4   8  15  30  51  69  90 128 173 211 247 296
#     4   9  16  26  38  61  99 129 157 200 244 297
#     4   9  16  27  44  65  91 128 167 202 244 294
#     4   9  16  24  38  63  95 129 157 194 250 297
#     4  11  22  35  49  70 102 136 167 213 260 305
#     4   8  14  26  42  62  89 122 162 202 240 292
#
# _framework density 18.818598000000001
#
# number of rings (size 3 to 8) (size 9 to 14) (size 15 to 20)
#    0.000    2.833    0.833    2.500    0.000    2.333 
#    3.000    3.333    0.000    0.000    0.000    0.000 
#    0.000    1.333    0.667    0.000    0.000    0.000 
#
# Total GULP energy -297472.990257 kJ/mol
# GULP energy per Si atom -12394.707927 kJ/mol
# Density = 1.877577 g / cm^3
# Si number density = 18.818598 Si / 1000 Ang^3
#
#
#
# Elastic Constant Matrix: (Units=GPa)
#
#
# Indices 1 2 3 4 5 6 
#
# 1 50.3385 14.2612 38.3396 0.0000 0.0000 0.0000
# 2 14.2612 114.5055 70.0825 0.0000 0.0000 0.0000
# 3 38.3396 70.0825 164.9646 0.0000 0.0000 0.0000
# 4 0.0000 0.0000 0.0000 28.2363 0.0000 0.0000
# 5 0.0000 0.0000 0.0000 0.0000 0.7029 0.0000
# 6 0.0000 0.0000 0.0000 0.0000 0.0000 10.1944
#
#
#
# Elastic Compliance Matrix: (Units=1/GPa)
#
#
# Indices 1 2 3 4 5 6 
#
# 1 0.024167 0.000578 -0.005862 0.000000 0.000000 0.000000
# 2 0.000578 0.011816 -0.005154 0.000000 0.000000 0.000000
# 3 -0.005862 -0.005154 0.009614 0.000000 0.000000 0.000000
# 4 0.000000 0.000000 0.000000 0.035415 0.000000 0.000000
# 5 0.000000 0.000000 0.000000 0.000000 1.422590 0.000000
# 6 0.000000 0.000000 0.000000 0.000000 0.000000 0.098093
#
#
# Mechanical properties :
#
#
# Convention : Reuss Voigt Hill
#
# Bulk Modulus (GPa) = 40.45320 63.90834 52.18077
# Shear Modulus (GPa) = 3.06596 21.63509 12.35053
#
# Velocity S-wave (km/s) = 1.27779 3.39435 2.56460
# Velocity P-wave (km/s) = 4.87033 7.02823 6.04633
#
# Compressibility (1/GPa) = 0.02471992
#
# Stress axis : x y z
#
# Youngs Moduli (GPa) = 41.37948 84.63296 104.01543
#
# Poissons Ratio (x) = -0.04892 0.60976
# Poissons Ratio (y) = -0.02392 0.53610
# Poissons Ratio (z) = 0.24257 0.43620
#
# Static dielectric constant tensor:
#      x y z
#    x 2.884590 0.000000 0.000000 
#    y 0.000000 3.615260 0.000000 
#    z 0.000000 0.000000 3.642860 
# 
# 
# High freq. dielectric constant tensor:
#      x y z
#    x 1.657080 0.000000 0.000000 
#    y 0.000000 1.737420 0.000000 
#    z 0.000000 0.000000 1.736120 
# 
# From -- ./inp_files/17082.got.cif
#   From: 2010.03.12/outbox.cif.g09.slc.cpg/sg35_9_cif.got.tgz:17082.got - 2010.04.14 02:02:04.
