data_PCOD8172102
_publ_section_title
;
Structure prediction by ZEFSAII (Michael W. Deem and Ramdas Pophale) SiO2 
 PCOD8172102
Probable space group: P N N 2
;
_chemical_formula_sum "Si O2"
_cell_formula_units_Z 24
_cell_length_a 9.336871
_cell_length_b 24.581775
_cell_length_c 4.981865
_cell_angle_alpha 90.000000
_cell_angle_beta 90.000000
_cell_angle_gamma 90.000000
_cell_volume 1143.422022
_symmetry_space_group_name_H-M "P N N 2"
_symmetry_group_IT_number 34
_symmetry_cell_setting 'orthorhombic'
loop_
_space_group_symop_operation_xyz
x,y,z
-x,-y,z
1/2-x,1/2+y,1/2+z
1/2+x,1/2-y,1/2+z
loop_
_atom_site_type_symbol
_atom_site_label
_atom_site_fract_x
_atom_site_fract_y
_atom_site_fract_z
Si Si1 0.139390 0.531391 0.077890
Si Si2 0.964337 0.107951 0.969564
Si Si3 0.113254 0.953661 0.454958
Si Si4 0.179088 0.722902 0.589105
Si Si5 0.289667 0.097472 0.074710
Si Si6 0.017783 0.767285 0.084819
O O1 0.126616 0.558367 0.370123
O O2 0.000000 0.500000 0.990344
O O3 0.251226 0.482654 0.078635
O O4 0.170474 0.580636 0.875130
O O5 0.855844 0.077338 0.173781
O O6 0.946537 0.171989 0.994641
O O7 0.121504 0.087827 0.047436
O O8 0.938226 0.092172 0.662935
O O9 0.000000 0.000000 0.398169
O O10 0.170500 0.659582 0.514931
O O11 0.087902 0.756894 0.374144
O O12 0.345574 0.742830 0.598253
O O13 0.099222 0.728830 0.873724
#
# Coordination Sequence:
#
# PCOD8172102 Si02
#       6
#     4   4   4   4   4   4
#     4  12  25  41  59  94 130 163 205 256 313 380
#     4  11  22  40  67  94 117 166 214 260 304 370
#     4  12  21  39  67  90 122 159 214 256 299 368
#     4  11  24  45  70  95 130 172 215 272 323 387
#     4  11  22  43  66  86 127 172 205 243 326 384
#     4  11  24  45  67  98 132 166 219 270 325 386
#
# _framework density 20.989625
#
# number of rings (size 3 to 8) (size 9 to 14) (size 15 to 20)
#    0.000    0.667    3.333    5.000    0.000    5.333 
#   18.000    0.000    0.000    0.000    0.000    0.000 
#    0.000    0.000    0.000    0.000    0.000    0.000 
#
# Total GULP energy -297658.615193 kJ/mol
# GULP energy per Si atom -12402.442300 kJ/mol
# Density = 2.094185 g / cm^3
# Si number density = 20.989625 Si / 1000 Ang^3
#
#
#
# Elastic Constant Matrix: (Units=GPa)
#
#
# Indices 1 2 3 4 5 6 
#
# 1 97.0746 32.5245 5.4457 0.0000 0.0000 0.0000
# 2 32.5245 79.8754 11.8411 0.0000 0.0000 0.0000
# 3 5.4457 11.8411 86.7464 0.0000 0.0000 0.0000
# 4 0.0000 0.0000 0.0000 44.3280 0.0000 0.0000
# 5 0.0000 0.0000 0.0000 0.0000 25.1814 0.0000
# 6 0.0000 0.0000 0.0000 0.0000 0.0000 27.8177
#
#
#
# Elastic Compliance Matrix: (Units=1/GPa)
#
#
# Indices 1 2 3 4 5 6 
#
# 1 0.011929 -0.004845 -0.000088 0.000000 0.000000 0.000000
# 2 -0.004845 0.014745 -0.001709 0.000000 0.000000 0.000000
# 3 -0.000088 -0.001709 0.011767 0.000000 0.000000 0.000000
# 4 0.000000 0.000000 0.000000 0.022559 0.000000 0.000000
# 5 0.000000 0.000000 0.000000 0.000000 0.039712 0.000000
# 6 0.000000 0.000000 0.000000 0.000000 0.000000 0.035948
#
#
# Mechanical properties :
#
#
# Convention : Reuss Voigt Hill
#
# Bulk Modulus (GPa) = 39.74591 40.36877 40.05734
# Shear Modulus (GPa) = 31.57982 33.72443 32.65213
#
# Velocity S-wave (km/s) = 3.88305 4.01274 3.94843
# Velocity P-wave (km/s) = 6.25150 6.38310 6.31764
#
# Compressibility (1/GPa) = 0.02515982
#
# Stress axis : x y z
#
# Youngs Moduli (GPa) = 83.82634 67.81753 84.98639
#
# Poissons Ratio (x) = 0.32855 0.00745
# Poissons Ratio (y) = 0.40610 0.14521
# Poissons Ratio (z) = 0.00734 0.11588
#
# Static dielectric constant tensor:
#      x y z
#    x 3.759270 0.000000 0.000000 
#    y 0.000000 3.782350 0.000000 
#    z 0.000000 0.000000 3.877990 
# 
# 
# High freq. dielectric constant tensor:
#      x y z
#    x 1.812090 0.000000 0.000000 
#    y 0.000000 1.834130 0.000000 
#    z 0.000000 0.000000 1.838170 
# 
# From -- ./inp_files/486.got.cif
#   From: 2010.03.12/outbox.cif.g09.slc.cpg/sg34_1_cif.got.tgz:486.got - 2010.04.14 01:56:33.
