data_PCOD8172372
_publ_section_title
;
Structure prediction by ZEFSAII (Michael W. Deem and Ramdas Pophale) SiO2 
 PCOD8172372
Probable space group: C M M 2
;
_chemical_formula_sum "Si O2"
_cell_formula_units_Z 40
_cell_length_a 8.842659
_cell_length_b 28.041722
_cell_length_c 10.221834
_cell_angle_alpha 90.000000
_cell_angle_beta 90.000000
_cell_angle_gamma 90.000000
_cell_volume 2534.640564
_symmetry_space_group_name_H-M "C M M 2"
_symmetry_group_IT_number 35
_symmetry_cell_setting 'orthorhombic'
loop_
_space_group_symop_operation_xyz
x,y,z
-x,-y,z
-x,y,z
x,-y,z
1/2+x,1/2+y,z
1/2-x,1/2-y,z
1/2-x,1/2+y,z
1/2+x,1/2-y,z
loop_
_atom_site_type_symbol
_atom_site_label
_atom_site_fract_x
_atom_site_fract_y
_atom_site_fract_z
Si Si1 0.677619 0.054705 0.666610
Si Si2 0.671236 0.378337 0.163302
Si Si3 0.679347 0.553961 0.935013
Si Si4 0.178660 0.698363 0.310880
Si Si5 0.171158 0.118300 0.450109
O O1 0.500000 0.060973 0.677991
O O2 0.751708 0.073794 0.800364
O O3 0.736828 0.084939 0.546078
O O4 0.724994 0.000000 0.642793
O O5 0.500000 0.363091 0.126610
O O6 0.773320 0.330475 0.178290
O O7 0.671310 0.405501 0.304486
O O8 0.739778 0.413094 0.053203
O O9 0.500000 0.555802 0.925750
O O10 0.735830 0.500000 0.960834
O O11 0.250000 0.750000 0.305364
O O12 0.246957 0.670085 0.437086
O O13 0.000000 0.702036 0.322506
O O14 0.000000 0.125224 0.501660
#
# Coordination Sequence:
#
# PCOD8172372 Si02
#       5
#     8   8   8   8   8
#     4  10  20  32  46  69 101 134 166 199 238 285
#     4   8  17  31  48  73  98 124 162 202 239 284
#     4   9  17  31  50  70  96 132 167 197 234 283
#     4  10  18  31  51  73  98 125 156 197 245 292
#     4   9  18  32  50  73  96 125 163 201 241 285
#
# _framework density 15.781332000000001
#
# number of rings (size 3 to 8) (size 9 to 14) (size 15 to 20)
#    1.200    1.600    0.000    2.400    0.000    2.800 
#    0.000    2.000    0.000    1.200    0.000    2.800 
#    0.000    0.000    0.000    0.000    0.000    0.000 
#
# Total GULP energy -247811.485887 kJ/mol
# GULP energy per Si atom -12390.574294 kJ/mol
# Density = 1.574541 g / cm^3
# Si number density = 15.781332 Si / 1000 Ang^3
#
#
#
# Elastic Constant Matrix: (Units=GPa)
#
#
# Indices 1 2 3 4 5 6 
#
# 1 52.3295 35.1597 21.8136 0.0000 0.0000 0.0000
# 2 35.1597 97.0591 57.7078 0.0000 0.0000 0.0000
# 3 21.8136 57.7078 86.8944 0.0000 0.0000 0.0000
# 4 0.0000 0.0000 0.0000 3.5915 0.0000 0.0000
# 5 0.0000 0.0000 0.0000 0.0000 23.8234 0.0000
# 6 0.0000 0.0000 0.0000 0.0000 0.0000 21.8954
#
#
#
# Elastic Compliance Matrix: (Units=1/GPa)
#
#
# Indices 1 2 3 4 5 6 
#
# 1 0.025267 -0.008893 -0.000437 0.000000 0.000000 0.000000
# 2 -0.008893 0.020156 -0.011153 0.000000 0.000000 0.000000
# 3 -0.000437 -0.011153 0.019025 0.000000 0.000000 0.000000
# 4 0.000000 0.000000 0.000000 0.278439 0.000000 0.000000
# 5 0.000000 0.000000 0.000000 0.000000 0.041976 0.000000
# 6 0.000000 0.000000 0.000000 0.000000 0.000000 0.045672
#
#
# Mechanical properties :
#
#
# Convention : Reuss Voigt Hill
#
# Bulk Modulus (GPa) = 42.58730 51.73834 47.16282
# Shear Modulus (GPa) = 10.43127 17.96883 14.20005
#
# Velocity S-wave (km/s) = 2.57376 3.37800 3.00292
# Velocity P-wave (km/s) = 5.98972 6.93326 6.47869
#
# Compressibility (1/GPa) = 0.02348118
#
# Stress axis : x y z
#
# Youngs Moduli (GPa) = 39.57720 49.61314 52.56263
#
# Poissons Ratio (x) = 0.44123 0.02296
# Poissons Ratio (y) = 0.35197 0.58625
# Poissons Ratio (z) = 0.01729 0.55335
#
# Static dielectric constant tensor:
#      x y z
#    x 3.017080 0.000000 0.000000 
#    y 0.000000 2.886940 0.000000 
#    z 0.000000 0.000000 2.909970 
# 
# 
# High freq. dielectric constant tensor:
#      x y z
#    x 1.615290 0.000000 0.000000 
#    y 0.000000 1.587050 0.000000 
#    z 0.000000 0.000000 1.590130 
# 
# From -- ./inp_files/10345.got.cif
#   From: 2010.03.12/outbox.cif.g09.slc.cpg/sg35_6_cif.got.tgz:10345.got - 2010.04.14 02:02:04.
