data_PCOD8172697
_publ_section_title
;
Structure prediction by ZEFSAII (Michael W. Deem and Ramdas Pophale) SiO2 
 PCOD8172697
Probable space group: C M M 2
;
_chemical_formula_sum "Si O2"
_cell_formula_units_Z 48
_cell_length_a 8.749351
_cell_length_b 18.692417
_cell_length_c 15.541522
_cell_angle_alpha 90.000000
_cell_angle_beta 90.000000
_cell_angle_gamma 90.000000
_cell_volume 2541.761798
_symmetry_space_group_name_H-M "C M M 2"
_symmetry_group_IT_number 35
_symmetry_cell_setting 'orthorhombic'
loop_
_space_group_symop_operation_xyz
x,y,z
-x,-y,z
-x,y,z
x,-y,z
1/2+x,1/2+y,z
1/2-x,1/2-y,z
1/2-x,1/2+y,z
1/2+x,1/2-y,z
loop_
_atom_site_type_symbol
_atom_site_label
_atom_site_fract_x
_atom_site_fract_y
_atom_site_fract_z
Si Si1 0.181744 0.327035 0.735240
Si Si2 0.818632 0.080389 0.074809
Si Si3 0.319220 0.418999 0.397848
Si Si4 0.681727 0.671532 0.236215
Si Si5 0.318338 0.327486 0.913227
Si Si6 0.820997 0.418305 0.573562
O O1 0.250000 0.250000 0.715759
O O2 0.251406 0.357740 0.823765
O O3 0.236799 0.376819 0.657420
O O4 0.000000 0.323168 0.743517
O O5 0.756659 0.126150 0.155151
O O6 0.000000 0.076895 0.079088
O O7 0.750656 0.000000 0.078441
O O8 0.764953 0.117957 0.986956
O O9 0.500000 0.419214 0.399031
O O10 0.257405 0.500000 0.383620
O O11 0.258320 0.368502 0.321660
O O12 0.259091 0.387346 0.488108
O O13 0.500000 0.677058 0.234952
O O14 0.750000 0.750000 0.232199
O O15 0.500000 0.320892 0.906977
O O16 0.250000 0.250000 0.934616
O O17 0.772621 0.500000 0.587403
O O18 0.000000 0.408815 0.560827
#
# Coordination Sequence:
#
# PCOD8172697 Si02
#       6
#     8   8   8   8   8   8
#     4  10  20  34  52  73 100 133 167 204 247 296
#     4   9  18  33  53  76 101 131 167 205 245 291
#     4   9  18  33  53  75  98 129 169 208 245 288
#     4  10  20  34  53  76 103 133 165 203 246 294
#     4  10  19  32  52  75 100 131 166 205 248 293
#     4   9  19  35  53  73  99 132 166 203 251 299
#
# _framework density 18.884539
#
# number of rings (size 3 to 8) (size 9 to 14) (size 15 to 20)
#    0.000    2.500    0.000    3.000    0.000    5.333 
#    0.000    4.167    0.000    5.000    0.000    0.000 
#    0.000    0.000    0.000    0.000    0.000    0.000 
#
# Total GULP energy -297606.041717 kJ/mol
# GULP energy per Si atom -12400.251738 kJ/mol
# Density = 1.884156 g / cm^3
# Si number density = 18.884539 Si / 1000 Ang^3
#
#
#
# Elastic Constant Matrix: (Units=GPa)
#
#
# Indices 1 2 3 4 5 6 
#
# 1 40.3401 27.3384 39.7443 0.0000 0.0000 0.0000
# 2 27.3384 130.8064 111.7494 0.0000 0.0000 0.0000
# 3 39.7443 111.7494 206.7243 0.0000 0.0000 0.0000
# 4 0.0000 0.0000 0.0000 43.1588 0.0000 0.0000
# 5 0.0000 0.0000 0.0000 0.0000 26.9348 0.0000
# 6 0.0000 0.0000 0.0000 0.0000 0.0000 24.1972
#
#
#
# Elastic Compliance Matrix: (Units=1/GPa)
#
#
# Indices 1 2 3 4 5 6 
#
# 1 0.031044 -0.002581 -0.004573 0.000000 0.000000 0.000000
# 2 -0.002581 0.014420 -0.007299 0.000000 0.000000 0.000000
# 3 -0.004573 -0.007299 0.009662 0.000000 0.000000 0.000000
# 4 0.000000 0.000000 0.000000 0.023170 0.000000 0.000000
# 5 0.000000 0.000000 0.000000 0.000000 0.037127 0.000000
# 6 0.000000 0.000000 0.000000 0.000000 0.000000 0.041327
#
#
# Mechanical properties :
#
#
# Convention : Reuss Voigt Hill
#
# Bulk Modulus (GPa) = 38.13923 81.72613 59.93268
# Shear Modulus (GPa) = 25.72073 32.12739 28.92406
#
# Velocity S-wave (km/s) = 3.69453 4.12910 3.91785
# Velocity P-wave (km/s) = 6.19994 8.13039 7.22989
#
# Compressibility (1/GPa) = 0.02621972
#
# Stress axis : x y z
#
# Youngs Moduli (GPa) = 32.21223 69.34983 103.49863
#
# Poissons Ratio (x) = 0.17902 0.47330
# Poissons Ratio (y) = 0.08315 0.75539
# Poissons Ratio (z) = 0.14731 0.50615
#
# Static dielectric constant tensor:
#      x y z
#    x 3.236450 0.000000 0.000000 
#    y 0.000000 3.530920 0.000000 
#    z 0.000000 0.000000 3.800080 
# 
# 
# High freq. dielectric constant tensor:
#      x y z
#    x 1.713350 0.000000 0.000000 
#    y 0.000000 1.731010 0.000000 
#    z 0.000000 0.000000 1.751940 
# 
# From -- ./inp_files/15162.got.cif
#   From: 2010.03.12/outbox.cif.g09.slc.cpg/sg35_8_cif.got.tgz:15162.got - 2010.04.14 02:02:04.
