data_PCOD8172309
_publ_section_title
;
Structure prediction by ZEFSAII (Michael W. Deem and Ramdas Pophale) SiO2 
 PCOD8172309
Probable space group: C M M 2
;
_chemical_formula_sum "Si O2"
_cell_formula_units_Z 64
_cell_length_a 25.901871
_cell_length_b 16.715989
_cell_length_c 10.116752
_cell_angle_alpha 90.000000
_cell_angle_beta 90.000000
_cell_angle_gamma 90.000000
_cell_volume 4380.304650
_symmetry_space_group_name_H-M "C M M 2"
_symmetry_group_IT_number 35
_symmetry_cell_setting 'orthorhombic'
loop_
_space_group_symop_operation_xyz
x,y,z
-x,-y,z
-x,y,z
x,-y,z
1/2+x,1/2+y,z
1/2-x,1/2-y,z
1/2-x,1/2+y,z
1/2+x,1/2-y,z
loop_
_atom_site_type_symbol
_atom_site_label
_atom_site_fract_x
_atom_site_fract_y
_atom_site_fract_z
Si Si1 0.624268 0.905927 0.321460
Si Si2 0.220449 0.906995 0.649768
Si Si3 0.650770 0.733198 0.647631
Si Si4 0.280189 0.822068 0.436206
Si Si5 0.710396 0.181878 0.857852
Si Si6 0.443701 0.906012 0.807454
Si Si7 0.560404 0.821409 0.542848
Si Si8 0.864128 0.406770 0.022745
O O1 0.681285 0.871003 0.343711
O O2 0.581314 0.859256 0.406681
O O3 0.622403 0.000000 0.356021
O O4 0.613117 0.889432 0.167708
O O5 0.165833 0.859983 0.664861
O O6 0.243193 0.887628 0.504550
O O7 0.260995 0.881599 0.763011
O O8 0.208190 0.000000 0.662638
O O9 0.691065 0.774160 0.550358
O O10 0.660340 0.778927 0.785888
O O11 0.592670 0.742449 0.588440
O O12 0.250000 0.750000 0.357671
O O13 0.750000 0.250000 0.903568
O O14 0.689658 0.137984 0.989894
O O15 0.500000 0.868326 0.836207
O O16 0.427476 0.885172 0.657868
O O17 0.405450 0.872908 0.918073
O O18 0.445756 0.000000 0.817946
O O19 0.500000 0.800054 0.526519
O O20 0.853192 0.500000 0.004209
#
# Coordination Sequence:
#
# PCOD8172309 Si02
#       8
#     8   8   8   8   8   8   8   8
#     4  10  20  29  39  60  88 114 141 177 215 247
#     4   9  15  24  43  65  85 110 136 171 213 251
#     4   8  15  27  41  63  85 103 137 179 208 244
#     4   8  15  27  41  58  82 111 145 173 200 245
#     4   9  16  27  42  61  85 112 146 175 203 247
#     4   9  17  28  43  60  76 103 143 177 204 242
#     4  10  18  30  47  61  78 109 144 177 209 250
#     4  10  19  29  40  58  87 116 141 173 214 250
#
# _framework density 14.610856
#
# number of rings (size 3 to 8) (size 9 to 14) (size 15 to 20)
#    0.000    2.875    1.250    2.625    0.000    1.750 
#    0.000    1.250    0.000    0.375    0.000    0.000 
#    0.000    0.000    0.000    0.000    2.000    0.000 
#
# Total GULP energy -396482.699350 kJ/mol
# GULP energy per Si atom -12390.084355 kJ/mol
# Density = 1.457760 g / cm^3
# Si number density = 14.610856 Si / 1000 Ang^3
#
#
#
# Elastic Constant Matrix: (Units=GPa)
#
#
# Indices 1 2 3 4 5 6 
#
# 1 91.4971 43.3279 39.9957 0.0000 0.0000 0.0000
# 2 43.3279 81.2677 29.2531 0.0000 0.0000 0.0000
# 3 39.9957 29.2531 75.0137 0.0000 0.0000 0.0000
# 4 0.0000 0.0000 0.0000 17.0402 0.0000 0.0000
# 5 0.0000 0.0000 0.0000 0.0000 14.8603 0.0000
# 6 0.0000 0.0000 0.0000 0.0000 0.0000 17.0762
#
#
#
# Elastic Compliance Matrix: (Units=1/GPa)
#
#
# Indices 1 2 3 4 5 6 
#
# 1 0.016902 -0.006709 -0.006395 0.000000 0.000000 0.000000
# 2 -0.006709 0.016978 -0.003044 0.000000 0.000000 0.000000
# 3 -0.006395 -0.003044 0.017928 0.000000 0.000000 0.000000
# 4 0.000000 0.000000 0.000000 0.058685 0.000000 0.000000
# 5 0.000000 0.000000 0.000000 0.000000 0.067293 0.000000
# 6 0.000000 0.000000 0.000000 0.000000 0.000000 0.058561
#
#
# Mechanical properties :
#
#
# Convention : Reuss Voigt Hill
#
# Bulk Modulus (GPa) = 51.25326 52.54800 51.90063
# Shear Modulus (GPa) = 18.17212 18.80878 18.49045
#
# Velocity S-wave (km/s) = 3.53050 3.59181 3.56129
# Velocity P-wave (km/s) = 7.19543 7.29689 7.24634
#
# Compressibility (1/GPa) = 0.01951096
#
# Stress axis : x y z
#
# Youngs Moduli (GPa) = 59.16454 58.90117 55.77974
#
# Poissons Ratio (x) = 0.39518 0.35673
# Poissons Ratio (y) = 0.39695 0.16977
# Poissons Ratio (z) = 0.37838 0.17927
#
# Static dielectric constant tensor:
#      x y z
#    x 2.984490 0.000000 0.000000 
#    y 0.000000 2.751370 0.000000 
#    z 0.000000 0.000000 2.737350 
# 
# 
# High freq. dielectric constant tensor:
#      x y z
#    x 1.549710 0.000000 0.000000 
#    y 0.000000 1.536970 0.000000 
#    z 0.000000 0.000000 1.546720 
# 
# From -- ./inp_files/8882.got.cif
#   From: 2010.03.12/outbox.cif.g09.slc.cpg/sg35_5_cif.got.tgz:8882.got - 2010.04.14 02:02:04.
