data_PCOD8172788
_publ_section_title
;
Structure prediction by ZEFSAII (Michael W. Deem and Ramdas Pophale) SiO2 
 PCOD8172788
Probable space group: C M M 2
;
_chemical_formula_sum "Si O2"
_cell_formula_units_Z 64
_cell_length_a 15.914233
_cell_length_b 15.160041
_cell_length_c 13.862838
_cell_angle_alpha 90.000000
_cell_angle_beta 90.000000
_cell_angle_gamma 90.000000
_cell_volume 3344.554184
_symmetry_space_group_name_H-M "C M M 2"
_symmetry_group_IT_number 35
_symmetry_cell_setting 'orthorhombic'
loop_
_space_group_symop_operation_xyz
x,y,z
-x,-y,z
-x,y,z
x,-y,z
1/2+x,1/2+y,z
1/2-x,1/2-y,z
1/2-x,1/2+y,z
1/2+x,1/2-y,z
loop_
_atom_site_type_symbol
_atom_site_label
_atom_site_fract_x
_atom_site_fract_y
_atom_site_fract_z
Si Si1 0.287477 0.661643 0.845280
Si Si2 0.161176 0.228295 0.162960
Si Si3 0.238430 0.155329 0.357223
Si Si4 0.592656 0.273445 0.678729
Si Si5 0.903726 0.600449 0.257783
Si Si6 0.323766 0.096633 0.685738
Si Si7 0.905898 0.901584 0.009078
Si Si8 0.169134 0.903538 0.546396
O O1 0.250000 0.750000 0.894393
O O2 0.346443 0.689301 0.758279
O O3 0.214572 0.604291 0.794500
O O4 0.338133 0.607364 0.924359
O O5 0.250000 0.250000 0.111224
O O6 0.183902 0.173350 0.260184
O O7 0.111796 0.320852 0.180367
O O8 0.105535 0.167733 0.094775
O O9 0.250000 0.250000 0.408762
O O10 0.330169 0.111444 0.337742
O O11 0.185828 0.096690 0.431448
O O12 0.500000 0.289152 0.717111
O O13 0.605864 0.169281 0.664254
O O14 0.605089 0.326935 0.578564
O O15 0.895030 0.500000 0.214488
O O16 0.000000 0.611346 0.298251
O O17 0.255430 0.110751 0.602948
O O18 0.365242 0.000000 0.677908
O O19 0.000000 0.887982 0.967352
O O20 0.895473 0.000000 0.051742
O O21 0.131101 0.000000 0.571432
#
# Coordination Sequence:
#
# PCOD8172788 Si02
#       8
#     8   8   8   8   8   8   8   8
#     4   9  18  35  56  76 100 130 168 209 254 305
#     4   9  20  35  52  74 103 139 174 210 252 306
#     4   9  18  33  52  73 101 138 174 209 253 305
#     4  10  20  34  53  77 105 132 162 207 254 298
#     4   9  17  31  53  78 101 129 169 217 264 303
#     4   9  18  33  54  77 101 132 166 203 249 302
#     4  11  22  34  51  76 105 136 171 213 257 301
#     4  10  19  33  53  74 100 135 174 210 244 292
#
# _framework density 19.135584999999999
#
# number of rings (size 3 to 8) (size 9 to 14) (size 15 to 20)
#    0.000    2.750    0.000    3.750    0.000    3.500 
#    0.000    6.250    0.000    1.500    0.000    0.000 
#    0.000    0.000    0.000    0.000    0.000    0.125 
#
# Total GULP energy -396449.138336 kJ/mol
# GULP energy per Si atom -12389.035573 kJ/mol
# Density = 1.909203 g / cm^3
# Si number density = 19.135585 Si / 1000 Ang^3
#
#
#
# Elastic Constant Matrix: (Units=GPa)
#
#
# Indices 1 2 3 4 5 6 
#
# 1 77.7711 45.4235 18.8110 0.0000 0.0000 0.0000
# 2 45.4235 131.0659 39.0518 0.0000 0.0000 0.0000
# 3 18.8110 39.0518 65.2355 0.0000 0.0000 0.0000
# 4 0.0000 0.0000 0.0000 21.7842 0.0000 0.0000
# 5 0.0000 0.0000 0.0000 0.0000 2.1513 0.0000
# 6 0.0000 0.0000 0.0000 0.0000 0.0000 19.1732
#
#
#
# Elastic Compliance Matrix: (Units=1/GPa)
#
#
# Indices 1 2 3 4 5 6 
#
# 1 0.016258 -0.005158 -0.001601 0.000000 0.000000 0.000000
# 2 -0.005158 0.010922 -0.005051 0.000000 0.000000 0.000000
# 3 -0.001601 -0.005051 0.018814 0.000000 0.000000 0.000000
# 4 0.000000 0.000000 0.000000 0.045905 0.000000 0.000000
# 5 0.000000 0.000000 0.000000 0.000000 0.464843 0.000000
# 6 0.000000 0.000000 0.000000 0.000000 0.000000 0.052156
#
#
# Mechanical properties :
#
#
# Convention : Reuss Voigt Hill
#
# Bulk Modulus (GPa) = 44.69110 53.40502 49.04806
# Shear Modulus (GPa) = 7.81280 20.00747 13.91014
#
# Velocity S-wave (km/s) = 2.02280 3.23703 2.69908
# Velocity P-wave (km/s) = 5.37227 6.47614 5.94986
#
# Compressibility (1/GPa) = 0.02237582
#
# Stress axis : x y z
#
# Youngs Moduli (GPa) = 61.50923 91.55662 53.15089
#
# Poissons Ratio (x) = 0.47221 0.08507
# Poissons Ratio (y) = 0.31724 0.26847
# Poissons Ratio (z) = 0.09845 0.46246
#
# Static dielectric constant tensor:
#      x y z
#    x 3.558870 0.000000 0.000000 
#    y 0.000000 3.808510 0.000000 
#    z 0.000000 0.000000 3.206730 
# 
# 
# High freq. dielectric constant tensor:
#      x y z
#    x 1.728170 0.000000 0.000000 
#    y 0.000000 1.761580 0.000000 
#    z 0.000000 0.000000 1.716360 
# 
# From -- ./inp_files/17242.got.cif
#   From: 2010.03.12/outbox.cif.g09.slc.cpg/sg35_9_cif.got.tgz:17242.got - 2010.04.14 02:02:04.
