data_PCOD8172918
_publ_section_title
;
Structure prediction by ZEFSAII (Michael W. Deem and Ramdas Pophale) SiO2 
 PCOD8172918
Probable space group: C M M 2
;
_chemical_formula_sum "Si O2"
_cell_formula_units_Z 48
_cell_length_a 30.116084
_cell_length_b 9.228549
_cell_length_c 9.259336
_cell_angle_alpha 90.000000
_cell_angle_beta 90.000000
_cell_angle_gamma 90.000000
_cell_volume 2573.426485
_symmetry_space_group_name_H-M "C M M 2"
_symmetry_group_IT_number 35
_symmetry_cell_setting 'orthorhombic'
loop_
_space_group_symop_operation_xyz
x,y,z
-x,-y,z
-x,y,z
x,-y,z
1/2+x,1/2+y,z
1/2-x,1/2-y,z
1/2-x,1/2+y,z
1/2+x,1/2-y,z
loop_
_atom_site_type_symbol
_atom_site_label
_atom_site_fract_x
_atom_site_fract_y
_atom_site_fract_z
Si Si1 0.925173 0.157132 0.037190
Si Si2 0.401463 0.830509 0.553498
Si Si3 0.500000 0.157664 0.564682
Si Si4 0.851066 0.161514 0.805871
Si Si5 0.205033 0.670517 0.021574
Si Si6 0.500000 0.842011 0.903260
Si Si7 0.373159 0.836232 0.240278
O O1 0.912512 0.231873 0.187465
O O2 0.946674 0.000000 0.069871
O O3 0.882071 0.137915 0.941866
O O4 0.957020 0.257610 0.948353
O O5 0.452178 0.768508 0.523379
O O6 0.376970 0.739952 0.676699
O O7 0.370358 0.813223 0.412434
O O8 0.405104 0.000000 0.600513
O O9 0.500000 0.142768 0.734487
O O10 0.500000 0.000000 0.489245
O O11 0.834566 0.000000 0.755999
O O12 0.811527 0.261964 0.868354
O O13 0.212726 0.500000 0.996831
O O14 0.250000 0.750000 0.066553
O O15 0.172727 0.699080 0.158446
O O16 0.500000 0.000000 0.976688
O O17 0.387406 0.000000 0.203794
#
# Coordination Sequence:
#
# PCOD8172918 Si02
#       7
#     8   8   4   8   8   4   8
#     4  10  20  33  50  74 106 140 180 227 275 323
#     4  10  19  35  55  80 113 150 191 232 274 322
#     4   9  18  30  51  78 106 144 189 233 272 313
#     4  10  20  34  54  80 108 142 180 223 274 328
#     4  10  20  37  60  85 109 139 179 227 280 336
#     4  11  19  30  51  76 102 140 189 235 276 319
#     4   9  20  36  56  80 109 145 184 226 277 332
#
# _framework density 18.652176000000001
#
# number of rings (size 3 to 8) (size 9 to 14) (size 15 to 20)
#    0.000    2.167    1.667    1.750    0.000    3.333 
#    0.000    2.917    0.000    2.000    0.000    0.000 
#    0.000    0.000    0.000    0.000    0.000    0.000 
#
# Total GULP energy -297361.660667 kJ/mol
# GULP energy per Si atom -12390.069194 kJ/mol
# Density = 1.860972 g / cm^3
# Si number density = 18.652176 Si / 1000 Ang^3
#
#
#
# Elastic Constant Matrix: (Units=GPa)
#
#
# Indices 1 2 3 4 5 6 
#
# 1 85.7919 44.3028 35.9063 0.0000 0.0000 0.0000
# 2 44.3028 122.3357 40.3886 0.0000 0.0000 0.0000
# 3 35.9063 40.3886 86.9555 0.0000 0.0000 0.0000
# 4 0.0000 0.0000 0.0000 21.5587 0.0000 0.0000
# 5 0.0000 0.0000 0.0000 0.0000 26.6597 0.0000
# 6 0.0000 0.0000 0.0000 0.0000 0.0000 45.7569
#
#
#
# Elastic Compliance Matrix: (Units=1/GPa)
#
#
# Indices 1 2 3 4 5 6 
#
# 1 0.015724 -0.004194 -0.004545 0.000000 0.000000 0.000000
# 2 -0.004194 0.010773 -0.003272 0.000000 0.000000 0.000000
# 3 -0.004545 -0.003272 0.014897 0.000000 0.000000 0.000000
# 4 0.000000 0.000000 0.000000 0.046385 0.000000 0.000000
# 5 0.000000 0.000000 0.000000 0.000000 0.037510 0.000000
# 6 0.000000 0.000000 0.000000 0.000000 0.000000 0.021855
#
#
# Mechanical properties :
#
#
# Convention : Reuss Voigt Hill
#
# Bulk Modulus (GPa) = 57.56355 59.58652 58.57503
# Shear Modulus (GPa) = 28.25562 30.42741 29.34151
#
# Velocity S-wave (km/s) = 3.89636 4.04332 3.97052
# Velocity P-wave (km/s) = 7.15337 7.33577 7.24514
#
# Compressibility (1/GPa) = 0.01737210
#
# Stress axis : x y z
#
# Youngs Moduli (GPa) = 63.59718 92.82229 67.12898
#
# Poissons Ratio (x) = 0.38928 0.30510
# Poissons Ratio (y) = 0.26671 0.21966
# Poissons Ratio (z) = 0.28904 0.30373
#
# Static dielectric constant tensor:
#      x y z
#    x 3.612480 0.000000 0.000000 
#    y 0.000000 3.820270 0.000000 
#    z 0.000000 0.000000 3.279280 
# 
# 
# High freq. dielectric constant tensor:
#      x y z
#    x 1.711760 0.000000 0.000000 
#    y 0.000000 1.729210 0.000000 
#    z 0.000000 0.000000 1.709610 
# 
# From -- ./inp_files/5355.got.cif
#   From: 2010.03.12/outbox.cif.g09.slc.cpg/sg35_3_cif.got.tgz:5355.got - 2010.04.14 02:02:04.
