data_PCOD8172155
_publ_section_title
;
Structure prediction by ZEFSAII (Michael W. Deem and Ramdas Pophale) SiO2 
 PCOD8172155
Probable space group: C M M 2
;
_chemical_formula_sum "Si O2"
_cell_formula_units_Z 48
_cell_length_a 8.689246
_cell_length_b 18.713614
_cell_length_c 15.777118
_cell_angle_alpha 90.000000
_cell_angle_beta 90.000000
_cell_angle_gamma 90.000000
_cell_volume 2565.472913
_symmetry_space_group_name_H-M "C M M 2"
_symmetry_group_IT_number 35
_symmetry_cell_setting 'orthorhombic'
loop_
_space_group_symop_operation_xyz
x,y,z
-x,-y,z
-x,y,z
x,-y,z
1/2+x,1/2+y,z
1/2-x,1/2-y,z
1/2-x,1/2+y,z
1/2+x,1/2-y,z
loop_
_atom_site_type_symbol
_atom_site_label
_atom_site_fract_x
_atom_site_fract_y
_atom_site_fract_z
Si Si1 0.317246 0.328480 0.395020
Si Si2 0.817111 0.670582 0.223636
Si Si3 0.678122 0.827246 0.889805
Si Si4 0.678146 0.171990 0.702580
Si Si5 0.681964 0.670308 0.055012
Si Si6 0.681845 0.419306 0.555719
O O1 0.500000 0.323698 0.386547
O O2 0.250000 0.250000 0.410276
O O3 0.247468 0.365105 0.309725
O O4 0.262253 0.377110 0.472715
O O5 0.750000 0.750000 0.222573
O O6 0.753573 0.631427 0.138433
O O7 0.000000 0.670832 0.223635
O O8 0.500000 0.821292 0.914296
O O9 0.750000 0.750000 0.880101
O O10 0.701905 0.862127 0.796995
O O11 0.764715 0.868920 0.967293
O O12 0.500000 0.180860 0.681378
O O13 0.750000 0.250000 0.691369
O O14 0.752284 0.116025 0.639557
O O15 0.500000 0.671218 0.063024
O O16 0.750000 0.750000 0.049671
O O17 0.500000 0.417532 0.561933
O O18 0.744044 0.500000 0.549262
#
# Coordination Sequence:
#
# PCOD8172155 Si02
#       6
#     8   8   8   8   8   8
#     4  10  19  32  50  72  98 127 163 203 245 292
#     4  10  17  26  41  63  93 126 159 195 238 285
#     4   9  16  26  40  63  94 126 160 196 238 284
#     4  10  20  33  52  76 102 133 168 208 250 296
#     4  10  16  23  37  60  92 127 159 192 235 283
#     4  10  22  38  54  73  99 131 166 207 254 302
#
# _framework density 18.710000000000001
#
# number of rings (size 3 to 8) (size 9 to 14) (size 15 to 20)
#    0.000    2.167    0.000    8.000    0.000    5.000 
#    0.000    0.000    0.000    0.000    0.000    1.167 
#    0.000    6.667    0.000    0.000    0.000    0.000 
#
# Total GULP energy -297409.505918 kJ/mol
# GULP energy per Si atom -12392.062747 kJ/mol
# Density = 1.866742 g / cm^3
# Si number density = 18.710000 Si / 1000 Ang^3
#
#
#
# Elastic Constant Matrix: (Units=GPa)
#
#
# Indices 1 2 3 4 5 6 
#
# 1 87.9651 18.7270 49.0868 0.0000 0.0000 0.0000
# 2 18.7270 56.7940 49.6839 0.0000 0.0000 0.0000
# 3 49.0868 49.6839 185.4477 0.0000 0.0000 0.0000
# 4 0.0000 0.0000 0.0000 0.2266 0.0000 0.0000
# 5 0.0000 0.0000 0.0000 0.0000 34.3876 0.0000
# 6 0.0000 0.0000 0.0000 0.0000 0.0000 13.4978
#
#
#
# Elastic Compliance Matrix: (Units=1/GPa)
#
#
# Indices 1 2 3 4 5 6 
#
# 1 0.013467 -0.001727 -0.003102 0.000000 0.000000 0.000000
# 2 -0.001727 0.023219 -0.005764 0.000000 0.000000 0.000000
# 3 -0.003102 -0.005764 0.007758 0.000000 0.000000 0.000000
# 4 0.000000 0.000000 0.000000 4.413865 0.000000 0.000000
# 5 0.000000 0.000000 0.000000 0.000000 0.029080 0.000000
# 6 0.000000 0.000000 0.000000 0.000000 0.000000 0.074086
#
#
# Mechanical properties :
#
#
# Convention : Reuss Voigt Hill
#
# Bulk Modulus (GPa) = 42.99503 62.80025 52.89764
# Shear Modulus (GPa) = 1.08923 23.80299 12.44611
#
# Velocity S-wave (km/s) = 0.76382 3.57067 2.58197
# Velocity P-wave (km/s) = 4.87929 7.11600 6.10103
#
# Compressibility (1/GPa) = 0.02325850
#
# Stress axis : x y z
#
# Youngs Moduli (GPa) = 74.25714 43.06825 128.90668
#
# Poissons Ratio (x) = 0.07437 0.39986
# Poissons Ratio (y) = 0.12823 0.74296
# Poissons Ratio (z) = 0.23034 0.24823
#
# Static dielectric constant tensor:
#      x y z
#    x 3.523230 0.000000 0.000000 
#    y 0.000000 2.846720 0.000000 
#    z 0.000000 0.000000 4.973680 
# 
# 
# High freq. dielectric constant tensor:
#      x y z
#    x 1.742430 0.000000 0.000000 
#    y 0.000000 1.641910 0.000000 
#    z 0.000000 0.000000 1.766300 
# 
# From -- ./inp_files/17985.got.cif
#   From: 2010.03.12/outbox.cif.g09.slc.cpg/sg35_9_cif.got.tgz:17985.got - 2010.04.14 02:02:04.
