data_PCOD8172828
_publ_section_title
;
Structure prediction by ZEFSAII (Michael W. Deem and Ramdas Pophale) SiO2 
 PCOD8172828
Probable space group: C M M 2
;
_chemical_formula_sum "Si O2"
_cell_formula_units_Z 48
_cell_length_a 8.593399
_cell_length_b 15.625394
_cell_length_c 17.240384
_cell_angle_alpha 90.000000
_cell_angle_beta 90.000000
_cell_angle_gamma 90.000000
_cell_volume 2314.956788
_symmetry_space_group_name_H-M "C M M 2"
_symmetry_group_IT_number 35
_symmetry_cell_setting 'orthorhombic'
loop_
_space_group_symop_operation_xyz
x,y,z
-x,-y,z
-x,y,z
x,-y,z
1/2+x,1/2+y,z
1/2-x,1/2-y,z
1/2-x,1/2+y,z
1/2+x,1/2-y,z
loop_
_atom_site_type_symbol
_atom_site_label
_atom_site_fract_x
_atom_site_fract_y
_atom_site_fract_z
Si Si1 0.184497 0.154161 0.977020
Si Si2 0.170336 0.399909 0.296386
Si Si3 0.817369 0.161877 0.617476
Si Si4 0.314781 0.901775 0.463463
Si Si5 0.185832 0.656604 0.134638
Si Si6 0.677380 0.000000 0.701259
Si Si7 0.179052 0.500000 0.884468
O O1 0.250000 0.250000 0.960572
O O2 0.237777 0.087241 0.911782
O O3 0.000000 0.161099 0.978621
O O4 0.246050 0.111207 0.057965
O O5 0.149599 0.500000 0.303098
O O6 0.248647 0.370560 0.377912
O O7 0.259255 0.377813 0.216082
O O8 0.000000 0.356509 0.290256
O O9 0.750000 0.250000 0.652169
O O10 0.766392 0.155624 0.527804
O O11 0.756777 0.084130 0.668135
O O12 0.000000 0.164450 0.623017
O O13 0.500000 0.890773 0.466504
O O14 0.267753 0.000000 0.479252
O O15 0.250000 0.750000 0.124589
O O16 0.000000 0.648671 0.133398
O O17 0.500000 0.000000 0.672617
O O18 0.693054 0.000000 0.792616
O O19 0.000000 0.500000 0.911825
#
# Coordination Sequence:
#
# PCOD8172828 Si02
#       7
#     8   8   8   8   8   4   4
#     4  11  23  41  64  93 129 166 208 255 306 364
#     4   8  16  30  51  81 112 155 205 250 300 354
#     4  12  25  41  65  95 128 166 209 251 305 367
#     4   9  17  34  59  84 120 163 207 257 309 361
#     4  10  19  33  54  79 115 158 204 253 305 358
#     4  11  25  47  71  96 127 158 197 251 310 371
#     4  11  25  45  71  98 123 160 201 245 310 377
#
# _framework density 20.734729000000002
#
# number of rings (size 3 to 8) (size 9 to 14) (size 15 to 20)
#    0.000    1.833    0.833    6.000    1.167    2.667 
#    0.000    3.333    0.000    2.000    0.000    0.000 
#    0.000    0.000    0.000    0.000    0.000    0.000 
#
# Total GULP energy -297395.882252 kJ/mol
# GULP energy per Si atom -12391.495094 kJ/mol
# Density = 2.068754 g / cm^3
# Si number density = 20.734729 Si / 1000 Ang^3
#
#
#
# Elastic Constant Matrix: (Units=GPa)
#
#
# Indices 1 2 3 4 5 6 
#
# 1 127.6193 45.6489 47.2430 0.0000 0.0000 0.0000
# 2 45.6489 107.2755 45.9017 0.0000 0.0000 0.0000
# 3 47.2430 45.9017 109.4206 0.0000 0.0000 0.0000
# 4 0.0000 0.0000 0.0000 5.9841 0.0000 0.0000
# 5 0.0000 0.0000 0.0000 0.0000 73.2471 0.0000
# 6 0.0000 0.0000 0.0000 0.0000 0.0000 26.7028
#
#
#
# Elastic Compliance Matrix: (Units=1/GPa)
#
#
# Indices 1 2 3 4 5 6 
#
# 1 0.010036 -0.002945 -0.003098 0.000000 0.000000 0.000000
# 2 -0.002945 0.012225 -0.003857 0.000000 0.000000 0.000000
# 3 -0.003098 -0.003857 0.012094 0.000000 0.000000 0.000000
# 4 0.000000 0.000000 0.000000 0.167109 0.000000 0.000000
# 5 0.000000 0.000000 0.000000 0.000000 0.013652 0.000000
# 6 0.000000 0.000000 0.000000 0.000000 0.000000 0.037449
#
#
# Mechanical properties :
#
#
# Convention : Reuss Voigt Hill
#
# Bulk Modulus (GPa) = 68.69840 69.10029 68.89934
# Shear Modulus (GPa) = 18.03632 34.88825 26.46229
#
# Velocity S-wave (km/s) = 2.95254 4.10640 3.57631
# Velocity P-wave (km/s) = 6.69532 7.47540 7.09609
#
# Compressibility (1/GPa) = 0.01455638
#
# Stress axis : x y z
#
# Youngs Moduli (GPa) = 99.64154 81.79712 82.68277
#
# Poissons Ratio (x) = 0.24091 0.25612
# Poissons Ratio (y) = 0.29346 0.31890
# Poissons Ratio (z) = 0.30865 0.31548
#
# Static dielectric constant tensor:
#      x y z
#    x 3.616520 0.000000 0.000000 
#    y 0.000000 3.680580 0.000000 
#    z 0.000000 0.000000 4.515750 
# 
# 
# High freq. dielectric constant tensor:
#      x y z
#    x 1.795130 0.000000 0.000000 
#    y 0.000000 1.804770 0.000000 
#    z 0.000000 0.000000 1.829060 
# 
# From -- ./inp_files/17842.got.cif
#   From: 2010.03.12/outbox.cif.g09.slc.cpg/sg35_9_cif.got.tgz:17842.got - 2010.04.14 02:02:04.
