data_PCOD8172302
_publ_section_title
;
Structure prediction by ZEFSAII (Michael W. Deem and Ramdas Pophale) SiO2 
 PCOD8172302
Probable space group: C M M 2
;
_chemical_formula_sum "Si O2"
_cell_formula_units_Z 64
_cell_length_a 29.327752
_cell_length_b 9.030807
_cell_length_c 12.224096
_cell_angle_alpha 90.000000
_cell_angle_beta 90.000000
_cell_angle_gamma 90.000000
_cell_volume 3237.591775
_symmetry_space_group_name_H-M "C M M 2"
_symmetry_group_IT_number 35
_symmetry_cell_setting 'orthorhombic'
loop_
_space_group_symop_operation_xyz
x,y,z
-x,-y,z
-x,y,z
x,-y,z
1/2+x,1/2+y,z
1/2-x,1/2-y,z
1/2-x,1/2+y,z
1/2+x,1/2-y,z
loop_
_atom_site_type_symbol
_atom_site_label
_atom_site_fract_x
_atom_site_fract_y
_atom_site_fract_z
Si Si1 0.429420 0.828811 0.301290
Si Si2 0.949420 0.327311 0.544707
Si Si3 0.359472 0.327954 0.977807
Si Si4 0.949992 0.829888 0.081597
Si Si5 0.199854 0.322650 0.794167
Si Si6 0.656169 0.333424 0.363565
Si Si7 0.141632 0.172310 0.608740
Si Si8 0.208001 0.837081 0.161032
O O1 0.452563 0.783564 0.416542
O O2 0.451663 0.747464 0.199124
O O3 0.376748 0.788728 0.313163
O O4 0.435529 0.000000 0.277040
O O5 0.936476 0.500000 0.557069
O O6 0.910599 0.232372 0.607040
O O7 0.000000 0.295077 0.594725
O O8 0.356641 0.500000 0.939820
O O9 0.332691 0.225375 0.893414
O O10 0.411921 0.272821 0.994537
O O11 0.338373 0.300118 0.097534
O O12 0.000000 0.809269 0.027303
O O13 0.938382 0.000000 0.105605
O O14 0.205059 0.500000 0.791687
O O15 0.250000 0.250000 0.804021
O O16 0.174122 0.266841 0.686259
O O17 0.636209 0.500000 0.346477
O O18 0.665428 0.306369 0.490908
O O19 0.701927 0.314428 0.291744
O O20 0.140317 0.000000 0.644530
O O21 0.250000 0.750000 0.112109
O O22 0.223293 0.000000 0.132447
#
# Coordination Sequence:
#
# PCOD8172302 Si02
#       8
#     8   8   8   8   8   8   8   8
#     4  10  18  29  50  81 119 161 201 242 284 337
#     4   9  18  33  53  82 123 166 204 243 291 346
#     4  10  21  40  62  85 117 152 195 247 294 346
#     4  10  20  35  57  84 117 158 198 238 289 347
#     4  12  26  45  68  90 114 148 196 248 303 359
#     4   9  18  35  55  80 117 158 194 236 288 344
#     4  10  21  38  62  89 118 152 199 250 296 352
#     4  10  20  34  54  81 115 150 185 233 289 349
#
# _framework density 19.767779999999998
#
# number of rings (size 3 to 8) (size 9 to 14) (size 15 to 20)
#    0.000    2.000    1.250    2.625    0.000    5.000 
#    0.000    1.875    0.000    2.250    0.000    0.000 
#    0.000    0.000    0.000    0.000    0.000    0.000 
#
# Total GULP energy -396549.856276 kJ/mol
# GULP energy per Si atom -12392.183009 kJ/mol
# Density = 1.972279 g / cm^3
# Si number density = 19.767780 Si / 1000 Ang^3
#
#
#
# Elastic Constant Matrix: (Units=GPa)
#
#
# Indices 1 2 3 4 5 6 
#
# 1 141.6813 60.2780 53.1849 0.0000 0.0000 0.0000
# 2 60.2780 90.7575 42.8199 0.0000 0.0000 0.0000
# 3 53.1849 42.8199 85.5602 0.0000 0.0000 0.0000
# 4 0.0000 0.0000 0.0000 30.2638 0.0000 0.0000
# 5 0.0000 0.0000 0.0000 0.0000 29.7640 0.0000
# 6 0.0000 0.0000 0.0000 0.0000 0.0000 28.4451
#
#
#
# Elastic Compliance Matrix: (Units=1/GPa)
#
#
# Indices 1 2 3 4 5 6 
#
# 1 0.010837 -0.005262 -0.004103 0.000000 0.000000 0.000000
# 2 -0.005262 0.016979 -0.005227 0.000000 0.000000 0.000000
# 3 -0.004103 -0.005227 0.016854 0.000000 0.000000 0.000000
# 4 0.000000 0.000000 0.000000 0.033043 0.000000 0.000000
# 5 0.000000 0.000000 0.000000 0.000000 0.033598 0.000000
# 6 0.000000 0.000000 0.000000 0.000000 0.000000 0.035155
#
#
# Mechanical properties :
#
#
# Convention : Reuss Voigt Hill
#
# Bulk Modulus (GPa) = 64.57012 70.06274 67.31643
# Shear Modulus (GPa) = 27.65324 28.47566 28.06445
#
# Velocity S-wave (km/s) = 3.74425 3.79952 3.77199
# Velocity P-wave (km/s) = 7.17132 7.40056 7.28684
#
# Compressibility (1/GPa) = 0.01548704
#
# Stress axis : x y z
#
# Youngs Moduli (GPa) = 92.27764 58.89641 59.33335
#
# Poissons Ratio (x) = 0.30989 0.24345
# Poissons Ratio (y) = 0.48553 0.31012
# Poissons Ratio (z) = 0.37862 0.30783
#
# Static dielectric constant tensor:
#      x y z
#    x 3.618210 0.000000 0.000000 
#    y 0.000000 3.616100 0.000000 
#    z 0.000000 0.000000 3.504180 
# 
# 
# High freq. dielectric constant tensor:
#      x y z
#    x 1.773940 0.000000 0.000000 
#    y 0.000000 1.767260 0.000000 
#    z 0.000000 0.000000 1.755130 
# 
# From -- ./inp_files/11984.got.cif
#   From: 2010.03.12/outbox.cif.g09.slc.cpg/sg35_6_cif.got.tgz:11984.got - 2010.04.14 02:02:04.
