data_PCOD8172496
_publ_section_title
;
Structure prediction by ZEFSAII (Michael W. Deem and Ramdas Pophale) SiO2 
 PCOD8172496
Probable space group: C M M 2
;
_chemical_formula_sum "Si O2"
_cell_formula_units_Z 48
_cell_length_a 17.120976
_cell_length_b 15.214996
_cell_length_c 12.057641
_cell_angle_alpha 90.000000
_cell_angle_beta 90.000000
_cell_angle_gamma 90.000000
_cell_volume 3140.962202
_symmetry_space_group_name_H-M "C M M 2"
_symmetry_group_IT_number 35
_symmetry_cell_setting 'orthorhombic'
loop_
_space_group_symop_operation_xyz
x,y,z
-x,-y,z
-x,y,z
x,-y,z
1/2+x,1/2+y,z
1/2-x,1/2-y,z
1/2-x,1/2+y,z
1/2+x,1/2-y,z
loop_
_atom_site_type_symbol
_atom_site_label
_atom_site_fract_x
_atom_site_fract_y
_atom_site_fract_z
Si Si1 0.352260 0.898985 0.318860
Si Si2 0.586757 0.103574 0.548225
Si Si3 0.807619 0.323931 0.979272
Si Si4 0.292736 0.401768 0.173950
Si Si5 0.912781 0.603369 0.791253
Si Si6 0.088899 0.748123 0.162479
O O1 0.355811 0.868805 0.447857
O O2 0.263068 0.892194 0.280317
O O3 0.405306 0.832395 0.248396
O O4 0.383066 0.000000 0.303344
O O5 0.500000 0.138048 0.518457
O O6 0.611836 0.141165 0.669282
O O7 0.585754 0.000000 0.558568
O O8 0.750000 0.250000 0.931118
O O9 0.742343 0.115184 0.062663
O O10 0.880637 0.282115 0.043221
O O11 0.844219 0.374715 0.876594
O O12 0.327732 0.500000 0.165767
O O13 0.361175 0.333049 0.197820
O O14 0.918912 0.500000 0.786406
O O15 0.000000 0.639682 0.823177
O O16 0.000000 0.778351 0.151949
#
# Coordination Sequence:
#
# PCOD8172496 Si02
#       6
#     8   8   8   8   8   8
#     4   9  16  28  45  63  86 112 136 166 205 248
#     4   8  14  24  39  61  87 112 135 160 195 243
#     4   9  17  29  42  59  84 109 136 169 205 247
#     4   9  18  31  45  60  81 111 142 174 209 243
#     4   9  16  26  42  63  85 108 134 165 201 241
#     4  10  19  29  43  63  85 109 139 174 209 247
#
# _framework density 15.281941
#
# number of rings (size 3 to 8) (size 9 to 14) (size 15 to 20)
#    0.000    3.000    0.000    4.000    0.000    2.000 
#    0.000    1.667    0.000    0.000    0.000    0.000 
#    0.000    0.000    0.000   19.500    0.000    0.000 
#
# Total GULP energy -297344.355761 kJ/mol
# GULP energy per Si atom -12389.348157 kJ/mol
# Density = 1.524716 g / cm^3
# Si number density = 15.281941 Si / 1000 Ang^3
#
#
#
# Elastic Constant Matrix: (Units=GPa)
#
#
# Indices 1 2 3 4 5 6 
#
# 1 87.6143 36.1167 48.8615 0.0000 0.0000 0.0000
# 2 36.1167 62.6954 27.8164 0.0000 0.0000 0.0000
# 3 48.8615 27.8164 100.4623 0.0000 0.0000 0.0000
# 4 0.0000 0.0000 0.0000 14.0300 0.0000 0.0000
# 5 0.0000 0.0000 0.0000 0.0000 7.4128 0.0000
# 6 0.0000 0.0000 0.0000 0.0000 0.0000 20.7196
#
#
#
# Elastic Compliance Matrix: (Units=1/GPa)
#
#
# Indices 1 2 3 4 5 6 
#
# 1 0.018324 -0.007526 -0.006828 0.000000 0.000000 0.000000
# 2 -0.007526 0.021275 -0.002230 0.000000 0.000000 0.000000
# 3 -0.006828 -0.002230 0.013893 0.000000 0.000000 0.000000
# 4 0.000000 0.000000 0.000000 0.071276 0.000000 0.000000
# 5 0.000000 0.000000 0.000000 0.000000 0.134901 0.000000
# 6 0.000000 0.000000 0.000000 0.000000 0.000000 0.048264
#
#
# Mechanical properties :
#
#
# Convention : Reuss Voigt Hill
#
# Bulk Modulus (GPa) = 49.20725 52.92904 51.06814
# Shear Modulus (GPa) = 14.37288 17.63096 16.00192
#
# Velocity S-wave (km/s) = 3.07011 3.40032 3.23942
# Velocity P-wave (km/s) = 6.69604 7.08000 6.89070
#
# Compressibility (1/GPa) = 0.02032221
#
# Stress axis : x y z
#
# Youngs Moduli (GPa) = 54.57205 47.00275 71.98075
#
# Poissons Ratio (x) = 0.35376 0.49151
# Poissons Ratio (y) = 0.41073 0.16053
# Poissons Ratio (z) = 0.37264 0.10482
#
# Static dielectric constant tensor:
#      x y z
#    x 2.836270 0.000000 0.000000 
#    y 0.000000 2.803480 0.000000 
#    z 0.000000 0.000000 3.112540 
# 
# 
# High freq. dielectric constant tensor:
#      x y z
#    x 1.571730 0.000000 0.000000 
#    y 0.000000 1.562890 0.000000 
#    z 0.000000 0.000000 1.585650 
# 
# From -- ./inp_files/13245.got.cif
#   From: 2010.03.12/outbox.cif.g09.slc.cpg/sg35_7_cif.got.tgz:13245.got - 2010.04.14 02:02:04.
