data_PCOD8172703
_publ_section_title
;
Structure prediction by ZEFSAII (Michael W. Deem and Ramdas Pophale) SiO2 
 PCOD8172703
Probable space group: C M M 2
;
_chemical_formula_sum "Si O2"
_cell_formula_units_Z 56
_cell_length_a 8.711910
_cell_length_b 18.225412
_cell_length_c 18.079394
_cell_angle_alpha 90.000000
_cell_angle_beta 90.000000
_cell_angle_gamma 90.000000
_cell_volume 2870.612715
_symmetry_space_group_name_H-M "C M M 2"
_symmetry_group_IT_number 35
_symmetry_cell_setting 'orthorhombic'
loop_
_space_group_symop_operation_xyz
x,y,z
-x,-y,z
-x,y,z
x,-y,z
1/2+x,1/2+y,z
1/2-x,1/2-y,z
1/2-x,1/2+y,z
1/2+x,1/2-y,z
loop_
_atom_site_type_symbol
_atom_site_label
_atom_site_fract_x
_atom_site_fract_y
_atom_site_fract_z
Si Si1 0.821952 0.585684 0.753970
Si Si2 0.680982 0.170165 0.606933
Si Si3 0.680479 0.670183 0.887531
Si Si4 0.817768 0.829383 0.170563
Si Si5 0.682429 0.917902 0.466412
Si Si6 0.317833 0.170672 0.324038
Si Si7 0.317650 0.582167 0.028304
O O1 0.786745 0.500000 0.748403
O O2 0.770778 0.621830 0.677095
O O3 0.720246 0.619685 0.818319
O O4 0.000000 0.601259 0.770858
O O5 0.500000 0.177807 0.600784
O O6 0.750000 0.250000 0.615560
O O7 0.748175 0.130669 0.533815
O O8 0.500000 0.679039 0.893281
O O9 0.750000 0.750000 0.877310
O O10 0.747386 0.631668 0.961379
O O11 0.750000 0.750000 0.152444
O O12 0.750219 0.860319 0.247346
O O13 0.763720 0.883877 0.105981
O O14 0.000000 0.823447 0.176378
O O15 0.500000 0.920290 0.471248
O O16 0.735772 0.883507 0.388853
O O17 0.749981 0.000000 0.472094
O O18 0.500000 0.176603 0.317759
O O19 0.250000 0.250000 0.342103
O O20 0.500000 0.579674 0.024077
O O21 0.249874 0.500000 0.021563
#
# Coordination Sequence:
#
# PCOD8172703 Si02
#       7
#     8   8   8   8   8   8   8
#     4  10  21  37  57  82 111 141 176 219 266 316
#     4  10  20  35  56  79 105 139 177 216 258 308
#     4  11  22  37  58  81 108 142 180 220 263 314
#     4  10  19  33  54  76 102 135 171 212 256 307
#     4   9  18  33  53  76 102 135 174 214 258 307
#     4  10  19  32  52  76 103 134 170 212 256 306
#     4   9  19  35  54  77 104 136 174 215 262 314
#
# _framework density 19.508030000000002
#
# number of rings (size 3 to 8) (size 9 to 14) (size 15 to 20)
#    0.000    2.143    0.000    4.286    0.000    4.857 
#    0.000    2.857    0.000    9.000    0.000    0.000 
#    0.000    0.000    0.000    0.000    0.000    0.000 
#
# Total GULP energy -347257.764357 kJ/mol
# GULP energy per Si atom -12402.063013 kJ/mol
# Density = 1.946363 g / cm^3
# Si number density = 19.508030 Si / 1000 Ang^3
#
#
#
# Elastic Constant Matrix: (Units=GPa)
#
#
# Indices 1 2 3 4 5 6 
#
# 1 47.8995 29.1995 38.7500 0.0000 0.0000 0.0000
# 2 29.1995 148.5702 86.6848 0.0000 0.0000 0.0000
# 3 38.7500 86.6848 164.1809 0.0000 0.0000 0.0000
# 4 0.0000 0.0000 0.0000 47.2172 0.0000 0.0000
# 5 0.0000 0.0000 0.0000 0.0000 21.2875 0.0000
# 6 0.0000 0.0000 0.0000 0.0000 0.0000 14.8560
#
#
#
# Elastic Compliance Matrix: (Units=1/GPa)
#
#
# Indices 1 2 3 4 5 6 
#
# 1 0.026308 -0.002237 -0.005028 0.000000 0.000000 0.000000
# 2 -0.002237 0.009918 -0.004708 0.000000 0.000000 0.000000
# 3 -0.005028 -0.004708 0.009764 0.000000 0.000000 0.000000
# 4 0.000000 0.000000 0.000000 0.021179 0.000000 0.000000
# 5 0.000000 0.000000 0.000000 0.000000 0.046976 0.000000
# 6 0.000000 0.000000 0.000000 0.000000 0.000000 0.067313
#
#
# Mechanical properties :
#
#
# Convention : Reuss Voigt Hill
#
# Bulk Modulus (GPa) = 45.36665 74.43547 59.90106
# Shear Modulus (GPa) = 23.50156 30.40655 26.95405
#
# Velocity S-wave (km/s) = 3.47466 3.95228 3.72114
# Velocity P-wave (km/s) = 6.27723 7.68547 7.01677
#
# Compressibility (1/GPa) = 0.02204262
#
# Stress axis : x y z
#
# Youngs Moduli (GPa) = 38.01063 100.83090 102.42129
#
# Poissons Ratio (x) = 0.22553 0.51501
# Poissons Ratio (y) = 0.08502 0.48224
# Poissons Ratio (z) = 0.19113 0.47475
#
# Static dielectric constant tensor:
#      x y z
#    x 3.310320 0.000000 0.000000 
#    y 0.000000 3.638900 0.000000 
#    z 0.000000 0.000000 3.855730 
# 
# 
# High freq. dielectric constant tensor:
#      x y z
#    x 1.732860 0.000000 0.000000 
#    y 0.000000 1.768530 0.000000 
#    z 0.000000 0.000000 1.779240 
# 
# From -- ./inp_files/15646.got.cif
#   From: 2010.03.12/outbox.cif.g09.slc.cpg/sg35_8_cif.got.tgz:15646.got - 2010.04.14 02:02:04.
