data_PCOD8172714
_publ_section_title
;
Structure prediction by ZEFSAII (Michael W. Deem and Ramdas Pophale) SiO2 
 PCOD8172714
Probable space group: C M M 2
;
_chemical_formula_sum "Si O2"
_cell_formula_units_Z 48
_cell_length_a 18.766436
_cell_length_b 8.682652
_cell_length_c 15.415836
_cell_angle_alpha 90.000000
_cell_angle_beta 90.000000
_cell_angle_gamma 90.000000
_cell_volume 2511.893826
_symmetry_space_group_name_H-M "C M M 2"
_symmetry_group_IT_number 35
_symmetry_cell_setting 'orthorhombic'
loop_
_space_group_symop_operation_xyz
x,y,z
-x,-y,z
-x,y,z
x,-y,z
1/2+x,1/2+y,z
1/2-x,1/2-y,z
1/2-x,1/2+y,z
1/2+x,1/2-y,z
loop_
_atom_site_type_symbol
_atom_site_label
_atom_site_fract_x
_atom_site_fract_y
_atom_site_fract_z
Si Si1 0.084081 0.674425 0.493030
Si Si2 0.672983 0.817340 0.818514
Si Si3 0.828196 0.316892 0.141177
Si Si4 0.580041 0.816992 0.978998
Si Si5 0.674413 0.320090 0.637474
Si Si6 0.579164 0.182854 0.299768
O O1 0.111226 0.500000 0.509207
O O2 0.119263 0.789860 0.560735
O O3 0.104908 0.730687 0.396090
O O4 0.000000 0.682122 0.505045
O O5 0.750000 0.750000 0.841692
O O6 0.617378 0.759745 0.890789
O O7 0.645606 0.756887 0.725783
O O8 0.678539 0.000000 0.816004
O O9 0.823609 0.500000 0.141163
O O10 0.750000 0.250000 0.133282
O O11 0.865126 0.253688 0.229093
O O12 0.875038 0.255695 0.060777
O O13 0.500000 0.749035 0.982920
O O14 0.577166 0.000000 0.981459
O O15 0.683235 0.500000 0.653570
O O16 0.750000 0.250000 0.610375
O O17 0.500000 0.249915 0.280658
O O18 0.574499 0.000000 0.294526
#
# Coordination Sequence:
#
# PCOD8172714 Si02
#       6
#     8   8   8   8   8   8
#     4   9  18  34  55  78 105 137 173 213 259 310
#     4  10  19  33  53  75 101 133 169 210 257 306
#     4  10  19  32  52  77 105 134 167 207 249 296
#     4   9  18  32  52  77 101 130 170 210 247 294
#     4  11  22  36  54  76 104 137 175 216 260 309
#     4   8  15  30  53  77 100 132 173 211 247 293
#
# _framework density 19.109089000000001
#
# number of rings (size 3 to 8) (size 9 to 14) (size 15 to 20)
#    0.000    2.500    0.000    5.000    0.000    3.667 
#    0.000    5.000    0.000    6.500    0.000    0.000 
#    0.000    0.000    0.000    0.000    0.000    0.000 
#
# Total GULP energy -297586.676333 kJ/mol
# GULP energy per Si atom -12399.444847 kJ/mol
# Density = 1.906560 g / cm^3
# Si number density = 19.109089 Si / 1000 Ang^3
#
#
#
# Elastic Constant Matrix: (Units=GPa)
#
#
# Indices 1 2 3 4 5 6 
#
# 1 127.6215 25.3006 96.7219 0.0000 0.0000 0.0000
# 2 25.3006 54.9771 32.2321 0.0000 0.0000 0.0000
# 3 96.7219 32.2321 169.2902 0.0000 0.0000 0.0000
# 4 0.0000 0.0000 0.0000 15.7729 0.0000 0.0000
# 5 0.0000 0.0000 0.0000 0.0000 41.2722 0.0000
# 6 0.0000 0.0000 0.0000 0.0000 0.0000 27.3072
#
#
#
# Elastic Compliance Matrix: (Units=1/GPa)
#
#
# Indices 1 2 3 4 5 6 
#
# 1 0.014008 -0.001975 -0.007627 0.000000 0.000000 0.000000
# 2 -0.001975 0.020753 -0.002823 0.000000 0.000000 0.000000
# 3 -0.007627 -0.002823 0.010802 0.000000 0.000000 0.000000
# 4 0.000000 0.000000 0.000000 0.063400 0.000000 0.000000
# 5 0.000000 0.000000 0.000000 0.000000 0.024229 0.000000
# 6 0.000000 0.000000 0.000000 0.000000 0.000000 0.036620
#
#
# Mechanical properties :
#
#
# Convention : Reuss Voigt Hill
#
# Bulk Modulus (GPa) = 48.27827 73.37755 60.82791
# Shear Modulus (GPa) = 24.80564 30.04607 27.42586
#
# Velocity S-wave (km/s) = 3.60683 3.96958 3.79255
# Velocity P-wave (km/s) = 6.53185 7.71315 7.14695
#
# Compressibility (1/GPa) = 0.02071325
#
# Stress axis : x y z
#
# Youngs Moduli (GPa) = 71.38999 48.18512 92.57401
#
# Poissons Ratio (x) = 0.09515 0.70607
# Poissons Ratio (y) = 0.14097 0.26135
# Poissons Ratio (z) = 0.54450 0.13603
#
# Static dielectric constant tensor:
#      x y z
#    x 3.549020 0.000000 0.000000 
#    y 0.000000 3.147560 0.000000 
#    z 0.000000 0.000000 3.798890 
# 
# 
# High freq. dielectric constant tensor:
#      x y z
#    x 1.741940 0.000000 0.000000 
#    y 0.000000 1.707960 0.000000 
#    z 0.000000 0.000000 1.759590 
# 
# From -- ./inp_files/17074.got.cif
#   From: 2010.03.12/outbox.cif.g09.slc.cpg/sg35_9_cif.got.tgz:17074.got - 2010.04.14 02:02:04.
