data_PCOD8172975
_publ_section_title
;
Structure prediction by ZEFSAII (Michael W. Deem and Ramdas Pophale) SiO2 
 PCOD8172975
Probable space group: C M M 2
;
_chemical_formula_sum "Si O2"
_cell_formula_units_Z 56
_cell_length_a 19.641005
_cell_length_b 14.444098
_cell_length_c 9.245882
_cell_angle_alpha 90.000000
_cell_angle_beta 90.000000
_cell_angle_gamma 90.000000
_cell_volume 2623.025297
_symmetry_space_group_name_H-M "C M M 2"
_symmetry_group_IT_number 35
_symmetry_cell_setting 'orthorhombic'
loop_
_space_group_symop_operation_xyz
x,y,z
-x,-y,z
-x,y,z
x,-y,z
1/2+x,1/2+y,z
1/2-x,1/2-y,z
1/2-x,1/2+y,z
1/2+x,1/2-y,z
loop_
_atom_site_type_symbol
_atom_site_label
_atom_site_fract_x
_atom_site_fract_y
_atom_site_fract_z
Si Si1 0.872749 0.725448 0.610620
Si Si2 0.827851 0.754606 0.299336
Si Si3 0.921452 0.108235 0.123644
Si Si4 0.869718 0.396944 0.097983
Si Si5 0.500000 0.110210 0.610511
Si Si6 0.500000 0.109744 0.942210
Si Si7 0.874530 0.897049 0.802143
Si Si8 0.773814 0.651423 0.850024
O O1 0.831007 0.760342 0.472184
O O2 0.932893 0.660019 0.548623
O O3 0.900223 0.818123 0.691198
O O4 0.824725 0.664062 0.714469
O O5 0.750000 0.750000 0.248750
O O6 0.869380 0.839491 0.229692
O O7 0.858204 0.658259 0.244012
O O8 0.000000 0.137324 0.152839
O O9 0.911096 0.000000 0.153979
O O10 0.902231 0.132209 0.958921
O O11 0.886680 0.500000 0.149113
O O12 0.933461 0.348405 0.018017
O O13 0.808231 0.401022 0.983304
O O14 0.500000 0.138340 0.777423
O O15 0.500000 0.000000 0.579182
O O16 0.500000 0.000000 0.954762
O O17 0.792394 0.904311 0.799032
O O18 0.902157 0.000000 0.759468
O O19 0.750000 0.750000 0.911039
#
# Coordination Sequence:
#
# PCOD8172975 Si02
#       8
#     8   8   8   8   4   4   8   8
#     4  11  25  41  64  94 132 173 215 265 325 388
#     4  12  26  43  64  94 134 175 215 266 328 391
#     4  10  24  45  70  98 130 172 222 274 329 390
#     4  11  22  37  61  92 126 167 213 261 318 379
#     4  11  24  43  66  96 127 167 215 264 324 388
#     4   9  20  37  61  94 121 155 208 260 309 368
#     4  10  21  39  66  96 125 163 218 273 322 379
#     4  10  19  37  61  91 126 168 216 266 319 374
#
# _framework density 21.349394
#
# number of rings (size 3 to 8) (size 9 to 14) (size 15 to 20)
#    0.000    1.429    1.429    4.714    3.000    3.429 
#    0.000    2.143    0.000    0.000    0.000    0.000 
#    0.000    0.000    0.000    0.000    0.000    0.000 
#
# Total GULP energy -347172.079565 kJ/mol
# GULP energy per Si atom -12399.002842 kJ/mol
# Density = 2.130080 g / cm^3
# Si number density = 21.349394 Si / 1000 Ang^3
#
#
#
# Elastic Constant Matrix: (Units=GPa)
#
#
# Indices 1 2 3 4 5 6 
#
# 1 115.1249 31.6651 14.4641 0.0000 0.0000 0.0000
# 2 31.6651 100.4044 32.5015 0.0000 0.0000 0.0000
# 3 14.4641 32.5015 91.2318 0.0000 0.0000 0.0000
# 4 0.0000 0.0000 0.0000 15.5037 0.0000 0.0000
# 5 0.0000 0.0000 0.0000 0.0000 27.9822 0.0000
# 6 0.0000 0.0000 0.0000 0.0000 0.0000 32.0046
#
#
#
# Elastic Compliance Matrix: (Units=1/GPa)
#
#
# Indices 1 2 3 4 5 6 
#
# 1 0.009531 -0.002845 -0.000498 0.000000 0.000000 0.000000
# 2 -0.002845 0.012107 -0.003862 0.000000 0.000000 0.000000
# 3 -0.000498 -0.003862 0.012416 0.000000 0.000000 0.000000
# 4 0.000000 0.000000 0.000000 0.064501 0.000000 0.000000
# 5 0.000000 0.000000 0.000000 0.000000 0.035737 0.000000
# 6 0.000000 0.000000 0.000000 0.000000 0.000000 0.031246
#
#
# Mechanical properties :
#
#
# Convention : Reuss Voigt Hill
#
# Bulk Modulus (GPa) = 50.90355 51.55805 51.23080
# Shear Modulus (GPa) = 26.81035 30.30679 28.55857
#
# Velocity S-wave (km/s) = 3.54756 3.77180 3.66139
# Velocity P-wave (km/s) = 6.37770 6.57044 6.47479
#
# Compressibility (1/GPa) = 0.01964500
#
# Stress axis : x y z
#
# Youngs Moduli (GPa) = 104.91847 82.59607 80.54199
#
# Poissons Ratio (x) = 0.23497 0.04008
# Poissons Ratio (y) = 0.29848 0.31107
# Poissons Ratio (z) = 0.05221 0.31900
#
# Static dielectric constant tensor:
#      x y z
#    x 34.739800 0.000000 0.000000 
#    y 0.000000 3.850190 0.000000 
#    z 0.000000 0.000000 3.540780 
# 
# 
# High freq. dielectric constant tensor:
#      x y z
#    x 1.847080 0.000000 0.000000 
#    y 0.000000 1.841520 0.000000 
#    z 0.000000 0.000000 1.818270 
# 
# From -- ./inp_files/9321.got.cif
#   From: 2010.03.12/outbox.cif.g09.slc.cpg/sg35_5_cif.got.tgz:9321.got - 2010.04.14 02:02:04.
