data_PCOD8172533
_publ_section_title
;
Structure prediction by ZEFSAII (Michael W. Deem and Ramdas Pophale) SiO2 
 PCOD8172533
Probable space group: C M M 2
;
_chemical_formula_sum "Si O2"
_cell_formula_units_Z 64
_cell_length_a 30.975497
_cell_length_b 21.558395
_cell_length_c 5.029660
_cell_angle_alpha 90.000000
_cell_angle_beta 90.000000
_cell_angle_gamma 90.000000
_cell_volume 3358.716412
_symmetry_space_group_name_H-M "C M M 2"
_symmetry_group_IT_number 35
_symmetry_cell_setting 'orthorhombic'
loop_
_space_group_symop_operation_xyz
x,y,z
-x,-y,z
-x,y,z
x,-y,z
1/2+x,1/2+y,z
1/2-x,1/2-y,z
1/2-x,1/2+y,z
1/2+x,1/2-y,z
loop_
_atom_site_type_symbol
_atom_site_label
_atom_site_fract_x
_atom_site_fract_y
_atom_site_fract_z
Si Si1 0.451363 0.165484 0.545520
Si Si2 0.322341 0.571467 0.279582
Si Si3 0.911868 0.873998 0.152112
Si Si4 0.950956 0.253452 0.035723
Si Si5 0.880378 0.570411 0.377521
Si Si6 0.048701 0.069984 0.651626
Si Si7 0.824887 0.429765 0.898292
Si Si8 0.266861 0.570673 0.763182
O O1 0.500000 0.140131 0.584801
O O2 0.449733 0.218352 0.326484
O O3 0.422957 0.107867 0.452456
O O4 0.434354 0.196270 0.819498
O O5 0.334921 0.500000 0.349901
O O6 0.364246 0.614836 0.268845
O O7 0.289423 0.599442 0.500653
O O8 0.300914 0.575762 0.995333
O O9 0.918868 0.804941 0.038619
O O10 0.943754 0.885625 0.399333
O O11 0.920084 0.919005 0.902416
O O12 0.000000 0.232874 0.960717
O O13 0.895062 0.500000 0.311813
O O14 0.848174 0.572564 0.620186
O O15 0.854867 0.601305 0.126713
O O16 0.000000 0.080882 0.751767
O O17 0.056424 0.000000 0.552276
O O18 0.816822 0.500000 0.998906
O O19 0.778197 0.396402 0.852963
O O20 0.254836 0.500000 0.691329
#
# Coordination Sequence:
#
# PCOD8172533 Si02
#       8
#     8   8   8   8   8   8   8   8
#     4  10  21  37  55  78 108 139 175 218 262 311
#     4  10  19  30  47  73 104 136 169 212 270 321
#     4  12  22  35  53  74 100 136 182 232 272 319
#     4  10  21  37  55  73  98 139 187 227 260 303
#     4  10  19  32  54  84 112 138 169 207 258 317
#     4  11  22  34  49  71 101 135 171 219 282 341
#     4   9  17  30  50  78 110 140 171 204 244 311
#     4   9  17  30  47  71 106 141 168 202 255 314
#
# _framework density 19.054897
#
# number of rings (size 3 to 8) (size 9 to 14) (size 15 to 20)
#    0.000    1.875    0.000    5.250    0.000    6.250 
#    0.000    0.000    0.000    4.500    0.000   13.125 
#    0.000    0.000    0.000    0.000    0.000    0.000 
#
# Total GULP energy -396752.830691 kJ/mol
# GULP energy per Si atom -12398.525959 kJ/mol
# Density = 1.901153 g / cm^3
# Si number density = 19.054897 Si / 1000 Ang^3
#
#
#
# Elastic Constant Matrix: (Units=GPa)
#
#
# Indices 1 2 3 4 5 6 
#
# 1 107.0357 46.3812 23.6412 0.0000 0.0000 0.0000
# 2 46.3812 57.2148 14.4198 0.0000 0.0000 0.0000
# 3 23.6412 14.4198 101.2821 0.0000 0.0000 0.0000
# 4 0.0000 0.0000 0.0000 22.8984 0.0000 0.0000
# 5 0.0000 0.0000 0.0000 0.0000 34.6711 0.0000
# 6 0.0000 0.0000 0.0000 0.0000 0.0000 13.6439
#
#
#
# Elastic Compliance Matrix: (Units=1/GPa)
#
#
# Indices 1 2 3 4 5 6 
#
# 1 0.014712 -0.011472 -0.001801 0.000000 0.000000 0.000000
# 2 -0.011472 0.027074 -0.001177 0.000000 0.000000 0.000000
# 3 -0.001801 -0.001177 0.010461 0.000000 0.000000 0.000000
# 4 0.000000 0.000000 0.000000 0.043671 0.000000 0.000000
# 5 0.000000 0.000000 0.000000 0.000000 0.028842 0.000000
# 6 0.000000 0.000000 0.000000 0.000000 0.000000 0.073293
#
#
# Mechanical properties :
#
#
# Convention : Reuss Voigt Hill
#
# Bulk Modulus (GPa) = 42.83009 48.26856 45.54933
# Shear Modulus (GPa) = 21.30057 26.31538 23.80797
#
# Velocity S-wave (km/s) = 3.34706 3.72025 3.53858
# Velocity P-wave (km/s) = 6.12071 6.62118 6.37586
#
# Compressibility (1/GPa) = 0.02334807
#
# Stress axis : x y z
#
# Youngs Moduli (GPa) = 67.97399 36.93522 95.59071
#
# Poissons Ratio (x) = 0.42372 0.17212
# Poissons Ratio (y) = 0.77980 0.11250
# Poissons Ratio (z) = 0.12240 0.04347
#
# Static dielectric constant tensor:
#      x y z
#    x 3.579950 0.000000 0.000000 
#    y 0.000000 3.107560 0.000000 
#    z 0.000000 0.000000 3.665390 
# 
# 
# High freq. dielectric constant tensor:
#      x y z
#    x 1.741510 0.000000 0.000000 
#    y 0.000000 1.684490 0.000000 
#    z 0.000000 0.000000 1.765720 
# 
# From -- ./inp_files/4076.got.cif
#   From: 2010.03.12/outbox.cif.g09.slc.cpg/sg35_3_cif.got.tgz:4076.got - 2010.04.14 02:02:04.
