data_PCOD8172133
_publ_section_title
;
Structure prediction by ZEFSAII (Michael W. Deem and Ramdas Pophale) SiO2 
 PCOD8172133
Probable space group: P N N 2
;
_chemical_formula_sum "Si O2"
_cell_formula_units_Z 24
_cell_length_a 22.312094
_cell_length_b 9.124467
_cell_length_c 5.065790
_cell_angle_alpha 90.000000
_cell_angle_beta 90.000000
_cell_angle_gamma 90.000000
_cell_volume 1031.323748
_symmetry_space_group_name_H-M "P N N 2"
_symmetry_group_IT_number 34
_symmetry_cell_setting 'orthorhombic'
loop_
_space_group_symop_operation_xyz
x,y,z
-x,-y,z
1/2-x,1/2+y,1/2+z
1/2+x,1/2-y,1/2+z
loop_
_atom_site_type_symbol
_atom_site_label
_atom_site_fract_x
_atom_site_fract_y
_atom_site_fract_z
Si Si1 0.927951 0.988684 0.932610
Si Si2 0.291855 0.833856 0.984663
Si Si3 0.099719 0.690878 0.952202
Si Si4 0.410826 0.684830 0.935887
Si Si5 0.471128 0.146224 0.949774
Si Si6 0.776186 0.469988 0.988412
O O1 0.901662 0.944580 0.647665
O O2 0.895486 0.137864 0.021784
O O3 0.903497 0.869069 0.137560
O O4 0.000000 0.000000 0.940096
O O5 0.270726 0.663954 0.979704
O O6 0.269779 0.922810 0.238981
O O7 0.364541 0.820137 0.977931
O O8 0.265941 0.925391 0.739372
O O9 0.083471 0.682617 0.643950
O O10 0.049997 0.624009 0.148713
O O11 0.159693 0.604731 0.006039
O O12 0.479559 0.728899 0.978721
O O13 0.500000 0.000000 0.058524
#
# Coordination Sequence:
#
# PCOD8172133 Si02
#       6
#     4   4   4   4   4   4
#     4  12  23  42  66 107 138 189 227 284 352 430
#     4  12  29  51  77 106 143 188 246 298 363 423
#     4  12  25  41  69  97 143 173 237 283 351 423
#     4  12  24  42  69  99 146 176 238 287 354 423
#     4  12  23  40  65  98 133 184 217 293 355 423
#     4  12  28  51  74 108 139 190 242 300 358 431
#
# _framework density 23.271063999999999
#
# number of rings (size 3 to 8) (size 9 to 14) (size 15 to 20)
#    0.000    0.000    3.333    7.000    4.667    0.000 
#    0.000    0.000    0.000    0.000    0.000    0.000 
#    0.000    0.000    0.000    0.000    0.000    0.000 
#
# Total GULP energy -297666.962651 kJ/mol
# GULP energy per Si atom -12402.790110 kJ/mol
# Density = 2.321810 g / cm^3
# Si number density = 23.271064 Si / 1000 Ang^3
#
#
#
# Elastic Constant Matrix: (Units=GPa)
#
#
# Indices 1 2 3 4 5 6 
#
# 1 63.8478 20.0474 27.2691 0.0000 0.0000 0.0000
# 2 20.0474 100.0441 38.4439 0.0000 0.0000 0.0000
# 3 27.2691 38.4439 147.8836 0.0000 0.0000 0.0000
# 4 0.0000 0.0000 0.0000 50.2613 0.0000 0.0000
# 5 0.0000 0.0000 0.0000 0.0000 23.7196 0.0000
# 6 0.0000 0.0000 0.0000 0.0000 0.0000 46.8259
#
#
#
# Elastic Compliance Matrix: (Units=1/GPa)
#
#
# Indices 1 2 3 4 5 6 
#
# 1 0.017558 -0.002527 -0.002581 0.000000 0.000000 0.000000
# 2 -0.002527 0.011469 -0.002515 0.000000 0.000000 0.000000
# 3 -0.002581 -0.002515 0.007892 0.000000 0.000000 0.000000
# 4 0.000000 0.000000 0.000000 0.019896 0.000000 0.000000
# 5 0.000000 0.000000 0.000000 0.000000 0.042159 0.000000
# 6 0.000000 0.000000 0.000000 0.000000 0.000000 0.021356
#
#
# Mechanical properties :
#
#
# Convention : Reuss Voigt Hill
#
# Bulk Modulus (GPa) = 46.14143 53.69958 49.92051
# Shear Modulus (GPa) = 35.01424 39.22902 37.12163
#
# Velocity S-wave (km/s) = 3.88316 4.11023 3.99831
# Velocity P-wave (km/s) = 6.32266 6.75656 6.54321
#
# Compressibility (1/GPa) = 0.02167250
#
# Stress axis : x y z
#
# Youngs Moduli (GPa) = 56.95478 87.19531 126.71257
#
# Poissons Ratio (x) = 0.22031 0.32701
# Poissons Ratio (y) = 0.14390 0.31874
# Poissons Ratio (z) = 0.14699 0.21934
#
# Static dielectric constant tensor:
#      x y z
#    x 4.139180 0.000000 0.000000 
#    y 0.000000 4.329010 0.000000 
#    z 0.000000 0.000000 4.227420 
# 
# 
# High freq. dielectric constant tensor:
#      x y z
#    x 1.911480 0.000000 0.000000 
#    y 0.000000 1.934440 0.000000 
#    z 0.000000 0.000000 1.933730 
# 
# From -- ./inp_files/1661.got.cif
#   From: 2010.03.12/outbox.cif.g09.slc.cpg/sg34_1_cif.got.tgz:1661.got - 2010.04.14 01:56:33.
