data_PCOD8172701
_publ_section_title
;
Structure prediction by ZEFSAII (Michael W. Deem and Ramdas Pophale) SiO2 
 PCOD8172701
Probable space group: C M M 2
;
_chemical_formula_sum "Si O2"
_cell_formula_units_Z 40
_cell_length_a 9.051872
_cell_length_b 19.287473
_cell_length_c 13.046866
_cell_angle_alpha 90.000000
_cell_angle_beta 90.000000
_cell_angle_gamma 90.000000
_cell_volume 2277.822807
_symmetry_space_group_name_H-M "C M M 2"
_symmetry_group_IT_number 35
_symmetry_cell_setting 'orthorhombic'
loop_
_space_group_symop_operation_xyz
x,y,z
-x,-y,z
-x,y,z
x,-y,z
1/2+x,1/2+y,z
1/2-x,1/2-y,z
1/2-x,1/2+y,z
1/2+x,1/2-y,z
loop_
_atom_site_type_symbol
_atom_site_label
_atom_site_fract_x
_atom_site_fract_y
_atom_site_fract_z
Si Si1 0.328388 0.918875 0.534200
Si Si2 0.672209 0.579828 0.326699
Si Si3 0.825635 0.175140 0.700003
Si Si4 0.826599 0.823860 0.143847
Si Si5 0.669642 0.678616 0.922660
O O1 0.500000 0.899456 0.538370
O O2 0.264462 0.895371 0.424846
O O3 0.241919 0.878659 0.621489
O O4 0.300702 0.000000 0.551903
O O5 0.500000 0.592735 0.349276
O O6 0.703753 0.500000 0.301043
O O7 0.730943 0.623403 0.229899
O O8 0.750000 0.250000 0.687287
O O9 0.793073 0.141668 0.813965
O O10 0.000000 0.183397 0.679869
O O11 0.750000 0.750000 0.158365
O O12 0.000000 0.811783 0.156622
O O13 0.790544 0.858828 0.031160
O O14 0.500000 0.698005 0.923032
O O15 0.750000 0.750000 0.923471
#
# Coordination Sequence:
#
# PCOD8172701 Si02
#       5
#     8   8   8   8   8
#     4  10  21  36  52  70  96 130 166 205 248 292
#     4   9  18  33  51  69  93 127 163 198 239 288
#     4  10  19  32  52  76 101 129 163 202 242 288
#     4   9  17  30  49  73  98 124 156 194 236 282
#     4   8  15  28  46  70  98 126 155 189 234 284
#
# _framework density 17.560628000000001
#
# number of rings (size 3 to 8) (size 9 to 14) (size 15 to 20)
#    0.000    2.800    0.000    1.200    0.000    3.600 
#    0.000    3.000    0.000    3.600    0.000    2.800 
#    0.000    0.000    0.000    0.000    0.000    0.000 
#
# Total GULP energy -247768.148933 kJ/mol
# GULP energy per Si atom -12388.407447 kJ/mol
# Density = 1.752066 g / cm^3
# Si number density = 17.560628 Si / 1000 Ang^3
#
#
#
# Elastic Constant Matrix: (Units=GPa)
#
#
# Indices 1 2 3 4 5 6 
#
# 1 69.5518 35.7487 70.7994 0.0000 0.0000 0.0000
# 2 35.7487 58.0609 76.0502 0.0000 0.0000 0.0000
# 3 70.7994 76.0502 202.7938 0.0000 0.0000 0.0000
# 4 0.0000 0.0000 0.0000 1.1286 0.0000 0.0000
# 5 0.0000 0.0000 0.0000 0.0000 14.2906 0.0000
# 6 0.0000 0.0000 0.0000 0.0000 0.0000 25.2841
#
#
#
# Elastic Compliance Matrix: (Units=1/GPa)
#
#
# Indices 1 2 3 4 5 6 
#
# 1 0.023826 -0.007419 -0.005536 0.000000 0.000000 0.000000
# 2 -0.007419 0.036161 -0.010971 0.000000 0.000000 0.000000
# 3 -0.005536 -0.010971 0.010978 0.000000 0.000000 0.000000
# 4 0.000000 0.000000 0.000000 0.886017 0.000000 0.000000
# 5 0.000000 0.000000 0.000000 0.000000 0.069976 0.000000
# 6 0.000000 0.000000 0.000000 0.000000 0.000000 0.039551
#
#
# Mechanical properties :
#
#
# Convention : Reuss Voigt Hill
#
# Bulk Modulus (GPa) = 43.26352 77.28924 60.27638
# Shear Modulus (GPa) = 4.45607 17.99455 11.22531
#
# Velocity S-wave (km/s) = 1.59469 3.20458 2.53105
# Velocity P-wave (km/s) = 5.29914 7.60268 6.55293
#
# Compressibility (1/GPa) = 0.02311416
#
# Stress axis : x y z
#
# Youngs Moduli (GPa) = 41.97040 27.65411 91.09032
#
# Poissons Ratio (x) = 0.20515 0.50429
# Poissons Ratio (y) = 0.31136 0.99934
# Poissons Ratio (z) = 0.23236 0.30339
#
# Static dielectric constant tensor:
#      x y z
#    x 4.053830 0.000000 0.000000 
#    y 0.000000 2.959120 0.000000 
#    z 0.000000 0.000000 4.112350 
# 
# 
# High freq. dielectric constant tensor:
#      x y z
#    x 1.683980 0.000000 0.000000 
#    y 0.000000 1.641690 0.000000 
#    z 0.000000 0.000000 1.705210 
# 
# From -- ./inp_files/11008.got.cif
#   From: 2010.03.12/outbox.cif.g09.slc.cpg/sg35_6_cif.got.tgz:11008.got - 2010.04.14 02:02:04.
