data_PCOD8172745
_publ_section_title
;
Structure prediction by ZEFSAII (Michael W. Deem and Ramdas Pophale) SiO2 
 PCOD8172745
Probable space group: C M M 2
;
_chemical_formula_sum "Si O2"
_cell_formula_units_Z 40
_cell_length_a 15.789000
_cell_length_b 8.566382
_cell_length_c 14.645718
_cell_angle_alpha 90.000000
_cell_angle_beta 90.000000
_cell_angle_gamma 90.000000
_cell_volume 1980.900809
_symmetry_space_group_name_H-M "C M M 2"
_symmetry_group_IT_number 35
_symmetry_cell_setting 'orthorhombic'
loop_
_space_group_symop_operation_xyz
x,y,z
-x,-y,z
-x,y,z
x,-y,z
1/2+x,1/2+y,z
1/2-x,1/2-y,z
1/2-x,1/2+y,z
1/2+x,1/2-y,z
loop_
_atom_site_type_symbol
_atom_site_label
_atom_site_fract_x
_atom_site_fract_y
_atom_site_fract_z
Si Si1 0.844328 0.185047 0.154350
Si Si2 0.500000 0.684876 0.032840
Si Si3 0.338394 0.184917 0.722169
Si Si4 0.342821 0.185857 0.343321
Si Si5 0.000000 0.184968 0.825714
Si Si6 0.093112 0.684518 0.534520
O O1 0.750000 0.250000 0.132800
O O2 0.882808 0.245001 0.250909
O O3 0.913065 0.244935 0.080342
O O4 0.836923 0.000000 0.156436
O O5 0.500000 0.500000 0.037576
O O6 0.500000 0.746085 0.929551
O O7 0.250000 0.250000 0.761486
O O8 0.415599 0.251812 0.779368
O O9 0.345629 0.241048 0.616117
O O10 0.340603 0.000000 0.730324
O O11 0.250000 0.250000 0.348134
O O12 0.386534 0.254021 0.434728
O O13 0.346041 0.000000 0.338778
O O14 0.000000 0.000000 0.820232
O O15 0.097896 0.500000 0.526236
O O16 0.000000 0.740863 0.563058
#
# Coordination Sequence:
#
# PCOD8172745 Si02
#       6
#     8   4   8   8   4   8
#     4  10  20  38  59  83 115 151 189 234 285 339
#     4   9  22  41  62  83 114 150 185 239 298 347
#     4  11  22  40  64  89 121 159 197 242 295 351
#     4  10  19  32  53  80 113 151 190 232 277 332
#     4  11  23  43  64  89 118 150 197 249 302 359
#     4   9  18  33  54  81 117 155 191 234 283 337
#
# _framework density 20.192834000000001
#
# number of rings (size 3 to 8) (size 9 to 14) (size 15 to 20)
#    0.000    2.000    1.000    3.900    1.400    0.800 
#    0.000   10.500    0.000    0.000    0.000    0.000 
#    0.000    0.000    0.000    0.000    0.000    0.000 
#
# Total GULP energy -247878.381333 kJ/mol
# GULP energy per Si atom -12393.919067 kJ/mol
# Density = 2.014687 g / cm^3
# Si number density = 20.192834 Si / 1000 Ang^3
#
#
#
# Elastic Constant Matrix: (Units=GPa)
#
#
# Indices 1 2 3 4 5 6 
#
# 1 135.9827 35.9027 91.2626 0.0000 0.0000 0.0000
# 2 35.9027 72.7141 43.2780 0.0000 0.0000 0.0000
# 3 91.2626 43.2780 168.1076 0.0000 0.0000 0.0000
# 4 0.0000 0.0000 0.0000 22.6132 0.0000 0.0000
# 5 0.0000 0.0000 0.0000 0.0000 23.4771 0.0000
# 6 0.0000 0.0000 0.0000 0.0000 0.0000 27.9422
#
#
#
# Elastic Compliance Matrix: (Units=1/GPa)
#
#
# Indices 1 2 3 4 5 6 
#
# 1 0.011914 -0.002401 -0.005850 0.000000 0.000000 0.000000
# 2 -0.002401 0.016725 -0.003002 0.000000 0.000000 0.000000
# 3 -0.005850 -0.003002 0.009897 0.000000 0.000000 0.000000
# 4 0.000000 0.000000 0.000000 0.044222 0.000000 0.000000
# 5 0.000000 0.000000 0.000000 0.000000 0.042595 0.000000
# 6 0.000000 0.000000 0.000000 0.000000 0.000000 0.035788
#
#
# Mechanical properties :
#
#
# Convention : Reuss Voigt Hill
#
# Bulk Modulus (GPa) = 62.38262 79.74343 71.06303
# Shear Modulus (GPa) = 26.45652 28.56390 27.51021
#
# Velocity S-wave (km/s) = 3.62359 3.76514 3.69504
# Velocity P-wave (km/s) = 6.96187 7.64712 7.31253
#
# Compressibility (1/GPa) = 0.01603011
#
# Stress axis : x y z
#
# Youngs Moduli (GPa) = 83.93749 59.79140 101.03916
#
# Poissons Ratio (x) = 0.14355 0.59104
# Poissons Ratio (y) = 0.20152 0.30335
# Poissons Ratio (z) = 0.49100 0.17951
#
# Static dielectric constant tensor:
#      x y z
#    x 3.784740 0.000000 0.000000 
#    y 0.000000 3.462350 0.000000 
#    z 0.000000 0.000000 4.444080 
# 
# 
# High freq. dielectric constant tensor:
#      x y z
#    x 1.796020 0.000000 0.000000 
#    y 0.000000 1.769740 0.000000 
#    z 0.000000 0.000000 1.796920 
# 
# From -- ./inp_files/16614.got.cif
#   From: 2010.03.12/outbox.cif.g09.slc.cpg/sg35_9_cif.got.tgz:16614.got - 2010.04.14 02:02:04.
