data_PCOD8172947
_publ_section_title
;
Structure prediction by ZEFSAII (Michael W. Deem and Ramdas Pophale) SiO2 
 PCOD8172947
Probable space group: C M M 2
;
_chemical_formula_sum "Si O2"
_cell_formula_units_Z 48
_cell_length_a 8.966259
_cell_length_b 15.804558
_cell_length_c 17.093111
_cell_angle_alpha 90.000000
_cell_angle_beta 90.000000
_cell_angle_gamma 90.000000
_cell_volume 2422.226478
_symmetry_space_group_name_H-M "C M M 2"
_symmetry_group_IT_number 35
_symmetry_cell_setting 'orthorhombic'
loop_
_space_group_symop_operation_xyz
x,y,z
-x,-y,z
-x,y,z
x,-y,z
1/2+x,1/2+y,z
1/2-x,1/2-y,z
1/2-x,1/2+y,z
1/2+x,1/2-y,z
loop_
_atom_site_type_symbol
_atom_site_label
_atom_site_fract_x
_atom_site_fract_y
_atom_site_fract_z
Si Si1 0.322326 0.159631 0.974020
Si Si2 0.338031 0.403460 0.289935
Si Si3 0.822920 0.164260 0.618529
Si Si4 0.177356 0.905811 0.456871
Si Si5 0.173185 0.664303 0.151829
Si Si6 0.825047 0.000000 0.708922
Si Si7 0.323130 0.500000 0.890349
O O1 0.500000 0.163722 0.960189
O O2 0.250000 0.250000 0.950472
O O3 0.249780 0.084682 0.924844
O O4 0.281996 0.137714 0.064091
O O5 0.500000 0.362908 0.267800
O O6 0.364305 0.500000 0.311982
O O7 0.273303 0.365264 0.372142
O O8 0.226674 0.402079 0.216430
O O9 0.750000 0.250000 0.651757
O O10 0.768303 0.152191 0.528770
O O11 0.760827 0.085169 0.669270
O O12 0.000000 0.171855 0.626250
O O13 0.000000 0.910842 0.458656
O O14 0.244405 0.000000 0.469537
O O15 0.250000 0.750000 0.178120
O O16 0.000000 0.676924 0.157573
O O17 0.783238 0.000000 0.799631
O O18 0.000000 0.000000 0.694849
O O19 0.500000 0.500000 0.906785
#
# Coordination Sequence:
#
# PCOD8172947 Si02
#       7
#     8   8   8   8   8   4   4
#     4  10  22  41  62  87 118 154 195 241 290 346
#     4   9  18  31  50  79 110 144 188 229 270 324
#     4  10  19  35  59  84 111 148 189 229 276 331
#     4   8  14  29  53  76 104 147 191 228 268 324
#     4  10  21  36  54  75 106 145 186 230 280 330
#     4   9  20  39  61  84 113 148 186 225 275 345
#     4  11  23  39  63  92 117 150 192 235 293 357
#
# _framework density 19.816479000000001
#
# number of rings (size 3 to 8) (size 9 to 14) (size 15 to 20)
#    0.000    2.500    0.833    2.250    1.167    3.667 
#    0.000    6.250    0.000    1.000    0.000    0.000 
#    0.000    0.000    0.000    0.000    0.000    0.000 
#
# Total GULP energy -297399.508926 kJ/mol
# GULP energy per Si atom -12391.646205 kJ/mol
# Density = 1.977138 g / cm^3
# Si number density = 19.816479 Si / 1000 Ang^3
#
#
#
# Elastic Constant Matrix: (Units=GPa)
#
#
# Indices 1 2 3 4 5 6 
#
# 1 56.7869 41.4142 45.7268 0.0000 0.0000 0.0000
# 2 41.4142 132.2290 73.6093 0.0000 0.0000 0.0000
# 3 45.7268 73.6093 136.5694 0.0000 0.0000 0.0000
# 4 0.0000 0.0000 0.0000 16.8665 0.0000 0.0000
# 5 0.0000 0.0000 0.0000 0.0000 15.1575 0.0000
# 6 0.0000 0.0000 0.0000 0.0000 0.0000 31.4441
#
#
#
# Elastic Compliance Matrix: (Units=1/GPa)
#
#
# Indices 1 2 3 4 5 6 
#
# 1 0.026015 -0.004713 -0.006170 0.000000 0.000000 0.000000
# 2 -0.004713 0.011658 -0.004706 0.000000 0.000000 0.000000
# 3 -0.006170 -0.004706 0.011925 0.000000 0.000000 0.000000
# 4 0.000000 0.000000 0.000000 0.059289 0.000000 0.000000
# 5 0.000000 0.000000 0.000000 0.000000 0.065974 0.000000
# 6 0.000000 0.000000 0.000000 0.000000 0.000000 0.031802
#
#
# Mechanical properties :
#
#
# Convention : Reuss Voigt Hill
#
# Bulk Modulus (GPa) = 54.28829 71.89844 63.09337
# Shear Modulus (GPa) = 20.49330 23.68263 22.08797
#
# Velocity S-wave (km/s) = 3.21932 3.46077 3.34222
# Velocity P-wave (km/s) = 6.42446 7.23396 6.84119
#
# Compressibility (1/GPa) = 0.01842018
#
# Stress axis : x y z
#
# Youngs Moduli (GPa) = 38.43864 85.77561 83.86095
#
# Poissons Ratio (x) = 0.40428 0.51744
# Poissons Ratio (y) = 0.18117 0.39462
# Poissons Ratio (z) = 0.23718 0.40363
#
# Static dielectric constant tensor:
#      x y z
#    x 3.346510 0.000000 0.000000 
#    y 0.000000 3.484430 0.000000 
#    z 0.000000 0.000000 3.868760 
# 
# 
# High freq. dielectric constant tensor:
#      x y z
#    x 1.744260 0.000000 0.000000 
#    y 0.000000 1.766960 0.000000 
#    z 0.000000 0.000000 1.782840 
# 
# From -- ./inp_files/17832.got.cif
#   From: 2010.03.12/outbox.cif.g09.slc.cpg/sg35_9_cif.got.tgz:17832.got - 2010.04.14 02:02:04.
