data_PCOD8172911
_publ_section_title
;
Structure prediction by ZEFSAII (Michael W. Deem and Ramdas Pophale) SiO2 
 PCOD8172911
Probable space group: C M M 2
;
_chemical_formula_sum "Si O2"
_cell_formula_units_Z 64
_cell_length_a 14.968288
_cell_length_b 23.011202
_cell_length_c 8.937763
_cell_angle_alpha 90.000000
_cell_angle_beta 90.000000
_cell_angle_gamma 90.000000
_cell_volume 3078.507882
_symmetry_space_group_name_H-M "C M M 2"
_symmetry_group_IT_number 35
_symmetry_cell_setting 'orthorhombic'
loop_
_space_group_symop_operation_xyz
x,y,z
-x,-y,z
-x,y,z
x,-y,z
1/2+x,1/2+y,z
1/2-x,1/2-y,z
1/2-x,1/2+y,z
1/2+x,1/2-y,z
loop_
_atom_site_type_symbol
_atom_site_label
_atom_site_fract_x
_atom_site_fract_y
_atom_site_fract_z
Si Si1 0.725325 0.879360 0.865800
Si Si2 0.400522 0.779458 0.738954
Si Si3 0.102123 0.615608 0.352202
Si Si4 0.100330 0.860853 0.364906
Si Si5 0.398988 0.648225 0.715619
Si Si6 0.401102 0.063377 0.659319
Si Si7 0.351967 0.237639 0.404379
Si Si8 0.755365 0.932657 0.180560
O O1 0.675728 0.818656 0.819426
O O2 0.824911 0.888441 0.801616
O O3 0.666429 0.930643 0.796322
O O4 0.735873 0.890732 0.040671
O O5 0.500000 0.801393 0.787145
O O6 0.386871 0.712595 0.784732
O O7 0.400586 0.777391 0.559018
O O8 0.117084 0.610710 0.531176
O O9 0.133018 0.680408 0.302033
O O10 0.163920 0.567811 0.273980
O O11 0.000000 0.603092 0.307217
O O12 0.123852 0.858302 0.540668
O O13 0.108318 0.793173 0.314604
O O14 0.164982 0.904497 0.277761
O O15 0.000000 0.883151 0.335434
O O16 0.500000 0.625627 0.746976
O O17 0.500000 0.072116 0.725525
O O18 0.390358 0.000000 0.586343
O O19 0.250000 0.250000 0.440472
O O20 0.778630 0.000000 0.140859
#
# Coordination Sequence:
#
# PCOD8172911 Si02
#       8
#     8   8   8   8   8   8   8   8
#     4  12  22  38  62  86 127 174 212 260 313 383
#     4  10  19  34  60  97 130 157 199 254 319 386
#     4  11  22  40  64  92 127 164 211 271 324 376
#     4  10  21  42  70  97 126 162 212 276 334 386
#     4   9  20  39  66  96 123 155 203 269 334 388
#     4  10  21  37  61  91 120 160 215 268 316 370
#     4  11  18  35  68 101 130 160 197 263 329 388
#     4  12  28  45  60  87 130 180 225 261 314 388
#
# _framework density 20.789292
#
# number of rings (size 3 to 8) (size 9 to 14) (size 15 to 20)
#    0.000    1.375    2.500    5.625    0.000    2.500 
#    4.500    0.625    0.000    2.625    0.000    0.000 
#    0.000    0.000    0.000    0.000    0.000    0.000 
#
# Total GULP energy -396558.636741 kJ/mol
# GULP energy per Si atom -12392.457398 kJ/mol
# Density = 2.074197 g / cm^3
# Si number density = 20.789292 Si / 1000 Ang^3
#
#
#
# Elastic Constant Matrix: (Units=GPa)
#
#
# Indices 1 2 3 4 5 6 
#
# 1 160.1134 42.9457 59.9024 0.0000 0.0000 0.0000
# 2 42.9457 96.6134 31.1247 0.0000 0.0000 0.0000
# 3 59.9024 31.1247 69.3517 0.0000 0.0000 0.0000
# 4 0.0000 0.0000 0.0000 26.4481 0.0000 0.0000
# 5 0.0000 0.0000 0.0000 0.0000 7.9885 0.0000
# 6 0.0000 0.0000 0.0000 0.0000 0.0000 27.1467
#
#
#
# Elastic Compliance Matrix: (Units=1/GPa)
#
#
# Indices 1 2 3 4 5 6 
#
# 1 0.009501 -0.001847 -0.007378 0.000000 0.000000 0.000000
# 2 -0.001847 0.012459 -0.003997 0.000000 0.000000 0.000000
# 3 -0.007378 -0.003997 0.022585 0.000000 0.000000 0.000000
# 4 0.000000 0.000000 0.000000 0.037810 0.000000 0.000000
# 5 0.000000 0.000000 0.000000 0.000000 0.125180 0.000000
# 6 0.000000 0.000000 0.000000 0.000000 0.000000 0.036837
#
#
# Mechanical properties :
#
#
# Convention : Reuss Voigt Hill
#
# Bulk Modulus (GPa) = 55.23759 66.00268 60.62014
# Shear Modulus (GPa) = 18.06041 25.12371 21.59206
#
# Velocity S-wave (km/s) = 2.95063 3.48011 3.22625
# Velocity P-wave (km/s) = 6.18354 6.92572 6.56512
#
# Compressibility (1/GPa) = 0.01810361
#
# Stress axis : x y z
#
# Youngs Moduli (GPa) = 105.25122 80.26434 44.27628
#
# Poissons Ratio (x) = 0.14821 0.32666
# Poissons Ratio (y) = 0.19435 0.17695
# Poissons Ratio (z) = 0.77653 0.32078
#
# Static dielectric constant tensor:
#      x y z
#    x 3.914750 0.000000 0.000000 
#    y 0.000000 3.777450 0.000000 
#    z 0.000000 0.000000 3.313860 
# 
# 
# High freq. dielectric constant tensor:
#      x y z
#    x 1.831650 0.000000 0.000000 
#    y 0.000000 1.812250 0.000000 
#    z 0.000000 0.000000 1.770570 
# 
# From -- ./inp_files/7840.got.cif
#   From: 2010.03.12/outbox.cif.g09.slc.cpg/sg35_4_cif.got.tgz:7840.got - 2010.04.14 02:02:04.
