data_PCOD8172081
_publ_section_title
;
Structure prediction by ZEFSAII (Michael W. Deem and Ramdas Pophale) SiO2 
 PCOD8172081
Probable space group: P N N 2
;
_chemical_formula_sum "Si O2"
_cell_formula_units_Z 14
_cell_length_a 5.248336
_cell_length_b 5.303266
_cell_length_c 19.214847
_cell_angle_alpha 90.000000
_cell_angle_beta 90.000000
_cell_angle_gamma 90.000000
_cell_volume 534.813021
_symmetry_space_group_name_H-M "P N N 2"
_symmetry_group_IT_number 34
_symmetry_cell_setting 'orthorhombic'
loop_
_space_group_symop_operation_xyz
x,y,z
-x,-y,z
1/2-x,1/2+y,1/2+z
1/2+x,1/2-y,1/2+z
loop_
_atom_site_type_symbol
_atom_site_label
_atom_site_fract_x
_atom_site_fract_y
_atom_site_fract_z
Si Si1 0.246674 0.333141 0.205190
Si Si2 0.247433 0.338058 0.357820
Si Si3 0.500000 0.000000 0.101860
Si Si4 0.347735 0.236107 0.504231
O O1 0.500000 0.500000 0.200496
O O2 0.218595 0.204147 0.282302
O O3 0.000000 0.500000 0.187819
O O4 0.270196 0.106459 0.149837
O O5 0.500000 0.500000 0.353068
O O6 0.267833 0.155280 0.425071
O O7 0.000000 0.500000 0.373303
O O8 0.396854 0.773947 0.053332
O O9 0.500000 0.500000 0.503234
O O10 0.500000 0.000000 0.536182
#
# Coordination Sequence:
#
# PCOD8172081 Si02
#       4
#     4   4   2   4
#     4  10  25  45  76 108 156 204 267 328 405 474
#     4   9  19  46  73 109 147 204 262 332 391 481
#     4  12  28  44  76 118 156 216 264 340 402 492
#     4  11  27  47  77 111 159 206 268 329 407 478
#
# _framework density 26.177375999999999
#
# number of rings (size 3 to 8) (size 9 to 14) (size 15 to 20)
#    0.000    1.714    1.429    0.000   10.000    0.000 
#    0.000    0.000    0.000    0.000    0.000    0.000 
#    0.000    0.000    0.000    0.000    0.000    0.000 
#
# Total GULP energy -173530.165273 kJ/mol
# GULP energy per Si atom -12395.011805 kJ/mol
# Density = 2.611780 g / cm^3
# Si number density = 26.177376 Si / 1000 Ang^3
#
#
#
# Elastic Constant Matrix: (Units=GPa)
#
#
# Indices 1 2 3 4 5 6 
#
# 1 165.9631 44.5687 43.9375 0.0000 0.0000 0.0000
# 2 44.5687 108.4225 57.5333 0.0000 0.0000 0.0000
# 3 43.9375 57.5333 218.3491 0.0000 0.0000 0.0000
# 4 0.0000 0.0000 0.0000 -15.5548 0.0000 0.0000
# 5 0.0000 0.0000 0.0000 0.0000 -11.2035 0.0000
# 6 0.0000 0.0000 0.0000 0.0000 0.0000 45.2218
#
#
#
# Elastic Compliance Matrix: (Units=1/GPa)
#
#
# Indices 1 2 3 4 5 6 
#
# 1 0.006875 -0.002432 -0.000743 0.000000 0.000000 0.000000
# 2 -0.002432 0.011583 -0.002563 0.000000 0.000000 0.000000
# 3 -0.000743 -0.002563 0.005404 0.000000 0.000000 0.000000
# 4 0.000000 0.000000 0.000000 -0.064289 0.000000 0.000000
# 5 0.000000 0.000000 0.000000 0.000000 -0.089258 0.000000
# 6 0.000000 0.000000 0.000000 0.000000 0.000000 0.022113
#
#
# Mechanical properties :
#
#
# Convention : Reuss Voigt Hill
#
# Bulk Modulus (GPa) = 80.72439 87.20152 83.96295
# Shear Modulus (GPa) = -54.36739 26.80570 -13.78084
#
# Velocity S-wave (km/s) = -4.56223 3.20348 -2.29692
# Velocity P-wave (km/s) = 1.77553 6.86055 5.01097
#
# Compressibility (1/GPa) = 0.01238783
#
# Stress axis : x y z
#
# Youngs Moduli (GPa) = 145.45116 86.33559 185.03189
#
# Poissons Ratio (x) = 0.20997 0.13741
# Poissons Ratio (y) = 0.35375 0.47416
# Poissons Ratio (z) = 0.10802 0.22124
#
# Static dielectric constant tensor:
#      x y z
#    x 4.903140 0.000000 0.000000 
#    y 0.000000 4.117180 0.000000 
#    z 0.000000 0.000000 5.894510 
# 
# 
# High freq. dielectric constant tensor:
#      x y z
#    x 2.062450 0.000000 0.000000 
#    y 0.000000 2.000050 0.000000 
#    z 0.000000 0.000000 2.088430 
# 
# From -- ./inp_files/7021.got.cif
#   From: 2010.03.12/outbox.cif.g09.slc.cpg/sg34_4_cif.got.tgz:7021.got - 2010.04.14 01:56:33.
