data_PCOD8172633
_publ_section_title
;
Structure prediction by ZEFSAII (Michael W. Deem and Ramdas Pophale) SiO2 
 PCOD8172633
Probable space group: C M M 2
;
_chemical_formula_sum "Si O2"
_cell_formula_units_Z 64
_cell_length_a 28.383066
_cell_length_b 8.866821
_cell_length_c 15.611409
_cell_angle_alpha 90.000000
_cell_angle_beta 90.000000
_cell_angle_gamma 90.000000
_cell_volume 3928.885299
_symmetry_space_group_name_H-M "C M M 2"
_symmetry_group_IT_number 35
_symmetry_cell_setting 'orthorhombic'
loop_
_space_group_symop_operation_xyz
x,y,z
-x,-y,z
-x,y,z
x,-y,z
1/2+x,1/2+y,z
1/2-x,1/2-y,z
1/2-x,1/2+y,z
1/2+x,1/2-y,z
loop_
_atom_site_type_symbol
_atom_site_label
_atom_site_fract_x
_atom_site_fract_y
_atom_site_fract_z
Si Si1 0.552716 0.823504 0.561050
Si Si2 0.642060 0.676524 0.824840
Si Si3 0.800543 0.824200 0.332423
Si Si4 0.553623 0.824599 0.757158
Si Si5 0.199476 0.823097 0.655960
Si Si6 0.699277 0.676660 0.144642
Si Si7 0.301697 0.821142 0.976643
Si Si8 0.641837 0.321512 0.493045
O O1 0.500000 0.780794 0.531044
O O2 0.560032 0.772174 0.659055
O O3 0.588899 0.739218 0.499237
O O4 0.561236 0.000000 0.553144
O O5 0.645812 0.500000 0.845615
O O6 0.587546 0.724306 0.816376
O O7 0.668546 0.720900 0.737785
O O8 0.664865 0.772245 0.900171
O O9 0.750000 0.750000 0.343940
O O10 0.823952 0.794429 0.238278
O O11 0.836052 0.760981 0.404243
O O12 0.791910 0.000000 0.346250
O O13 0.500000 0.795608 0.786926
O O14 0.566634 0.000000 0.767106
O O15 0.250000 0.750000 0.665728
O O16 0.173350 0.759539 0.571648
O O17 0.206769 0.000000 0.648642
O O18 0.702915 0.500000 0.123757
O O19 0.750000 0.750000 0.150967
O O20 0.673865 0.760454 0.065069
O O21 0.250000 0.750000 0.964101
O O22 0.297039 0.000000 0.978994
O O23 0.639483 0.500000 0.495501
#
# Coordination Sequence:
#
# PCOD8172633 Si02
#       8
#     8   8   8   8   8   8   8   8
#     4   9  18  32  49  69  92 121 159 200 240 280
#     4  11  21  33  48  70  96 127 163 198 235 281
#     4   9  18  30  47  69  97 127 159 196 235 279
#     4   9  18  33  51  70  93 122 158 201 245 285
#     4  10  21  32  43  62  92 128 162 192 223 266
#     4   9  16  29  47  68  92 122 156 197 240 280
#     4  11  21  33  49  70  96 128 161 199 240 284
#     4  10  19  32  46  68  96 125 160 196 234 278
#
# _framework density 16.289607
#
# number of rings (size 3 to 8) (size 9 to 14) (size 15 to 20)
#    0.000    2.250    1.250    4.125    0.000    4.000 
#    0.000    1.250    0.000    0.000    0.000    0.875 
#    0.000    5.000    0.000    0.000    0.000    0.000 
#
# Total GULP energy -396705.359104 kJ/mol
# GULP energy per Si atom -12397.042472 kJ/mol
# Density = 1.625253 g / cm^3
# Si number density = 16.289607 Si / 1000 Ang^3
#
#
#
# Elastic Constant Matrix: (Units=GPa)
#
#
# Indices 1 2 3 4 5 6 
#
# 1 93.7016 36.6473 50.7853 0.0000 0.0000 0.0000
# 2 36.6473 65.8524 48.6764 0.0000 0.0000 0.0000
# 3 50.7853 48.6764 124.5990 0.0000 0.0000 0.0000
# 4 0.0000 0.0000 0.0000 16.3812 0.0000 0.0000
# 5 0.0000 0.0000 0.0000 0.0000 -3.6847 0.0000
# 6 0.0000 0.0000 0.0000 0.0000 0.0000 27.0395
#
#
#
# Elastic Compliance Matrix: (Units=1/GPa)
#
#
# Indices 1 2 3 4 5 6 
#
# 1 0.014932 -0.005358 -0.003993 0.000000 0.000000 0.000000
# 2 -0.005358 0.023274 -0.006908 0.000000 0.000000 0.000000
# 3 -0.003993 -0.006908 0.012352 0.000000 0.000000 0.000000
# 4 0.000000 0.000000 0.000000 0.061046 0.000000 0.000000
# 5 0.000000 0.000000 0.000000 0.000000 -0.271391 0.000000
# 6 0.000000 0.000000 0.000000 0.000000 0.000000 0.036983
#
#
# Mechanical properties :
#
#
# Convention : Reuss Voigt Hill
#
# Bulk Modulus (GPa) = 55.43559 61.81901 58.62730
# Shear Modulus (GPa) = -59.33063 17.81680 -20.75692
#
# Velocity S-wave (km/s) = -6.04164 3.31078 -3.57353
# Velocity P-wave (km/s) = 3.81621 7.25585 4.36371
#
# Compressibility (1/GPa) = 0.01803895
#
# Stress axis : x y z
#
# Youngs Moduli (GPa) = 66.97069 42.96671 80.95882
#
# Poissons Ratio (x) = 0.23023 0.32325
# Poissons Ratio (y) = 0.35885 0.55928
# Poissons Ratio (z) = 0.26740 0.29682
#
# Static dielectric constant tensor:
#      x y z
#    x 2.925910 0.000000 0.000000 
#    y 0.000000 3.069210 0.000000 
#    z 0.000000 0.000000 3.551010 
# 
# 
# High freq. dielectric constant tensor:
#      x y z
#    x 1.602720 0.000000 0.000000 
#    y 0.000000 1.631070 0.000000 
#    z 0.000000 0.000000 1.623240 
# 
# From -- ./inp_files/16258.got.cif
#   From: 2010.03.12/outbox.cif.g09.slc.cpg/sg35_9_cif.got.tgz:16258.got - 2010.04.14 02:02:04.
