data_PCOD8172690
_publ_section_title
;
Structure prediction by ZEFSAII (Michael W. Deem and Ramdas Pophale) SiO2 
 PCOD8172690
Probable space group: C M M 2
;
_chemical_formula_sum "Si O2"
_cell_formula_units_Z 64
_cell_length_a 8.947569
_cell_length_b 29.563224
_cell_length_c 12.448195
_cell_angle_alpha 90.000000
_cell_angle_beta 90.000000
_cell_angle_gamma 90.000000
_cell_volume 3292.783926
_symmetry_space_group_name_H-M "C M M 2"
_symmetry_group_IT_number 35
_symmetry_cell_setting 'orthorhombic'
loop_
_space_group_symop_operation_xyz
x,y,z
-x,-y,z
-x,y,z
x,-y,z
1/2+x,1/2+y,z
1/2-x,1/2-y,z
1/2-x,1/2+y,z
1/2+x,1/2-y,z
loop_
_atom_site_type_symbol
_atom_site_label
_atom_site_fract_x
_atom_site_fract_y
_atom_site_fract_z
Si Si1 0.333296 0.567467 0.230730
Si Si2 0.667373 0.667426 0.306049
Si Si3 0.177537 0.950440 0.994396
Si Si4 0.326442 0.049112 0.445430
Si Si5 0.675123 0.294222 0.088742
Si Si6 0.175860 0.645667 0.516762
Si Si7 0.176766 0.141047 0.905793
Si Si8 0.821503 0.799783 0.707073
O O1 0.500000 0.547216 0.237346
O O2 0.337482 0.620910 0.241746
O O3 0.241465 0.545792 0.327334
O O4 0.259421 0.554994 0.115796
O O5 0.500000 0.678723 0.349791
O O6 0.721420 0.701966 0.214032
O O7 0.787147 0.667909 0.401544
O O8 0.237731 0.910967 0.913844
O O9 0.000000 0.945285 0.001845
O O10 0.224348 0.000000 0.949190
O O11 0.500000 0.057375 0.428786
O O12 0.268602 0.092628 0.514206
O O13 0.294618 0.000000 0.502551
O O14 0.500000 0.289056 0.076856
O O15 0.750000 0.250000 0.039099
O O16 0.729905 0.336065 0.016601
O O17 0.270913 0.673390 0.601820
O O18 0.000000 0.650345 0.540700
O O19 0.240553 0.169446 0.805243
O O20 0.000000 0.140842 0.893462
O O21 0.750000 0.750000 0.711868
O O22 0.000000 0.794446 0.707270
#
# Coordination Sequence:
#
# PCOD8172690 Si02
#       8
#     8   8   8   8   8   8   8   8
#     4   9  15  26  47  76 107 142 182 220 258 307
#     4   9  17  31  51  75 110 146 175 215 268 320
#     4   9  15  25  47  79 111 142 176 213 260 317
#     4   9  18  32  50  75 110 150 185 218 263 318
#     4  10  19  32  51  76 107 140 172 210 261 320
#     4  10  21  37  57  80 109 142 183 228 272 323
#     4   9  18  34  53  76 108 141 174 217 267 318
#     4  11  23  40  62  82 103 135 181 232 281 330
#
# _framework density 19.436440000000001
#
# number of rings (size 3 to 8) (size 9 to 14) (size 15 to 20)
#    0.000    2.500    1.250    1.500    0.000    2.250 
#    0.000    2.500    0.000    2.250    0.000    0.000 
#    0.000    0.000    0.000    0.000    0.000    0.000 
#
# Total GULP energy -396478.860244 kJ/mol
# GULP energy per Si atom -12389.964383 kJ/mol
# Density = 1.939220 g / cm^3
# Si number density = 19.436440 Si / 1000 Ang^3
#
#
#
# Elastic Constant Matrix: (Units=GPa)
#
#
# Indices 1 2 3 4 5 6 
#
# 1 33.1516 30.4522 26.3090 0.0000 0.0000 0.0000
# 2 30.4522 158.3469 69.2612 0.0000 0.0000 0.0000
# 3 26.3090 69.2612 94.2055 0.0000 0.0000 0.0000
# 4 0.0000 0.0000 0.0000 18.3285 0.0000 0.0000
# 5 0.0000 0.0000 0.0000 0.0000 12.2719 0.0000
# 6 0.0000 0.0000 0.0000 0.0000 0.0000 16.5776
#
#
#
# Elastic Compliance Matrix: (Units=1/GPa)
#
#
# Indices 1 2 3 4 5 6 
#
# 1 0.040559 -0.004194 -0.008243 0.000000 0.000000 0.000000
# 2 -0.004194 0.009743 -0.005991 0.000000 0.000000 0.000000
# 3 -0.008243 -0.005991 0.017322 0.000000 0.000000 0.000000
# 4 0.000000 0.000000 0.000000 0.054560 0.000000 0.000000
# 5 0.000000 0.000000 0.000000 0.000000 0.081487 0.000000
# 6 0.000000 0.000000 0.000000 0.000000 0.000000 0.060322
#
#
# Mechanical properties :
#
#
# Convention : Reuss Voigt Hill
#
# Bulk Modulus (GPa) = 32.50377 59.74986 46.12681
# Shear Modulus (GPa) = 16.07168 20.08107 18.07637
#
# Velocity S-wave (km/s) = 2.87868 3.21778 3.05294
# Velocity P-wave (km/s) = 5.27337 6.67932 6.01755
#
# Compressibility (1/GPa) = 0.03076566
#
# Stress axis : x y z
#
# Youngs Moduli (GPa) = 24.65529 102.64222 57.72934
#
# Poissons Ratio (x) = 0.43053 0.47588
# Poissons Ratio (y) = 0.10342 0.34588
# Poissons Ratio (z) = 0.20324 0.61498
#
# Static dielectric constant tensor:
#      x y z
#    x 3.218070 0.000000 0.000000 
#    y 0.000000 3.944720 0.000000 
#    z 0.000000 0.000000 3.442440 
# 
# 
# High freq. dielectric constant tensor:
#      x y z
#    x 1.720090 0.000000 0.000000 
#    y 0.000000 1.775370 0.000000 
#    z 0.000000 0.000000 1.736330 
# 
# From -- ./inp_files/11876.got.cif
#   From: 2010.03.12/outbox.cif.g09.slc.cpg/sg35_6_cif.got.tgz:11876.got - 2010.04.14 02:02:04.
