data_PCOD8172996
_publ_section_title
;
Structure prediction by ZEFSAII (Michael W. Deem and Ramdas Pophale) SiO2 
 PCOD8172996
Probable space group: C M M 2
;
_chemical_formula_sum "Si O2"
_cell_formula_units_Z 64
_cell_length_a 28.680703
_cell_length_b 8.836879
_cell_length_c 15.643359
_cell_angle_alpha 90.000000
_cell_angle_beta 90.000000
_cell_angle_gamma 90.000000
_cell_volume 3964.776520
_symmetry_space_group_name_H-M "C M M 2"
_symmetry_group_IT_number 35
_symmetry_cell_setting 'orthorhombic'
loop_
_space_group_symop_operation_xyz
x,y,z
-x,-y,z
-x,y,z
x,-y,z
1/2+x,1/2+y,z
1/2-x,1/2-y,z
1/2-x,1/2+y,z
1/2+x,1/2-y,z
loop_
_atom_site_type_symbol
_atom_site_label
_atom_site_fract_x
_atom_site_fract_y
_atom_site_fract_z
Si Si1 0.449416 0.679828 0.818930
Si Si2 0.300114 0.321091 0.913733
Si Si3 0.699716 0.322711 0.584946
Si Si4 0.800686 0.677851 0.230799
Si Si5 0.854504 0.820014 0.747195
Si Si6 0.199570 0.822738 0.397654
Si Si7 0.052621 0.176159 0.014362
Si Si8 0.642257 0.823055 0.063920
O O1 0.500000 0.740345 0.785752
O O2 0.449643 0.500000 0.815785
O O3 0.406920 0.745098 0.761796
O O4 0.441928 0.730227 0.916519
O O5 0.295284 0.500000 0.916654
O O6 0.250000 0.250000 0.929391
O O7 0.320562 0.264920 0.823061
O O8 0.334706 0.270264 0.987794
O O9 0.707167 0.500000 0.597996
O O10 0.750000 0.250000 0.596593
O O11 0.664800 0.257270 0.656993
O O12 0.676950 0.289790 0.491122
O O13 0.794572 0.500000 0.240407
O O14 0.750000 0.750000 0.216039
O O15 0.825892 0.743559 0.316999
O O16 0.833343 0.722479 0.152242
O O17 0.856671 0.000000 0.746944
O O18 0.250000 0.750000 0.401047
O O19 0.203065 0.000000 0.379741
O O20 0.088117 0.274821 0.071142
O O21 0.000000 0.207169 0.046618
O O22 0.065187 0.000000 0.023421
O O23 0.647229 0.000000 0.045212
#
# Coordination Sequence:
#
# PCOD8172996 Si02
#       8
#     8   8   8   8   8   8   8   8
#     4   8  13  24  44  67  87 111 147 186 222 261
#     4  11  21  32  45  62  90 127 160 189 221 264
#     4   9  17  28  43  64  90 117 148 182 222 266
#     4  10  20  32  46  65  89 119 153 189 227 272
#     4   9  16  27  43  64  90 120 150 184 221 263
#     4   9  16  27  44  64  85 113 146 186 229 268
#     4   9  17  31  51  71  90 117 154 192 231 273
#     4  11  22  33  46  67  93 122 155 190 229 271
#
# _framework density 16.142146
#
# number of rings (size 3 to 8) (size 9 to 14) (size 15 to 20)
#    0.000    2.500    1.250    3.750    0.000    3.750 
#    0.000    0.625    0.000    0.000    0.000    0.875 
#    0.000    3.000    0.000    0.000    0.000    0.000 
#
# Total GULP energy -396584.844890 kJ/mol
# GULP energy per Si atom -12393.276403 kJ/mol
# Density = 1.610541 g / cm^3
# Si number density = 16.142146 Si / 1000 Ang^3
#
#
#
# Elastic Constant Matrix: (Units=GPa)
#
#
# Indices 1 2 3 4 5 6 
#
# 1 101.2249 25.4750 53.8639 0.0000 0.0000 0.0000
# 2 25.4750 47.7932 38.2957 0.0000 0.0000 0.0000
# 3 53.8639 38.2957 127.5639 0.0000 0.0000 0.0000
# 4 0.0000 0.0000 0.0000 18.8106 0.0000 0.0000
# 5 0.0000 0.0000 0.0000 0.0000 11.9219 0.0000
# 6 0.0000 0.0000 0.0000 0.0000 0.0000 18.6828
#
#
#
# Elastic Compliance Matrix: (Units=1/GPa)
#
#
# Indices 1 2 3 4 5 6 
#
# 1 0.013141 -0.003369 -0.004538 0.000000 0.000000 0.000000
# 2 -0.003369 0.028414 -0.007108 0.000000 0.000000 0.000000
# 3 -0.004538 -0.007108 0.011889 0.000000 0.000000 0.000000
# 4 0.000000 0.000000 0.000000 0.053161 0.000000 0.000000
# 5 0.000000 0.000000 0.000000 0.000000 0.083880 0.000000
# 6 0.000000 0.000000 0.000000 0.000000 0.000000 0.053525
#
#
# Mechanical properties :
#
#
# Convention : Reuss Voigt Hill
#
# Bulk Modulus (GPa) = 42.70495 56.87236 49.78865
# Shear Modulus (GPa) = 17.74026 20.47955 19.10990
#
# Velocity S-wave (km/s) = 3.31872 3.56575 3.44445
# Velocity P-wave (km/s) = 6.41858 7.22921 6.83592
#
# Compressibility (1/GPa) = 0.02341649
#
# Stress axis : x y z
#
# Youngs Moduli (GPa) = 76.09558 35.19337 84.11113
#
# Poissons Ratio (x) = 0.11856 0.38166
# Poissons Ratio (y) = 0.25635 0.59784
# Poissons Ratio (z) = 0.34529 0.25015
#
# Static dielectric constant tensor:
#      x y z
#    x 3.189020 0.000000 0.000000 
#    y 0.000000 2.908250 0.000000 
#    z 0.000000 0.000000 3.519830 
# 
# 
# High freq. dielectric constant tensor:
#      x y z
#    x 1.602170 0.000000 0.000000 
#    y 0.000000 1.608230 0.000000 
#    z 0.000000 0.000000 1.614910 
# 
# From -- ./inp_files/17742.got.cif
#   From: 2010.03.12/outbox.cif.g09.slc.cpg/sg35_9_cif.got.tgz:17742.got - 2010.04.14 02:02:04.
