data_PCOD8172376
_publ_section_title
;
Structure prediction by ZEFSAII (Michael W. Deem and Ramdas Pophale) SiO2 
 PCOD8172376
Probable space group: C M M 2
;
_chemical_formula_sum "Si O2"
_cell_formula_units_Z 40
_cell_length_a 8.634650
_cell_length_b 19.210560
_cell_length_c 12.895331
_cell_angle_alpha 90.000000
_cell_angle_beta 90.000000
_cell_angle_gamma 90.000000
_cell_volume 2139.031881
_symmetry_space_group_name_H-M "C M M 2"
_symmetry_group_IT_number 35
_symmetry_cell_setting 'orthorhombic'
loop_
_space_group_symop_operation_xyz
x,y,z
-x,-y,z
-x,y,z
x,-y,z
1/2+x,1/2+y,z
1/2-x,1/2-y,z
1/2-x,1/2+y,z
1/2+x,1/2-y,z
loop_
_atom_site_type_symbol
_atom_site_label
_atom_site_fract_x
_atom_site_fract_y
_atom_site_fract_z
Si Si1 0.681312 0.326038 0.102260
Si Si2 0.183406 0.672764 0.893090
Si Si3 0.820658 0.920069 0.491560
Si Si4 0.678711 0.080961 0.275419
Si Si5 0.316923 0.673450 0.683312
O O1 0.500000 0.318153 0.084928
O O2 0.750000 0.250000 0.124677
O O3 0.714724 0.375496 0.198658
O O4 0.755779 0.362310 0.999404
O O5 0.250000 0.750000 0.894764
O O6 0.248744 0.637566 0.788086
O O7 0.000000 0.671998 0.890856
O O8 0.720538 0.897465 0.392466
O O9 0.764158 0.874037 0.587772
O O10 0.000000 0.906814 0.465545
O O11 0.790228 0.000000 0.521235
O O12 0.500000 0.098462 0.254515
O O13 0.715753 0.000000 0.257776
O O14 0.500000 0.677995 0.693915
O O15 0.250000 0.750000 0.665192
#
# Coordination Sequence:
#
# PCOD8172376 Si02
#       5
#     8   8   8   8   8
#     4  11  21  35  56  80 107 138 175 217 261 311
#     4  10  18  31  51  75 105 137 170 210 258 310
#     4   9  19  36  55  74 100 137 177 214 256 307
#     4  10  21  37  56  78 106 139 175 216 263 314
#     4  10  19  32  52  77 104 134 170 213 257 306
#
# _framework density 18.700047999999999
#
# number of rings (size 3 to 8) (size 9 to 14) (size 15 to 20)
#    0.000    2.000    0.000    7.200    0.000    3.600 
#    0.000    3.000    0.000    3.600    0.000    0.000 
#    0.000    0.000    0.000    0.000    0.000    0.000 
#
# Total GULP energy -248000.136949 kJ/mol
# GULP energy per Si atom -12400.006847 kJ/mol
# Density = 1.865749 g / cm^3
# Si number density = 18.700048 Si / 1000 Ang^3
#
#
#
# Elastic Constant Matrix: (Units=GPa)
#
#
# Indices 1 2 3 4 5 6 
#
# 1 119.4796 30.5522 56.2265 0.0000 0.0000 0.0000
# 2 30.5522 55.6794 62.3085 0.0000 0.0000 0.0000
# 3 56.2265 62.3085 155.2209 0.0000 0.0000 0.0000
# 4 0.0000 0.0000 0.0000 -3.6943 0.0000 0.0000
# 5 0.0000 0.0000 0.0000 0.0000 37.3958 0.0000
# 6 0.0000 0.0000 0.0000 0.0000 0.0000 23.8127
#
#
#
# Elastic Compliance Matrix: (Units=1/GPa)
#
#
# Indices 1 2 3 4 5 6 
#
# 1 0.010306 -0.002682 -0.002656 0.000000 0.000000 0.000000
# 2 -0.002682 0.033306 -0.012398 0.000000 0.000000 0.000000
# 3 -0.002656 -0.012398 0.012381 0.000000 0.000000 0.000000
# 4 0.000000 0.000000 0.000000 -0.270689 0.000000 0.000000
# 5 0.000000 0.000000 0.000000 0.000000 0.026741 0.000000
# 6 0.000000 0.000000 0.000000 0.000000 0.000000 0.041994
#
#
# Mechanical properties :
#
#
# Convention : Reuss Voigt Hill
#
# Bulk Modulus (GPa) = 48.73361 69.83938 59.28649
# Shear Modulus (GPa) = -48.24050 23.58901 -12.32574
#
# Velocity S-wave (km/s) = -5.08458 3.55553 -2.57014
# Velocity P-wave (km/s) = 2.89022 7.36777 4.79221
#
# Compressibility (1/GPa) = 0.02051972
#
# Stress axis : x y z
#
# Youngs Moduli (GPa) = 97.03489 30.02479 80.76609
#
# Poissons Ratio (x) = 0.08053 0.21454
# Poissons Ratio (y) = 0.26027 1.00134
# Poissons Ratio (z) = 0.25776 0.37225
#
# Static dielectric constant tensor:
#      x y z
#    x 3.487890 0.000000 0.000000 
#    y 0.000000 3.188610 0.000000 
#    z 0.000000 0.000000 4.039810 
# 
# 
# High freq. dielectric constant tensor:
#      x y z
#    x 1.740820 0.000000 0.000000 
#    y 0.000000 1.690240 0.000000 
#    z 0.000000 0.000000 1.746950 
# 
# From -- ./inp_files/11012.got.cif
#   From: 2010.03.12/outbox.cif.g09.slc.cpg/sg35_6_cif.got.tgz:11012.got - 2010.04.14 02:02:04.
