data_PCOD8172388
_publ_section_title
;
Structure prediction by ZEFSAII (Michael W. Deem and Ramdas Pophale) SiO2 
 PCOD8172388
Probable space group: C M M 2
;
_chemical_formula_sum "Si O2"
_cell_formula_units_Z 56
_cell_length_a 8.539022
_cell_length_b 23.185242
_cell_length_c 15.400010
_cell_angle_alpha 90.000000
_cell_angle_beta 90.000000
_cell_angle_gamma 90.000000
_cell_volume 3048.883069
_symmetry_space_group_name_H-M "C M M 2"
_symmetry_group_IT_number 35
_symmetry_cell_setting 'orthorhombic'
loop_
_space_group_symop_operation_xyz
x,y,z
-x,-y,z
-x,y,z
x,-y,z
1/2+x,1/2+y,z
1/2-x,1/2-y,z
1/2-x,1/2+y,z
1/2+x,1/2-y,z
loop_
_atom_site_type_symbol
_atom_site_label
_atom_site_fract_x
_atom_site_fract_y
_atom_site_fract_z
Si Si1 0.820217 0.000000 0.204031
Si Si2 0.814903 0.185845 0.614824
Si Si3 0.820068 0.688269 0.107070
Si Si4 0.183181 0.880766 0.951204
Si Si5 0.314985 0.185998 0.437622
Si Si6 0.184461 0.500000 0.015248
Si Si7 0.816251 0.686355 0.792057
Si Si8 0.320847 0.888796 0.275880
O O1 0.713533 0.000000 0.118302
O O2 0.785796 0.944658 0.263054
O O3 0.000000 0.000000 0.174120
O O4 0.750000 0.250000 0.616463
O O5 0.747296 0.156829 0.527171
O O6 0.754520 0.157336 0.704237
O O7 0.000000 0.184649 0.611599
O O8 0.750000 0.750000 0.128483
O O9 0.804311 0.651824 0.193479
O O10 0.000000 0.692422 0.075954
O O11 0.716612 0.659492 0.032981
O O12 0.275948 0.856842 0.869032
O O13 0.000000 0.880502 0.930901
O O14 0.240292 0.944930 0.970050
O O15 0.500000 0.190476 0.440243
O O16 0.250000 0.250000 0.423141
O O17 0.257368 0.145326 0.359606
O O18 0.000000 0.500000 0.999859
O O19 0.750000 0.750000 0.811953
O O20 0.000000 0.692526 0.780988
O O21 0.500000 0.908337 0.289144
#
# Coordination Sequence:
#
# PCOD8172388 Si02
#       8
#     4   8   8   8   8   4   8   8
#     4  12  24  38  60  83 106 143 192 238 280 326
#     4  10  18  31  52  80 113 149 184 228 276 332
#     4  11  22  36  54  79 112 150 183 226 278 332
#     4  12  24  39  58  83 111 145 188 233 277 331
#     4  10  19  33  54  83 114 150 186 226 278 334
#     4  12  24  42  62  81 108 145 190 234 280 330
#     4  11  21  36  57  84 116 151 187 230 280 337
#     4  10  22  38  57  78 110 149 188 231 279 330
#
# _framework density 18.367383
#
# number of rings (size 3 to 8) (size 9 to 14) (size 15 to 20)
#    0.000    1.143    1.429    8.571    0.000    1.714 
#    0.000    0.000    0.000    0.857    0.000    3.000 
#    0.000    0.000    0.000    0.000    0.000    0.000 
#
# Total GULP energy -347271.639399 kJ/mol
# GULP energy per Si atom -12402.558550 kJ/mol
# Density = 1.832558 g / cm^3
# Si number density = 18.367383 Si / 1000 Ang^3
#
#
#
# Elastic Constant Matrix: (Units=GPa)
#
#
# Indices 1 2 3 4 5 6 
#
# 1 84.5801 27.0508 15.9251 0.0000 0.0000 0.0000
# 2 27.0508 92.4637 36.2761 0.0000 0.0000 0.0000
# 3 15.9251 36.2761 124.1131 0.0000 0.0000 0.0000
# 4 0.0000 0.0000 0.0000 114.8036 0.0000 0.0000
# 5 0.0000 0.0000 0.0000 0.0000 30.8950 0.0000
# 6 0.0000 0.0000 0.0000 0.0000 0.0000 29.3508
#
#
#
# Elastic Compliance Matrix: (Units=1/GPa)
#
#
# Indices 1 2 3 4 5 6 
#
# 1 0.013087 -0.003581 -0.000633 0.000000 0.000000 0.000000
# 2 -0.003581 0.013195 -0.003397 0.000000 0.000000 0.000000
# 3 -0.000633 -0.003397 0.009131 0.000000 0.000000 0.000000
# 4 0.000000 0.000000 0.000000 0.008711 0.000000 0.000000
# 5 0.000000 0.000000 0.000000 0.000000 0.032368 0.000000
# 6 0.000000 0.000000 0.000000 0.000000 0.000000 0.034071
#
#
# Mechanical properties :
#
#
# Convention : Reuss Voigt Hill
#
# Bulk Modulus (GPa) = 49.52240 51.07343 50.29792
# Shear Modulus (GPa) = 37.73150 49.80355 43.76752
#
# Velocity S-wave (km/s) = 4.53732 5.21288 4.88679
# Velocity P-wave (km/s) = 7.38040 8.00619 7.69966
#
# Compressibility (1/GPa) = 0.02019288
#
# Stress axis : x y z
#
# Youngs Moduli (GPa) = 76.40940 75.78376 109.51292
#
# Poissons Ratio (x) = 0.27135 0.06929
# Poissons Ratio (y) = 0.27359 0.37206
# Poissons Ratio (z) = 0.04835 0.25747
#
# Static dielectric constant tensor:
#      x y z
#    x 3.517150 0.000000 0.000000 
#    y 0.000000 3.273870 0.000000 
#    z 0.000000 0.000000 4.011950 
# 
# 
# High freq. dielectric constant tensor:
#      x y z
#    x 1.731040 0.000000 0.000000 
#    y 0.000000 1.686980 0.000000 
#    z 0.000000 0.000000 1.724930 
# 
# From -- ./inp_files/15783.got.cif
#   From: 2010.03.12/outbox.cif.g09.slc.cpg/sg35_8_cif.got.tgz:15783.got - 2010.04.14 02:02:04.
