data_PCOD8172798
_publ_section_title
;
Structure prediction by ZEFSAII (Michael W. Deem and Ramdas Pophale) SiO2 
 PCOD8172798
Probable space group: C M M 2
;
_chemical_formula_sum "Si O2"
_cell_formula_units_Z 56
_cell_length_a 9.108644
_cell_length_b 21.644780
_cell_length_c 14.494160
_cell_angle_alpha 90.000000
_cell_angle_beta 90.000000
_cell_angle_gamma 90.000000
_cell_volume 2857.590252
_symmetry_space_group_name_H-M "C M M 2"
_symmetry_group_IT_number 35
_symmetry_cell_setting 'orthorhombic'
loop_
_space_group_symop_operation_xyz
x,y,z
-x,-y,z
-x,y,z
x,-y,z
1/2+x,1/2+y,z
1/2-x,1/2-y,z
1/2-x,1/2+y,z
1/2+x,1/2-y,z
loop_
_atom_site_type_symbol
_atom_site_label
_atom_site_fract_x
_atom_site_fract_y
_atom_site_fract_z
Si Si1 0.175151 0.000000 0.788821
Si Si2 0.668815 0.614138 0.461685
Si Si3 0.829563 0.619738 0.789943
Si Si4 0.825663 0.000000 0.578332
Si Si5 0.830890 0.313257 0.972427
Si Si6 0.329287 0.312370 0.634112
Si Si7 0.325265 0.930939 0.085922
Si Si8 0.171193 0.570217 0.294205
O O1 0.249770 0.939943 0.834905
O O2 0.230343 0.000000 0.682739
O O3 0.000000 0.000000 0.802445
O O4 0.500000 0.602615 0.437689
O O5 0.734158 0.559233 0.524010
O O6 0.690364 0.675077 0.524614
O O7 0.753049 0.618219 0.364647
O O8 0.744835 0.634601 0.695393
O O9 0.000000 0.605706 0.769674
O O10 0.813647 0.675500 0.863008
O O11 0.000000 0.000000 0.581747
O O12 0.750000 0.250000 0.001009
O O13 0.764666 0.374061 0.024308
O O14 0.000000 0.304801 0.000463
O O15 0.500000 0.309082 0.660830
O O16 0.250000 0.250000 0.660998
O O17 0.500000 0.932880 0.080237
O O18 0.273230 0.917318 0.190577
O O19 0.267154 0.000000 0.055790
O O20 0.210819 0.500000 0.322853
O O21 0.000000 0.582351 0.300533
#
# Coordination Sequence:
#
# PCOD8172798 Si02
#       8
#     4   8   8   4   8   8   8   8
#     4  11  21  37  57  82 117 154 186 229 287 335
#     4  10  19  33  53  76 107 145 179 215 271 334
#     4  11  23  37  57  86 114 146 191 235 280 338
#     4   9  16  31  51  74 103 140 174 209 263 321
#     4  10  22  39  61  84 111 149 190 236 286 344
#     4  11  23  39  56  75 106 151 195 234 282 335
#     4   8  16  34  59  83 110 145 184 229 286 345
#     4   9  17  30  52  83 110 136 177 227 276 327
#
# _framework density 19.59693
#
# number of rings (size 3 to 8) (size 9 to 14) (size 15 to 20)
#    0.000    2.143    2.143    2.357    1.000    3.429 
#    0.000    1.429    0.000    4.286    0.000    0.000 
#    0.000    0.000    0.000    0.000    0.000    0.000 
#
# Total GULP energy -347075.432864 kJ/mol
# GULP energy per Si atom -12395.551174 kJ/mol
# Density = 1.955233 g / cm^3
# Si number density = 19.596930 Si / 1000 Ang^3
#
#
#
# Elastic Constant Matrix: (Units=GPa)
#
#
# Indices 1 2 3 4 5 6 
#
# 1 88.0651 46.0103 34.1725 0.0000 0.0000 0.0000
# 2 46.0103 115.9180 33.3496 0.0000 0.0000 0.0000
# 3 34.1725 33.3496 77.6465 0.0000 0.0000 0.0000
# 4 0.0000 0.0000 0.0000 26.8591 0.0000 0.0000
# 5 0.0000 0.0000 0.0000 0.0000 22.0541 0.0000
# 6 0.0000 0.0000 0.0000 0.0000 0.0000 31.6541
#
#
#
# Elastic Compliance Matrix: (Units=1/GPa)
#
#
# Indices 1 2 3 4 5 6 
#
# 1 0.015782 -0.004867 -0.004855 0.000000 0.000000 0.000000
# 2 -0.004867 0.011344 -0.002730 0.000000 0.000000 0.000000
# 3 -0.004855 -0.002730 0.016188 0.000000 0.000000 0.000000
# 4 0.000000 0.000000 0.000000 0.037231 0.000000 0.000000
# 5 0.000000 0.000000 0.000000 0.000000 0.045343 0.000000
# 6 0.000000 0.000000 0.000000 0.000000 0.000000 0.031591
#
#
# Mechanical properties :
#
#
# Convention : Reuss Voigt Hill
#
# Bulk Modulus (GPa) = 54.32121 56.52161 55.42141
# Shear Modulus (GPa) = 26.52196 27.31994 26.92095
#
# Velocity S-wave (km/s) = 3.68281 3.73781 3.71041
# Velocity P-wave (km/s) = 6.77227 6.89441 6.83361
#
# Compressibility (1/GPa) = 0.01840901
#
# Stress axis : x y z
#
# Youngs Moduli (GPa) = 63.36211 88.15011 61.77281
#
# Poissons Ratio (x) = 0.42907 0.29992
# Poissons Ratio (y) = 0.30841 0.16865
# Poissons Ratio (z) = 0.30764 0.24067
#
# Static dielectric constant tensor:
#      x y z
#    x 3.242410 0.000000 0.000000 
#    y 0.000000 3.541700 0.000000 
#    z 0.000000 0.000000 3.549570 
# 
# 
# High freq. dielectric constant tensor:
#      x y z
#    x 1.738580 0.000000 0.000000 
#    y 0.000000 1.756020 0.000000 
#    z 0.000000 0.000000 1.760600 
# 
# From -- ./inp_files/15741.got.cif
#   From: 2010.03.12/outbox.cif.g09.slc.cpg/sg35_8_cif.got.tgz:15741.got - 2010.04.14 02:02:04.
