data_PCOD8172618
_publ_section_title
;
Structure prediction by ZEFSAII (Michael W. Deem and Ramdas Pophale) SiO2 
 PCOD8172618
Probable space group: C M M 2
;
_chemical_formula_sum "Si O2"
_cell_formula_units_Z 64
_cell_length_a 29.035537
_cell_length_b 9.148690
_cell_length_c 12.224241
_cell_angle_alpha 90.000000
_cell_angle_beta 90.000000
_cell_angle_gamma 90.000000
_cell_volume 3247.212259
_symmetry_space_group_name_H-M "C M M 2"
_symmetry_group_IT_number 35
_symmetry_cell_setting 'orthorhombic'
loop_
_space_group_symop_operation_xyz
x,y,z
-x,-y,z
-x,y,z
x,-y,z
1/2+x,1/2+y,z
1/2-x,1/2-y,z
1/2-x,1/2+y,z
1/2+x,1/2-y,z
loop_
_atom_site_type_symbol
_atom_site_label
_atom_site_fract_x
_atom_site_fract_y
_atom_site_fract_z
Si Si1 0.931750 0.164188 0.524780
Si Si2 0.708604 0.164185 0.397493
Si Si3 0.829171 0.837826 0.585646
Si Si4 0.948589 0.669429 0.745699
Si Si5 0.142792 0.334110 0.203385
Si Si6 0.949283 0.332921 0.306320
Si Si7 0.861980 0.828004 0.819074
Si Si8 0.700521 0.672730 0.024372
O O1 0.877064 0.158655 0.521940
O O2 0.949276 0.258792 0.626308
O O3 0.949421 0.233357 0.413042
O O4 0.951738 0.000000 0.535325
O O5 0.750000 0.250000 0.336837
O O6 0.703176 0.228971 0.519165
O O7 0.662927 0.177231 0.325604
O O8 0.725081 0.000000 0.411573
O O9 0.835755 0.778863 0.708816
O O10 0.807275 0.000000 0.587674
O O11 0.935210 0.500000 0.733420
O O12 0.911189 0.745555 0.825914
O O13 0.000000 0.686804 0.796529
O O14 0.147689 0.500000 0.158054
O O15 0.089206 0.286377 0.216233
O O16 0.170095 0.223904 0.126395
O O17 0.938924 0.500000 0.341995
O O18 0.000000 0.319203 0.251558
O O19 0.872868 0.000000 0.816214
O O20 0.828732 0.783488 0.917784
O O21 0.708704 0.500000 0.032674
O O22 0.750000 0.750000 0.021563
#
# Coordination Sequence:
#
# PCOD8172618 Si02
#       8
#     8   8   8   8   8   8   8   8
#     4  10  19  31  51  80 117 159 198 237 282 337
#     4  11  22  35  54  81 113 149 187 231 285 347
#     4   9  18  34  54  79 114 151 186 229 281 339
#     4  10  20  33  53  84 120 159 201 240 282 337
#     4  10  22  40  60  85 117 152 194 241 291 346
#     4  10  20  35  56  83 117 155 195 240 288 341
#     4   9  21  40  60  86 117 150 191 241 294 346
#     4  11  24  43  67  90 113 146 193 246 298 352
#
# _framework density 19.709215
#
# number of rings (size 3 to 8) (size 9 to 14) (size 15 to 20)
#    0.000    2.000    1.250    3.000    0.000    8.750 
#    0.000    1.875    0.000    2.250    0.000    0.000 
#    0.000    0.000    0.000    0.000    0.000    0.000 
#
# Total GULP energy -396732.373895 kJ/mol
# GULP energy per Si atom -12397.886684 kJ/mol
# Density = 1.966436 g / cm^3
# Si number density = 19.709215 Si / 1000 Ang^3
#
#
#
# Elastic Constant Matrix: (Units=GPa)
#
#
# Indices 1 2 3 4 5 6 
#
# 1 140.2978 61.5135 54.6717 0.0000 0.0000 0.0000
# 2 61.5135 111.8486 45.7948 0.0000 0.0000 0.0000
# 3 54.6717 45.7948 83.9069 0.0000 0.0000 0.0000
# 4 0.0000 0.0000 0.0000 24.3269 0.0000 0.0000
# 5 0.0000 0.0000 0.0000 0.0000 23.3371 0.0000
# 6 0.0000 0.0000 0.0000 0.0000 0.0000 29.1580
#
#
#
# Elastic Compliance Matrix: (Units=1/GPa)
#
#
# Indices 1 2 3 4 5 6 
#
# 1 0.010738 -0.003916 -0.004860 0.000000 0.000000 0.000000
# 2 -0.003916 0.012942 -0.004512 0.000000 0.000000 0.000000
# 3 -0.004860 -0.004512 0.017547 0.000000 0.000000 0.000000
# 4 0.000000 0.000000 0.000000 0.041107 0.000000 0.000000
# 5 0.000000 0.000000 0.000000 0.000000 0.042850 0.000000
# 6 0.000000 0.000000 0.000000 0.000000 0.000000 0.034296
#
#
# Mechanical properties :
#
#
# Convention : Reuss Voigt Hill
#
# Bulk Modulus (GPa) = 68.24954 73.33481 70.79218
# Shear Modulus (GPa) = 26.18649 26.96930 26.57789
#
# Velocity S-wave (km/s) = 3.64901 3.70315 3.67618
# Velocity P-wave (km/s) = 7.24273 7.45477 7.34951
#
# Compressibility (1/GPa) = 0.01465211
#
# Stress axis : x y z
#
# Youngs Moduli (GPa) = 93.12372 77.26983 56.99089
#
# Poissons Ratio (x) = 0.30260 0.27695
# Poissons Ratio (y) = 0.36469 0.25712
# Poissons Ratio (z) = 0.45254 0.34861
#
# Static dielectric constant tensor:
#      x y z
#    x 3.768470 0.000000 0.000000 
#    y 0.000000 3.669520 0.000000 
#    z 0.000000 0.000000 3.312020 
# 
# 
# High freq. dielectric constant tensor:
#      x y z
#    x 1.781970 0.000000 0.000000 
#    y 0.000000 1.772900 0.000000 
#    z 0.000000 0.000000 1.738050 
# 
# From -- ./inp_files/11960.got.cif
#   From: 2010.03.12/outbox.cif.g09.slc.cpg/sg35_6_cif.got.tgz:11960.got - 2010.04.14 02:02:04.
