data_PCOD8172455
_publ_section_title
;
Structure prediction by ZEFSAII (Michael W. Deem and Ramdas Pophale) SiO2 
 PCOD8172455
Probable space group: C M M 2
;
_chemical_formula_sum "Si O2"
_cell_formula_units_Z 56
_cell_length_a 8.841874
_cell_length_b 21.707492
_cell_length_c 14.577693
_cell_angle_alpha 90.000000
_cell_angle_beta 90.000000
_cell_angle_gamma 90.000000
_cell_volume 2797.968181
_symmetry_space_group_name_H-M "C M M 2"
_symmetry_group_IT_number 35
_symmetry_cell_setting 'orthorhombic'
loop_
_space_group_symop_operation_xyz
x,y,z
-x,-y,z
-x,y,z
x,-y,z
1/2+x,1/2+y,z
1/2-x,1/2-y,z
1/2-x,1/2+y,z
1/2+x,1/2-y,z
loop_
_atom_site_type_symbol
_atom_site_label
_atom_site_fract_x
_atom_site_fract_y
_atom_site_fract_z
Si Si1 0.176212 0.131836 0.315120
Si Si2 0.176041 0.000000 0.334241
Si Si3 0.180154 0.000000 0.536915
Si Si4 0.171995 0.070347 0.831126
Si Si5 0.821744 0.814635 0.125905
Si Si6 0.177865 0.119556 0.639364
Si Si7 0.177519 0.570606 0.020636
Si Si8 0.322517 0.812389 0.484872
O O1 0.218181 0.062381 0.279238
O O2 0.218152 0.178835 0.233882
O O3 0.271326 0.138979 0.407945
O O4 0.000000 0.137358 0.340902
O O5 0.250901 0.000000 0.435252
O O6 0.000000 0.000000 0.354100
O O7 0.242133 0.940818 0.589875
O O8 0.000000 0.000000 0.539901
O O9 0.217554 0.115641 0.747435
O O10 0.000000 0.083824 0.863292
O O11 0.183964 0.000000 0.795807
O O12 0.285152 0.082901 0.914291
O O13 0.750000 0.750000 0.090529
O O14 0.760138 0.875904 0.077060
O O15 0.000000 0.811761 0.108540
O O16 0.262449 0.175124 0.588015
O O17 0.000000 0.128087 0.625451
O O18 0.229565 0.500000 0.046848
O O19 0.000000 0.577607 0.036259
O O20 0.500000 0.806983 0.487501
O O21 0.250000 0.750000 0.448355
#
# Coordination Sequence:
#
# PCOD8172455 Si02
#       8
#     8   4   4   8   8   8   8   8
#     4  10  21  38  62  88 117 153 193 240 291 349
#     4   9  16  30  56  87 118 151 189 230 280 342
#     4   9  14  26  54  83 112 147 181 220 268 324
#     4   9  17  32  59  91 119 151 194 238 286 350
#     4  11  24  41  65  91 119 156 204 253 302 365
#     4  10  18  33  57  85 116 151 190 233 280 333
#     4  10  22  40  62  90 127 162 194 245 309 364
#     4  12  25  39  55  77 111 155 201 245 289 344
#
# _framework density 20.014524999999999
#
# number of rings (size 3 to 8) (size 9 to 14) (size 15 to 20)
#    0.000    1.857    2.143    2.571    1.000    3.714 
#    0.000    2.143    0.000    3.429    0.000    0.000 
#    0.000    0.000    0.000    0.000    0.000    0.000 
#
# Total GULP energy -347024.139591 kJ/mol
# GULP energy per Si atom -12393.719271 kJ/mol
# Density = 1.996897 g / cm^3
# Si number density = 20.014525 Si / 1000 Ang^3
#
#
#
# Elastic Constant Matrix: (Units=GPa)
#
#
# Indices 1 2 3 4 5 6 
#
# 1 91.6360 47.8690 43.5453 0.0000 0.0000 0.0000
# 2 47.8690 115.7342 45.0011 0.0000 0.0000 0.0000
# 3 43.5453 45.0011 83.1131 0.0000 0.0000 0.0000
# 4 0.0000 0.0000 0.0000 25.8463 0.0000 0.0000
# 5 0.0000 0.0000 0.0000 0.0000 24.8050 0.0000
# 6 0.0000 0.0000 0.0000 0.0000 0.0000 27.5881
#
#
#
# Elastic Compliance Matrix: (Units=1/GPa)
#
#
# Indices 1 2 3 4 5 6 
#
# 1 0.016035 -0.004263 -0.006093 0.000000 0.000000 0.000000
# 2 -0.004263 0.012078 -0.004306 0.000000 0.000000 0.000000
# 3 -0.006093 -0.004306 0.017556 0.000000 0.000000 0.000000
# 4 0.000000 0.000000 0.000000 0.038690 0.000000 0.000000
# 5 0.000000 0.000000 0.000000 0.000000 0.040315 0.000000
# 6 0.000000 0.000000 0.000000 0.000000 0.000000 0.036247
#
#
# Mechanical properties :
#
#
# Convention : Reuss Voigt Hill
#
# Bulk Modulus (GPa) = 61.18295 62.59047 61.88671
# Shear Modulus (GPa) = 25.55015 25.91906 25.73461
#
# Velocity S-wave (km/s) = 3.57680 3.60253 3.58969
# Velocity P-wave (km/s) = 6.90606 6.97458 6.94040
#
# Compressibility (1/GPa) = 0.01634442
#
# Stress axis : x y z
#
# Youngs Moduli (GPa) = 62.36307 82.79449 56.96202
#
# Poissons Ratio (x) = 0.35297 0.34707
# Poissons Ratio (y) = 0.26586 0.24528
# Poissons Ratio (z) = 0.37998 0.35651
#
# Static dielectric constant tensor:
#      x y z
#    x 3.360900 0.000000 0.000000 
#    y 0.000000 3.757910 0.000000 
#    z 0.000000 0.000000 3.543520 
# 
# 
# High freq. dielectric constant tensor:
#      x y z
#    x 1.758420 0.000000 0.000000 
#    y 0.000000 1.781010 0.000000 
#    z 0.000000 0.000000 1.775510 
# 
# From -- ./inp_files/15785.got.cif
#   From: 2010.03.12/outbox.cif.g09.slc.cpg/sg35_8_cif.got.tgz:15785.got - 2010.04.14 02:02:04.
