data_PCOD8172870
_publ_section_title
;
Structure prediction by ZEFSAII (Michael W. Deem and Ramdas Pophale) SiO2 
 PCOD8172870
Probable space group: C M M 2
;
_chemical_formula_sum "Si O2"
_cell_formula_units_Z 40
_cell_length_a 9.283795
_cell_length_b 25.982514
_cell_length_c 9.324182
_cell_angle_alpha 90.000000
_cell_angle_beta 90.000000
_cell_angle_gamma 90.000000
_cell_volume 2249.144995
_symmetry_space_group_name_H-M "C M M 2"
_symmetry_group_IT_number 35
_symmetry_cell_setting 'orthorhombic'
loop_
_space_group_symop_operation_xyz
x,y,z
-x,-y,z
-x,y,z
x,-y,z
1/2+x,1/2+y,z
1/2-x,1/2-y,z
1/2-x,1/2+y,z
1/2+x,1/2-y,z
loop_
_atom_site_type_symbol
_atom_site_label
_atom_site_fract_x
_atom_site_fract_y
_atom_site_fract_z
Si Si1 0.159181 0.203372 0.215300
Si Si2 0.842065 0.796661 0.555774
Si Si3 0.671621 0.412196 0.552496
Si Si4 0.826875 0.500000 0.725302
Si Si5 0.670773 0.500000 0.023970
Si Si6 0.829886 0.092022 0.229664
O O1 0.250000 0.250000 0.147045
O O2 0.151205 0.208715 0.385610
O O3 0.231934 0.147788 0.179957
O O4 0.000000 0.207341 0.148093
O O5 0.750000 0.750000 0.623316
O O6 0.784879 0.853718 0.595580
O O7 0.000000 0.790188 0.622259
O O8 0.500000 0.421725 0.572886
O O9 0.764295 0.449241 0.651569
O O10 0.721351 0.423608 0.389061
O O11 0.000000 0.500000 0.720807
O O12 0.770423 0.500000 0.886669
O O13 0.500000 0.500000 0.987207
O O14 0.716188 0.450421 0.115804
O O15 0.000000 0.098873 0.239723
#
# Coordination Sequence:
#
# PCOD8172870 Si02
#       6
#     8   8   8   4   4   8
#     4   8  13  23  40  68 100 124 147 182 227 277
#     4   8  14  24  43  71 101 127 152 186 232 281
#     4   9  17  33  55  76  97 127 165 201 236 286
#     4  12  25  36  46  68 100 130 161 206 254 292
#     4  10  19  34  54  70  88 124 165 202 244 290
#     4   8  15  29  53  78  95 117 160 205 234 273
#
# _framework density 17.784535999999999
#
# number of rings (size 3 to 8) (size 9 to 14) (size 15 to 20)
#    0.000    3.200    0.000    3.900    0.000    2.400 
#    0.000    6.000    0.000    1.200    0.000    2.800 
#    0.000    0.000    0.000    0.000    0.000    0.000 
#
# Total GULP energy -247811.903324 kJ/mol
# GULP energy per Si atom -12390.595166 kJ/mol
# Density = 1.774406 g / cm^3
# Si number density = 17.784536 Si / 1000 Ang^3
#
#
#
# Elastic Constant Matrix: (Units=GPa)
#
#
# Indices 1 2 3 4 5 6 
#
# 1 78.4725 70.2530 39.2750 0.0000 0.0000 0.0000
# 2 70.2530 179.1109 64.1145 0.0000 0.0000 0.0000
# 3 39.2750 64.1145 73.2163 0.0000 0.0000 0.0000
# 4 0.0000 0.0000 0.0000 -1.8910 0.0000 0.0000
# 5 0.0000 0.0000 0.0000 0.0000 14.1392 0.0000
# 6 0.0000 0.0000 0.0000 0.0000 0.0000 30.6982
#
#
#
# Elastic Compliance Matrix: (Units=1/GPa)
#
#
# Indices 1 2 3 4 5 6 
#
# 1 0.021301 -0.006212 -0.005987 0.000000 0.000000 0.000000
# 2 -0.006212 0.009944 -0.005375 0.000000 0.000000 0.000000
# 3 -0.005987 -0.005375 0.021577 0.000000 0.000000 0.000000
# 4 0.000000 0.000000 0.000000 -0.528823 0.000000 0.000000
# 5 0.000000 0.000000 0.000000 0.000000 0.070725 0.000000
# 6 0.000000 0.000000 0.000000 0.000000 0.000000 0.032575
#
#
# Mechanical properties :
#
#
# Convention : Reuss Voigt Hill
#
# Bulk Modulus (GPa) = 56.58200 75.34275 65.96237
# Shear Modulus (GPa) = -15.07560 19.06642 1.99541
#
# Velocity S-wave (km/s) = -2.91465 3.27781 1.06039
# Velocity P-wave (km/s) = 4.53403 7.53535 6.21848
#
# Compressibility (1/GPa) = 0.01767346
#
# Stress axis : x y z
#
# Youngs Moduli (GPa) = 46.94664 100.56479 46.34614
#
# Poissons Ratio (x) = 0.62470 0.27746
# Poissons Ratio (y) = 0.29163 0.24913
# Poissons Ratio (z) = 0.28105 0.54058
#
# Static dielectric constant tensor:
#      x y z
#    x 3.227600 0.000000 0.000000 
#    y 0.000000 3.837390 0.000000 
#    z 0.000000 0.000000 2.886890 
# 
# 
# High freq. dielectric constant tensor:
#      x y z
#    x 1.655250 0.000000 0.000000 
#    y 0.000000 1.712960 0.000000 
#    z 0.000000 0.000000 1.639750 
# 
# From -- ./inp_files/5010.got.cif
#   From: 2010.03.12/outbox.cif.g09.slc.cpg/sg35_3_cif.got.tgz:5010.got - 2010.04.14 02:02:04.
