data_PCOD8172392
_publ_section_title
;
Structure prediction by ZEFSAII (Michael W. Deem and Ramdas Pophale) SiO2 
 PCOD8172392
Probable space group: C M M 2
;
_chemical_formula_sum "Si O2"
_cell_formula_units_Z 64
_cell_length_a 15.041416
_cell_length_b 24.687068
_cell_length_c 8.527376
_cell_angle_alpha 90.000000
_cell_angle_beta 90.000000
_cell_angle_gamma 90.000000
_cell_volume 3166.457395
_symmetry_space_group_name_H-M "C M M 2"
_symmetry_group_IT_number 35
_symmetry_cell_setting 'orthorhombic'
loop_
_space_group_symop_operation_xyz
x,y,z
-x,-y,z
-x,y,z
x,-y,z
1/2+x,1/2+y,z
1/2-x,1/2-y,z
1/2-x,1/2+y,z
1/2+x,1/2-y,z
loop_
_atom_site_type_symbol
_atom_site_label
_atom_site_fract_x
_atom_site_fract_y
_atom_site_fract_z
Si Si1 0.403529 0.191909 0.152460
Si Si2 0.897342 0.151967 0.473960
Si Si3 0.734528 0.938790 0.930134
Si Si4 0.852862 0.752086 0.689446
Si Si5 0.403427 0.697291 0.008419
Si Si6 0.732659 0.364177 0.190339
Si Si7 0.600263 0.439809 0.723454
Si Si8 0.598355 0.142665 0.808954
O O1 0.500000 0.174699 0.224952
O O2 0.397371 0.256545 0.142638
O O3 0.319662 0.169060 0.250401
O O4 0.395195 0.170981 0.976325
O O5 0.874083 0.212916 0.533019
O O6 0.837113 0.132761 0.329539
O O7 0.875019 0.107057 0.602574
O O8 0.000000 0.150012 0.421945
O O9 0.835754 0.934155 0.871695
O O10 0.670743 0.905277 0.810719
O O11 0.699326 0.000000 0.925906
O O12 0.732486 0.920422 0.114040
O O13 0.750000 0.750000 0.726613
O O14 0.884579 0.689263 0.676420
O O15 0.902821 0.781212 0.831701
O O16 0.500000 0.668170 0.028529
O O17 0.317314 0.660916 0.038315
O O18 0.500000 0.431565 0.785351
O O19 0.611024 0.500000 0.646591
O O20 0.500000 0.118125 0.780054
#
# Coordination Sequence:
#
# PCOD8172392 Si02
#       8
#     8   8   8   8   8   8   8   8
#     4   8  16  31  51  74 101 136 177 220 266 324
#     4  11  23  36  51  77 113 149 186 228 281 347
#     4  10  21  37  58  83 108 140 189 243 291 339
#     4  11  20  33  55  80 111 153 192 229 276 339
#     4  10  18  31  53  78 106 141 179 219 269 332
#     4  11  21  33  51  79 111 142 178 226 282 335
#     4   9  19  37  58  76 100 141 188 230 276 336
#     4   9  17  32  55  83 112 141 179 229 283 338
#
# _framework density 20.211862
#
# number of rings (size 3 to 8) (size 9 to 14) (size 15 to 20)
#    0.000    2.125    0.000    6.375    0.000    3.750 
#    0.000    0.000    0.000    3.750    0.000    0.000 
#    0.000    0.000    0.000    0.000    0.000    0.000 
#
# Total GULP energy -396545.855697 kJ/mol
# GULP energy per Si atom -12392.057991 kJ/mol
# Density = 2.016586 g / cm^3
# Si number density = 20.211862 Si / 1000 Ang^3
#
#
#
# Elastic Constant Matrix: (Units=GPa)
#
#
# Indices 1 2 3 4 5 6 
#
# 1 132.9584 36.8996 19.0931 0.0000 0.0000 0.0000
# 2 36.8996 108.8039 29.8384 0.0000 0.0000 0.0000
# 3 19.0931 29.8384 50.5374 0.0000 0.0000 0.0000
# 4 0.0000 0.0000 0.0000 14.9835 0.0000 0.0000
# 5 0.0000 0.0000 0.0000 0.0000 16.7890 0.0000
# 6 0.0000 0.0000 0.0000 0.0000 0.0000 25.7492
#
#
#
# Elastic Compliance Matrix: (Units=1/GPa)
#
#
# Indices 1 2 3 4 5 6 
#
# 1 0.008436 -0.002371 -0.001787 0.000000 0.000000 0.000000
# 2 -0.002371 0.011633 -0.005973 0.000000 0.000000 0.000000
# 3 -0.001787 -0.005973 0.023989 0.000000 0.000000 0.000000
# 4 0.000000 0.000000 0.000000 0.066740 0.000000 0.000000
# 5 0.000000 0.000000 0.000000 0.000000 0.059563 0.000000
# 6 0.000000 0.000000 0.000000 0.000000 0.000000 0.038836
#
#
# Mechanical properties :
#
#
# Convention : Reuss Voigt Hill
#
# Bulk Modulus (GPa) = 42.02351 51.55132 46.78741
# Shear Modulus (GPa) = 21.06240 25.26890 23.16565
#
# Velocity S-wave (km/s) = 3.23163 3.53965 3.38914
# Velocity P-wave (km/s) = 5.89586 6.50126 6.20595
#
# Compressibility (1/GPa) = 0.02379621
#
# Stress axis : x y z
#
# Youngs Moduli (GPa) = 118.54300 85.96394 41.68591
#
# Poissons Ratio (x) = 0.20380 0.07451
# Poissons Ratio (y) = 0.28104 0.24897
# Poissons Ratio (z) = 0.21187 0.51343
#
# Static dielectric constant tensor:
#      x y z
#    x 3.962660 0.000000 0.000000 
#    y 0.000000 3.837600 0.000000 
#    z 0.000000 0.000000 3.188450 
# 
# 
# High freq. dielectric constant tensor:
#      x y z
#    x 1.811180 0.000000 0.000000 
#    y 0.000000 1.775380 0.000000 
#    z 0.000000 0.000000 1.744690 
# 
# From -- ./inp_files/7878.got.cif
#   From: 2010.03.12/outbox.cif.g09.slc.cpg/sg35_4_cif.got.tgz:7878.got - 2010.04.14 02:02:04.
