data_PCOD8172487
_publ_section_title
;
Structure prediction by ZEFSAII (Michael W. Deem and Ramdas Pophale) SiO2 
 PCOD8172487
Probable space group: C M M 2
;
_chemical_formula_sum "Si O2"
_cell_formula_units_Z 64
_cell_length_a 9.280322
_cell_length_b 28.385072
_cell_length_c 15.831037
_cell_angle_alpha 90.000000
_cell_angle_beta 90.000000
_cell_angle_gamma 90.000000
_cell_volume 4170.253056
_symmetry_space_group_name_H-M "C M M 2"
_symmetry_group_IT_number 35
_symmetry_cell_setting 'orthorhombic'
loop_
_space_group_symop_operation_xyz
x,y,z
-x,-y,z
-x,y,z
x,-y,z
1/2+x,1/2+y,z
1/2-x,1/2-y,z
1/2-x,1/2+y,z
1/2+x,1/2-y,z
loop_
_atom_site_type_symbol
_atom_site_label
_atom_site_fract_x
_atom_site_fract_y
_atom_site_fract_z
Si Si1 0.835403 0.797335 0.039440
Si Si2 0.166814 0.446595 0.442971
Si Si3 0.331626 0.700808 0.222317
Si Si4 0.830473 0.200552 0.857264
Si Si5 0.168834 0.201648 0.533497
Si Si6 0.168261 0.863556 0.374520
Si Si7 0.833139 0.052386 0.616006
Si Si8 0.329962 0.646156 0.696868
O O1 0.750000 0.750000 0.039041
O O2 0.801853 0.823102 0.129055
O O3 0.000000 0.782018 0.038709
O O4 0.800594 0.823662 0.950165
O O5 0.186924 0.500000 0.410446
O O6 0.243766 0.412265 0.376378
O O7 0.238819 0.439961 0.533667
O O8 0.000000 0.433144 0.451234
O O9 0.500000 0.711314 0.236231
O O10 0.250000 0.750000 0.232928
O O11 0.276315 0.664311 0.292144
O O12 0.750000 0.250000 0.848220
O O13 0.768301 0.165213 0.785888
O O14 0.000000 0.209770 0.843907
O O15 0.250000 0.250000 0.516885
O O16 0.204522 0.166660 0.457183
O O17 0.228163 0.177862 0.619459
O O18 0.000000 0.212454 0.538588
O O19 0.000000 0.875535 0.368382
O O20 0.784538 0.091385 0.684779
O O21 0.000000 0.060117 0.589918
O O22 0.809356 0.000000 0.654296
O O23 0.500000 0.649901 0.697742
#
# Coordination Sequence:
#
# PCOD8172487 Si02
#       8
#     8   8   8   8   8   8   8   8
#     4   8  14  25  40  59  81 109 140 173 211 243
#     4  10  20  32  46  65  86 106 135 178 220 253
#     4   9  17  28  43  63  87 113 145 178 209 248
#     4   9  16  26  41  59  84 113 140 172 207 244
#     4  10  19  29  39  55  82 112 143 171 198 238
#     4  10  19  31  45  61  83 114 146 173 203 249
#     4   9  16  29  48  63  79 107 141 176 213 253
#     4   9  16  27  41  60  83 108 141 174 204 245
#
# _framework density 15.346791
#
# number of rings (size 3 to 8) (size 9 to 14) (size 15 to 20)
#    0.000    2.750    1.250    1.125    0.000    1.750 
#    0.000    0.625    0.000    0.000    0.000    0.875 
#    0.000    5.000    0.000    3.375    0.000    3.000 
#
# Total GULP energy -396486.099543 kJ/mol
# GULP energy per Si atom -12390.190611 kJ/mol
# Density = 1.531186 g / cm^3
# Si number density = 15.346791 Si / 1000 Ang^3
#
#
#
# Elastic Constant Matrix: (Units=GPa)
#
#
# Indices 1 2 3 4 5 6 
#
# 1 39.6932 37.0466 31.9077 0.0000 0.0000 0.0000
# 2 37.0466 98.6714 58.8016 0.0000 0.0000 0.0000
# 3 31.9077 58.8016 135.5993 0.0000 0.0000 0.0000
# 4 0.0000 0.0000 0.0000 11.8699 0.0000 0.0000
# 5 0.0000 0.0000 0.0000 0.0000 11.9288 0.0000
# 6 0.0000 0.0000 0.0000 0.0000 0.0000 21.2869
#
#
#
# Elastic Compliance Matrix: (Units=1/GPa)
#
#
# Indices 1 2 3 4 5 6 
#
# 1 0.040285 -0.012778 -0.003938 0.000000 0.000000 0.000000
# 2 -0.012778 0.017720 -0.004677 0.000000 0.000000 0.000000
# 3 -0.003938 -0.004677 0.010330 0.000000 0.000000 0.000000
# 4 0.000000 0.000000 0.000000 0.084247 0.000000 0.000000
# 5 0.000000 0.000000 0.000000 0.000000 0.083831 0.000000
# 6 0.000000 0.000000 0.000000 0.000000 0.000000 0.046977
#
#
# Mechanical properties :
#
#
# Convention : Reuss Voigt Hill
#
# Bulk Modulus (GPa) = 39.14346 58.83062 48.98704
# Shear Modulus (GPa) = 14.93908 18.76431 16.85170
#
# Velocity S-wave (km/s) = 3.12337 3.50049 3.31729
# Velocity P-wave (km/s) = 6.21036 7.39968 6.83095
#
# Compressibility (1/GPa) = 0.02554705
#
# Stress axis : x y z
#
# Youngs Moduli (GPa) = 24.82294 56.43471 96.80952
#
# Poissons Ratio (x) = 0.72114 0.38126
# Poissons Ratio (y) = 0.31720 0.45279
# Poissons Ratio (z) = 0.09776 0.26395
#
# Static dielectric constant tensor:
#      x y z
#    x 3.215210 0.000000 0.000000 
#    y 0.000000 2.894460 0.000000 
#    z 0.000000 0.000000 3.473360 
# 
# 
# High freq. dielectric constant tensor:
#      x y z
#    x 1.580010 0.000000 0.000000 
#    y 0.000000 1.565350 0.000000 
#    z 0.000000 0.000000 1.586870 
# 
# From -- ./inp_files/16151.got.cif
#   From: 2010.03.12/outbox.cif.g09.slc.cpg/sg35_9_cif.got.tgz:16151.got - 2010.04.14 02:02:04.
