data_PCOD8172572
_publ_section_title
;
Structure prediction by ZEFSAII (Michael W. Deem and Ramdas Pophale) SiO2 
 PCOD8172572
Probable space group: C M M 2
;
_chemical_formula_sum "Si O2"
_cell_formula_units_Z 64
_cell_length_a 8.980523
_cell_length_b 29.028484
_cell_length_c 12.637562
_cell_angle_alpha 90.000000
_cell_angle_beta 90.000000
_cell_angle_gamma 90.000000
_cell_volume 3294.498274
_symmetry_space_group_name_H-M "C M M 2"
_symmetry_group_IT_number 35
_symmetry_cell_setting 'orthorhombic'
loop_
_space_group_symop_operation_xyz
x,y,z
-x,-y,z
-x,y,z
x,-y,z
1/2+x,1/2+y,z
1/2-x,1/2-y,z
1/2-x,1/2+y,z
1/2+x,1/2-y,z
loop_
_atom_site_type_symbol
_atom_site_label
_atom_site_fract_x
_atom_site_fract_y
_atom_site_fract_z
Si Si1 0.322541 0.052904 0.386070
Si Si2 0.323535 0.795825 0.675956
Si Si3 0.175976 0.608135 0.587436
Si Si4 0.176092 0.705492 0.113094
Si Si5 0.329707 0.683417 0.898065
Si Si6 0.666941 0.419752 0.968930
Si Si7 0.175460 0.604672 0.177166
Si Si8 0.665662 0.050602 0.778434
O O1 0.500000 0.052691 0.387574
O O2 0.257514 0.083138 0.483608
O O3 0.264248 0.079343 0.281794
O O4 0.263269 0.000000 0.389605
O O5 0.500000 0.790147 0.687614
O O6 0.250000 0.750000 0.625791
O O7 0.283967 0.837702 0.595467
O O8 0.254026 0.803451 0.791129
O O9 0.242666 0.583711 0.691966
O O10 0.000000 0.600439 0.586915
O O11 0.250000 0.750000 0.171413
O O12 0.221218 0.658853 0.176127
O O13 0.000000 0.711354 0.108632
O O14 0.241382 0.705718 0.994947
O O15 0.500000 0.701681 0.895410
O O16 0.326051 0.629087 0.911618
O O17 0.500000 0.435690 0.992783
O O18 0.741485 0.454101 0.885985
O O19 0.754093 0.421611 0.078572
O O20 0.000000 0.599827 0.166856
O O21 0.500000 0.069034 0.806466
O O22 0.657156 0.000000 0.726955
#
# Coordination Sequence:
#
# PCOD8172572 Si02
#       8
#     8   8   8   8   8   8   8   8
#     4   9  17  33  59  86 106 130 175 230 277 320
#     4  11  21  33  51  76 109 145 180 218 263 318
#     4   9  18  33  54  80 109 138 173 224 275 316
#     4  10  19  31  48  73 107 144 181 219 262 315
#     4  10  19  32  50  74 105 144 184 220 262 313
#     4  10  20  33  51  76 111 148 178 216 266 325
#     4   9  19  34  54  80 109 139 176 225 273 318
#     4  10  19  32  53  80 108 139 177 219 268 326
#
# _framework density 19.426328000000002
#
# number of rings (size 3 to 8) (size 9 to 14) (size 15 to 20)
#    0.000    2.250    1.250    2.250    0.000    3.750 
#    0.000    1.875    0.000    2.250    0.000    0.000 
#    0.000    0.000    0.000    0.000    0.000    0.000 
#
# Total GULP energy -396677.420997 kJ/mol
# GULP energy per Si atom -12396.169406 kJ/mol
# Density = 1.938211 g / cm^3
# Si number density = 19.426328 Si / 1000 Ang^3
#
#
#
# Elastic Constant Matrix: (Units=GPa)
#
#
# Indices 1 2 3 4 5 6 
#
# 1 55.0353 35.9053 31.6746 0.0000 0.0000 0.0000
# 2 35.9053 134.9306 74.0189 0.0000 0.0000 0.0000
# 3 31.6746 74.0189 132.7273 0.0000 0.0000 0.0000
# 4 0.0000 0.0000 0.0000 23.4655 0.0000 0.0000
# 5 0.0000 0.0000 0.0000 0.0000 5.3409 0.0000
# 6 0.0000 0.0000 0.0000 0.0000 0.0000 23.3397
#
#
#
# Elastic Compliance Matrix: (Units=1/GPa)
#
#
# Indices 1 2 3 4 5 6 
#
# 1 0.022767 -0.004434 -0.002960 0.000000 0.000000 0.000000
# 2 -0.004434 0.011542 -0.005378 0.000000 0.000000 0.000000
# 3 -0.002960 -0.005378 0.011240 0.000000 0.000000 0.000000
# 4 0.000000 0.000000 0.000000 0.042616 0.000000 0.000000
# 5 0.000000 0.000000 0.000000 0.000000 0.187233 0.000000
# 6 0.000000 0.000000 0.000000 0.000000 0.000000 0.042845
#
#
# Mechanical properties :
#
#
# Convention : Reuss Voigt Hill
#
# Bulk Modulus (GPa) = 49.99313 67.32118 58.65715
# Shear Modulus (GPa) = 14.26713 22.50219 18.38466
#
# Velocity S-wave (km/s) = 2.71296 3.40712 3.07966
# Velocity P-wave (km/s) = 5.96692 7.08575 6.55027
#
# Compressibility (1/GPa) = 0.02000275
#
# Stress axis : x y z
#
# Youngs Moduli (GPa) = 43.92343 86.64352 88.96823
#
# Poissons Ratio (x) = 0.38421 0.26336
# Poissons Ratio (y) = 0.19478 0.47849
# Poissons Ratio (z) = 0.13002 0.46599
#
# Static dielectric constant tensor:
#      x y z
#    x 3.344510 0.000000 0.000000 
#    y 0.000000 3.886620 0.000000 
#    z 0.000000 0.000000 3.440300 
# 
# 
# High freq. dielectric constant tensor:
#      x y z
#    x 1.729920 0.000000 0.000000 
#    y 0.000000 1.772630 0.000000 
#    z 0.000000 0.000000 1.733450 
# 
# From -- ./inp_files/11940.got.cif
#   From: 2010.03.12/outbox.cif.g09.slc.cpg/sg35_6_cif.got.tgz:11940.got - 2010.04.14 02:02:04.
