data_PCOD8172515
_publ_section_title
;
Structure prediction by ZEFSAII (Michael W. Deem and Ramdas Pophale) SiO2 
 PCOD8172515
Probable space group: C M M 2
;
_chemical_formula_sum "Si O2"
_cell_formula_units_Z 48
_cell_length_a 8.664631
_cell_length_b 26.332151
_cell_length_c 11.755109
_cell_angle_alpha 90.000000
_cell_angle_beta 90.000000
_cell_angle_gamma 90.000000
_cell_volume 2682.026530
_symmetry_space_group_name_H-M "C M M 2"
_symmetry_group_IT_number 35
_symmetry_cell_setting 'orthorhombic'
loop_
_space_group_symop_operation_xyz
x,y,z
-x,-y,z
-x,y,z
x,-y,z
1/2+x,1/2+y,z
1/2-x,1/2-y,z
1/2-x,1/2+y,z
1/2+x,1/2-y,z
loop_
_atom_site_type_symbol
_atom_site_label
_atom_site_fract_x
_atom_site_fract_y
_atom_site_fract_z
Si Si1 0.180362 0.618995 0.923250
Si Si2 0.319639 0.881004 0.279703
Si Si3 0.818678 0.194562 0.101476
Si Si4 0.821825 0.057427 0.468832
Si Si5 0.168345 0.942703 0.101477
Si Si6 0.821825 0.942573 0.734120
O O1 0.232334 0.604013 0.795817
O O2 0.000000 0.630380 0.926192
O O3 0.264584 0.666114 0.985651
O O4 0.228270 0.568990 0.992254
O O5 0.500000 0.869617 0.276765
O O6 0.235415 0.833884 0.217302
O O7 0.267665 0.895987 0.407135
O O8 0.271736 0.931008 0.210695
O O9 0.750000 0.250000 0.101474
O O10 0.000000 0.199762 0.101475
O O11 0.800179 0.068134 0.601476
O O12 0.000000 0.060598 0.432688
O O13 0.760896 0.000000 0.440463
O O14 0.000000 0.913315 0.101478
O O15 0.124337 0.000000 0.101481
O O16 0.000000 0.939402 0.770264
O O17 0.760897 0.000000 0.762489
#
# Coordination Sequence:
#
# PCOD8172515 Si02
#       6
#     8   8   8   8   8   8
#     4  11  21  32  49  75 104 133 168 209 256 307
#     4  11  21  32  49  75 104 133 168 209 256 307
#     4  11  22  39  60  79 101 129 166 212 263 315
#     4   9  18  33  52  74 104 144 184 216 250 297
#     4  10  19  30  45  66  96 134 171 206 249 301
#     4   9  18  33  52  74 104 144 184 216 250 297
#
# _framework density 17.896915
#
# number of rings (size 3 to 8) (size 9 to 14) (size 15 to 20)
#    0.000    1.833    0.000    9.000    0.000    6.667 
#    0.000    1.667    0.000    1.000    0.000    0.000 
#    0.000    0.000    0.000    0.000    0.000    0.000 
#
# Total GULP energy -297320.479898 kJ/mol
# GULP energy per Si atom -12388.353329 kJ/mol
# Density = 1.785618 g / cm^3
# Si number density = 17.896915 Si / 1000 Ang^3
#
#
#
# Elastic Constant Matrix: (Units=GPa)
#
#
# Indices 1 2 3 4 5 6 
#
# 1 138.6651 50.9798 44.2252 0.0000 0.0000 0.0000
# 2 50.9798 118.0590 48.6608 0.0000 0.0000 0.0000
# 3 44.2252 48.6608 82.7212 0.0000 0.0000 0.0000
# 4 0.0000 0.0000 0.0000 21.2139 0.0000 0.0000
# 5 0.0000 0.0000 0.0000 0.0000 25.5787 0.0000
# 6 0.0000 0.0000 0.0000 0.0000 0.0000 25.6893
#
#
#
# Elastic Compliance Matrix: (Units=1/GPa)
#
#
# Indices 1 2 3 4 5 6 
#
# 1 0.009255 -0.002583 -0.003428 0.000000 0.000000 0.000000
# 2 -0.002583 0.011903 -0.005621 0.000000 0.000000 0.000000
# 3 -0.003428 -0.005621 0.017228 0.000000 0.000000 0.000000
# 4 0.000000 0.000000 0.000000 0.047139 0.000000 0.000000
# 5 0.000000 0.000000 0.000000 0.000000 0.039095 0.000000
# 6 0.000000 0.000000 0.000000 0.000000 0.000000 0.038927
#
#
# Mechanical properties :
#
#
# Convention : Reuss Voigt Hill
#
# Bulk Modulus (GPa) = 66.13318 69.68633 67.90975
# Shear Modulus (GPa) = 26.06196 27.53499 26.79848
#
# Velocity S-wave (km/s) = 3.82019 3.92667 3.87380
# Velocity P-wave (km/s) = 7.51605 7.71884 7.61812
#
# Compressibility (1/GPa) = 0.01512100
#
# Stress axis : x y z
#
# Youngs Moduli (GPa) = 108.05253 84.01587 58.04533
#
# Poissons Ratio (x) = 0.21704 0.19899
# Poissons Ratio (y) = 0.27914 0.32625
# Poissons Ratio (z) = 0.37043 0.47221
#
# Static dielectric constant tensor:
#      x y z
#    x 3.330070 0.000000 0.000000 
#    y 0.000000 3.160820 0.000000 
#    z 0.000000 0.000000 3.396850 
# 
# 
# High freq. dielectric constant tensor:
#      x y z
#    x 1.701450 0.000000 0.000000 
#    y 0.000000 1.667360 0.000000 
#    z 0.000000 0.000000 1.690290 
# 
# From -- ./inp_files/11630.got.cif
#   From: 2010.03.12/outbox.cif.g09.slc.cpg/sg35_6_cif.got.tgz:11630.got - 2010.04.14 02:02:04.
