data_PCOD8172079
_publ_section_title
;
Structure prediction by ZEFSAII (Michael W. Deem and Ramdas Pophale) SiO2 
 PCOD8172079
Probable space group: P N N 2
;
_chemical_formula_sum "Si O2"
_cell_formula_units_Z 16
_cell_length_a 5.102952
_cell_length_b 17.311465
_cell_length_c 7.722559
_cell_angle_alpha 90.000000
_cell_angle_beta 90.000000
_cell_angle_gamma 90.000000
_cell_volume 682.207580
_symmetry_space_group_name_H-M "P N N 2"
_symmetry_group_IT_number 34
_symmetry_cell_setting 'orthorhombic'
loop_
_space_group_symop_operation_xyz
x,y,z
-x,-y,z
1/2-x,1/2+y,1/2+z
1/2+x,1/2-y,1/2+z
loop_
_atom_site_type_symbol
_atom_site_label
_atom_site_fract_x
_atom_site_fract_y
_atom_site_fract_z
Si Si1 0.500000 0.500000 0.258821
Si Si2 0.464009 0.641226 0.500961
Si Si3 0.022710 0.272714 0.553365
Si Si4 0.000000 0.500000 0.032133
Si Si5 0.219452 0.646813 0.849819
O O1 0.410060 0.570178 0.377191
O O2 0.252516 0.476963 0.143148
O O3 0.758899 0.669582 0.478412
O O4 0.419586 0.616312 0.702271
O O5 0.248201 0.707471 0.452631
O O6 0.117940 0.185505 0.509847
O O7 0.971623 0.288134 0.759066
O O8 0.053810 0.574868 0.915711
#
# Coordination Sequence:
#
# PCOD8172079 Si02
#       5
#     2   4   4   2   4
#     4  12  28  48  74 110 158 192 256 310 400 448
#     4  10  26  45  77 104 150 198 247 314 377 459
#     4  10  25  43  80 105 147 197 256 311 376 459
#     4  12  30  44  80 114 156 200 254 328 382 466
#     4  10  28  48  78 110 153 198 264 309 392 448
#
# _framework density 23.453271999999998
#
# number of rings (size 3 to 8) (size 9 to 14) (size 15 to 20)
#    1.500    0.000    0.000    1.500   14.000    2.000 
#    0.000    0.000    0.000    0.000    0.000    0.000 
#    0.000    0.000    0.000    0.000    0.000    0.000 
#
# Total GULP energy -198259.215602 kJ/mol
# GULP energy per Si atom -12391.200975 kJ/mol
# Density = 2.339989 g / cm^3
# Si number density = 23.453272 Si / 1000 Ang^3
#
#
#
# Elastic Constant Matrix: (Units=GPa)
#
#
# Indices 1 2 3 4 5 6 
#
# 1 128.9314 26.5028 37.7723 0.0000 0.0000 0.0000
# 2 26.5028 99.4590 69.8166 0.0000 0.0000 0.0000
# 3 37.7723 69.8166 111.0897 0.0000 0.0000 0.0000
# 4 0.0000 0.0000 0.0000 -25.1764 0.0000 0.0000
# 5 0.0000 0.0000 0.0000 0.0000 41.7677 0.0000
# 6 0.0000 0.0000 0.0000 0.0000 0.0000 44.4738
#
#
#
# Elastic Compliance Matrix: (Units=1/GPa)
#
#
# Indices 1 2 3 4 5 6 
#
# 1 0.008624 -0.000429 -0.002663 0.000000 0.000000 0.000000
# 2 -0.000429 0.018013 -0.011175 0.000000 0.000000 0.000000
# 3 -0.002663 -0.011175 0.016930 0.000000 0.000000 0.000000
# 4 0.000000 0.000000 0.000000 -0.039720 0.000000 0.000000
# 5 0.000000 0.000000 0.000000 0.000000 0.023942 0.000000
# 6 0.000000 0.000000 0.000000 0.000000 0.000000 0.022485
#
#
# Mechanical properties :
#
#
# Convention : Reuss Voigt Hill
#
# Bulk Modulus (GPa) = 66.51413 67.51816 67.01615
# Shear Modulus (GPa) = 59.65198 25.90558 42.77878
#
# Velocity S-wave (km/s) = 5.04872 3.32710 4.27546
# Velocity P-wave (km/s) = 7.89987 6.60381 7.28074
#
# Compressibility (1/GPa) = 0.01503440
#
# Stress axis : x y z
#
# Youngs Moduli (GPa) = 115.95075 55.51549 59.06609
#
# Poissons Ratio (x) = 0.02381 0.15729
# Poissons Ratio (y) = 0.04973 0.66005
# Poissons Ratio (z) = 0.30876 0.62037
#
# Static dielectric constant tensor:
#      x y z
#    x 4.039820 0.000000 0.000000 
#    y 0.000000 3.947270 0.000000 
#    z 0.000000 0.000000 4.176360 
# 
# 
# High freq. dielectric constant tensor:
#      x y z
#    x 1.940330 0.000000 0.000000 
#    y 0.000000 1.913360 0.000000 
#    z 0.000000 0.000000 1.930030 
# 
# From -- ./inp_files/1987.got.cif
#   From: 2010.03.12/outbox.cif.g09.slc.cpg/sg34_1_cif.got.tgz:1987.got - 2010.04.14 01:56:33.
