data_PCOD8172977
_publ_section_title
;
Structure prediction by ZEFSAII (Michael W. Deem and Ramdas Pophale) SiO2 
 PCOD8172977
Probable space group: C M M 2
;
_chemical_formula_sum "Si O2"
_cell_formula_units_Z 56
_cell_length_a 19.826066
_cell_length_b 14.149281
_cell_length_c 9.414262
_cell_angle_alpha 90.000000
_cell_angle_beta 90.000000
_cell_angle_gamma 90.000000
_cell_volume 2640.931884
_symmetry_space_group_name_H-M "C M M 2"
_symmetry_group_IT_number 35
_symmetry_cell_setting 'orthorhombic'
loop_
_space_group_symop_operation_xyz
x,y,z
-x,-y,z
-x,y,z
x,-y,z
1/2+x,1/2+y,z
1/2-x,1/2-y,z
1/2-x,1/2+y,z
1/2+x,1/2-y,z
loop_
_atom_site_type_symbol
_atom_site_label
_atom_site_fract_x
_atom_site_fract_y
_atom_site_fract_z
Si Si1 0.873215 0.728640 0.597060
Si Si2 0.828051 0.755032 0.288722
Si Si3 0.922771 0.110687 0.112081
Si Si4 0.866878 0.390453 0.078792
Si Si5 0.500000 0.111348 0.608068
Si Si6 0.500000 0.111299 0.937256
Si Si7 0.874623 0.891677 0.799528
Si Si8 0.784366 0.607710 0.808983
O O1 0.835452 0.764532 0.457053
O O2 0.933327 0.660056 0.544953
O O3 0.902721 0.820504 0.679477
O O4 0.820193 0.673373 0.694551
O O5 0.750000 0.750000 0.247219
O O6 0.868303 0.840093 0.213827
O O7 0.857360 0.656571 0.231172
O O8 0.000000 0.140585 0.147797
O O9 0.912376 0.000000 0.136475
O O10 0.907569 0.136607 0.948795
O O11 0.874380 0.500000 0.109369
O O12 0.934065 0.345195 0.009941
O O13 0.806934 0.367138 0.968910
O O14 0.500000 0.136145 0.773360
O O15 0.500000 0.000000 0.573936
O O16 0.500000 0.000000 0.957656
O O17 0.794711 0.876656 0.804687
O O18 0.892872 0.000000 0.759114
O O19 0.805562 0.500000 0.773791
#
# Coordination Sequence:
#
# PCOD8172977 Si02
#       8
#     8   8   8   8   4   4   8   8
#     4  12  25  40  64  94 133 175 213 264 324 391
#     4  12  27  42  63  95 134 175 217 265 327 396
#     4  10  24  46  71  95 128 172 224 279 329 387
#     4  10  21  37  62  93 127 168 211 261 318 378
#     4  11  24  43  66  98 129 167 211 260 326 390
#     4   9  18  37  63  94 123 157 206 256 309 372
#     4  10  22  40  66  96 123 162 221 276 322 376
#     4  10  19  37  64  93 128 169 216 269 321 377
#
# _framework density 21.204636000000001
#
# number of rings (size 3 to 8) (size 9 to 14) (size 15 to 20)
#    0.000    1.429    1.429    3.429    3.000    3.429 
#    0.000    0.714    0.000    0.000    0.000    0.000 
#    0.000    0.000    0.000    0.000    0.000    0.000 
#
# Total GULP energy -347237.461392 kJ/mol
# GULP energy per Si atom -12401.337907 kJ/mol
# Density = 2.115637 g / cm^3
# Si number density = 21.204636 Si / 1000 Ang^3
#
#
#
# Elastic Constant Matrix: (Units=GPa)
#
#
# Indices 1 2 3 4 5 6 
#
# 1 94.1016 41.0065 19.7358 0.0000 0.0000 0.0000
# 2 41.0065 105.4363 51.1276 0.0000 0.0000 0.0000
# 3 19.7358 51.1276 98.6517 0.0000 0.0000 0.0000
# 4 0.0000 0.0000 0.0000 22.1356 0.0000 0.0000
# 5 0.0000 0.0000 0.0000 0.0000 35.6553 0.0000
# 6 0.0000 0.0000 0.0000 0.0000 0.0000 33.8581
#
#
#
# Elastic Compliance Matrix: (Units=1/GPa)
#
#
# Indices 1 2 3 4 5 6 
#
# 1 0.012795 -0.004989 0.000026 0.000000 0.000000 0.000000
# 2 -0.004989 0.014613 -0.006575 0.000000 0.000000 0.000000
# 3 0.000026 -0.006575 0.013539 0.000000 0.000000 0.000000
# 4 0.000000 0.000000 0.000000 0.045176 0.000000 0.000000
# 5 0.000000 0.000000 0.000000 0.000000 0.028046 0.000000
# 6 0.000000 0.000000 0.000000 0.000000 0.000000 0.029535
#
#
# Mechanical properties :
#
#
# Convention : Reuss Voigt Hill
#
# Bulk Modulus (GPa) = 55.95717 57.99215 56.97466
# Shear Modulus (GPa) = 28.94533 30.75113 29.84823
#
# Velocity S-wave (km/s) = 3.69866 3.81229 3.75591
# Velocity P-wave (km/s) = 6.68480 6.84005 6.76287
#
# Compressibility (1/GPa) = 0.01787081
#
# Stress axis : x y z
#
# Youngs Moduli (GPa) = 78.15291 68.43106 73.85889
#
# Poissons Ratio (x) = 0.34140 -0.00190
# Poissons Ratio (y) = 0.38990 0.48566
# Poissons Ratio (z) = -0.00202 0.44997
#
# Static dielectric constant tensor:
#      x y z
#    x 3.648190 0.000000 0.000000 
#    y 0.000000 3.989280 0.000000 
#    z 0.000000 0.000000 3.601040 
# 
# 
# High freq. dielectric constant tensor:
#      x y z
#    x 1.842150 0.000000 0.000000 
#    y 0.000000 1.842970 0.000000 
#    z 0.000000 0.000000 1.812760 
# 
# From -- ./inp_files/7692.got.cif
#   From: 2010.03.12/outbox.cif.g09.slc.cpg/sg35_4_cif.got.tgz:7692.got - 2010.04.14 02:02:04.
