data_PCOD8172623
_publ_section_title
;
Structure prediction by ZEFSAII (Michael W. Deem and Ramdas Pophale) SiO2 
 PCOD8172623
Probable space group: C M M 2
;
_chemical_formula_sum "Si O2"
_cell_formula_units_Z 40
_cell_length_a 8.674055
_cell_length_b 15.783167
_cell_length_c 14.607985
_cell_angle_alpha 90.000000
_cell_angle_beta 90.000000
_cell_angle_gamma 90.000000
_cell_volume 1999.892435
_symmetry_space_group_name_H-M "C M M 2"
_symmetry_group_IT_number 35
_symmetry_cell_setting 'orthorhombic'
loop_
_space_group_symop_operation_xyz
x,y,z
-x,-y,z
-x,y,z
x,-y,z
1/2+x,1/2+y,z
1/2-x,1/2-y,z
1/2-x,1/2+y,z
1/2+x,1/2-y,z
loop_
_atom_site_type_symbol
_atom_site_label
_atom_site_fract_x
_atom_site_fract_y
_atom_site_fract_z
Si Si1 0.182951 0.837177 0.860800
Si Si2 0.181715 0.000000 0.968491
Si Si3 0.181785 0.343355 0.294412
Si Si4 0.816437 0.842373 0.481094
Si Si5 0.179877 0.500000 0.165983
Si Si6 0.317707 0.406409 0.672976
O O1 0.250000 0.750000 0.901203
O O2 0.248862 0.915510 0.920105
O O3 0.240286 0.846028 0.755006
O O4 0.000000 0.834715 0.866481
O O5 0.000000 0.000000 0.955662
O O6 0.223292 0.000000 0.074052
O O7 0.250000 0.250000 0.269893
O O8 0.250801 0.383573 0.388194
O O9 0.224561 0.413421 0.218641
O O10 0.000000 0.332345 0.305337
O O11 0.750000 0.750000 0.482091
O O12 0.748925 0.885396 0.573015
O O13 0.000000 0.844366 0.478211
O O14 0.000000 0.500000 0.142941
O O15 0.500000 0.400268 0.665470
O O16 0.264595 0.500000 0.700645
#
# Coordination Sequence:
#
# PCOD8172623 Si02
#       6
#     8   4   8   8   4   8
#     4  10  20  37  60  84 113 149 186 227 275 328
#     4  10  22  40  61  84 110 144 187 230 277 338
#     4  10  21  39  59  82 113 149 185 228 279 331
#     4  10  19  31  52  80 111 148 187 227 268 319
#     4  10  24  42  61  82 112 146 179 232 293 334
#     4   9  17  31  52  79 113 150 188 225 265 321
#
# _framework density 20.001076000000001
#
# number of rings (size 3 to 8) (size 9 to 14) (size 15 to 20)
#    0.000    2.200    1.000    3.000    1.400    3.200 
#    0.000    5.000    0.000    2.400    0.000    0.000 
#    0.000    0.000    0.000    0.000    0.000    0.000 
#
# Total GULP energy -247868.915560 kJ/mol
# GULP energy per Si atom -12393.445778 kJ/mol
# Density = 1.995555 g / cm^3
# Si number density = 20.001076 Si / 1000 Ang^3
#
#
#
# Elastic Constant Matrix: (Units=GPa)
#
#
# Indices 1 2 3 4 5 6 
#
# 1 48.0687 26.5500 32.0397 0.0000 0.0000 0.0000
# 2 26.5500 122.4307 69.0807 0.0000 0.0000 0.0000
# 3 32.0397 69.0807 135.6657 0.0000 0.0000 0.0000
# 4 0.0000 0.0000 0.0000 31.6241 0.0000 0.0000
# 5 0.0000 0.0000 0.0000 0.0000 25.2912 0.0000
# 6 0.0000 0.0000 0.0000 0.0000 0.0000 23.5722
#
#
#
# Elastic Compliance Matrix: (Units=1/GPa)
#
#
# Indices 1 2 3 4 5 6 
#
# 1 0.025444 -0.002985 -0.004489 0.000000 0.000000 0.000000
# 2 -0.002985 0.011811 -0.005309 0.000000 0.000000 0.000000
# 3 -0.004489 -0.005309 0.011135 0.000000 0.000000 0.000000
# 4 0.000000 0.000000 0.000000 0.031621 0.000000 0.000000
# 5 0.000000 0.000000 0.000000 0.000000 0.039539 0.000000
# 6 0.000000 0.000000 0.000000 0.000000 0.000000 0.042423
#
#
# Mechanical properties :
#
#
# Convention : Reuss Voigt Hill
#
# Bulk Modulus (GPa) = 43.81438 62.38954 53.10196
# Shear Modulus (GPa) = 25.62157 27.99713 26.80935
#
# Velocity S-wave (km/s) = 3.58300 3.74542 3.66511
# Velocity P-wave (km/s) = 6.25066 7.06860 6.67218
#
# Compressibility (1/GPa) = 0.02282356
#
# Stress axis : x y z
#
# Youngs Moduli (GPa) = 39.30127 84.66837 89.80948
#
# Poissons Ratio (x) = 0.25271 0.40318
# Poissons Ratio (y) = 0.11730 0.47681
# Poissons Ratio (z) = 0.17644 0.44952
#
# Static dielectric constant tensor:
#      x y z
#    x 3.340580 0.000000 0.000000 
#    y 0.000000 3.797100 0.000000 
#    z 0.000000 0.000000 4.302410 
# 
# 
# High freq. dielectric constant tensor:
#      x y z
#    x 1.753830 0.000000 0.000000 
#    y 0.000000 1.787840 0.000000 
#    z 0.000000 0.000000 1.787930 
# 
# From -- ./inp_files/14745.got.cif
#   From: 2010.03.12/outbox.cif.g09.slc.cpg/sg35_8_cif.got.tgz:14745.got - 2010.04.14 02:02:04.
