data_PCOD8172229
_publ_section_title
;
Structure prediction by ZEFSAII (Michael W. Deem and Ramdas Pophale) SiO2 
 PCOD8172229
Probable space group: C M M 2
;
_chemical_formula_sum "Si O2"
_cell_formula_units_Z 64
_cell_length_a 17.222574
_cell_length_b 12.853364
_cell_length_c 13.804767
_cell_angle_alpha 90.000000
_cell_angle_beta 90.000000
_cell_angle_gamma 90.000000
_cell_volume 3055.933836
_symmetry_space_group_name_H-M "C M M 2"
_symmetry_group_IT_number 35
_symmetry_cell_setting 'orthorhombic'
loop_
_space_group_symop_operation_xyz
x,y,z
-x,-y,z
-x,y,z
x,-y,z
1/2+x,1/2+y,z
1/2-x,1/2-y,z
1/2-x,1/2+y,z
1/2+x,1/2-y,z
loop_
_atom_site_type_symbol
_atom_site_label
_atom_site_fract_x
_atom_site_fract_y
_atom_site_fract_z
Si Si1 0.586521 0.251857 0.799040
Si Si2 0.407747 0.617951 0.619781
Si Si3 0.877859 0.880706 0.962331
Si Si4 0.880887 0.618252 0.301128
Si Si5 0.087482 0.188602 0.411015
Si Si6 0.204929 0.114767 0.253175
Si Si7 0.800298 0.378531 0.934605
Si Si8 0.635819 0.770581 0.115336
O O1 0.500000 0.201494 0.783295
O O2 0.622432 0.299255 0.699814
O O3 0.573204 0.353032 0.867561
O O4 0.646640 0.172235 0.849607
O O5 0.500000 0.615334 0.624913
O O6 0.375047 0.500000 0.635293
O O7 0.378739 0.662682 0.516798
O O8 0.789697 0.841119 0.936381
O O9 0.884420 0.000000 0.990581
O O10 0.913121 0.812015 0.051035
O O11 0.910730 0.500000 0.311820
O O12 0.912294 0.686660 0.390661
O O13 0.788064 0.627374 0.303847
O O14 0.911911 0.667987 0.199013
O O15 0.138504 0.129566 0.332315
O O16 0.000000 0.145702 0.402911
O O17 0.200515 0.197139 0.166619
O O18 0.197206 0.000000 0.207697
O O19 0.802897 0.500000 0.912979
O O20 0.831225 0.357557 0.042830
#
# Coordination Sequence:
#
# PCOD8172229 Si02
#       8
#     8   8   8   8   8   8   8   8
#     4  10  20  35  55  77 101 131 169 212 257 307
#     4   9  18  34  56  79 101 129 167 210 260 316
#     4  10  19  32  52  78 106 135 169 212 259 302
#     4  10  20  34  52  75 105 140 175 209 247 296
#     4  10  20  35  55  77 101 131 169 212 257 307
#     4  10  19  32  52  78 106 135 169 212 259 302
#     4  10  20  34  52  75 105 140 175 209 247 296
#     4  10  17  30  53  78 101 134 179 216 245 290
#
# _framework density 20.942862000000002
#
# number of rings (size 3 to 8) (size 9 to 14) (size 15 to 20)
#    0.000    2.125    0.000    6.000    0.000    4.000 
#    0.000   13.125    0.000   17.250    0.000    0.000 
#    0.000    0.000    0.000    0.000    0.000    0.000 
#
# Total GULP energy -396439.855209 kJ/mol
# GULP energy per Si atom -12388.745475 kJ/mol
# Density = 2.089520 g / cm^3
# Si number density = 20.942862 Si / 1000 Ang^3
#
#
#
# Elastic Constant Matrix: (Units=GPa)
#
#
# Indices 1 2 3 4 5 6 
#
# 1 50.8358 6.1306 19.6346 0.0000 0.0000 0.0000
# 2 6.1306 82.6027 37.2815 0.0000 0.0000 0.0000
# 3 19.6346 37.2815 121.9026 0.0000 0.0000 0.0000
# 4 0.0000 0.0000 0.0000 28.5526 0.0000 0.0000
# 5 0.0000 0.0000 0.0000 0.0000 19.7585 0.0000
# 6 0.0000 0.0000 0.0000 0.0000 0.0000 20.7301
#
#
#
# Elastic Compliance Matrix: (Units=1/GPa)
#
#
# Indices 1 2 3 4 5 6 
#
# 1 0.020976 -0.000037 -0.003367 0.000000 0.000000 0.000000
# 2 -0.000037 0.014045 -0.004289 0.000000 0.000000 0.000000
# 3 -0.003367 -0.004289 0.010057 0.000000 0.000000 0.000000
# 4 0.000000 0.000000 0.000000 0.035023 0.000000 0.000000
# 5 0.000000 0.000000 0.000000 0.000000 0.050611 0.000000
# 6 0.000000 0.000000 0.000000 0.000000 0.000000 0.048239
#
#
# Mechanical properties :
#
#
# Convention : Reuss Voigt Hill
#
# Bulk Modulus (GPa) = 33.68009 42.38161 38.03085
# Shear Modulus (GPa) = 24.48145 26.62785 25.55465
#
# Velocity S-wave (km/s) = 3.42272 3.56961 3.49694
# Velocity P-wave (km/s) = 5.63354 6.10493 5.87397
#
# Compressibility (1/GPa) = 0.02969113
#
# Stress axis : x y z
#
# Youngs Moduli (GPa) = 47.67306 71.20056 99.42885
#
# Poissons Ratio (x) = 0.00264 0.33480
# Poissons Ratio (y) = 0.00177 0.42649
# Poissons Ratio (z) = 0.16053 0.30541
#
# Static dielectric constant tensor:
#      x y z
#    x 3.481550 0.000000 0.000000 
#    y 0.000000 4.040110 0.000000 
#    z 0.000000 0.000000 3.889140 
# 
# 
# High freq. dielectric constant tensor:
#      x y z
#    x 1.794040 0.000000 0.000000 
#    y 0.000000 1.831150 0.000000 
#    z 0.000000 0.000000 1.810030 
# 
# From -- ./inp_files/17228.got.cif
#   From: 2010.03.12/outbox.cif.g09.slc.cpg/sg35_9_cif.got.tgz:17228.got - 2010.04.14 02:02:04.
