data_PCOD8172935
_publ_section_title
;
Structure prediction by ZEFSAII (Michael W. Deem and Ramdas Pophale) SiO2 
 PCOD8172935
Probable space group: C M M 2
;
_chemical_formula_sum "Si O2"
_cell_formula_units_Z 48
_cell_length_a 8.489615
_cell_length_b 14.940210
_cell_length_c 18.932194
_cell_angle_alpha 90.000000
_cell_angle_beta 90.000000
_cell_angle_gamma 90.000000
_cell_volume 2401.295703
_symmetry_space_group_name_H-M "C M M 2"
_symmetry_group_IT_number 35
_symmetry_cell_setting 'orthorhombic'
loop_
_space_group_symop_operation_xyz
x,y,z
-x,-y,z
-x,y,z
x,-y,z
1/2+x,1/2+y,z
1/2-x,1/2-y,z
1/2-x,1/2+y,z
1/2+x,1/2-y,z
loop_
_atom_site_type_symbol
_atom_site_label
_atom_site_fract_x
_atom_site_fract_y
_atom_site_fract_z
Si Si1 0.186584 0.344212 0.596920
Si Si2 0.318919 0.000000 0.982895
Si Si3 0.187968 0.500000 0.497758
Si Si4 0.179698 0.605508 0.751313
Si Si5 0.686082 0.851389 0.231744
Si Si6 0.186871 0.500000 0.339851
Si Si7 0.317155 0.500000 0.134121
Si Si8 0.316580 0.343039 0.894061
O O1 0.250000 0.250000 0.570567
O O2 0.252233 0.414274 0.539912
O O3 0.249467 0.366059 0.675357
O O4 0.000000 0.347735 0.598297
O O5 0.285502 0.084680 0.934583
O O6 0.500000 0.000000 0.007130
O O7 0.207205 0.000000 0.050597
O O8 0.258801 0.500000 0.418602
O O9 0.000000 0.500000 0.494905
O O10 0.188338 0.500000 0.758510
O O11 0.289627 0.650262 0.810008
O O12 0.000000 0.638932 0.761324
O O13 0.500000 0.844466 0.228945
O O14 0.750000 0.750000 0.233495
O O15 0.742243 0.907974 0.163862
O O16 0.743497 0.909354 0.299844
O O17 0.000000 0.500000 0.342192
O O18 0.500000 0.500000 0.152743
O O19 0.500000 0.354297 0.911433
O O20 0.250000 0.250000 0.922686
#
# Coordination Sequence:
#
# PCOD8172935 Si02
#       8
#     8   4   4   8   8   4   4   8
#     4  10  20  34  54  79 108 148 195 242 294 351
#     4  12  25  44  65  89 123 158 191 238 290 346
#     4   9  17  34  55  77 111 155 194 233 290 352
#     4  10  19  35  58  81 109 149 196 247 301 354
#     4  10  20  37  61  91 121 155 196 238 286 342
#     4   8  17  33  56  84 116 152 194 240 286 342
#     4  11  23  41  64  92 122 155 193 237 284 340
#     4  12  25  41  61  88 117 154 199 245 296 352
#
# _framework density 19.989207
#
# number of rings (size 3 to 8) (size 9 to 14) (size 15 to 20)
#    0.000    1.667    1.667    4.500    0.000    3.333 
#    0.000    3.750    0.000    5.000    0.000    0.000 
#    0.000    0.000    0.000    0.000    0.000    0.000 
#
# Total GULP energy -297618.764988 kJ/mol
# GULP energy per Si atom -12400.781874 kJ/mol
# Density = 1.994371 g / cm^3
# Si number density = 19.989207 Si / 1000 Ang^3
#
#
#
# Elastic Constant Matrix: (Units=GPa)
#
#
# Indices 1 2 3 4 5 6 
#
# 1 67.4005 29.5635 13.9327 0.0000 0.0000 0.0000
# 2 29.5635 170.3086 59.0283 0.0000 0.0000 0.0000
# 3 13.9327 59.0283 128.1494 0.0000 0.0000 0.0000
# 4 0.0000 0.0000 0.0000 30.3474 0.0000 0.0000
# 5 0.0000 0.0000 0.0000 0.0000 17.0652 0.0000
# 6 0.0000 0.0000 0.0000 0.0000 0.0000 31.7388
#
#
#
# Elastic Compliance Matrix: (Units=1/GPa)
#
#
# Indices 1 2 3 4 5 6 
#
# 1 0.016092 -0.002602 -0.000551 0.000000 0.000000 0.000000
# 2 -0.002602 0.007408 -0.003129 0.000000 0.000000 0.000000
# 3 -0.000551 -0.003129 0.009305 0.000000 0.000000 0.000000
# 4 0.000000 0.000000 0.000000 0.032952 0.000000 0.000000
# 5 0.000000 0.000000 0.000000 0.000000 0.058599 0.000000
# 6 0.000000 0.000000 0.000000 0.000000 0.000000 0.031507
#
#
# Mechanical properties :
#
#
# Convention : Reuss Voigt Hill
#
# Bulk Modulus (GPa) = 49.40820 63.43418 56.42119
# Shear Modulus (GPa) = 28.54296 33.38587 30.96442
#
# Velocity S-wave (km/s) = 3.78288 4.09124 3.94008
# Velocity P-wave (km/s) = 6.62204 7.35668 6.99900
#
# Compressibility (1/GPa) = 0.02023955
#
# Stress axis : x y z
#
# Youngs Moduli (GPa) = 62.14243 134.98775 107.47222
#
# Poissons Ratio (x) = 0.35130 0.05920
# Poissons Ratio (y) = 0.16172 0.33632
# Poissons Ratio (z) = 0.03423 0.42243
#
# Static dielectric constant tensor:
#      x y z
#    x 3.399300 0.000000 0.000000 
#    y 0.000000 4.385290 0.000000 
#    z 0.000000 0.000000 3.785450 
# 
# 
# High freq. dielectric constant tensor:
#      x y z
#    x 1.763430 0.000000 0.000000 
#    y 0.000000 1.793400 0.000000 
#    z 0.000000 0.000000 1.778540 
# 
# From -- ./inp_files/17953.got.cif
#   From: 2010.03.12/outbox.cif.g09.slc.cpg/sg35_9_cif.got.tgz:17953.got - 2010.04.14 02:02:04.
