data_PCOD8172558
_publ_section_title
;
Structure prediction by ZEFSAII (Michael W. Deem and Ramdas Pophale) SiO2 
 PCOD8172558
Probable space group: C M M 2
;
_chemical_formula_sum "Si O2"
_cell_formula_units_Z 64
_cell_length_a 18.373020
_cell_length_b 20.886453
_cell_length_c 9.621843
_cell_angle_alpha 90.000000
_cell_angle_beta 90.000000
_cell_angle_gamma 90.000000
_cell_volume 3692.355490
_symmetry_space_group_name_H-M "C M M 2"
_symmetry_group_IT_number 35
_symmetry_cell_setting 'orthorhombic'
loop_
_space_group_symop_operation_xyz
x,y,z
-x,-y,z
-x,y,z
x,-y,z
1/2+x,1/2+y,z
1/2-x,1/2-y,z
1/2-x,1/2+y,z
1/2+x,1/2-y,z
loop_
_atom_site_type_symbol
_atom_site_label
_atom_site_fract_x
_atom_site_fract_y
_atom_site_fract_z
Si Si1 0.417851 0.877373 0.007490
Si Si2 0.805684 0.808156 0.470761
Si Si3 0.668624 0.123344 0.506710
Si Si4 0.692781 0.925827 0.209929
Si Si5 0.916743 0.236250 0.964924
Si Si6 0.200647 0.812588 0.157624
Si Si7 0.085874 0.255953 0.643208
Si Si8 0.580273 0.069669 0.724335
O O1 0.500000 0.900762 0.027656
O O2 0.369563 0.925755 0.094993
O O3 0.408379 0.803053 0.049326
O O4 0.397137 0.880640 0.843911
O O5 0.750000 0.750000 0.490793
O O6 0.756359 0.868749 0.517583
O O7 0.833252 0.809506 0.311928
O O8 0.876645 0.804882 0.567736
O O9 0.655251 0.105845 0.345834
O O10 0.620255 0.182539 0.565507
O O11 0.640630 0.065928 0.602804
O O12 0.756541 0.880129 0.149733
O O13 0.718568 0.000000 0.233491
O O14 0.894320 0.248535 0.805166
O O15 0.000000 0.211125 0.973067
O O16 0.863357 0.185908 0.041647
O O17 0.250000 0.750000 0.128240
O O18 0.000000 0.255334 0.618452
O O19 0.500000 0.088829 0.665052
O O20 0.577001 0.000000 0.793493
#
# Coordination Sequence:
#
# PCOD8172558 Si02
#       8
#     8   8   8   8   8   8   8   8
#     4  10  20  34  48  71 107 144 180 218 262 312
#     4   8  18  31  46  69  98 131 168 216 264 305
#     4  10  19  34  49  70 104 139 180 219 262 317
#     4  11  23  37  54  77 109 147 187 227 270 322
#     4  10  20  33  53  80 107 137 176 223 272 321
#     4  10  19  36  54  77 106 140 179 225 273 319
#     4  10  19  32  50  76 106 134 172 220 268 318
#     4  10  19  31  47  68 100 141 181 219 257 308
#
# _framework density 17.333109
#
# number of rings (size 3 to 8) (size 9 to 14) (size 15 to 20)
#    0.000    2.125    2.500    1.875    0.000    4.750 
#    0.000    0.000    0.000    0.375    0.000    0.000 
#    0.000    6.500    0.000    0.000    0.000    0.000 
#
# Total GULP energy -396421.936214 kJ/mol
# GULP energy per Si atom -12388.185507 kJ/mol
# Density = 1.729366 g / cm^3
# Si number density = 17.333109 Si / 1000 Ang^3
#
#
#
# Elastic Constant Matrix: (Units=GPa)
#
#
# Indices 1 2 3 4 5 6 
#
# 1 91.5385 44.0404 68.8485 0.0000 0.0000 0.0000
# 2 44.0404 66.1847 43.8058 0.0000 0.0000 0.0000
# 3 68.8485 43.8058 95.5878 0.0000 0.0000 0.0000
# 4 0.0000 0.0000 0.0000 20.3307 0.0000 0.0000
# 5 0.0000 0.0000 0.0000 0.0000 33.4353 0.0000
# 6 0.0000 0.0000 0.0000 0.0000 0.0000 22.1906
#
#
#
# Elastic Compliance Matrix: (Units=1/GPa)
#
#
# Indices 1 2 3 4 5 6 
#
# 1 0.025929 -0.007023 -0.015457 0.000000 0.000000 0.000000
# 2 -0.007023 0.023590 -0.005752 0.000000 0.000000 0.000000
# 3 -0.015457 -0.005752 0.024231 0.000000 0.000000 0.000000
# 4 0.000000 0.000000 0.000000 0.049187 0.000000 0.000000
# 5 0.000000 0.000000 0.000000 0.000000 0.029908 0.000000
# 6 0.000000 0.000000 0.000000 0.000000 0.000000 0.045064
#
#
# Mechanical properties :
#
#
# Convention : Reuss Voigt Hill
#
# Bulk Modulus (GPa) = 57.85429 62.96672 60.41051
# Shear Modulus (GPa) = 19.22074 21.63241 20.42657
#
# Velocity S-wave (km/s) = 3.33363 3.53659 3.43661
# Velocity P-wave (km/s) = 6.94751 7.28580 7.11867
#
# Compressibility (1/GPa) = 0.01728480
#
# Stress axis : x y z
#
# Youngs Moduli (GPa) = 38.56687 42.39151 41.26920
#
# Poissons Ratio (x) = 0.29771 0.63791
# Poissons Ratio (y) = 0.27085 0.23740
# Poissons Ratio (z) = 0.59614 0.24385
#
# Static dielectric constant tensor:
#      x y z
#    x 3.396690 0.000000 0.000000 
#    y 0.000000 3.288090 0.000000 
#    z 0.000000 0.000000 3.311350 
# 
# 
# High freq. dielectric constant tensor:
#      x y z
#    x 1.653110 0.000000 0.000000 
#    y 0.000000 1.642400 0.000000 
#    z 0.000000 0.000000 1.675710 
# 
# From -- ./inp_files/8841.got.cif
#   From: 2010.03.12/outbox.cif.g09.slc.cpg/sg35_5_cif.got.tgz:8841.got - 2010.04.14 02:02:04.
