data_PCOD8172263
_publ_section_title
;
Structure prediction by ZEFSAII (Michael W. Deem and Ramdas Pophale) SiO2 
 PCOD8172263
Probable space group: C M M 2
;
_chemical_formula_sum "Si O2"
_cell_formula_units_Z 48
_cell_length_a 8.773489
_cell_length_b 15.747524
_cell_length_c 17.303606
_cell_angle_alpha 90.000000
_cell_angle_beta 90.000000
_cell_angle_gamma 90.000000
_cell_volume 2390.678812
_symmetry_space_group_name_H-M "C M M 2"
_symmetry_group_IT_number 35
_symmetry_cell_setting 'orthorhombic'
loop_
_space_group_symop_operation_xyz
x,y,z
-x,-y,z
-x,y,z
x,-y,z
1/2+x,1/2+y,z
1/2-x,1/2-y,z
1/2-x,1/2+y,z
1/2+x,1/2-y,z
loop_
_atom_site_type_symbol
_atom_site_label
_atom_site_fract_x
_atom_site_fract_y
_atom_site_fract_z
Si Si1 0.680850 0.157574 0.287240
Si Si2 0.177616 0.156380 0.967338
Si Si3 0.319314 0.093804 0.449892
Si Si4 0.824017 0.158986 0.138918
Si Si5 0.319258 0.836800 0.609390
Si Si6 0.680359 0.000000 0.878099
Si Si7 0.180185 0.500000 0.700569
O O1 0.500000 0.157474 0.288372
O O2 0.750000 0.250000 0.278935
O O3 0.748860 0.119774 0.366620
O O4 0.740237 0.108105 0.209711
O O5 0.250000 0.250000 0.955674
O O6 0.000000 0.164912 0.946760
O O7 0.254479 0.086860 0.912877
O O8 0.197937 0.117817 0.054285
O O9 0.500000 0.095540 0.444104
O O10 0.264713 0.153726 0.519899
O O11 0.260775 0.000000 0.469722
O O12 0.750000 0.250000 0.129738
O O13 0.000000 0.167428 0.161239
O O14 0.500000 0.832597 0.615307
O O15 0.250000 0.750000 0.642937
O O16 0.254597 0.915507 0.659150
O O17 0.730456 0.000000 0.789003
O O18 0.500000 0.000000 0.888962
O O19 0.000000 0.500000 0.690512
#
# Coordination Sequence:
#
# PCOD8172263 Si02
#       7
#     8   8   8   8   8   4   4
#     4  10  18  28  47  74 105 138 183 229 272 322
#     4  10  21  39  62  87 117 155 196 240 291 347
#     4   9  17  31  51  74 104 145 187 226 268 323
#     4   9  17  31  52  75 105 143 185 229 278 330
#     4  10  19  36  61  84 110 147 187 227 275 330
#     4  11  23  39  61  90 119 150 192 237 291 355
#     4   9  20  39  61  84 113 148 184 225 277 343
#
# _framework density 20.077981000000001
#
# number of rings (size 3 to 8) (size 9 to 14) (size 15 to 20)
#    0.000    2.333    0.833    3.250    0.000    2.667 
#    1.500    4.583    0.000    3.500    0.000    0.000 
#    0.000    0.000    0.000    0.000    0.000    0.000 
#
# Total GULP energy -297376.963708 kJ/mol
# GULP energy per Si atom -12390.706821 kJ/mol
# Density = 2.003228 g / cm^3
# Si number density = 20.077981 Si / 1000 Ang^3
#
#
#
# Elastic Constant Matrix: (Units=GPa)
#
#
# Indices 1 2 3 4 5 6 
#
# 1 77.0697 32.6455 50.4202 0.0000 0.0000 0.0000
# 2 32.6455 123.8116 70.3509 0.0000 0.0000 0.0000
# 3 50.4202 70.3509 162.6023 0.0000 0.0000 0.0000
# 4 0.0000 0.0000 0.0000 30.6212 0.0000 0.0000
# 5 0.0000 0.0000 0.0000 0.0000 21.4392 0.0000
# 6 0.0000 0.0000 0.0000 0.0000 0.0000 25.8314
#
#
#
# Elastic Compliance Matrix: (Units=1/GPa)
#
#
# Indices 1 2 3 4 5 6 
#
# 1 0.016617 -0.001927 -0.004319 0.000000 0.000000 0.000000
# 2 -0.001927 0.010933 -0.004133 0.000000 0.000000 0.000000
# 3 -0.004319 -0.004133 0.009277 0.000000 0.000000 0.000000
# 4 0.000000 0.000000 0.000000 0.032657 0.000000 0.000000
# 5 0.000000 0.000000 0.000000 0.000000 0.046644 0.000000
# 6 0.000000 0.000000 0.000000 0.000000 0.000000 0.038713
#
#
# Mechanical properties :
#
#
# Convention : Reuss Voigt Hill
#
# Bulk Modulus (GPa) = 62.22877 74.47963 68.35420
# Shear Modulus (GPa) = 27.63117 29.58283 28.60700
#
# Velocity S-wave (km/s) = 3.71373 3.84265 3.77874
# Velocity P-wave (km/s) = 7.03206 7.54080 7.29087
#
# Compressibility (1/GPa) = 0.01606974
#
# Stress axis : x y z
#
# Youngs Moduli (GPa) = 60.17890 91.46438 107.79167
#
# Poissons Ratio (x) = 0.17630 0.46552
# Poissons Ratio (y) = 0.11599 0.44546
# Poissons Ratio (z) = 0.25990 0.37799
#
# Static dielectric constant tensor:
#      x y z
#    x 3.473770 0.000000 0.000000 
#    y 0.000000 3.528660 0.000000 
#    z 0.000000 0.000000 4.386680 
# 
# 
# High freq. dielectric constant tensor:
#      x y z
#    x 1.761100 0.000000 0.000000 
#    y 0.000000 1.768480 0.000000 
#    z 0.000000 0.000000 1.801460 
# 
# From -- ./inp_files/17894.got.cif
#   From: 2010.03.12/outbox.cif.g09.slc.cpg/sg35_9_cif.got.tgz:17894.got - 2010.04.14 02:02:04.
