data_PCOD8172052
_publ_section_title
;
Structure prediction by ZEFSAII (Michael W. Deem and Ramdas Pophale) SiO2 
 PCOD8172052
Probable space group: P N N 2
;
_chemical_formula_sum "Si O2"
_cell_formula_units_Z 16
_cell_length_a 6.507577
_cell_length_b 15.220206
_cell_length_c 6.648893
_cell_angle_alpha 90.000000
_cell_angle_beta 90.000000
_cell_angle_gamma 90.000000
_cell_volume 658.550661
_symmetry_space_group_name_H-M "P N N 2"
_symmetry_group_IT_number 34
_symmetry_cell_setting 'orthorhombic'
loop_
_space_group_symop_operation_xyz
x,y,z
-x,-y,z
1/2-x,1/2+y,1/2+z
1/2+x,1/2-y,1/2+z
loop_
_atom_site_type_symbol
_atom_site_label
_atom_site_fract_x
_atom_site_fract_y
_atom_site_fract_z
Si Si1 0.939190 0.869575 0.262070
Si Si2 0.637595 0.086536 0.184894
Si Si3 0.124831 0.700229 0.434384
Si Si4 0.902665 0.410495 0.052936
O O1 0.793793 0.928726 0.405249
O O2 0.117460 0.931798 0.165809
O O3 0.071816 0.801164 0.395809
O O4 0.810831 0.817263 0.090857
O O5 0.577412 0.128575 0.403607
O O6 0.500000 0.000000 0.147812
O O7 0.585079 0.157257 0.014991
O O8 0.176356 0.655065 0.221539
O O9 0.000000 0.500000 0.145667
#
# Coordination Sequence:
#
# PCOD8172052 Si02
#       4
#     4   4   4   4
#     4  11  24  42  68  97 132 175 221 277 335 396
#     4  10  23  43  65  97 135 173 222 276 330 394
#     4  11  23  41  68  99 132 173 224 276 334 397
#     4  10  23  42  65  97 134 174 222 274 332 395
#
# _framework density 24.295777000000001
#
# number of rings (size 3 to 8) (size 9 to 14) (size 15 to 20)
#    0.000    1.500    0.000    3.750    0.000   18.000 
#    0.000    5.000    0.000    0.000    0.000    0.000 
#    0.000    0.000    0.000    0.000    0.000    0.000 
#
# Total GULP energy -198228.534699 kJ/mol
# GULP energy per Si atom -12389.283419 kJ/mol
# Density = 2.424048 g / cm^3
# Si number density = 24.295777 Si / 1000 Ang^3
#
#
#
# Elastic Constant Matrix: (Units=GPa)
#
#
# Indices 1 2 3 4 5 6 
#
# 1 181.5234 36.1012 17.5945 0.0000 0.0000 0.0000
# 2 36.1012 67.0530 6.4524 0.0000 0.0000 0.0000
# 3 17.5945 6.4524 73.3712 0.0000 0.0000 0.0000
# 4 0.0000 0.0000 0.0000 36.0007 0.0000 0.0000
# 5 0.0000 0.0000 0.0000 0.0000 22.7877 0.0000
# 6 0.0000 0.0000 0.0000 0.0000 0.0000 39.8472
#
#
#
# Elastic Compliance Matrix: (Units=1/GPa)
#
#
# Indices 1 2 3 4 5 6 
#
# 1 0.006276 -0.003262 -0.001218 0.000000 0.000000 0.000000
# 2 -0.003262 0.016736 -0.000690 0.000000 0.000000 0.000000
# 3 -0.001218 -0.000690 0.013982 0.000000 0.000000 0.000000
# 4 0.000000 0.000000 0.000000 0.027777 0.000000 0.000000
# 5 0.000000 0.000000 0.000000 0.000000 0.043883 0.000000
# 6 0.000000 0.000000 0.000000 0.000000 0.000000 0.025096
#
#
# Mechanical properties :
#
#
# Convention : Reuss Voigt Hill
#
# Bulk Modulus (GPa) = 37.51635 49.13821 43.32728
# Shear Modulus (GPa) = 32.68532 37.18041 34.93287
#
# Velocity S-wave (km/s) = 3.67182 3.91618 3.79597
# Velocity P-wave (km/s) = 5.78372 6.38103 6.08970
#
# Compressibility (1/GPa) = 0.02665505
#
# Stress axis : x y z
#
# Youngs Moduli (GPa) = 159.34582 59.75153 71.52020
#
# Poissons Ratio (x) = 0.19489 0.08712
# Poissons Ratio (y) = 0.51972 0.04932
# Poissons Ratio (z) = 0.19410 0.04121
#
# Static dielectric constant tensor:
#      x y z
#    x 5.216200 0.000000 0.000000 
#    y 0.000000 4.163800 0.000000 
#    z 0.000000 0.000000 4.357780 
# 
# 
# High freq. dielectric constant tensor:
#      x y z
#    x 1.980790 0.000000 0.000000 
#    y 0.000000 1.960080 0.000000 
#    z 0.000000 0.000000 1.954050 
# 
# From -- ./inp_files/108.got.cif
#   From: 2010.03.12/outbox.cif.g09.slc.cpg/sg34_1_cif.got.tgz:108.got - 2010.04.14 01:56:33.
