data_PCOD8172654
_publ_section_title
;
Structure prediction by ZEFSAII (Michael W. Deem and Ramdas Pophale) SiO2 
 PCOD8172654
Probable space group: C M M 2
;
_chemical_formula_sum "Si O2"
_cell_formula_units_Z 64
_cell_length_a 19.615557
_cell_length_b 19.431912
_cell_length_c 9.240249
_cell_angle_alpha 90.000000
_cell_angle_beta 90.000000
_cell_angle_gamma 90.000000
_cell_volume 3522.085174
_symmetry_space_group_name_H-M "C M M 2"
_symmetry_group_IT_number 35
_symmetry_cell_setting 'orthorhombic'
loop_
_space_group_symop_operation_xyz
x,y,z
-x,-y,z
-x,y,z
x,-y,z
1/2+x,1/2+y,z
1/2-x,1/2-y,z
1/2-x,1/2+y,z
1/2+x,1/2-y,z
loop_
_atom_site_type_symbol
_atom_site_label
_atom_site_fract_x
_atom_site_fract_y
_atom_site_fract_z
Si Si1 0.689338 0.201369 0.418740
Si Si2 0.884447 0.921268 0.329876
Si Si3 0.232479 0.422253 0.246376
Si Si4 0.576635 0.248181 0.826525
Si Si5 0.282558 0.577072 0.932943
Si Si6 0.291976 0.816619 0.749956
Si Si7 0.923337 0.799842 0.512579
Si Si8 0.923531 0.874494 0.019143
O O1 0.750000 0.250000 0.360516
O O2 0.681513 0.134115 0.316177
O O3 0.704882 0.174393 0.578786
O O4 0.620982 0.246568 0.417776
O O5 0.803024 0.921142 0.333785
O O6 0.909252 0.879050 0.469736
O O7 0.911809 0.000000 0.334099
O O8 0.914974 0.881632 0.191047
O O9 0.201344 0.500000 0.253122
O O10 0.248332 0.399171 0.082955
O O11 0.500000 0.216788 0.820657
O O12 0.632651 0.187154 0.823991
O O13 0.592077 0.294455 0.683699
O O14 0.585372 0.295054 0.969286
O O15 0.262441 0.500000 0.898638
O O16 0.250201 0.618820 0.803319
O O17 0.364903 0.581530 0.940338
O O18 0.250000 0.750000 0.797653
O O19 0.000000 0.778801 0.477431
O O20 0.000000 0.899677 0.974513
#
# Coordination Sequence:
#
# PCOD8172654 Si02
#       8
#     8   8   8   8   8   8   8   8
#     4  10  19  33  54  76 100 131 169 209 252 297
#     4  10  20  33  49  71 102 139 173 204 239 289
#     4   9  19  34  51  75 103 132 168 207 249 296
#     4   9  19  35  53  73 100 133 169 209 251 297
#     4  10  21  34  50  75 104 134 169 208 249 296
#     4  10  19  33  53  76 101 129 168 212 253 294
#     4  10  20  34  52  75 103 133 168 208 250 298
#     4  10  19  32  50  71 101 139 172 201 239 289
#
# _framework density 18.171054000000002
#
# number of rings (size 3 to 8) (size 9 to 14) (size 15 to 20)
#    0.000    2.250    2.500    1.500    0.000    3.750 
#    0.000    2.500    0.000    5.250    0.000    5.250 
#    0.000    0.000    0.000    0.000    0.000    0.000 
#
# Total GULP energy -396690.891445 kJ/mol
# GULP energy per Si atom -12396.590358 kJ/mol
# Density = 1.812970 g / cm^3
# Si number density = 18.171054 Si / 1000 Ang^3
#
#
#
# Elastic Constant Matrix: (Units=GPa)
#
#
# Indices 1 2 3 4 5 6 
#
# 1 70.9010 32.7705 21.6955 0.0000 0.0000 0.0000
# 2 32.7705 83.1920 36.4377 0.0000 0.0000 0.0000
# 3 21.6955 36.4377 42.8231 0.0000 0.0000 0.0000
# 4 0.0000 0.0000 0.0000 20.5549 0.0000 0.0000
# 5 0.0000 0.0000 0.0000 0.0000 21.5903 0.0000
# 6 0.0000 0.0000 0.0000 0.0000 0.0000 21.5464
#
#
#
# Elastic Compliance Matrix: (Units=1/GPa)
#
#
# Indices 1 2 3 4 5 6 
#
# 1 0.017862 -0.004898 -0.004882 0.000000 0.000000 0.000000
# 2 -0.004898 0.020505 -0.014966 0.000000 0.000000 0.000000
# 3 -0.004882 -0.014966 0.038559 0.000000 0.000000 0.000000
# 4 0.000000 0.000000 0.000000 0.048650 0.000000 0.000000
# 5 0.000000 0.000000 0.000000 0.000000 0.046317 0.000000
# 6 0.000000 0.000000 0.000000 0.000000 0.000000 0.046411
#
#
# Mechanical properties :
#
#
# Convention : Reuss Voigt Hill
#
# Bulk Modulus (GPa) = 36.44984 42.08037 39.26511
# Shear Modulus (GPa) = 18.05443 19.80583 18.93013
#
# Velocity S-wave (km/s) = 3.15553 3.30504 3.23115
# Velocity P-wave (km/s) = 5.77749 6.14594 5.96456
#
# Compressibility (1/GPa) = 0.02743496
#
# Stress axis : x y z
#
# Youngs Moduli (GPa) = 55.98549 48.76946 25.93398
#
# Poissons Ratio (x) = 0.23886 0.12661
# Poissons Ratio (y) = 0.27420 0.38812
# Poissons Ratio (z) = 0.27331 0.72987
#
# Static dielectric constant tensor:
#      x y z
#    x 3.438880 0.000000 0.000000 
#    y 0.000000 3.214920 0.000000 
#    z 0.000000 0.000000 3.258210 
# 
# 
# High freq. dielectric constant tensor:
#      x y z
#    x 1.697020 0.000000 0.000000 
#    y 0.000000 1.680680 0.000000 
#    z 0.000000 0.000000 1.697120 
# 
# From -- ./inp_files/8729.got.cif
#   From: 2010.03.12/outbox.cif.g09.slc.cpg/sg35_5_cif.got.tgz:8729.got - 2010.04.14 02:02:04.
