data_PCOD8172160
_publ_section_title
;
Structure prediction by ZEFSAII (Michael W. Deem and Ramdas Pophale) SiO2 
 PCOD8172160
Probable space group: C M M 2
;
_chemical_formula_sum "Si O2"
_cell_formula_units_Z 52
_cell_length_a 26.149894
_cell_length_b 13.084217
_cell_length_c 9.725634
_cell_angle_alpha 90.000000
_cell_angle_beta 90.000000
_cell_angle_gamma 90.000000
_cell_volume 3327.634306
_symmetry_space_group_name_H-M "C M M 2"
_symmetry_group_IT_number 35
_symmetry_cell_setting 'orthorhombic'
loop_
_space_group_symop_operation_xyz
x,y,z
-x,-y,z
-x,y,z
x,-y,z
1/2+x,1/2+y,z
1/2-x,1/2-y,z
1/2-x,1/2+y,z
1/2+x,1/2-y,z
loop_
_atom_site_type_symbol
_atom_site_label
_atom_site_fract_x
_atom_site_fract_y
_atom_site_fract_z
Si Si1 0.389272 0.881489 0.622820
Si Si2 0.500000 0.122280 0.239824
Si Si3 0.000000 0.621259 0.548564
Si Si4 0.667888 0.205314 0.871725
Si Si5 0.099603 0.386160 0.089830
Si Si6 0.750000 0.750000 0.232434
Si Si7 0.271000 0.382397 0.978259
Si Si8 0.169244 0.611838 0.349713
O O1 0.448701 0.844689 0.630661
O O2 0.351700 0.814942 0.717913
O O3 0.371829 0.862659 0.466696
O O4 0.384626 0.000000 0.665994
O O5 0.500000 0.167959 0.394151
O O6 0.451057 0.162602 0.156075
O O7 0.500000 0.000000 0.247668
O O8 0.000000 0.500000 0.532973
O O9 0.687921 0.321779 0.884181
O O10 0.714206 0.129776 0.914928
O O11 0.618985 0.186883 0.968805
O O12 0.088632 0.500000 0.030350
O O13 0.142756 0.393561 0.203520
O O14 0.789294 0.700787 0.339770
O O15 0.726178 0.662772 0.133185
O O16 0.286848 0.500000 0.981161
O O17 0.194214 0.500000 0.379922
#
# Coordination Sequence:
#
# PCOD8172160 Si02
#       8
#     8   4   4   8   8   4   8   8
#     4  10  19  30  46  69 100 129 151 184 232 279
#     4   9  16  25  43  69  95 126 156 185 222 277
#     4   9  16  27  43  65  95 126 154 181 226 285
#     4  10  20  31  47  70  94 124 156 191 230 278
#     4  10  16  27  45  67  94 123 156 186 222 271
#     4  10  18  28  48  72  92 118 164 194 222 272
#     4  10  19  32  49  67  91 123 156 196 238 274
#     4  10  18  29  46  67  96 128 154 185 227 275
#
# _framework density 15.626718
#
# number of rings (size 3 to 8) (size 9 to 14) (size 15 to 20)
#    0.000    2.308    4.615    1.846    0.000    1.846 
#    0.000    2.308    0.000    0.923    0.000    2.154 
#    0.000    1.231    0.000    0.000    0.000    0.000 
#
# Total GULP energy -322271.472370 kJ/mol
# GULP energy per Si atom -12395.056630 kJ/mol
# Density = 1.559115 g / cm^3
# Si number density = 15.626718 Si / 1000 Ang^3
#
#
#
# Elastic Constant Matrix: (Units=GPa)
#
#
# Indices 1 2 3 4 5 6 
#
# 1 84.4065 33.0264 16.8537 0.0000 0.0000 0.0000
# 2 33.0264 80.8887 18.3339 0.0000 0.0000 0.0000
# 3 16.8537 18.3339 50.8148 0.0000 0.0000 0.0000
# 4 0.0000 0.0000 0.0000 18.3399 0.0000 0.0000
# 5 0.0000 0.0000 0.0000 0.0000 27.7151 0.0000
# 6 0.0000 0.0000 0.0000 0.0000 0.0000 16.1472
#
#
#
# Elastic Compliance Matrix: (Units=1/GPa)
#
#
# Indices 1 2 3 4 5 6 
#
# 1 0.014484 -0.005255 -0.002908 0.000000 0.000000 0.000000
# 2 -0.005255 0.015370 -0.003803 0.000000 0.000000 0.000000
# 3 -0.002908 -0.003803 0.022016 0.000000 0.000000 0.000000
# 4 0.000000 0.000000 0.000000 0.054526 0.000000 0.000000
# 5 0.000000 0.000000 0.000000 0.000000 0.036081 0.000000
# 6 0.000000 0.000000 0.000000 0.000000 0.000000 0.061930
#
#
# Mechanical properties :
#
#
# Convention : Reuss Voigt Hill
#
# Bulk Modulus (GPa) = 35.79201 39.17087 37.48144
# Shear Modulus (GPa) = 21.03922 22.30018 21.66970
#
# Velocity S-wave (km/s) = 3.67326 3.78174 3.72789
# Velocity P-wave (km/s) = 6.39879 6.64753 6.52435
#
# Compressibility (1/GPa) = 0.02793919
#
# Stress axis : x y z
#
# Youngs Moduli (GPa) = 69.04110 65.06180 45.42187
#
# Poissons Ratio (x) = 0.34188 0.13209
# Poissons Ratio (y) = 0.36279 0.17272
# Poissons Ratio (z) = 0.20078 0.24741
#
# Static dielectric constant tensor:
#      x y z
#    x 3.104350 0.000000 0.000000 
#    y 0.000000 2.761570 0.000000 
#    z 0.000000 0.000000 2.895260 
# 
# 
# High freq. dielectric constant tensor:
#      x y z
#    x 1.598210 0.000000 0.000000 
#    y 0.000000 1.551110 0.000000 
#    z 0.000000 0.000000 1.598570 
# 
# From -- ./inp_files/10263.got.cif
#   From: 2010.03.12/outbox.cif.g09.slc.cpg/sg35_6_cif.got.tgz:10263.got - 2010.04.14 02:02:04.
