data_PCOD8172460
_publ_section_title
;
Structure prediction by ZEFSAII (Michael W. Deem and Ramdas Pophale) SiO2 
 PCOD8172460
Probable space group: C M M 2
;
_chemical_formula_sum "Si O2"
_cell_formula_units_Z 64
_cell_length_a 30.858926
_cell_length_b 8.525253
_cell_length_c 11.827589
_cell_angle_alpha 90.000000
_cell_angle_beta 90.000000
_cell_angle_gamma 90.000000
_cell_volume 3111.603906
_symmetry_space_group_name_H-M "C M M 2"
_symmetry_group_IT_number 35
_symmetry_cell_setting 'orthorhombic'
loop_
_space_group_symop_operation_xyz
x,y,z
-x,-y,z
-x,y,z
x,-y,z
1/2+x,1/2+y,z
1/2-x,1/2-y,z
1/2-x,1/2+y,z
1/2+x,1/2-y,z
loop_
_atom_site_type_symbol
_atom_site_label
_atom_site_fract_x
_atom_site_fract_y
_atom_site_fract_z
Si Si1 0.795148 0.816314 0.737920
Si Si2 0.677411 0.183112 0.510494
Si Si3 0.704165 0.184306 0.263777
Si Si4 0.585173 0.319169 0.503804
Si Si5 0.450993 0.320660 0.743704
Si Si6 0.452287 0.314025 0.266339
Si Si7 0.127155 0.816763 0.120445
Si Si8 0.125771 0.318991 0.876571
O O1 0.750000 0.750000 0.787177
O O2 0.796963 0.782280 0.604208
O O3 0.834423 0.727985 0.797643
O O4 0.798695 0.000000 0.762076
O O5 0.692782 0.247847 0.388810
O O6 0.626433 0.210113 0.523473
O O7 0.687688 0.000000 0.527575
O O8 0.750000 0.250000 0.222368
O O9 0.668395 0.233931 0.174122
O O10 0.706521 0.000000 0.266641
O O11 0.600315 0.500000 0.491485
O O12 0.553238 0.297270 0.609304
O O13 0.560389 0.260456 0.392410
O O14 0.500000 0.278668 0.778717
O O15 0.439750 0.500000 0.776118
O O16 0.419001 0.207244 0.810723
O O17 0.500000 0.244916 0.236953
O O18 0.454192 0.500000 0.260052
O O19 0.416873 0.249320 0.177506
O O20 0.131366 0.000000 0.144496
O O21 0.126039 0.785760 0.988022
O O22 0.129811 0.500000 0.910175
#
# Coordination Sequence:
#
# PCOD8172460 Si02
#       8
#     8   8   8   8   8   8   8   8
#     4  12  25  43  67  95 126 161 205 254 311 373
#     4  11  22  37  61  94 131 167 202 248 307 370
#     4  11  24  41  63  92 127 163 205 252 306 368
#     4  10  18  33  61  93 126 164 203 250 306 368
#     4  10  21  38  63  95 128 165 210 257 308 371
#     4   9  18  34  60  94 126 159 203 252 302 360
#     4  11  23  41  65  91 121 162 211 260 311 364
#     4  12  26  44  64  89 124 165 211 261 316 371
#
# _framework density 20.568169999999999
#
# number of rings (size 3 to 8) (size 9 to 14) (size 15 to 20)
#    0.000    1.250    2.500    4.125    0.000    5.250 
#    0.000    3.750    0.000    3.750    0.000    0.000 
#    0.000    0.000    0.000    0.000    0.000    0.000 
#
# Total GULP energy -396958.949954 kJ/mol
# GULP energy per Si atom -12404.967186 kJ/mol
# Density = 2.052136 g / cm^3
# Si number density = 20.568170 Si / 1000 Ang^3
#
#
#
# Elastic Constant Matrix: (Units=GPa)
#
#
# Indices 1 2 3 4 5 6 
#
# 1 151.8059 21.0006 38.4404 0.0000 0.0000 0.0000
# 2 21.0006 54.2664 6.3551 0.0000 0.0000 0.0000
# 3 38.4404 6.3551 102.6003 0.0000 0.0000 0.0000
# 4 0.0000 0.0000 0.0000 28.7886 0.0000 0.0000
# 5 0.0000 0.0000 0.0000 0.0000 11.7836 0.0000
# 6 0.0000 0.0000 0.0000 0.0000 0.0000 28.4430
#
#
#
# Elastic Compliance Matrix: (Units=1/GPa)
#
#
# Indices 1 2 3 4 5 6 
#
# 1 0.007635 -0.002639 -0.002697 0.000000 0.000000 0.000000
# 2 -0.002639 0.019474 -0.000218 0.000000 0.000000 0.000000
# 3 -0.002697 -0.000218 0.010771 0.000000 0.000000 0.000000
# 4 0.000000 0.000000 0.000000 0.034736 0.000000 0.000000
# 5 0.000000 0.000000 0.000000 0.000000 0.084864 0.000000
# 6 0.000000 0.000000 0.000000 0.000000 0.000000 0.035158
#
#
# Mechanical properties :
#
#
# Convention : Reuss Voigt Hill
#
# Bulk Modulus (GPa) = 37.35122 48.91830 43.13476
# Shear Modulus (GPa) = 23.51061 29.99481 26.75271
#
# Velocity S-wave (km/s) = 3.38458 3.82293 3.61041
# Velocity P-wave (km/s) = 5.78559 6.58191 6.19655
#
# Compressibility (1/GPa) = 0.02677289
#
# Stress axis : x y z
#
# Youngs Moduli (GPa) = 130.96848 51.34963 92.84543
#
# Poissons Ratio (x) = 0.13551 0.25043
# Poissons Ratio (y) = 0.34562 0.02020
# Poissons Ratio (z) = 0.35325 0.01117
#
# Static dielectric constant tensor:
#      x y z
#    x 3.901460 0.000000 0.000000 
#    y 0.000000 3.523200 0.000000 
#    z 0.000000 0.000000 3.718490 
# 
# 
# High freq. dielectric constant tensor:
#      x y z
#    x 1.818370 0.000000 0.000000 
#    y 0.000000 1.789860 0.000000 
#    z 0.000000 0.000000 1.803010 
# 
# From -- ./inp_files/14552.got.cif
#   From: 2010.03.12/outbox.cif.g09.slc.cpg/sg35_8_cif.got.tgz:14552.got - 2010.04.14 02:02:04.
