data_PCOD8172423
_publ_section_title
;
Structure prediction by ZEFSAII (Michael W. Deem and Ramdas Pophale) SiO2 
 PCOD8172423
Probable space group: C M M 2
;
_chemical_formula_sum "Si O2"
_cell_formula_units_Z 40
_cell_length_a 26.017846
_cell_length_b 8.880349
_cell_length_c 9.397263
_cell_angle_alpha 90.000000
_cell_angle_beta 90.000000
_cell_angle_gamma 90.000000
_cell_volume 2171.214618
_symmetry_space_group_name_H-M "C M M 2"
_symmetry_group_IT_number 35
_symmetry_cell_setting 'orthorhombic'
loop_
_space_group_symop_operation_xyz
x,y,z
-x,-y,z
-x,y,z
x,-y,z
1/2+x,1/2+y,z
1/2-x,1/2-y,z
1/2-x,1/2+y,z
1/2+x,1/2-y,z
loop_
_atom_site_type_symbol
_atom_site_label
_atom_site_fract_x
_atom_site_fract_y
_atom_site_fract_z
Si Si1 0.699688 0.331314 0.832740
Si Si2 0.000000 0.677598 0.004830
Si Si3 0.701473 0.664618 0.495249
Si Si4 0.910881 0.819132 0.509429
Si Si5 0.594093 0.820703 0.813641
Si Si6 0.000000 0.679729 0.327755
O O1 0.695164 0.500000 0.896163
O O2 0.750000 0.250000 0.898709
O O3 0.706102 0.340897 0.664373
O O4 0.648897 0.236812 0.871865
O O5 0.000000 0.737098 0.165756
O O6 0.000000 0.500000 0.005076
O O7 0.948734 0.733945 0.925662
O O8 0.704562 0.500000 0.428290
O O9 0.750000 0.750000 0.427199
O O10 0.645871 0.734837 0.457306
O O11 0.921971 0.754731 0.665342
O O12 0.949887 0.748490 0.399202
O O13 0.914856 0.000000 0.515657
O O14 0.595967 0.000000 0.794300
O O15 0.000000 0.500000 0.342875
#
# Coordination Sequence:
#
# PCOD8172423 Si02
#       6
#     8   4   8   8   8   4
#     4   9  16  27  44  72 105 135 166 206 251 298
#     4   9  21  37  52  72 100 131 170 213 256 306
#     4   8  15  26  43  68 100 129 156 193 240 287
#     4  10  20  34  51  77 107 133 165 209 252 300
#     4  10  18  32  54  78 103 135 170 209 253 301
#     4  11  22  37  54  72  96 133 174 213 256 304
#
# _framework density 18.422868000000001
#
# number of rings (size 3 to 8) (size 9 to 14) (size 15 to 20)
#    0.000    2.600    0.000    3.900    0.000    6.400 
#    0.000    5.500    0.000    1.200    0.000    2.800 
#    0.000    0.000    0.000    0.000    0.000    0.000 
#
# Total GULP energy -247898.691541 kJ/mol
# GULP energy per Si atom -12394.934577 kJ/mol
# Density = 1.838094 g / cm^3
# Si number density = 18.422868 Si / 1000 Ang^3
#
#
#
# Elastic Constant Matrix: (Units=GPa)
#
#
# Indices 1 2 3 4 5 6 
#
# 1 190.4768 64.1868 75.6239 0.0000 0.0000 0.0000
# 2 64.1868 100.6192 39.0374 0.0000 0.0000 0.0000
# 3 75.6239 39.0374 82.4842 0.0000 0.0000 0.0000
# 4 0.0000 0.0000 0.0000 10.2519 0.0000 0.0000
# 5 0.0000 0.0000 0.0000 0.0000 -1.7690 0.0000
# 6 0.0000 0.0000 0.0000 0.0000 0.0000 36.1775
#
#
#
# Elastic Compliance Matrix: (Units=1/GPa)
#
#
# Indices 1 2 3 4 5 6 
#
# 1 0.008983 -0.003105 -0.006766 0.000000 0.000000 0.000000
# 2 -0.003105 0.013247 -0.003423 0.000000 0.000000 0.000000
# 3 -0.006766 -0.003423 0.019947 0.000000 0.000000 0.000000
# 4 0.000000 0.000000 0.000000 0.097543 0.000000 0.000000
# 5 0.000000 0.000000 0.000000 0.000000 -0.565278 0.000000
# 6 0.000000 0.000000 0.000000 0.000000 0.000000 0.027641
#
#
# Mechanical properties :
#
#
# Convention : Reuss Voigt Hill
#
# Bulk Modulus (GPa) = 64.14804 81.25294 72.70049
# Shear Modulus (GPa) = -13.65621 21.91421 4.12900
#
# Velocity S-wave (km/s) = -2.72557 3.45267 1.49870
# Velocity P-wave (km/s) = 4.99904 7.75208 6.52247
#
# Compressibility (1/GPa) = 0.01558894
#
# Stress axis : x y z
#
# Youngs Moduli (GPa) = 111.32646 75.48773 50.13401
#
# Poissons Ratio (x) = 0.23440 0.33920
# Poissons Ratio (y) = 0.34569 0.17159
# Poissons Ratio (z) = 0.75322 0.25836
#
# Static dielectric constant tensor:
#      x y z
#    x 3.786820 0.000000 0.000000 
#    y 0.000000 3.530190 0.000000 
#    z 0.000000 0.000000 3.012780 
# 
# 
# High freq. dielectric constant tensor:
#      x y z
#    x 1.739050 0.000000 0.000000 
#    y 0.000000 1.718740 0.000000 
#    z 0.000000 0.000000 1.657210 
# 
# From -- ./inp_files/10082.got.cif
#   From: 2010.03.12/outbox.cif.g09.slc.cpg/sg35_6_cif.got.tgz:10082.got - 2010.04.14 02:02:04.
