data_PCOD8172575
_publ_section_title
;
Structure prediction by ZEFSAII (Michael W. Deem and Ramdas Pophale) SiO2 
 PCOD8172575
Probable space group: C M M 2
;
_chemical_formula_sum "Si O2"
_cell_formula_units_Z 56
_cell_length_a 9.043143
_cell_length_b 19.231896
_cell_length_c 18.250833
_cell_angle_alpha 90.000000
_cell_angle_beta 90.000000
_cell_angle_gamma 90.000000
_cell_volume 3174.126212
_symmetry_space_group_name_H-M "C M M 2"
_symmetry_group_IT_number 35
_symmetry_cell_setting 'orthorhombic'
loop_
_space_group_symop_operation_xyz
x,y,z
-x,-y,z
-x,y,z
x,-y,z
1/2+x,1/2+y,z
1/2-x,1/2-y,z
1/2-x,1/2+y,z
1/2+x,1/2-y,z
loop_
_atom_site_type_symbol
_atom_site_label
_atom_site_fract_x
_atom_site_fract_y
_atom_site_fract_z
Si Si1 0.172008 0.323307 0.439210
Si Si2 0.826638 0.324081 0.600311
Si Si3 0.833244 0.917152 0.163939
Si Si4 0.324507 0.674983 0.740829
Si Si5 0.325865 0.920499 0.309217
Si Si6 0.327542 0.579548 0.876683
Si Si7 0.333493 0.082807 0.021769
O O1 0.250000 0.250000 0.428705
O O2 0.199665 0.357771 0.519926
O O3 0.231395 0.377292 0.379069
O O4 0.000000 0.308731 0.428237
O O5 0.750000 0.250000 0.596648
O O6 0.743759 0.362622 0.667762
O O7 0.000000 0.317477 0.618220
O O8 0.751805 0.890000 0.236806
O O9 0.751727 0.886720 0.092317
O O10 0.000000 0.888941 0.164212
O O11 0.828582 0.000000 0.162009
O O12 0.500000 0.683126 0.732559
O O13 0.250000 0.750000 0.753194
O O14 0.280562 0.625925 0.807988
O O15 0.500000 0.913659 0.297584
O O16 0.279284 0.000000 0.323135
O O17 0.500000 0.585221 0.893787
O O18 0.282229 0.500000 0.859825
O O19 0.243380 0.609291 0.947585
O O20 0.500000 0.111293 0.023621
O O21 0.329377 0.000000 0.024064
#
# Coordination Sequence:
#
# PCOD8172575 Si02
#       7
#     8   8   8   8   8   8   8
#     4   9  18  31  48  69  91 119 153 189 229 270
#     4   9  16  28  46  67  90 117 153 191 225 266
#     4   9  16  26  42  65  92 121 153 187 223 265
#     4  10  19  31  49  70  92 120 153 189 228 270
#     4   9  17  30  47  67  93 122 152 187 227 271
#     4   9  18  32  48  67  93 123 153 186 226 271
#     4   9  16  26  43  67  92 119 152 188 225 265
#
# _framework density 17.64265
#
# number of rings (size 3 to 8) (size 9 to 14) (size 15 to 20)
#    0.000    2.857    0.000    2.571    0.000    5.714 
#    0.000    0.714    0.000    1.714    0.000    6.000 
#    0.000    0.000    0.000    0.000    0.000    0.000 
#
# Total GULP energy -347044.841531 kJ/mol
# GULP energy per Si atom -12394.458626 kJ/mol
# Density = 1.760249 g / cm^3
# Si number density = 17.642650 Si / 1000 Ang^3
#
#
#
# Elastic Constant Matrix: (Units=GPa)
#
#
# Indices 1 2 3 4 5 6 
#
# 1 90.0958 27.9505 79.1851 0.0000 0.0000 0.0000
# 2 27.9505 42.0289 55.1397 0.0000 0.0000 0.0000
# 3 79.1851 55.1397 205.3432 0.0000 0.0000 0.0000
# 4 0.0000 0.0000 0.0000 15.7907 0.0000 0.0000
# 5 0.0000 0.0000 0.0000 0.0000 34.8190 0.0000
# 6 0.0000 0.0000 0.0000 0.0000 0.0000 14.6189
#
#
#
# Elastic Compliance Matrix: (Units=1/GPa)
#
#
# Indices 1 2 3 4 5 6 
#
# 1 0.017266 -0.004241 -0.005519 0.000000 0.000000 0.000000
# 2 -0.004241 0.037776 -0.008508 0.000000 0.000000 0.000000
# 3 -0.005519 -0.008508 0.009283 0.000000 0.000000 0.000000
# 4 0.000000 0.000000 0.000000 0.063329 0.000000 0.000000
# 5 0.000000 0.000000 0.000000 0.000000 0.028720 0.000000
# 6 0.000000 0.000000 0.000000 0.000000 0.000000 0.068405
#
#
# Mechanical properties :
#
#
# Convention : Reuss Voigt Hill
#
# Bulk Modulus (GPa) = 35.98773 73.55760 54.77266
# Shear Modulus (GPa) = 18.47893 24.72522 21.60208
#
# Velocity S-wave (km/s) = 3.23987 3.74765 3.50297
# Velocity P-wave (km/s) = 5.86840 7.77882 6.89014
#
# Compressibility (1/GPa) = 0.02778725
#
# Stress axis : x y z
#
# Youngs Moduli (GPa) = 57.91746 26.47170 107.72487
#
# Poissons Ratio (x) = 0.11228 0.59456
# Poissons Ratio (y) = 0.24565 0.91655
# Poissons Ratio (z) = 0.31966 0.22523
#
# Static dielectric constant tensor:
#      x y z
#    x 3.367180 0.000000 0.000000 
#    y 0.000000 2.791610 0.000000 
#    z 0.000000 0.000000 3.898070 
# 
# 
# High freq. dielectric constant tensor:
#      x y z
#    x 1.690630 0.000000 0.000000 
#    y 0.000000 1.620230 0.000000 
#    z 0.000000 0.000000 1.705790 
# 
# From -- ./inp_files/17403.got.cif
#   From: 2010.03.12/outbox.cif.g09.slc.cpg/sg35_9_cif.got.tgz:17403.got - 2010.04.14 02:02:04.
