data_PCOD8172705
_publ_section_title
;
Structure prediction by ZEFSAII (Michael W. Deem and Ramdas Pophale) SiO2 
 PCOD8172705
Probable space group: C M M 2
;
_chemical_formula_sum "Si O2"
_cell_formula_units_Z 64
_cell_length_a 30.948009
_cell_length_b 9.079692
_cell_length_c 11.690303
_cell_angle_alpha 90.000000
_cell_angle_beta 90.000000
_cell_angle_gamma 90.000000
_cell_volume 3284.956318
_symmetry_space_group_name_H-M "C M M 2"
_symmetry_group_IT_number 35
_symmetry_cell_setting 'orthorhombic'
loop_
_space_group_symop_operation_xyz
x,y,z
-x,-y,z
-x,y,z
x,-y,z
1/2+x,1/2+y,z
1/2-x,1/2-y,z
1/2-x,1/2+y,z
1/2+x,1/2-y,z
loop_
_atom_site_type_symbol
_atom_site_label
_atom_site_fract_x
_atom_site_fract_y
_atom_site_fract_z
Si Si1 0.787723 0.665319 0.928230
Si Si2 0.124769 0.664833 0.062351
Si Si3 0.050310 0.826763 0.453743
Si Si4 0.296752 0.175659 0.489667
Si Si5 0.375006 0.172540 0.323360
Si Si6 0.676574 0.670704 0.720863
Si Si7 0.049268 0.660104 0.674770
Si Si8 0.411103 0.332035 0.859203
O O1 0.774561 0.500000 0.895673
O O2 0.750000 0.750000 0.997890
O O3 0.791345 0.759236 0.812206
O O4 0.828347 0.667465 0.008831
O O5 0.105172 0.500000 0.057026
O O6 0.129998 0.719317 0.191492
O O7 0.095090 0.773531 0.988001
O O8 0.081886 0.758003 0.360283
O O9 0.067529 0.763985 0.574712
O O10 0.000000 0.787432 0.427138
O O11 0.056978 0.000000 0.457796
O O12 0.250000 0.250000 0.465036
O O13 0.330765 0.216535 0.388877
O O14 0.318420 0.239004 0.604229
O O15 0.290408 0.000000 0.500240
O O16 0.383795 0.000000 0.339153
O O17 0.687860 0.500000 0.699229
O O18 0.629174 0.690307 0.774160
O O19 0.073170 0.500000 0.675083
O O20 0.051868 0.737360 0.798423
O O21 0.000000 0.632245 0.646677
O O22 0.425467 0.500000 0.869424
#
# Coordination Sequence:
#
# PCOD8172705 Si02
#       8
#     8   8   8   8   8   8   8   8
#     4  10  19  32  52  76 103 135 173 221 273 322
#     4   9  20  38  56  75 103 141 184 225 266 320
#     4  10  21  37  59  88 118 146 180 226 280 334
#     4  11  23  37  54  79 111 146 185 228 276 329
#     4  10  22  40  60  81 108 147 193 235 275 325
#     4  10  20  34  52  76 106 138 175 219 271 329
#     4  10  20  34  55  83 113 144 176 212 261 324
#     4  10  20  34  55  82 109 139 176 221 274 326
#
# _framework density 19.482755000000001
#
# number of rings (size 3 to 8) (size 9 to 14) (size 15 to 20)
#    0.000    2.000    0.000    3.375    0.000    7.500 
#    0.000    0.625    0.000    0.750    0.000    0.000 
#    0.000    0.000    0.000    0.000    0.000    0.000 
#
# Total GULP energy -396662.833106 kJ/mol
# GULP energy per Si atom -12395.713535 kJ/mol
# Density = 1.943841 g / cm^3
# Si number density = 19.482755 Si / 1000 Ang^3
#
#
#
# Elastic Constant Matrix: (Units=GPa)
#
#
# Indices 1 2 3 4 5 6 
#
# 1 52.6845 43.8206 39.2065 0.0000 0.0000 0.0000
# 2 43.8206 131.7959 67.4126 0.0000 0.0000 0.0000
# 3 39.2065 67.4126 146.8346 0.0000 0.0000 0.0000
# 4 0.0000 0.0000 0.0000 35.5386 0.0000 0.0000
# 5 0.0000 0.0000 0.0000 0.0000 -13.5297 0.0000
# 6 0.0000 0.0000 0.0000 0.0000 0.0000 31.5011
#
#
#
# Elastic Compliance Matrix: (Units=1/GPa)
#
#
# Indices 1 2 3 4 5 6 
#
# 1 0.028086 -0.007191 -0.004198 0.000000 0.000000 0.000000
# 2 -0.007191 0.011757 -0.003478 0.000000 0.000000 0.000000
# 3 -0.004198 -0.003478 0.009528 0.000000 0.000000 0.000000
# 4 0.000000 0.000000 0.000000 0.028138 0.000000 0.000000
# 5 0.000000 0.000000 0.000000 0.000000 -0.073912 0.000000
# 6 0.000000 0.000000 0.000000 0.000000 0.000000 0.031745
#
#
# Mechanical properties :
#
#
# Convention : Reuss Voigt Hill
#
# Bulk Modulus (GPa) = 50.92188 70.24384 60.58286
# Shear Modulus (GPa) = 69.81044 22.76035 46.28539
#
# Velocity S-wave (km/s) = 5.99247 3.42165 4.87941
# Velocity P-wave (km/s) = 8.60658 7.19325 7.93146
#
# Compressibility (1/GPa) = 0.01963792
#
# Stress axis : x y z
#
# Youngs Moduli (GPa) = 35.60472 85.05355 104.95505
#
# Poissons Ratio (x) = 0.61164 0.44058
# Poissons Ratio (y) = 0.25604 0.36500
# Poissons Ratio (z) = 0.14946 0.29579
#
# Static dielectric constant tensor:
#      x y z
#    x 3.524910 0.000000 0.000000 
#    y 0.000000 3.656650 0.000000 
#    z 0.000000 0.000000 3.503040 
# 
# 
# High freq. dielectric constant tensor:
#      x y z
#    x 1.753850 0.000000 0.000000 
#    y 0.000000 1.772760 0.000000 
#    z 0.000000 0.000000 1.749050 
# 
# From -- ./inp_files/14528.got.cif
#   From: 2010.03.12/outbox.cif.g09.slc.cpg/sg35_8_cif.got.tgz:14528.got - 2010.04.14 02:02:04.
