data_PCOD8172221
_publ_section_title
;
Structure prediction by ZEFSAII (Michael W. Deem and Ramdas Pophale) SiO2 
 PCOD8172221
Probable space group: C M M 2
;
_chemical_formula_sum "Si O2"
_cell_formula_units_Z 40
_cell_length_a 14.999514
_cell_length_b 8.685792
_cell_length_c 14.812705
_cell_angle_alpha 90.000000
_cell_angle_beta 90.000000
_cell_angle_gamma 90.000000
_cell_volume 1929.838590
_symmetry_space_group_name_H-M "C M M 2"
_symmetry_group_IT_number 35
_symmetry_cell_setting 'orthorhombic'
loop_
_space_group_symop_operation_xyz
x,y,z
-x,-y,z
-x,y,z
x,-y,z
1/2+x,1/2+y,z
1/2-x,1/2-y,z
1/2-x,1/2+y,z
1/2+x,1/2-y,z
loop_
_atom_site_type_symbol
_atom_site_label
_atom_site_fract_x
_atom_site_fract_y
_atom_site_fract_z
Si Si1 0.000000 0.323669 0.073660
Si Si2 0.151097 0.317554 0.561075
Si Si3 0.000000 0.678433 0.861127
Si Si4 0.847089 0.821337 0.186516
Si Si5 0.346764 0.321055 0.385099
Si Si6 0.151465 0.182924 0.744843
O O1 0.088744 0.248122 0.112119
O O2 0.000000 0.500000 0.102235
O O3 0.000000 0.299943 0.967428
O O4 0.150071 0.500000 0.569800
O O5 0.250000 0.250000 0.554178
O O6 0.101310 0.264039 0.468182
O O7 0.107880 0.244735 0.650952
O O8 0.088616 0.761024 0.825091
O O9 0.000000 0.500000 0.832497
O O10 0.750000 0.750000 0.176368
O O11 0.890917 0.794646 0.286621
O O12 0.836529 0.000000 0.167118
O O13 0.340435 0.500000 0.409654
O O14 0.250000 0.250000 0.375507
O O15 0.250000 0.250000 0.759987
O O16 0.156731 0.000000 0.742805
#
# Coordination Sequence:
#
# PCOD8172221 Si02
#       6
#     4   8   4   8   8   8
#     4  11  25  43  64  87 116 151 193 246 302 355
#     4  10  17  28  50  81 117 156 194 236 282 338
#     4  11  25  45  64  87 116 149 193 248 302 355
#     4  10  21  38  62  89 121 157 197 242 291 347
#     4   9  16  28  49  80 115 153 193 235 282 338
#     4  11  22  39  63  90 120 157 196 240 291 349
#
# _framework density 20.727122000000001
#
# number of rings (size 3 to 8) (size 9 to 14) (size 15 to 20)
#    0.000    1.800    0.000    7.800    0.000    4.800 
#    0.000    1.000    0.000    3.600    0.000    0.000 
#    0.000    0.000    0.000    0.000    0.000    0.000 
#
# Total GULP energy -247892.365944 kJ/mol
# GULP energy per Si atom -12394.618297 kJ/mol
# Density = 2.067995 g / cm^3
# Si number density = 20.727122 Si / 1000 Ang^3
#
#
#
# Elastic Constant Matrix: (Units=GPa)
#
#
# Indices 1 2 3 4 5 6 
#
# 1 88.3775 51.2879 51.9964 0.0000 0.0000 0.0000
# 2 51.2879 200.1698 82.1243 0.0000 0.0000 0.0000
# 3 51.9964 82.1243 119.1894 0.0000 0.0000 0.0000
# 4 0.0000 0.0000 0.0000 37.3868 0.0000 0.0000
# 5 0.0000 0.0000 0.0000 0.0000 30.5716 0.0000
# 6 0.0000 0.0000 0.0000 0.0000 0.0000 25.8002
#
#
#
# Elastic Compliance Matrix: (Units=1/GPa)
#
#
# Indices 1 2 3 4 5 6 
#
# 1 0.015618 -0.001682 -0.005655 0.000000 0.000000 0.000000
# 2 -0.001682 0.007146 -0.004190 0.000000 0.000000 0.000000
# 3 -0.005655 -0.004190 0.013744 0.000000 0.000000 0.000000
# 4 0.000000 0.000000 0.000000 0.026747 0.000000 0.000000
# 5 0.000000 0.000000 0.000000 0.000000 0.032710 0.000000
# 6 0.000000 0.000000 0.000000 0.000000 0.000000 0.038759
#
#
# Mechanical properties :
#
#
# Convention : Reuss Voigt Hill
#
# Bulk Modulus (GPa) = 74.32206 86.50598 80.41402
# Shear Modulus (GPa) = 30.81447 33.57358 32.19402
#
# Velocity S-wave (km/s) = 3.85992 4.02903 3.94538
# Velocity P-wave (km/s) = 7.46998 7.96683 7.72240
#
# Compressibility (1/GPa) = 0.01345496
#
# Stress axis : x y z
#
# Youngs Moduli (GPa) = 64.02916 139.94545 72.76051
#
# Poissons Ratio (x) = 0.23535 0.41143
# Poissons Ratio (y) = 0.10768 0.30486
# Poissons Ratio (z) = 0.36206 0.58635
#
# Static dielectric constant tensor:
#      x y z
#    x 3.349830 0.000000 0.000000 
#    y 0.000000 3.915750 0.000000 
#    z 0.000000 0.000000 4.543160 
# 
# 
# High freq. dielectric constant tensor:
#      x y z
#    x 1.781520 0.000000 0.000000 
#    y 0.000000 1.830550 0.000000 
#    z 0.000000 0.000000 1.827320 
# 
# From -- ./inp_files/16601.got.cif
#   From: 2010.03.12/outbox.cif.g09.slc.cpg/sg35_9_cif.got.tgz:16601.got - 2010.04.14 02:02:04.
