data_PCOD8172026
_publ_section_title
;
Structure prediction by ZEFSAII (Michael W. Deem and Ramdas Pophale) SiO2 
 PCOD8172026
Probable space group: P N N 2
;
_chemical_formula_sum "Si O2"
_cell_formula_units_Z 30
_cell_length_a 9.077904
_cell_length_b 5.153104
_cell_length_c 29.856058
_cell_angle_alpha 90.000000
_cell_angle_beta 90.000000
_cell_angle_gamma 90.000000
_cell_volume 1396.647984
_symmetry_space_group_name_H-M "P N N 2"
_symmetry_group_IT_number 34
_symmetry_cell_setting 'orthorhombic'
loop_
_space_group_symop_operation_xyz
x,y,z
-x,-y,z
1/2-x,1/2+y,1/2+z
1/2+x,1/2-y,1/2+z
loop_
_atom_site_type_symbol
_atom_site_label
_atom_site_fract_x
_atom_site_fract_y
_atom_site_fract_z
Si Si1 0.823371 0.499245 0.103070
Si Si2 0.839736 0.104914 0.341007
Si Si3 0.169957 0.500791 0.751161
Si Si4 0.000000 0.500000 0.392493
Si Si5 0.285701 0.927084 0.963130
Si Si6 0.672163 0.495883 0.195821
Si Si7 0.163767 0.463397 0.924688
Si Si8 0.667275 0.995435 0.065169
O O1 0.776782 0.551915 0.154070
O O2 0.749706 0.724906 0.073727
O O3 0.000000 0.500000 0.098352
O O4 0.761622 0.222668 0.087568
O O5 0.753296 0.090125 0.295201
O O6 0.756084 0.955404 0.380445
O O7 0.870967 0.391441 0.360462
O O8 0.000000 0.000000 0.331767
O O9 0.210029 0.289779 0.713628
O O10 0.000000 0.500000 0.763907
O O11 0.211772 0.786591 0.733196
O O12 0.085334 0.321952 0.429296
O O13 0.178583 0.678263 0.964138
O O14 0.204036 0.181949 0.944129
O O15 0.346814 0.972921 0.012226
O O16 0.500000 0.500000 0.181971
O O17 0.000000 0.500000 0.907136
O O18 0.500000 0.000000 0.084942
#
# Coordination Sequence:
#
# PCOD8172026 Si02
#       8
#     4   4   4   2   4   4   4   4
#     4  12  27  45  70 103 142 173 221 291 359 408
#     4  11  23  39  63  89 131 171 222 268 324 392
#     4  10  23  40  66  97 127 168 219 277 323 399
#     4  10  22  42  60  94 132 174 216 280 320 378
#     4  11  23  41  66  91 128 170 224 271 326 381
#     4  10  22  44  68  94 130 173 220 267 338 415
#     4  11  24  40  62  90 128 173 214 270 333 388
#     4  12  25  44  72 100 132 182 235 277 332 426
#
# _framework density 21.48
#
# number of rings (size 3 to 8) (size 9 to 14) (size 15 to 20)
#    0.000    1.067    2.000    4.000    1.867    5.333 
#    0.000    2.667    0.000    0.000    0.000    0.000 
#    0.000    0.000    0.000    0.000    0.000    0.000 
#
# Total GULP energy -371711.203053 kJ/mol
# GULP energy per Si atom -12390.373435 kJ/mol
# Density = 2.143111 g / cm^3
# Si number density = 21.480000 Si / 1000 Ang^3
#
#
#
# Elastic Constant Matrix: (Units=GPa)
#
#
# Indices 1 2 3 4 5 6 
#
# 1 109.3122 40.5474 65.6724 0.0000 0.0000 0.0000
# 2 40.5474 104.9864 18.0092 0.0000 0.0000 0.0000
# 3 65.6724 18.0092 92.4288 0.0000 0.0000 0.0000
# 4 0.0000 0.0000 0.0000 27.6258 0.0000 0.0000
# 5 0.0000 0.0000 0.0000 0.0000 31.5668 0.0000
# 6 0.0000 0.0000 0.0000 0.0000 0.0000 28.1044
#
#
#
# Elastic Compliance Matrix: (Units=1/GPa)
#
#
# Indices 1 2 3 4 5 6 
#
# 1 0.018162 -0.004967 -0.011936 0.000000 0.000000 0.000000
# 2 -0.004967 0.011213 0.001344 0.000000 0.000000 0.000000
# 3 -0.011936 0.001344 0.019038 0.000000 0.000000 0.000000
# 4 0.000000 0.000000 0.000000 0.036198 0.000000 0.000000
# 5 0.000000 0.000000 0.000000 0.000000 0.031679 0.000000
# 6 0.000000 0.000000 0.000000 0.000000 0.000000 0.035582
#
#
# Mechanical properties :
#
#
# Convention : Reuss Voigt Hill
#
# Bulk Modulus (GPa) = 57.82112 61.68726 59.75419
# Shear Modulus (GPa) = 26.48957 29.62597 28.05777
#
# Velocity S-wave (km/s) = 3.51553 3.71783 3.61810
# Velocity P-wave (km/s) = 6.59209 6.87099 6.73299
#
# Compressibility (1/GPa) = 0.01729472
#
# Stress axis : x y z
#
# Youngs Moduli (GPa) = 55.06143 89.18467 52.52588
#
# Poissons Ratio (x) = 0.44296 0.62697
# Poissons Ratio (y) = 0.27348 -0.07061
# Poissons Ratio (z) = 0.65723 -0.11988
#
# Static dielectric constant tensor:
#      x y z
#    x 4.002190 0.000000 0.000000 
#    y 0.000000 4.053720 0.000000 
#    z 0.000000 0.000000 3.828170 
# 
# 
# High freq. dielectric constant tensor:
#      x y z
#    x 1.848370 0.000000 0.000000 
#    y 0.000000 1.851260 0.000000 
#    z 0.000000 0.000000 1.845930 
# 
# From -- ./inp_files/8686.got.cif
#   From: 2010.03.12/outbox.cif.g09.slc.cpg/sg34_5_cif.got.tgz:8686.got - 2010.04.14 01:56:33.
