data_PCOD8172037
_publ_section_title
;
Structure prediction by ZEFSAII (Michael W. Deem and Ramdas Pophale) SiO2 
 PCOD8172037
Probable space group: P N N 2
;
_chemical_formula_sum "Si O2"
_cell_formula_units_Z 24
_cell_length_a 10.431659
_cell_length_b 9.461568
_cell_length_c 11.289968
_cell_angle_alpha 90.000000
_cell_angle_beta 90.000000
_cell_angle_gamma 90.000000
_cell_volume 1114.318159
_symmetry_space_group_name_H-M "P N N 2"
_symmetry_group_IT_number 34
_symmetry_cell_setting 'orthorhombic'
loop_
_space_group_symop_operation_xyz
x,y,z
-x,-y,z
1/2-x,1/2+y,1/2+z
1/2+x,1/2-y,1/2+z
loop_
_atom_site_type_symbol
_atom_site_label
_atom_site_fract_x
_atom_site_fract_y
_atom_site_fract_z
Si Si1 0.794444 0.114632 0.701530
Si Si2 0.976443 0.659040 0.295421
Si Si3 0.714607 0.804281 0.637736
Si Si4 0.918408 0.137257 0.468318
Si Si5 0.092901 0.696118 0.879096
Si Si6 0.672908 0.098680 0.309320
O O1 0.655545 0.179856 0.726401
O O2 0.857258 0.194097 0.589889
O O3 0.881186 0.153262 0.815782
O O4 0.787884 0.947745 0.674836
O O5 0.000000 0.500000 0.335744
O O6 0.082068 0.712474 0.205029
O O7 0.981441 0.749376 0.415915
O O8 0.674615 0.805059 0.500369
O O9 0.808088 0.675680 0.680604
O O10 0.805214 0.110479 0.377510
O O11 0.000000 0.000000 0.496951
O O12 0.142229 0.567410 0.794728
O O13 0.939112 0.673461 0.889621
#
# Coordination Sequence:
#
# PCOD8172037 Si02
#       6
#     4   4   4   4   4   4
#     4  11  23  39  67  95 128 169 216 262 331 387
#     4   9  21  41  65  93 123 171 217 262 330 389
#     4  10  22  43  67  89 132 169 215 274 322 384
#     4  11  22  40  69  90 127 169 217 268 324 385
#     4  11  23  41  66  93 133 170 214 269 331 386
#     4  10  23  42  65  97 125 171 218 263 331 392
#
# _framework density 21.537832999999999
#
# number of rings (size 3 to 8) (size 9 to 14) (size 15 to 20)
#    0.000    1.667    1.667    2.000    7.000    0.000 
#   12.000    0.000   11.000    0.000    0.000    0.000 
#    0.000    0.000    0.000    0.000    0.000    0.000 
#
# Total GULP energy -297434.371821 kJ/mol
# GULP energy per Si atom -12393.098826 kJ/mol
# Density = 2.148881 g / cm^3
# Si number density = 21.537833 Si / 1000 Ang^3
#
#
#
# Elastic Constant Matrix: (Units=GPa)
#
#
# Indices 1 2 3 4 5 6 
#
# 1 103.3149 42.2020 44.0553 0.0000 0.0000 0.0000
# 2 42.2020 76.2278 65.0885 0.0000 0.0000 0.0000
# 3 44.0553 65.0885 117.6819 0.0000 0.0000 0.0000
# 4 0.0000 0.0000 0.0000 25.6396 0.0000 0.0000
# 5 0.0000 0.0000 0.0000 0.0000 42.1395 0.0000
# 6 0.0000 0.0000 0.0000 0.0000 0.0000 32.4540
#
#
#
# Elastic Compliance Matrix: (Units=1/GPa)
#
#
# Indices 1 2 3 4 5 6 
#
# 1 0.012672 -0.005618 -0.001636 0.000000 0.000000 0.000000
# 2 -0.005618 0.027349 -0.013023 0.000000 0.000000 0.000000
# 3 -0.001636 -0.013023 0.016313 0.000000 0.000000 0.000000
# 4 0.000000 0.000000 0.000000 0.039002 0.000000 0.000000
# 5 0.000000 0.000000 0.000000 0.000000 0.023731 0.000000
# 6 0.000000 0.000000 0.000000 0.000000 0.000000 0.030813
#
#
# Mechanical properties :
#
#
# Convention : Reuss Voigt Hill
#
# Bulk Modulus (GPa) = 63.37832 66.65736 65.01784
# Shear Modulus (GPa) = 25.54995 29.77188 27.66091
#
# Velocity S-wave (km/s) = 3.44798 3.72197 3.58759
# Velocity P-wave (km/s) = 6.73363 7.03469 6.88581
#
# Compressibility (1/GPa) = 0.01577827
#
# Stress axis : x y z
#
# Youngs Moduli (GPa) = 78.91488 36.56427 61.30037
#
# Poissons Ratio (x) = 0.20543 0.10032
# Poissons Ratio (y) = 0.44336 0.79833
# Poissons Ratio (z) = 0.12914 0.47619
#
# Static dielectric constant tensor:
#      x y z
#    x 4.517830 0.000000 0.000000 
#    y 0.000000 3.957250 0.000000 
#    z 0.000000 0.000000 3.959320 
# 
# 
# High freq. dielectric constant tensor:
#      x y z
#    x 1.868890 0.000000 0.000000 
#    y 0.000000 1.830440 0.000000 
#    z 0.000000 0.000000 1.834140 
# 
# From -- ./inp_files/4950.got.cif
#   From: 2010.03.12/outbox.cif.g09.slc.cpg/sg34_3_cif.got.tgz:4950.got - 2010.04.14 01:56:33.
