data_PCOD8172713
_publ_section_title
;
Structure prediction by ZEFSAII (Michael W. Deem and Ramdas Pophale) SiO2 
 PCOD8172713
Probable space group: C M M 2
;
_chemical_formula_sum "Si O2"
_cell_formula_units_Z 48
_cell_length_a 8.749043
_cell_length_b 33.170620
_cell_length_c 9.174334
_cell_angle_alpha 90.000000
_cell_angle_beta 90.000000
_cell_angle_gamma 90.000000
_cell_volume 2662.494302
_symmetry_space_group_name_H-M "C M M 2"
_symmetry_group_IT_number 35
_symmetry_cell_setting 'orthorhombic'
loop_
_space_group_symop_operation_xyz
x,y,z
-x,-y,z
-x,y,z
x,-y,z
1/2+x,1/2+y,z
1/2-x,1/2-y,z
1/2-x,1/2+y,z
1/2+x,1/2-y,z
loop_
_atom_site_type_symbol
_atom_site_label
_atom_site_fract_x
_atom_site_fract_y
_atom_site_fract_z
Si Si1 0.181391 0.707868 0.151440
Si Si2 0.332048 0.584428 0.068328
Si Si3 0.681143 0.635559 0.327596
Si Si4 0.820575 0.455775 0.816959
Si Si5 0.318476 0.121268 0.640298
Si Si6 0.328840 0.333682 0.890519
O O1 0.250000 0.750000 0.206323
O O2 0.232429 0.674710 0.268615
O O3 0.000000 0.709667 0.146444
O O4 0.243850 0.699501 0.988502
O O5 0.500000 0.564556 0.074322
O O6 0.221715 0.553526 0.985343
O O7 0.338952 0.626001 0.982464
O O8 0.274374 0.596050 0.230618
O O9 0.500000 0.643394 0.319299
O O10 0.733482 0.626188 0.489203
O O11 0.754838 0.500000 0.773470
O O12 0.758870 0.421293 0.708090
O O13 0.000000 0.456321 0.807733
O O14 0.500000 0.122048 0.619860
O O15 0.268163 0.158182 0.744082
O O16 0.500000 0.318617 0.850450
#
# Coordination Sequence:
#
# PCOD8172713 Si02
#       6
#     8   8   8   8   8   8
#     4  11  21  35  55  79 105 134 170 211 256 303
#     4   8  16  30  49  71  95 126 165 205 246 297
#     4  10  20  35  53  75 104 137 172 211 258 309
#     4   9  18  32  50  73 101 132 169 214 260 305
#     4  10  19  32  52  77 104 137 175 212 255 308
#     4   9  17  32  52  74 100 131 167 206 248 296
#
# _framework density 18.028206000000001
#
# number of rings (size 3 to 8) (size 9 to 14) (size 15 to 20)
#    0.000    2.500    0.000    4.000    0.000    5.667 
#    0.000    1.667    0.000    3.000    0.000    0.000 
#    0.000    0.000    0.000    0.000    0.000    0.000 
#
# Total GULP energy -297489.541190 kJ/mol
# GULP energy per Si atom -12395.397550 kJ/mol
# Density = 1.798717 g / cm^3
# Si number density = 18.028206 Si / 1000 Ang^3
#
#
#
# Elastic Constant Matrix: (Units=GPa)
#
#
# Indices 1 2 3 4 5 6 
#
# 1 81.5684 32.1956 23.8377 0.0000 0.0000 0.0000
# 2 32.1956 85.9358 37.7429 0.0000 0.0000 0.0000
# 3 23.8377 37.7429 112.7867 0.0000 0.0000 0.0000
# 4 0.0000 0.0000 0.0000 17.0858 0.0000 0.0000
# 5 0.0000 0.0000 0.0000 0.0000 33.1303 0.0000
# 6 0.0000 0.0000 0.0000 0.0000 0.0000 21.0607
#
#
#
# Elastic Compliance Matrix: (Units=1/GPa)
#
#
# Indices 1 2 3 4 5 6 
#
# 1 0.014592 -0.004821 -0.001471 0.000000 0.000000 0.000000
# 2 -0.004821 0.015234 -0.004079 0.000000 0.000000 0.000000
# 3 -0.001471 -0.004079 0.010542 0.000000 0.000000 0.000000
# 4 0.000000 0.000000 0.000000 0.058528 0.000000 0.000000
# 5 0.000000 0.000000 0.000000 0.000000 0.030184 0.000000
# 6 0.000000 0.000000 0.000000 0.000000 0.000000 0.047482
#
#
# Mechanical properties :
#
#
# Convention : Reuss Voigt Hill
#
# Bulk Modulus (GPa) = 50.95013 51.98259 51.46636
# Shear Modulus (GPa) = 24.52821 26.68966 25.60894
#
# Velocity S-wave (km/s) = 3.69256 3.85182 3.77303
# Velocity P-wave (km/s) = 6.81929 6.97701 6.89860
#
# Compressibility (1/GPa) = 0.01962704
#
# Stress axis : x y z
#
# Youngs Moduli (GPa) = 68.52895 65.64143 94.85714
#
# Poissons Ratio (x) = 0.31646 0.13952
# Poissons Ratio (y) = 0.33038 0.38693
# Poissons Ratio (z) = 0.10079 0.26776
#
# Static dielectric constant tensor:
#      x y z
#    x 3.420260 0.000000 0.000000 
#    y 0.000000 3.477160 0.000000 
#    z 0.000000 0.000000 3.448680 
# 
# 
# High freq. dielectric constant tensor:
#      x y z
#    x 1.706100 0.000000 0.000000 
#    y 0.000000 1.678490 0.000000 
#    z 0.000000 0.000000 1.690410 
# 
# From -- ./inp_files/5267.got.cif
#   From: 2010.03.12/outbox.cif.g09.slc.cpg/sg35_3_cif.got.tgz:5267.got - 2010.04.14 02:02:04.
