data_PCOD8172231
_publ_section_title
;
Structure prediction by ZEFSAII (Michael W. Deem and Ramdas Pophale) SiO2 
 PCOD8172231
Probable space group: C M M 2
;
_chemical_formula_sum "Si O2"
_cell_formula_units_Z 36
_cell_length_a 13.906995
_cell_length_b 14.693233
_cell_length_c 7.883926
_cell_angle_alpha 90.000000
_cell_angle_beta 90.000000
_cell_angle_gamma 90.000000
_cell_volume 1610.991331
_symmetry_space_group_name_H-M "C M M 2"
_symmetry_group_IT_number 35
_symmetry_cell_setting 'orthorhombic'
loop_
_space_group_symop_operation_xyz
x,y,z
-x,-y,z
-x,y,z
x,-y,z
1/2+x,1/2+y,z
1/2-x,1/2-y,z
1/2-x,1/2+y,z
1/2+x,1/2-y,z
loop_
_atom_site_type_symbol
_atom_site_label
_atom_site_fract_x
_atom_site_fract_y
_atom_site_fract_z
Si Si1 0.386456 0.191739 0.514460
Si Si2 0.112599 0.500000 0.364049
Si Si3 0.610513 0.697904 0.202947
Si Si4 0.309510 0.000000 0.993844
Si Si5 0.391680 0.500000 0.095439
Si Si6 0.886094 0.308465 0.886029
O O1 0.500000 0.203596 0.516055
O O2 0.340952 0.258235 0.370581
O O3 0.346113 0.220082 0.700038
O O4 0.359250 0.087676 0.474177
O O5 0.176181 0.500000 0.195627
O O6 0.000000 0.500000 0.312587
O O7 0.500000 0.727675 0.201007
O O8 0.622185 0.589359 0.211290
O O9 0.657122 0.741012 0.030791
O O10 0.193620 0.000000 0.956195
O O11 0.357664 0.087829 0.915164
O O12 0.500000 0.500000 0.012713
O O13 0.000000 0.302284 0.886381
#
# Coordination Sequence:
#
# PCOD8172231 Si02
#       6
#     8   4   8   4   4   8
#     4   9  17  31  57  90 125 156 180 226 298 373
#     4  10  17  30  53  91 129 149 176 225 302 387
#     4   9  18  37  61  82 114 157 203 247 290 341
#     4  12  21  33  61  87 124 158 190 240 307 358
#     4  10  24  43  62  80 109 167 226 259 283 327
#     4  10  19  33  60  96 126 151 182 233 309 380
#
# _framework density 22.346489999999999
#
# number of rings (size 3 to 8) (size 9 to 14) (size 15 to 20)
#    0.000    2.222    2.222    1.667    0.000    2.667 
#    0.000    1.111   14.667    6.667    0.000    0.000 
#    0.000    0.000    0.000    0.000    0.000    0.000 
#
# Total GULP energy -223085.846141 kJ/mol
# GULP energy per Si atom -12393.658119 kJ/mol
# Density = 2.229563 g / cm^3
# Si number density = 22.346490 Si / 1000 Ang^3
#
#
#
# Elastic Constant Matrix: (Units=GPa)
#
#
# Indices 1 2 3 4 5 6 
#
# 1 34.9610 0.7456 6.3849 0.0000 0.0000 0.0000
# 2 0.7456 168.8635 88.4444 0.0000 0.0000 0.0000
# 3 6.3849 88.4444 218.9429 0.0000 0.0000 0.0000
# 4 0.0000 0.0000 0.0000 -36.0481 0.0000 0.0000
# 5 0.0000 0.0000 0.0000 0.0000 -2.6567 0.0000
# 6 0.0000 0.0000 0.0000 0.0000 0.0000 9.9687
#
#
#
# Elastic Compliance Matrix: (Units=1/GPa)
#
#
# Indices 1 2 3 4 5 6 
#
# 1 0.028777 0.000396 -0.000999 0.000000 0.000000 0.000000
# 2 0.000396 0.007517 -0.003048 0.000000 0.000000 0.000000
# 3 -0.000999 -0.003048 0.005828 0.000000 0.000000 0.000000
# 4 0.000000 0.000000 0.000000 -0.027741 0.000000 0.000000
# 5 0.000000 0.000000 0.000000 0.000000 -0.376402 0.000000
# 6 0.000000 0.000000 0.000000 0.000000 0.000000 0.100314
#
#
# Mechanical properties :
#
#
# Convention : Reuss Voigt Hill
#
# Bulk Modulus (GPa) = 28.71925 68.21301 48.46613
# Shear Modulus (GPa) = -20.59318 16.06562 -2.26378
#
# Velocity S-wave (km/s) = -3.03898 2.68420 -1.00759
# Velocity P-wave (km/s) = 0.75221 6.34019 4.51463
#
# Compressibility (1/GPa) = 0.03481985
#
# Stress axis : x y z
#
# Youngs Moduli (GPa) = 34.74957 133.03870 171.59114
#
# Poissons Ratio (x) = -0.05273 0.17147
# Poissons Ratio (y) = -0.01377 0.52301
# Poissons Ratio (z) = 0.03473 0.40550
#
# Static dielectric constant tensor:
#      x y z
#    x 3.847920 0.000000 0.000000 
#    y 0.000000 3.958960 0.000000 
#    z 0.000000 0.000000 4.512810 
# 
# 
# High freq. dielectric constant tensor:
#      x y z
#    x 1.873470 0.000000 0.000000 
#    y 0.000000 1.880420 0.000000 
#    z 0.000000 0.000000 1.867510 
# 
# From -- ./inp_files/6947.got.cif
#   From: 2010.03.12/outbox.cif.g09.slc.cpg/sg35_4_cif.got.tgz:6947.got - 2010.04.14 02:02:04.
