data_PCOD8172545
_publ_section_title
;
Structure prediction by ZEFSAII (Michael W. Deem and Ramdas Pophale) SiO2 
 PCOD8172545
Probable space group: C M M 2
;
_chemical_formula_sum "Si O2"
_cell_formula_units_Z 48
_cell_length_a 8.626871
_cell_length_b 16.083587
_cell_length_c 17.007584
_cell_angle_alpha 90.000000
_cell_angle_beta 90.000000
_cell_angle_gamma 90.000000
_cell_volume 2359.819802
_symmetry_space_group_name_H-M "C M M 2"
_symmetry_group_IT_number 35
_symmetry_cell_setting 'orthorhombic'
loop_
_space_group_symop_operation_xyz
x,y,z
-x,-y,z
-x,y,z
x,-y,z
1/2+x,1/2+y,z
1/2-x,1/2-y,z
1/2-x,1/2+y,z
1/2+x,1/2-y,z
loop_
_atom_site_type_symbol
_atom_site_label
_atom_site_fract_x
_atom_site_fract_y
_atom_site_fract_z
Si Si1 0.817213 0.336669 0.764920
Si Si2 0.315740 0.908001 0.604687
Si Si3 0.817675 0.000000 0.032283
Si Si4 0.816356 0.591437 0.277642
Si Si5 0.815425 0.340240 0.440886
Si Si6 0.183570 0.337823 0.116146
Si Si7 0.316011 0.000000 0.861351
O O1 0.750000 0.250000 0.798817
O O2 0.757072 0.348251 0.674883
O O3 0.764298 0.416722 0.815038
O O4 0.000000 0.330096 0.767717
O O5 0.500000 0.906113 0.601609
O O6 0.248768 0.883262 0.519478
O O7 0.256280 0.000000 0.624697
O O8 0.747445 0.915973 0.068306
O O9 0.779112 0.000000 0.940973
O O10 0.000000 0.000000 0.046522
O O11 0.753096 0.500000 0.256426
O O12 0.747767 0.616633 0.362405
O O13 0.764579 0.652876 0.207606
O O14 0.000000 0.590328 0.283547
O O15 0.750000 0.250000 0.440747
O O16 0.000000 0.340951 0.440617
O O17 0.250000 0.250000 0.084460
O O18 0.000000 0.337346 0.106107
O O19 0.500000 0.000000 0.876887
#
# Coordination Sequence:
#
# PCOD8172545 Si02
#       7
#     8   8   4   8   8   8   4
#     4  10  20  36  60  87 117 153 195 239 289 348
#     4   9  16  30  53  80 109 149 198 239 278 337
#     4  12  26  44  66  93 122 154 198 249 306 370
#     4   9  17  32  55  82 112 153 200 243 289 343
#     4  10  19  30  49  77 112 150 194 242 285 335
#     4  11  22  40  65  92 125 162 202 249 301 360
#     4  10  22  42  64  85 116 156 192 237 298 362
#
# _framework density 20.340534999999999
#
# number of rings (size 3 to 8) (size 9 to 14) (size 15 to 20)
#    0.000    2.000    1.667    2.750    0.000    3.333 
#    0.000    2.500    0.000    2.500    0.000    0.000 
#    0.000    0.000    0.000    0.000    0.000    0.000 
#
# Total GULP energy -297483.983275 kJ/mol
# GULP energy per Si atom -12395.165970 kJ/mol
# Density = 2.029424 g / cm^3
# Si number density = 20.340535 Si / 1000 Ang^3
#
#
#
# Elastic Constant Matrix: (Units=GPa)
#
#
# Indices 1 2 3 4 5 6 
#
# 1 44.5960 33.5577 35.3902 0.0000 0.0000 0.0000
# 2 33.5577 180.2272 67.1614 0.0000 0.0000 0.0000
# 3 35.3902 67.1614 135.0505 0.0000 0.0000 0.0000
# 4 0.0000 0.0000 0.0000 -1.3206 0.0000 0.0000
# 5 0.0000 0.0000 0.0000 0.0000 15.9714 0.0000
# 6 0.0000 0.0000 0.0000 0.0000 0.0000 32.8452
#
#
#
# Elastic Compliance Matrix: (Units=1/GPa)
#
#
# Indices 1 2 3 4 5 6 
#
# 1 0.029773 -0.003236 -0.006193 0.000000 0.000000 0.000000
# 2 -0.003236 0.007162 -0.002714 0.000000 0.000000 0.000000
# 3 -0.006193 -0.002714 0.010377 0.000000 0.000000 0.000000
# 4 0.000000 0.000000 0.000000 -0.757215 0.000000 0.000000
# 5 0.000000 0.000000 0.000000 0.000000 0.062612 0.000000
# 6 0.000000 0.000000 0.000000 0.000000 0.000000 0.030446
#
#
# Mechanical properties :
#
#
# Convention : Reuss Voigt Hill
#
# Bulk Modulus (GPa) = 43.42691 70.23246 56.82968
# Shear Modulus (GPa) = -8.54870 24.41682 7.93406
#
# Velocity S-wave (km/s) = -2.05230 3.46844 1.97714
# Velocity P-wave (km/s) = 3.97245 7.11642 5.76298
#
# Compressibility (1/GPa) = 0.02302720
#
# Stress axis : x y z
#
# Youngs Moduli (GPa) = 33.58754 139.61793 96.36566
#
# Poissons Ratio (x) = 0.45178 0.59678
# Poissons Ratio (y) = 0.10868 0.26153
# Poissons Ratio (z) = 0.20800 0.37891
#
# Static dielectric constant tensor:
#      x y z
#    x 3.243090 0.000000 0.000000 
#    y 0.000000 3.942060 0.000000 
#    z 0.000000 0.000000 4.411840 
# 
# 
# High freq. dielectric constant tensor:
#      x y z
#    x 1.751330 0.000000 0.000000 
#    y 0.000000 1.810130 0.000000 
#    z 0.000000 0.000000 1.804740 
# 
# From -- ./inp_files/17850.got.cif
#   From: 2010.03.12/outbox.cif.g09.slc.cpg/sg35_9_cif.got.tgz:17850.got - 2010.04.14 02:02:04.
