data_PCOD8172018
_publ_section_title
;
Structure prediction by ZEFSAII (Michael W. Deem and Ramdas Pophale) SiO2 
 PCOD8172018
Probable space group: P N N 2
;
_chemical_formula_sum "Si O2"
_cell_formula_units_Z 26
_cell_length_a 8.079142
_cell_length_b 14.961645
_cell_length_c 10.034346
_cell_angle_alpha 90.000000
_cell_angle_beta 90.000000
_cell_angle_gamma 90.000000
_cell_volume 1212.924195
_symmetry_space_group_name_H-M "P N N 2"
_symmetry_group_IT_number 34
_symmetry_cell_setting 'orthorhombic'
loop_
_space_group_symop_operation_xyz
x,y,z
-x,-y,z
1/2-x,1/2+y,1/2+z
1/2+x,1/2-y,1/2+z
loop_
_atom_site_type_symbol
_atom_site_label
_atom_site_fract_x
_atom_site_fract_y
_atom_site_fract_z
Si Si1 0.682069 0.534320 0.917500
Si Si2 0.708457 0.208900 0.312118
Si Si3 0.867574 0.326698 0.517734
Si Si4 0.500000 0.000000 0.884745
Si Si5 0.660403 0.862714 0.310588
Si Si6 0.838256 0.796447 0.554923
Si Si7 0.317904 0.513468 0.197638
O O1 0.500000 0.500000 0.893901
O O2 0.670282 0.629241 0.847060
O O3 0.815895 0.466099 0.853445
O O4 0.716429 0.553690 0.074399
O O5 0.733183 0.297863 0.405290
O O6 0.526823 0.168159 0.328756
O O7 0.753877 0.231615 0.159499
O O8 0.983656 0.410502 0.473390
O O9 0.779141 0.351442 0.657464
O O10 0.975505 0.238115 0.540917
O O11 0.669384 0.002882 0.799972
O O12 0.761044 0.796555 0.407937
O O13 0.826369 0.892416 0.622528
O O14 0.500000 0.500000 0.266034
#
# Coordination Sequence:
#
# PCOD8172018 Si02
#       7
#     4   4   4   2   4   4   4
#     4  10  22  40  65  98 132 176 226 279 343 418
#     4  11  22  39  67  94 130 168 231 280 330 416
#     4  11  25  43  65  97 142 173 228 295 341 410
#     4  12  26  42  70 100 142 190 228 288 366 414
#     4  10  24  41  68  94 134 177 223 281 351 406
#     4  10  23  44  64  98 128 179 227 282 342 416
#     4  10  22  44  69  99 137 178 235 281 346 424
#
# _framework density 21.435798999999999
#
# number of rings (size 3 to 8) (size 9 to 14) (size 15 to 20)
#    0.000    1.538    1.538    3.231    8.615    6.154 
#    0.000    0.769    0.000    0.000    0.000    0.000 
#    0.000    0.000    0.000    0.000    0.000    0.000 
#
# Total GULP energy -322149.783822 kJ/mol
# GULP energy per Si atom -12390.376301 kJ/mol
# Density = 2.138701 g / cm^3
# Si number density = 21.435799 Si / 1000 Ang^3
#
#
#
# Elastic Constant Matrix: (Units=GPa)
#
#
# Indices 1 2 3 4 5 6 
#
# 1 83.8569 27.4273 54.3831 0.0000 0.0000 0.0000
# 2 27.4273 90.2924 45.3582 0.0000 0.0000 0.0000
# 3 54.3831 45.3582 156.1281 0.0000 0.0000 0.0000
# 4 0.0000 0.0000 0.0000 37.8498 0.0000 0.0000
# 5 0.0000 0.0000 0.0000 0.0000 27.5737 0.0000
# 6 0.0000 0.0000 0.0000 0.0000 0.0000 38.0775
#
#
#
# Elastic Compliance Matrix: (Units=1/GPa)
#
#
# Indices 1 2 3 4 5 6 
#
# 1 0.015833 -0.002387 -0.004821 0.000000 0.000000 0.000000
# 2 -0.002387 0.013328 -0.003040 0.000000 0.000000 0.000000
# 3 -0.004821 -0.003040 0.008968 0.000000 0.000000 0.000000
# 4 0.000000 0.000000 0.000000 0.026420 0.000000 0.000000
# 5 0.000000 0.000000 0.000000 0.000000 0.036266 0.000000
# 6 0.000000 0.000000 0.000000 0.000000 0.000000 0.026262
#
#
# Mechanical properties :
#
#
# Convention : Reuss Voigt Hill
#
# Bulk Modulus (GPa) = 56.72190 64.95718 60.83954
# Shear Modulus (GPa) = 32.58357 34.24078 33.41217
#
# Velocity S-wave (km/s) = 3.90302 4.00104 3.95233
# Velocity P-wave (km/s) = 6.84325 7.19120 7.01938
#
# Compressibility (1/GPa) = 0.01762987
#
# Stress axis : x y z
#
# Youngs Moduli (GPa) = 63.16058 75.03207 111.51189
#
# Poissons Ratio (x) = 0.17913 0.53763
# Poissons Ratio (y) = 0.15079 0.33904
# Poissons Ratio (z) = 0.30452 0.22812
#
# Static dielectric constant tensor:
#      x y z
#    x 3.726400 0.000000 0.000000 
#    y 0.000000 4.509140 0.000000 
#    z 0.000000 0.000000 4.416320 
# 
# 
# High freq. dielectric constant tensor:
#      x y z
#    x 1.827630 0.000000 0.000000 
#    y 0.000000 1.851390 0.000000 
#    z 0.000000 0.000000 1.848320 
# 
# From -- ./inp_files/2776.got.cif
#   From: 2010.03.12/outbox.cif.g09.slc.cpg/sg34_2_cif.got.tgz:2776.got - 2010.04.14 01:56:33.
