data_PCOD8172603
_publ_section_title
;
Structure prediction by ZEFSAII (Michael W. Deem and Ramdas Pophale) SiO2 
 PCOD8172603
Probable space group: C M M 2
;
_chemical_formula_sum "Si O2"
_cell_formula_units_Z 64
_cell_length_a 28.897051
_cell_length_b 9.595729
_cell_length_c 12.396581
_cell_angle_alpha 90.000000
_cell_angle_beta 90.000000
_cell_angle_gamma 90.000000
_cell_volume 3437.426503
_symmetry_space_group_name_H-M "C M M 2"
_symmetry_group_IT_number 35
_symmetry_cell_setting 'orthorhombic'
loop_
_space_group_symop_operation_xyz
x,y,z
-x,-y,z
-x,y,z
x,-y,z
1/2+x,1/2+y,z
1/2-x,1/2-y,z
1/2-x,1/2+y,z
1/2+x,1/2-y,z
loop_
_atom_site_type_symbol
_atom_site_label
_atom_site_fract_x
_atom_site_fract_y
_atom_site_fract_z
Si Si1 0.552543 0.834645 0.954220
Si Si2 0.395501 0.164758 0.169241
Si Si3 0.291957 0.840772 0.682027
Si Si4 0.823961 0.656889 0.445193
Si Si5 0.906032 0.159676 0.369202
Si Si6 0.291152 0.844622 0.212873
Si Si7 0.051619 0.843075 0.587184
Si Si8 0.892987 0.663301 0.745758
O O1 0.500000 0.775023 0.953188
O O2 0.581325 0.777623 0.851899
O O3 0.551117 0.000000 0.951016
O O4 0.579748 0.785004 0.060305
O O5 0.420315 0.249515 0.265220
O O6 0.341109 0.205180 0.167536
O O7 0.401517 0.000000 0.190430
O O8 0.250000 0.750000 0.729152
O O9 0.297498 0.807859 0.555157
O O10 0.338307 0.804314 0.749503
O O11 0.278288 0.000000 0.700253
O O12 0.845910 0.500000 0.453062
O O13 0.861711 0.775336 0.427906
O O14 0.789592 0.660780 0.343039
O O15 0.946787 0.167248 0.457159
O O16 0.895600 0.000000 0.334907
O O17 0.250000 0.750000 0.165445
O O18 0.281471 0.000000 0.170951
O O19 0.086877 0.736150 0.640321
O O20 0.000000 0.804797 0.624738
O O21 0.064685 0.000000 0.623381
O O22 0.901896 0.500000 0.731928
#
# Coordination Sequence:
#
# PCOD8172603 Si02
#       8
#     8   8   8   8   8   8   8   8
#     4   9  18  35  60  84 102 130 178 230 276 320
#     4   9  19  35  53  75 106 137 172 221 272 315
#     4  10  20  32  50  77 110 145 180 219 265 319
#     4   9  17  31  48  71 105 142 179 217 258 306
#     4  10  19  31  50  76 107 143 177 213 261 319
#     4   9  17  28  45  69 100 137 172 208 250 304
#     4  10  21  35  51  76 111 146 175 211 270 335
#     4  10  20  36  58  82 107 136 180 232 271 315
#
# _framework density 18.618580000000001
#
# number of rings (size 3 to 8) (size 9 to 14) (size 15 to 20)
#    0.000    2.500    1.250    1.875    0.000    4.750 
#    0.000    1.250    0.000    0.750    0.000    0.000 
#    0.000    0.000    0.000    0.000    0.000    0.000 
#
# Total GULP energy -396693.833719 kJ/mol
# GULP energy per Si atom -12396.682304 kJ/mol
# Density = 1.857620 g / cm^3
# Si number density = 18.618580 Si / 1000 Ang^3
#
#
#
# Elastic Constant Matrix: (Units=GPa)
#
#
# Indices 1 2 3 4 5 6 
#
# 1 115.3027 47.1803 57.1941 0.0000 0.0000 0.0000
# 2 47.1803 68.4898 36.2354 0.0000 0.0000 0.0000
# 3 57.1941 36.2354 97.9789 0.0000 0.0000 0.0000
# 4 0.0000 0.0000 0.0000 15.8598 0.0000 0.0000
# 5 0.0000 0.0000 0.0000 0.0000 22.7215 0.0000
# 6 0.0000 0.0000 0.0000 0.0000 0.0000 23.7786
#
#
#
# Elastic Compliance Matrix: (Units=1/GPa)
#
#
# Indices 1 2 3 4 5 6 
#
# 1 0.014364 -0.006787 -0.005875 0.000000 0.000000 0.000000
# 2 -0.006787 0.021359 -0.003938 0.000000 0.000000 0.000000
# 3 -0.005875 -0.003938 0.015092 0.000000 0.000000 0.000000
# 4 0.000000 0.000000 0.000000 0.063053 0.000000 0.000000
# 5 0.000000 0.000000 0.000000 0.000000 0.044011 0.000000
# 6 0.000000 0.000000 0.000000 0.000000 0.000000 0.042055
#
#
# Mechanical properties :
#
#
# Convention : Reuss Voigt Hill
#
# Bulk Modulus (GPa) = 56.76436 62.55455 59.65945
# Shear Modulus (GPa) = 20.92018 21.88276 21.40147
#
# Velocity S-wave (km/s) = 3.35568 3.43201 3.39406
# Velocity P-wave (km/s) = 6.75043 7.02679 6.89000
#
# Compressibility (1/GPa) = 0.01761669
#
# Stress axis : x y z
#
# Youngs Moduli (GPa) = 69.61846 46.81857 66.26069
#
# Poissons Ratio (x) = 0.31774 0.38928
# Poissons Ratio (y) = 0.47248 0.26090
# Poissons Ratio (z) = 0.40900 0.18435
#
# Static dielectric constant tensor:
#      x y z
#    x 3.346630 0.000000 0.000000 
#    y 0.000000 3.290100 0.000000 
#    z 0.000000 0.000000 3.391470 
# 
# 
# High freq. dielectric constant tensor:
#      x y z
#    x 1.716880 0.000000 0.000000 
#    y 0.000000 1.708710 0.000000 
#    z 0.000000 0.000000 1.705570 
# 
# From -- ./inp_files/14587.got.cif
#   From: 2010.03.12/outbox.cif.g09.slc.cpg/sg35_8_cif.got.tgz:14587.got - 2010.04.14 02:02:04.
