data_PCOD8172771
_publ_section_title
;
Structure prediction by ZEFSAII (Michael W. Deem and Ramdas Pophale) SiO2 
 PCOD8172771
Probable space group: C M M 2
;
_chemical_formula_sum "Si O2"
_cell_formula_units_Z 48
_cell_length_a 9.028409
_cell_length_b 15.498243
_cell_length_c 16.955733
_cell_angle_alpha 90.000000
_cell_angle_beta 90.000000
_cell_angle_gamma 90.000000
_cell_volume 2372.522065
_symmetry_space_group_name_H-M "C M M 2"
_symmetry_group_IT_number 35
_symmetry_cell_setting 'orthorhombic'
loop_
_space_group_symop_operation_xyz
x,y,z
-x,-y,z
-x,y,z
x,-y,z
1/2+x,1/2+y,z
1/2-x,1/2-y,z
1/2-x,1/2+y,z
1/2+x,1/2-y,z
loop_
_atom_site_type_symbol
_atom_site_label
_atom_site_fract_x
_atom_site_fract_y
_atom_site_fract_z
Si Si1 0.335841 0.602527 0.106690
Si Si2 0.673247 0.400184 0.931835
Si Si3 0.674942 0.835360 0.781627
Si Si4 0.669861 0.898062 0.259179
Si Si5 0.174624 0.500000 0.681775
Si Si6 0.174533 0.000000 0.513918
Si Si7 0.675278 0.663605 0.412047
O O1 0.500000 0.637660 0.127212
O O2 0.341415 0.500000 0.104349
O O3 0.221150 0.635043 0.172937
O O4 0.286540 0.634119 0.019705
O O5 0.500000 0.386446 0.914137
O O6 0.716966 0.500000 0.922870
O O7 0.770688 0.345831 0.871206
O O8 0.500000 0.824660 0.780795
O O9 0.750000 0.750000 0.744902
O O10 0.727829 0.916075 0.729433
O O11 0.500000 0.871811 0.271878
O O12 0.769795 0.850750 0.323284
O O13 0.694056 0.000000 0.266972
O O14 0.249205 0.500000 0.597571
O O15 0.000000 0.500000 0.670179
O O16 0.226934 0.084166 0.466178
O O17 0.000000 0.000000 0.525912
O O18 0.500000 0.674189 0.411570
O O19 0.750000 0.750000 0.446864
#
# Coordination Sequence:
#
# PCOD8172771 Si02
#       7
#     8   8   8   8   4   4   8
#     4   8  15  28  49  79 115 156 202 249 297 347
#     4   9  17  32  56  85 117 158 203 247 298 352
#     4  11  23  40  61  90 123 159 200 245 297 353
#     4  10  19  32  54  85 119 159 204 247 296 350
#     4  10  24  44  66  91 122 155 192 241 298 355
#     4  10  24  44  68  93 120 155 194 237 296 361
#     4  11  23  41  63  91 123 158 199 244 296 354
#
# _framework density 20.231634
#
# number of rings (size 3 to 8) (size 9 to 14) (size 15 to 20)
#    0.000    2.167    1.667    2.500    0.000    4.667 
#    0.000    5.833    0.000    4.000    0.000    0.000 
#    0.000    0.000    0.000    0.000    0.000    0.000 
#
# Total GULP energy -297636.926033 kJ/mol
# GULP energy per Si atom -12401.538585 kJ/mol
# Density = 2.018559 g / cm^3
# Si number density = 20.231634 Si / 1000 Ang^3
#
#
#
# Elastic Constant Matrix: (Units=GPa)
#
#
# Indices 1 2 3 4 5 6 
#
# 1 80.0286 51.8353 49.6237 0.0000 0.0000 0.0000
# 2 51.8353 123.8431 61.9797 0.0000 0.0000 0.0000
# 3 49.6237 61.9797 138.7112 0.0000 0.0000 0.0000
# 4 0.0000 0.0000 0.0000 7.0317 0.0000 0.0000
# 5 0.0000 0.0000 0.0000 0.0000 39.3478 0.0000
# 6 0.0000 0.0000 0.0000 0.0000 0.0000 30.9110
#
#
#
# Elastic Compliance Matrix: (Units=1/GPa)
#
#
# Indices 1 2 3 4 5 6 
#
# 1 0.018824 -0.005807 -0.004139 0.000000 0.000000 0.000000
# 2 -0.005807 0.012192 -0.003370 0.000000 0.000000 0.000000
# 3 -0.004139 -0.003370 0.010196 0.000000 0.000000 0.000000
# 4 0.000000 0.000000 0.000000 0.142214 0.000000 0.000000
# 5 0.000000 0.000000 0.000000 0.000000 0.025414 0.000000
# 6 0.000000 0.000000 0.000000 0.000000 0.000000 0.032351
#
#
# Mechanical properties :
#
#
# Convention : Reuss Voigt Hill
#
# Bulk Modulus (GPa) = 68.59551 74.38448 71.48999
# Shear Modulus (GPa) = 18.33628 27.40103 22.86865
#
# Velocity S-wave (km/s) = 3.01378 3.68416 3.36570
# Velocity P-wave (km/s) = 6.78890 7.41240 7.10749
#
# Compressibility (1/GPa) = 0.01457821
#
# Stress axis : x y z
#
# Youngs Moduli (GPa) = 53.12493 82.02076 98.07797
#
# Poissons Ratio (x) = 0.47630 0.40598
# Poissons Ratio (y) = 0.30850 0.33054
# Poissons Ratio (z) = 0.21990 0.27643
#
# Static dielectric constant tensor:
#      x y z
#    x 3.592020 0.000000 0.000000 
#    y 0.000000 3.726480 0.000000 
#    z 0.000000 0.000000 3.694270 
# 
# 
# High freq. dielectric constant tensor:
#      x y z
#    x 1.786960 0.000000 0.000000 
#    y 0.000000 1.783930 0.000000 
#    z 0.000000 0.000000 1.788750 
# 
# From -- ./inp_files/17940.got.cif
#   From: 2010.03.12/outbox.cif.g09.slc.cpg/sg35_9_cif.got.tgz:17940.got - 2010.04.14 02:02:04.
