data_PCOD8172177
_publ_section_title
;
Structure prediction by ZEFSAII (Michael W. Deem and Ramdas Pophale) SiO2 
 PCOD8172177
Probable space group: C M M 2
;
_chemical_formula_sum "Si O2"
_cell_formula_units_Z 64
_cell_length_a 8.828995
_cell_length_b 28.727948
_cell_length_c 15.813423
_cell_angle_alpha 90.000000
_cell_angle_beta 90.000000
_cell_angle_gamma 90.000000
_cell_volume 4010.899361
_symmetry_space_group_name_H-M "C M M 2"
_symmetry_group_IT_number 35
_symmetry_cell_setting 'orthorhombic'
loop_
_space_group_symop_operation_xyz
x,y,z
-x,-y,z
-x,y,z
x,-y,z
1/2+x,1/2+y,z
1/2-x,1/2-y,z
1/2-x,1/2+y,z
1/2+x,1/2-y,z
loop_
_atom_site_type_symbol
_atom_site_label
_atom_site_fract_x
_atom_site_fract_y
_atom_site_fract_z
Si Si1 0.819913 0.389252 0.051450
Si Si2 0.180087 0.610748 0.731295
Si Si3 0.320045 0.947778 0.891373
Si Si4 0.834241 0.555213 0.391373
Si Si5 0.678289 0.701798 0.988585
Si Si6 0.181240 0.552250 0.210044
Si Si7 0.818760 0.447750 0.572701
Si Si8 0.678289 0.701798 0.794160
O O1 0.745604 0.338698 0.046657
O O2 0.761346 0.412837 0.137876
O O3 0.000000 0.384151 0.049154
O O4 0.761239 0.420944 0.974129
O O5 0.238761 0.579056 0.808616
O O6 0.238654 0.587163 0.644869
O O7 0.254395 0.661302 0.736088
O O8 0.000000 0.615849 0.733591
O O9 0.500000 0.950046 0.891373
O O10 0.252792 0.000000 0.891373
O O11 0.852480 0.500000 0.391373
O O12 0.752720 0.569066 0.302322
O O13 0.752720 0.569066 0.480423
O O14 0.000000 0.578735 0.391373
O O15 0.500000 0.704517 0.000322
O O16 0.750000 0.750000 0.020122
O O17 0.724509 0.692231 0.891373
O O18 0.238197 0.500000 0.188534
O O19 0.000000 0.551993 0.214235
O O20 0.761803 0.500000 0.594212
O O21 0.000000 0.448007 0.568511
O O22 0.500000 0.704517 0.782424
O O23 0.750000 0.750000 0.762623
#
# Coordination Sequence:
#
# PCOD8172177 Si02
#       8
#     8   8   8   8   8   8   8   8
#     4  10  17  26  42  64  88 114 145 177 211 249
#     4  10  17  26  42  64  88 114 145 177 211 249
#     4   9  16  24  36  57  86 117 146 173 198 233
#     4   7  10  18  32  54  86 117 144 179 216 241
#     4  10  20  33  48  63  82 108 141 179 219 259
#     4   8  13  21  36  60  89 119 149 179 209 244
#     4   8  13  21  36  60  89 119 149 179 209 244
#     4  10  20  33  48  63  82 108 141 179 219 259
#
# _framework density 15.956521
#
# number of rings (size 3 to 8) (size 9 to 14) (size 15 to 20)
#    0.000    3.000    1.250    3.000    0.000    4.000 
#    0.000    0.000    0.000    3.750    0.000    1.750 
#    0.000    3.000    0.000    0.000    0.000    0.000 
#
# Total GULP energy -396546.921464 kJ/mol
# GULP energy per Si atom -12392.091296 kJ/mol
# Density = 1.592020 g / cm^3
# Si number density = 15.956521 Si / 1000 Ang^3
#
#
#
# Elastic Constant Matrix: (Units=GPa)
#
#
# Indices 1 2 3 4 5 6 
#
# 1 23.5576 24.8792 21.3996 0.0000 0.0000 0.0000
# 2 24.8792 128.4734 77.1939 0.0000 0.0000 0.0000
# 3 21.3996 77.1939 150.1247 0.0000 0.0000 0.0000
# 4 0.0000 0.0000 0.0000 14.7819 0.0000 0.0000
# 5 0.0000 0.0000 0.0000 0.0000 6.2393 0.0000
# 6 0.0000 0.0000 0.0000 0.0000 0.0000 19.6259
#
#
#
# Elastic Compliance Matrix: (Units=1/GPa)
#
#
# Indices 1 2 3 4 5 6 
#
# 1 0.054530 -0.008522 -0.003391 0.000000 0.000000 0.000000
# 2 -0.008522 0.012596 -0.005262 0.000000 0.000000 0.000000
# 3 -0.003391 -0.005262 0.009850 0.000000 0.000000 0.000000
# 4 0.000000 0.000000 0.000000 0.067650 0.000000 0.000000
# 5 0.000000 0.000000 0.000000 0.000000 0.160274 0.000000
# 6 0.000000 0.000000 0.000000 0.000000 0.000000 0.050953
#
#
# Mechanical properties :
#
#
# Convention : Reuss Voigt Hill
#
# Bulk Modulus (GPa) = 23.46015 61.01125 42.23570
# Shear Modulus (GPa) = 12.36364 20.04162 16.20263
#
# Velocity S-wave (km/s) = 2.78660 3.54787 3.19003
# Velocity P-wave (km/s) = 5.00879 7.42308 6.33207
#
# Compressibility (1/GPa) = 0.04262548
#
# Stress axis : x y z
#
# Youngs Moduli (GPa) = 18.33859 79.39197 101.52170
#
# Poissons Ratio (x) = 0.67662 0.34423
# Poissons Ratio (y) = 0.15629 0.53419
# Poissons Ratio (z) = 0.06218 0.41775
#
# Static dielectric constant tensor:
#      x y z
#    x 2.551020 0.000000 0.000000 
#    y 0.000000 2.942470 0.000000 
#    z 0.000000 0.000000 3.384390 
# 
# 
# High freq. dielectric constant tensor:
#      x y z
#    x 1.566460 0.000000 0.000000 
#    y 0.000000 1.596550 0.000000 
#    z 0.000000 0.000000 1.610950 
# 
# From -- ./inp_files/16237.got.cif
#   From: 2010.03.12/outbox.cif.g09.slc.cpg/sg35_9_cif.got.tgz:16237.got - 2010.04.14 02:02:04.
