data_PCOD8172233
_publ_section_title
;
Structure prediction by ZEFSAII (Michael W. Deem and Ramdas Pophale) SiO2 
 PCOD8172233
Probable space group: C M M 2
;
_chemical_formula_sum "Si O2"
_cell_formula_units_Z 64
_cell_length_a 16.297701
_cell_length_b 18.103595
_cell_length_c 11.769928
_cell_angle_alpha 90.000000
_cell_angle_beta 90.000000
_cell_angle_gamma 90.000000
_cell_volume 3472.681692
_symmetry_space_group_name_H-M "C M M 2"
_symmetry_group_IT_number 35
_symmetry_cell_setting 'orthorhombic'
loop_
_space_group_symop_operation_xyz
x,y,z
-x,-y,z
-x,y,z
x,-y,z
1/2+x,1/2+y,z
1/2-x,1/2-y,z
1/2-x,1/2+y,z
1/2+x,1/2-y,z
loop_
_atom_site_type_symbol
_atom_site_label
_atom_site_fract_x
_atom_site_fract_y
_atom_site_fract_z
Si Si1 0.337975 0.211623 0.228740
Si Si2 0.265135 0.418255 0.240811
Si Si3 0.679436 0.580660 0.989191
Si Si4 0.091817 0.314225 0.760606
Si Si5 0.347562 0.257554 0.984948
Si Si6 0.905313 0.833623 0.368247
Si Si7 0.827506 0.800000 0.603252
Si Si8 0.261991 0.083015 0.752247
O O1 0.250000 0.250000 0.224190
O O2 0.317044 0.128566 0.271208
O O3 0.398118 0.250215 0.319023
O O4 0.375613 0.218712 0.102362
O O5 0.251510 0.500000 0.289487
O O6 0.350582 0.387920 0.291501
O O7 0.269142 0.416906 0.104825
O O8 0.631901 0.500000 0.983192
O O9 0.624492 0.655272 0.986215
O O10 0.742826 0.584793 0.885635
O O11 0.104289 0.283090 0.886443
O O12 0.108135 0.249495 0.670834
O O13 0.147558 0.384861 0.734886
O O14 0.000000 0.342449 0.746143
O O15 0.250000 0.250000 0.962234
O O16 0.871645 0.835386 0.495426
O O17 0.000000 0.859426 0.364986
O O18 0.750000 0.750000 0.565641
O O19 0.802742 0.867500 0.684194
O O20 0.258856 0.000000 0.703546
#
# Coordination Sequence:
#
# PCOD8172233 Si02
#       8
#     8   8   8   8   8   8   8   8
#     4   9  17  32  53  77 103 136 182 217 246 299
#     4  10  19  33  55  79 105 139 177 215 255 303
#     4  10  17  30  55  80 105 134 174 220 251 292
#     4  11  21  32  52  81 111 137 166 213 267 315
#     4  11  15  32  53  77 105 137 184 215 242 301
#     4  11  22  35  53  78 108 136 167 218 272 316
#     4  10  20  37  57  75  97 134 183 221 252 304
#     4  10  20  35  57  79 102 137 177 216 257 304
#
# _framework density 18.429561
#
# number of rings (size 3 to 8) (size 9 to 14) (size 15 to 20)
#    0.000    1.750    6.250    1.875    0.000    1.500 
#    0.000    0.000    0.000    2.625    0.000    0.000 
#    0.000    0.000    0.000    0.000    0.000    0.000 
#
# Total GULP energy -396614.086331 kJ/mol
# GULP energy per Si atom -12394.190198 kJ/mol
# Density = 1.838761 g / cm^3
# Si number density = 18.429561 Si / 1000 Ang^3
#
#
#
# Elastic Constant Matrix: (Units=GPa)
#
#
# Indices 1 2 3 4 5 6 
#
# 1 63.4816 24.9896 32.3986 0.0000 0.0000 0.0000
# 2 24.9896 128.3054 21.6863 0.0000 0.0000 0.0000
# 3 32.3986 21.6863 91.8616 0.0000 0.0000 0.0000
# 4 0.0000 0.0000 0.0000 3.6573 0.0000 0.0000
# 5 0.0000 0.0000 0.0000 0.0000 15.1867 0.0000
# 6 0.0000 0.0000 0.0000 0.0000 0.0000 14.2210
#
#
#
# Elastic Compliance Matrix: (Units=1/GPa)
#
#
# Indices 1 2 3 4 5 6 
#
# 1 0.020156 -0.002837 -0.006439 0.000000 0.000000 0.000000
# 2 -0.002837 0.008517 -0.001010 0.000000 0.000000 0.000000
# 3 -0.006439 -0.001010 0.013395 0.000000 0.000000 0.000000
# 4 0.000000 0.000000 0.000000 0.273423 0.000000 0.000000
# 5 0.000000 0.000000 0.000000 0.000000 0.065847 0.000000
# 6 0.000000 0.000000 0.000000 0.000000 0.000000 0.070318
#
#
# Mechanical properties :
#
#
# Convention : Reuss Voigt Hill
#
# Bulk Modulus (GPa) = 46.52078 49.08861 47.80470
# Shear Modulus (GPa) = 10.42983 20.25129 15.34056
#
# Velocity S-wave (km/s) = 2.38151 3.31848 2.88824
# Velocity P-wave (km/s) = 5.73231 6.43248 6.09246
#
# Compressibility (1/GPa) = 0.02149577
#
# Stress axis : x y z
#
# Youngs Moduli (GPa) = 49.61389 117.40900 74.65307
#
# Poissons Ratio (x) = 0.33313 0.48068
# Poissons Ratio (y) = 0.14077 0.07540
# Poissons Ratio (z) = 0.31946 0.11858
#
# Static dielectric constant tensor:
#      x y z
#    x 3.024660 0.000000 0.000000 
#    y 0.000000 3.993750 0.000000 
#    z 0.000000 0.000000 3.437610 
# 
# 
# High freq. dielectric constant tensor:
#      x y z
#    x 1.667850 0.000000 0.000000 
#    y 0.000000 1.718850 0.000000 
#    z 0.000000 0.000000 1.722210 
# 
# From -- ./inp_files/13692.got.cif
#   From: 2010.03.12/outbox.cif.g09.slc.cpg/sg35_7_cif.got.tgz:13692.got - 2010.04.14 02:02:04.
