data_PCOD8172276
_publ_section_title
;
Structure prediction by ZEFSAII (Michael W. Deem and Ramdas Pophale) SiO2 
 PCOD8172276
Probable space group: C M M 2
;
_chemical_formula_sum "Si O2"
_cell_formula_units_Z 64
_cell_length_a 28.611629
_cell_length_b 8.689793
_cell_length_c 15.724449
_cell_angle_alpha 90.000000
_cell_angle_beta 90.000000
_cell_angle_gamma 90.000000
_cell_volume 3909.556128
_symmetry_space_group_name_H-M "C M M 2"
_symmetry_group_IT_number 35
_symmetry_cell_setting 'orthorhombic'
loop_
_space_group_symop_operation_xyz
x,y,z
-x,-y,z
-x,y,z
x,-y,z
1/2+x,1/2+y,z
1/2-x,1/2-y,z
1/2-x,1/2+y,z
1/2+x,1/2-y,z
loop_
_atom_site_type_symbol
_atom_site_label
_atom_site_fract_x
_atom_site_fract_y
_atom_site_fract_z
Si Si1 0.641182 0.181432 0.997150
Si Si2 0.301402 0.817165 0.160510
Si Si3 0.198178 0.183206 0.332296
Si Si4 0.854486 0.318576 0.669525
Si Si5 0.198352 0.683654 0.504368
Si Si6 0.447919 0.820150 0.749037
Si Si7 0.052185 0.819108 0.930319
Si Si8 0.198860 0.317022 0.835101
O O1 0.588728 0.247345 0.996509
O O2 0.669693 0.244026 0.915900
O O3 0.638030 0.000000 0.994387
O O4 0.666493 0.237427 0.082676
O O5 0.250000 0.750000 0.145386
O O6 0.325479 0.747365 0.246002
O O7 0.297901 0.000000 0.168263
O O8 0.250000 0.250000 0.331949
O O9 0.174480 0.249418 0.418183
O O10 0.197956 0.000000 0.333267
O O11 0.848829 0.500000 0.668849
O O12 0.833806 0.254036 0.581494
O O13 0.909314 0.272210 0.678624
O O14 0.825476 0.252809 0.749552
O O15 0.200859 0.500000 0.499371
O O16 0.250000 0.750000 0.518337
O O17 0.500000 0.778166 0.715318
O O18 0.435637 0.732259 0.835049
O O19 0.443768 0.000000 0.770310
O O20 0.000000 0.762596 0.954910
O O21 0.055910 0.000000 0.935270
O O22 0.201344 0.500000 0.835297
O O23 0.250000 0.250000 0.841698
#
# Coordination Sequence:
#
# PCOD8172276 Si02
#       8
#     8   8   8   8   8   8   8   8
#     4  10  20  33  49  67  92 125 159 192 227 275
#     4  10  19  31  48  71  96 124 157 193 232 275
#     4  10  18  30  47  66  90 120 154 193 233 276
#     4   9  17  29  45  66  92 120 154 192 228 270
#     4  10  18  29  45  65  92 122 153 192 229 271
#     4   9  16  30  51  68  87 119 156 193 235 279
#     4  10  20  32  47  69  94 119 153 198 240 275
#     4  10  19  31  43  61  92 125 159 187 219 266
#
# _framework density 16.370144
#
# number of rings (size 3 to 8) (size 9 to 14) (size 15 to 20)
#    0.000    2.250    1.250    4.500    0.000    2.250 
#    0.000    1.875    0.000    0.000    0.000    0.875 
#    0.000    5.000    0.000    0.000    0.000    0.000 
#
# Total GULP energy -396683.261002 kJ/mol
# GULP energy per Si atom -12396.351906 kJ/mol
# Density = 1.633289 g / cm^3
# Si number density = 16.370144 Si / 1000 Ang^3
#
#
#
# Elastic Constant Matrix: (Units=GPa)
#
#
# Indices 1 2 3 4 5 6 
#
# 1 108.3369 22.8449 70.9275 0.0000 0.0000 0.0000
# 2 22.8449 46.1341 37.9353 0.0000 0.0000 0.0000
# 3 70.9275 37.9353 157.1001 0.0000 0.0000 0.0000
# 4 0.0000 0.0000 0.0000 19.4768 0.0000 0.0000
# 5 0.0000 0.0000 0.0000 0.0000 14.6298 0.0000
# 6 0.0000 0.0000 0.0000 0.0000 0.0000 20.8125
#
#
#
# Elastic Compliance Matrix: (Units=1/GPa)
#
#
# Indices 1 2 3 4 5 6 
#
# 1 0.013257 -0.002050 -0.005490 0.000000 0.000000 0.000000
# 2 -0.002050 0.027363 -0.005682 0.000000 0.000000 0.000000
# 3 -0.005490 -0.005682 0.010216 0.000000 0.000000 0.000000
# 4 0.000000 0.000000 0.000000 0.051343 0.000000 0.000000
# 5 0.000000 0.000000 0.000000 0.000000 0.068354 0.000000
# 6 0.000000 0.000000 0.000000 0.000000 0.000000 0.048048
#
#
# Mechanical properties :
#
#
# Convention : Reuss Voigt Hill
#
# Bulk Modulus (GPa) = 40.99716 63.88740 52.44228
# Shear Modulus (GPa) = 19.75062 22.97472 21.36267
#
# Velocity S-wave (km/s) = 3.47724 3.75033 3.61637
# Velocity P-wave (km/s) = 6.42027 7.60689 7.03863
#
# Compressibility (1/GPa) = 0.02439193
#
# Stress axis : x y z
#
# Youngs Moduli (GPa) = 75.43024 36.54536 97.88424
#
# Poissons Ratio (x) = 0.07493 0.53742
# Poissons Ratio (y) = 0.15465 0.55616
# Poissons Ratio (z) = 0.41414 0.20764
#
# Static dielectric constant tensor:
#      x y z
#    x 3.133280 0.000000 0.000000 
#    y 0.000000 3.002810 0.000000 
#    z 0.000000 0.000000 3.638520 
# 
# 
# High freq. dielectric constant tensor:
#      x y z
#    x 1.609420 0.000000 0.000000 
#    y 0.000000 1.626970 0.000000 
#    z 0.000000 0.000000 1.625310 
# 
# From -- ./inp_files/17752.got.cif
#   From: 2010.03.12/outbox.cif.g09.slc.cpg/sg35_9_cif.got.tgz:17752.got - 2010.04.14 02:02:04.
