data_PCOD8172570
_publ_section_title
;
Structure prediction by ZEFSAII (Michael W. Deem and Ramdas Pophale) SiO2 
 PCOD8172570
Probable space group: C M M 2
;
_chemical_formula_sum "Si O2"
_cell_formula_units_Z 48
_cell_length_a 27.897465
_cell_length_b 9.257176
_cell_length_c 10.344560
_cell_angle_alpha 90.000000
_cell_angle_beta 90.000000
_cell_angle_gamma 90.000000
_cell_volume 2671.500655
_symmetry_space_group_name_H-M "C M M 2"
_symmetry_group_IT_number 35
_symmetry_cell_setting 'orthorhombic'
loop_
_space_group_symop_operation_xyz
x,y,z
-x,-y,z
-x,y,z
x,-y,z
1/2+x,1/2+y,z
1/2-x,1/2-y,z
1/2-x,1/2+y,z
1/2+x,1/2-y,z
loop_
_atom_site_type_symbol
_atom_site_label
_atom_site_fract_x
_atom_site_fract_y
_atom_site_fract_z
Si Si1 0.298042 0.332182 0.189340
Si Si2 0.199492 0.828470 0.679005
Si Si3 0.148817 0.170458 0.936257
Si Si4 0.553465 0.332328 0.061601
Si Si5 0.637071 0.666744 0.434818
Si Si6 0.054468 0.333286 0.327096
O O1 0.285626 0.500000 0.177812
O O2 0.250000 0.250000 0.225168
O O3 0.335812 0.302834 0.301743
O O4 0.319931 0.269790 0.056083
O O5 0.250000 0.750000 0.675298
O O6 0.169698 0.768821 0.802350
O O7 0.169973 0.781917 0.553025
O O8 0.207914 0.000000 0.684280
O O9 0.092848 0.215061 0.954687
O O10 0.152985 0.000000 0.934565
O O11 0.500000 0.304957 0.005169
O O12 0.560719 0.500000 0.099688
O O13 0.562262 0.241444 0.189596
O O14 0.623027 0.500000 0.451243
O O15 0.588332 0.759534 0.434276
O O16 0.068339 0.500000 0.311973
O O17 0.000000 0.313853 0.374941
#
# Coordination Sequence:
#
# PCOD8172570 Si02
#       6
#     8   8   8   8   8   8
#     4  10  19  31  48  71 100 130 168 215 257 300
#     4  10  21  36  54  75 105 141 177 216 258 308
#     4   9  17  32  51  75 105 134 170 214 256 303
#     4   9  16  30  54  78 103 137 172 210 261 312
#     4  10  20  35  53  75 103 137 174 213 257 307
#     4  10  20  33  52  80 109 134 167 214 263 310
#
# _framework density 17.96743
#
# number of rings (size 3 to 8) (size 9 to 14) (size 15 to 20)
#    0.000    2.333    1.667    1.500    0.000    2.333 
#    0.000    1.667    0.000    3.000    0.000    2.333 
#    0.000    0.000    0.000    0.000    0.000    0.000 
#
# Total GULP energy -297585.071185 kJ/mol
# GULP energy per Si atom -12399.377966 kJ/mol
# Density = 1.792654 g / cm^3
# Si number density = 17.967430 Si / 1000 Ang^3
#
#
#
# Elastic Constant Matrix: (Units=GPa)
#
#
# Indices 1 2 3 4 5 6 
#
# 1 147.0471 61.3565 57.4280 0.0000 0.0000 0.0000
# 2 61.3565 56.8435 36.6600 0.0000 0.0000 0.0000
# 3 57.4280 36.6600 106.1114 0.0000 0.0000 0.0000
# 4 0.0000 0.0000 0.0000 10.8065 0.0000 0.0000
# 5 0.0000 0.0000 0.0000 0.0000 30.3070 0.0000
# 6 0.0000 0.0000 0.0000 0.0000 0.0000 31.3481
#
#
#
# Elastic Compliance Matrix: (Units=1/GPa)
#
#
# Indices 1 2 3 4 5 6 
#
# 1 0.012995 -0.012212 -0.002814 0.000000 0.000000 0.000000
# 2 -0.012212 0.034112 -0.005176 0.000000 0.000000 0.000000
# 3 -0.002814 -0.005176 0.012735 0.000000 0.000000 0.000000
# 4 0.000000 0.000000 0.000000 0.092537 0.000000 0.000000
# 5 0.000000 0.000000 0.000000 0.000000 0.032996 0.000000
# 6 0.000000 0.000000 0.000000 0.000000 0.000000 0.031900
#
#
# Mechanical properties :
#
#
# Convention : Reuss Voigt Hill
#
# Bulk Modulus (GPa) = 51.44476 68.98789 60.21632
# Shear Modulus (GPa) = 18.92807 24.79614 21.86211
#
# Velocity S-wave (km/s) = 3.24924 3.71895 3.49200
# Velocity P-wave (km/s) = 6.53996 7.54455 7.06014
#
# Compressibility (1/GPa) = 0.01943832
#
# Stress axis : x y z
#
# Youngs Moduli (GPa) = 76.95239 29.31533 78.52261
#
# Poissons Ratio (x) = 0.35800 0.22096
# Poissons Ratio (y) = 0.93974 0.40643
# Poissons Ratio (z) = 0.21654 0.15173
#
# Static dielectric constant tensor:
#      x y z
#    x 3.552570 0.000000 0.000000 
#    y 0.000000 3.152280 0.000000 
#    z 0.000000 0.000000 3.419070 
# 
# 
# High freq. dielectric constant tensor:
#      x y z
#    x 1.711280 0.000000 0.000000 
#    y 0.000000 1.674280 0.000000 
#    z 0.000000 0.000000 1.680570 
# 
# From -- ./inp_files/5326.got.cif
#   From: 2010.03.12/outbox.cif.g09.slc.cpg/sg35_3_cif.got.tgz:5326.got - 2010.04.14 02:02:04.
