data_PCOD8172108
_publ_section_title
;
Structure prediction by ZEFSAII (Michael W. Deem and Ramdas Pophale) SiO2 
 PCOD8172108
Probable space group: P N N 2
;
_chemical_formula_sum "Si O2"
_cell_formula_units_Z 32
_cell_length_a 13.949018
_cell_length_b 9.495479
_cell_length_c 11.761986
_cell_angle_alpha 90.000000
_cell_angle_beta 90.000000
_cell_angle_gamma 90.000000
_cell_volume 1557.905715
_symmetry_space_group_name_H-M "P N N 2"
_symmetry_group_IT_number 34
_symmetry_cell_setting 'orthorhombic'
loop_
_space_group_symop_operation_xyz
x,y,z
-x,-y,z
1/2-x,1/2+y,1/2+z
1/2+x,1/2-y,1/2+z
loop_
_atom_site_type_symbol
_atom_site_label
_atom_site_fract_x
_atom_site_fract_y
_atom_site_fract_z
Si Si1 0.559509 0.142286 0.886050
Si Si2 0.256249 0.801584 0.290560
Si Si3 0.147431 0.434389 0.993027
Si Si4 0.446797 0.853841 0.146976
Si Si5 0.432217 0.372728 0.269850
Si Si6 0.276080 0.972203 0.742927
Si Si7 0.447903 0.212934 0.486807
Si Si8 0.448769 0.353467 0.726166
O O1 0.665528 0.113087 0.838184
O O2 0.505979 0.270301 0.823696
O O3 0.500000 0.000000 0.869603
O O4 0.572523 0.187343 0.016600
O O5 0.272812 0.851411 0.420690
O O6 0.345540 0.848879 0.212702
O O7 0.235823 0.635001 0.279992
O O8 0.160668 0.886806 0.259045
O O9 0.169429 0.444132 0.125843
O O10 0.131977 0.595994 0.954079
O O11 0.052434 0.347890 0.967157
O O12 0.526642 0.756111 0.200732
O O13 0.500000 0.000000 0.156753
O O14 0.500000 0.500000 0.240283
O O15 0.326780 0.403926 0.226384
O O16 0.431213 0.345518 0.405075
O O17 0.441167 0.256554 0.616464
O O18 0.500000 0.500000 0.698916
#
# Coordination Sequence:
#
# PCOD8172108 Si02
#       8
#     4   4   4   4   4   4   4   4
#     4  11  24  47  70  97 143 195 228 282 362 428
#     4  12  25  46  70 106 142 184 242 294 356 427
#     4  11  23  43  76  98 138 191 237 286 359 427
#     4  11  26  46  70  98 144 188 231 289 354 433
#     4  12  25  43  69 105 139 179 232 295 351 417
#     4  12  25  43  75 104 138 190 241 288 359 426
#     4  11  22  46  72  99 138 186 237 293 354 412
#     4  12  27  44  71 108 144 179 237 301 350 426
#
# _framework density 20.540395
#
# number of rings (size 3 to 8) (size 9 to 14) (size 15 to 20)
#    0.000    0.500    6.250    1.125    3.500    3.500 
#    0.000    0.000    0.000    0.000    0.000    0.000 
#    0.000    0.000    0.000    0.000    0.000    0.000 
#
# Total GULP energy -396815.356524 kJ/mol
# GULP energy per Si atom -12400.479891 kJ/mol
# Density = 2.049364 g / cm^3
# Si number density = 20.540395 Si / 1000 Ang^3
#
#
#
# Elastic Constant Matrix: (Units=GPa)
#
#
# Indices 1 2 3 4 5 6 
#
# 1 109.4227 22.7438 10.6081 0.0000 0.0000 0.0000
# 2 22.7438 66.7591 27.7615 0.0000 0.0000 0.0000
# 3 10.6081 27.7615 97.7985 0.0000 0.0000 0.0000
# 4 0.0000 0.0000 0.0000 27.9412 0.0000 0.0000
# 5 0.0000 0.0000 0.0000 0.0000 33.4321 0.0000
# 6 0.0000 0.0000 0.0000 0.0000 0.0000 -243.5297
#
#
#
# Elastic Compliance Matrix: (Units=1/GPa)
#
#
# Indices 1 2 3 4 5 6 
#
# 1 0.009837 -0.003297 -0.000131 0.000000 0.000000 0.000000
# 2 -0.003297 0.018089 -0.004777 0.000000 0.000000 0.000000
# 3 -0.000131 -0.004777 0.011595 0.000000 0.000000 0.000000
# 4 0.000000 0.000000 0.000000 0.035790 0.000000 0.000000
# 5 0.000000 0.000000 0.000000 0.000000 0.029911 0.000000
# 6 0.000000 0.000000 0.000000 0.000000 0.000000 -0.004106
#
#
# Mechanical properties :
#
#
# Convention : Reuss Voigt Hill
#
# Bulk Modulus (GPa) = 43.26945 44.02302 43.64624
# Shear Modulus (GPa) = 39.92665 -22.24016 8.84324
#
# Velocity S-wave (km/s) = 4.41365 -3.29409 2.07717
# Velocity P-wave (km/s) = 6.86185 2.64781 5.20077
#
# Compressibility (1/GPa) = 0.02311099
#
# Stress axis : x y z
#
# Youngs Moduli (GPa) = 101.65891 55.28233 86.24094
#
# Poissons Ratio (x) = 0.18225 0.01131
# Poissons Ratio (y) = 0.33514 0.41199
# Poissons Ratio (z) = 0.01334 0.26410
#
# Static dielectric constant tensor:
#      x y z
#    x 3.643600 0.000000 0.000000 
#    y 0.000000 3.857690 0.000000 
#    z 0.000000 0.000000 3.888630 
# 
# 
# High freq. dielectric constant tensor:
#      x y z
#    x 1.815760 0.000000 0.000000 
#    y 0.000000 1.807330 0.000000 
#    z 0.000000 0.000000 1.814030 
# 
# From -- ./inp_files/5658.got.cif
#   From: 2010.03.12/outbox.cif.g09.slc.cpg/sg34_3_cif.got.tgz:5658.got - 2010.04.14 01:56:33.
