data_PCOD8172451
_publ_section_title
;
Structure prediction by ZEFSAII (Michael W. Deem and Ramdas Pophale) SiO2 
 PCOD8172451
Probable space group: C M M 2
;
_chemical_formula_sum "Si O2"
_cell_formula_units_Z 64
_cell_length_a 15.714135
_cell_length_b 17.816916
_cell_length_c 10.882427
_cell_angle_alpha 90.000000
_cell_angle_beta 90.000000
_cell_angle_gamma 90.000000
_cell_volume 3046.833871
_symmetry_space_group_name_H-M "C M M 2"
_symmetry_group_IT_number 35
_symmetry_cell_setting 'orthorhombic'
loop_
_space_group_symop_operation_xyz
x,y,z
-x,-y,z
-x,y,z
x,-y,z
1/2+x,1/2+y,z
1/2-x,1/2-y,z
1/2-x,1/2+y,z
1/2+x,1/2-y,z
loop_
_atom_site_type_symbol
_atom_site_label
_atom_site_fract_x
_atom_site_fract_y
_atom_site_fract_z
Si Si1 0.275454 0.413312 0.910110
Si Si2 0.639237 0.135560 0.234620
Si Si3 0.094384 0.203701 0.828300
Si Si4 0.820186 0.915271 0.187843
Si Si5 0.905767 0.582656 0.486449
Si Si6 0.098300 0.787487 0.329723
Si Si7 0.845248 0.264942 0.583787
Si Si8 0.095664 0.353678 0.958743
O O1 0.291329 0.500000 0.876641
O O2 0.333555 0.360778 0.824054
O O3 0.174193 0.397015 0.892855
O O4 0.309097 0.393093 0.045727
O O5 0.729425 0.095254 0.250651
O O6 0.582891 0.098144 0.340716
O O7 0.651552 0.224286 0.257728
O O8 0.597298 0.124383 0.101933
O O9 0.094701 0.247216 0.698734
O O10 0.110690 0.264799 0.936402
O O11 0.000000 0.168156 0.846080
O O12 0.889118 0.865639 0.259440
O O13 0.852310 0.000000 0.201394
O O14 0.865302 0.500000 0.510243
O O15 0.850058 0.647028 0.549667
O O16 0.000000 0.585406 0.543509
O O17 0.128902 0.789388 0.470945
O O18 0.000000 0.764922 0.326217
O O19 0.750000 0.250000 0.625574
O O20 0.000000 0.376327 0.910161
#
# Coordination Sequence:
#
# PCOD8172451 Si02
#       8
#     8   8   8   8   8   8   8   8
#     4  10  22  39  59  85 117 154 196 242 296 357
#     4  10  18  33  55  85 118 148 188 230 278 341
#     4  11  23  41  63  84 111 150 199 250 293 342
#     4  10  21  36  55  81 115 153 191 236 289 344
#     4  10  20  35  58  87 118 149 181 223 277 338
#     4  11  21  34  55  83 115 149 189 237 286 342
#     4  11  22  39  61  84 113 151 195 240 287 345
#     4  10  20  35  59  89 119 153 192 238 293 350
#
# _framework density 21.005412
#
# number of rings (size 3 to 8) (size 9 to 14) (size 15 to 20)
#    0.000    1.625    0.000    7.125    0.000    4.750 
#    0.000    4.375    0.000    2.250    0.000    0.000 
#    0.000    0.000    0.000    0.000    0.000    0.000 
#
# Total GULP energy -396716.454707 kJ/mol
# GULP energy per Si atom -12397.389210 kJ/mol
# Density = 2.095760 g / cm^3
# Si number density = 21.005412 Si / 1000 Ang^3
#
#
#
# Elastic Constant Matrix: (Units=GPa)
#
#
# Indices 1 2 3 4 5 6 
#
# 1 94.7860 41.2631 25.3379 0.0000 0.0000 0.0000
# 2 41.2631 125.7056 31.8893 0.0000 0.0000 0.0000
# 3 25.3379 31.8893 55.9715 0.0000 0.0000 0.0000
# 4 0.0000 0.0000 0.0000 21.2607 0.0000 0.0000
# 5 0.0000 0.0000 0.0000 0.0000 25.6271 0.0000
# 6 0.0000 0.0000 0.0000 0.0000 0.0000 28.3266
#
#
#
# Elastic Compliance Matrix: (Units=1/GPa)
#
#
# Indices 1 2 3 4 5 6 
#
# 1 0.013051 -0.003256 -0.004053 0.000000 0.000000 0.000000
# 2 -0.003256 0.010111 -0.004287 0.000000 0.000000 0.000000
# 3 -0.004053 -0.004287 0.022144 0.000000 0.000000 0.000000
# 4 0.000000 0.000000 0.000000 0.047035 0.000000 0.000000
# 5 0.000000 0.000000 0.000000 0.000000 0.039021 0.000000
# 6 0.000000 0.000000 0.000000 0.000000 0.000000 0.035303
#
#
# Mechanical properties :
#
#
# Convention : Reuss Voigt Hill
#
# Bulk Modulus (GPa) = 45.22016 52.60486 48.91251
# Shear Modulus (GPa) = 25.35142 26.90774 26.12958
#
# Velocity S-wave (km/s) = 3.47781 3.58298 3.53079
# Velocity P-wave (km/s) = 6.14016 6.49729 6.32125
#
# Compressibility (1/GPa) = 0.02211403
#
# Stress axis : x y z
#
# Youngs Moduli (GPa) = 76.62324 98.89884 45.15988
#
# Poissons Ratio (x) = 0.32199 0.18304
# Poissons Ratio (y) = 0.24947 0.19360
# Poissons Ratio (z) = 0.31056 0.42398
#
# Static dielectric constant tensor:
#      x y z
#    x 3.696010 0.000000 0.000000 
#    y 0.000000 3.694910 0.000000 
#    z 0.000000 0.000000 3.654710 
# 
# 
# High freq. dielectric constant tensor:
#      x y z
#    x 1.823830 0.000000 0.000000 
#    y 0.000000 1.812230 0.000000 
#    z 0.000000 0.000000 1.811710 
# 
# From -- ./inp_files/13187.got.cif
#   From: 2010.03.12/outbox.cif.g09.slc.cpg/sg35_7_cif.got.tgz:13187.got - 2010.04.14 02:02:04.
