data_PCOD8172750
_publ_section_title
;
Structure prediction by ZEFSAII (Michael W. Deem and Ramdas Pophale) SiO2 
 PCOD8172750
Probable space group: C M M 2
;
_chemical_formula_sum "Si O2"
_cell_formula_units_Z 64
_cell_length_a 8.782648
_cell_length_b 29.292114
_cell_length_c 12.330347
_cell_angle_alpha 90.000000
_cell_angle_beta 90.000000
_cell_angle_gamma 90.000000
_cell_volume 3172.133755
_symmetry_space_group_name_H-M "C M M 2"
_symmetry_group_IT_number 35
_symmetry_cell_setting 'orthorhombic'
loop_
_space_group_symop_operation_xyz
x,y,z
-x,-y,z
-x,y,z
x,-y,z
1/2+x,1/2+y,z
1/2-x,1/2-y,z
1/2-x,1/2+y,z
1/2+x,1/2-y,z
loop_
_atom_site_type_symbol
_atom_site_label
_atom_site_fract_x
_atom_site_fract_y
_atom_site_fract_z
Si Si1 0.823319 0.891156 0.411200
Si Si2 0.825866 0.682488 0.106619
Si Si3 0.677819 0.886371 0.802311
Si Si4 0.169924 0.904617 0.171843
Si Si5 0.819322 0.447714 0.602680
Si Si6 0.820864 0.796240 0.882707
Si Si7 0.178593 0.703757 0.349873
Si Si8 0.827757 0.949824 0.962130
O O1 0.796231 0.916812 0.296431
O O2 0.738649 0.923434 0.495057
O O3 0.755369 0.840053 0.406562
O O4 0.000000 0.887463 0.442319
O O5 0.794946 0.629362 0.124195
O O6 0.787489 0.706235 0.221112
O O7 0.000000 0.689861 0.071290
O O8 0.721238 0.701090 0.010107
O O9 0.500000 0.877025 0.791862
O O10 0.740315 0.917258 0.703368
O O11 0.760260 0.837712 0.808989
O O12 0.712331 0.913497 0.912400
O O13 0.000000 0.882340 0.165225
O O14 0.179517 0.948541 0.093669
O O15 0.757246 0.500000 0.611106
O O16 0.000000 0.448550 0.601516
O O17 0.750000 0.750000 0.833689
O O18 0.000000 0.794746 0.871803
O O19 0.250000 0.750000 0.400638
O O20 0.000000 0.701479 0.374443
O O21 0.000000 0.938603 0.923489
O O22 0.778294 0.000000 0.924019
#
# Coordination Sequence:
#
# PCOD8172750 Si02
#       8
#     8   8   8   8   8   8   8   8
#     4  10  21  37  60  89 120 155 201 250 298 354
#     4  10  19  32  53  83 119 161 203 243 287 345
#     4  11  23  41  63  87 117 153 199 251 302 354
#     4   9  18  33  53  81 121 162 195 240 297 349
#     4  10  23  44  67  89 116 153 198 251 306 357
#     4  12  24  38  58  86 121 159 199 243 295 354
#     4  10  20  34  55  85 123 163 204 246 293 349
#     4  10  20  34  55  85 120 158 196 238 296 359
#
# _framework density 20.175695999999999
#
# number of rings (size 3 to 8) (size 9 to 14) (size 15 to 20)
#    0.000    1.750    1.250    3.375    0.000    5.500 
#    0.000    1.875    0.000    3.000    0.000    0.000 
#    0.000    0.000    0.000    0.000    0.000    0.000 
#
# Total GULP energy -396702.003440 kJ/mol
# GULP energy per Si atom -12396.937607 kJ/mol
# Density = 2.012978 g / cm^3
# Si number density = 20.175696 Si / 1000 Ang^3
#
#
#
# Elastic Constant Matrix: (Units=GPa)
#
#
# Indices 1 2 3 4 5 6 
#
# 1 71.1049 47.3872 28.6285 0.0000 0.0000 0.0000
# 2 47.3872 143.4216 60.7447 0.0000 0.0000 0.0000
# 3 28.6285 60.7447 96.2860 0.0000 0.0000 0.0000
# 4 0.0000 0.0000 0.0000 16.5227 0.0000 0.0000
# 5 0.0000 0.0000 0.0000 0.0000 27.1586 0.0000
# 6 0.0000 0.0000 0.0000 0.0000 0.0000 29.6223
#
#
#
# Elastic Compliance Matrix: (Units=1/GPa)
#
#
# Indices 1 2 3 4 5 6 
#
# 1 0.018379 -0.005128 -0.002229 0.000000 0.000000 0.000000
# 2 -0.005128 0.010946 -0.005381 0.000000 0.000000 0.000000
# 3 -0.002229 -0.005381 0.014443 0.000000 0.000000 0.000000
# 4 0.000000 0.000000 0.000000 0.060523 0.000000 0.000000
# 5 0.000000 0.000000 0.000000 0.000000 0.036821 0.000000
# 6 0.000000 0.000000 0.000000 0.000000 0.000000 0.033758
#
#
# Mechanical properties :
#
#
# Convention : Reuss Voigt Hill
#
# Bulk Modulus (GPa) = 54.67045 64.92592 59.79819
# Shear Modulus (GPa) = 24.21973 26.26421 25.24197
#
# Velocity S-wave (km/s) = 3.46850 3.61193 3.54094
# Velocity P-wave (km/s) = 6.57241 7.04591 6.81328
#
# Compressibility (1/GPa) = 0.01829142
#
# Stress axis : x y z
#
# Youngs Moduli (GPa) = 54.40990 91.35921 69.23738
#
# Poissons Ratio (x) = 0.46852 0.15434
# Poissons Ratio (y) = 0.27903 0.37254
# Poissons Ratio (z) = 0.12129 0.49157
#
# Static dielectric constant tensor:
#      x y z
#    x 3.629540 0.000000 0.000000 
#    y 0.000000 3.784410 0.000000 
#    z 0.000000 0.000000 3.581010 
# 
# 
# High freq. dielectric constant tensor:
#      x y z
#    x 1.789800 0.000000 0.000000 
#    y 0.000000 1.790630 0.000000 
#    z 0.000000 0.000000 1.770060 
# 
# From -- ./inp_files/11864.got.cif
#   From: 2010.03.12/outbox.cif.g09.slc.cpg/sg35_6_cif.got.tgz:11864.got - 2010.04.14 02:02:04.
