data_PCOD8172195
_publ_section_title
;
Structure prediction by ZEFSAII (Michael W. Deem and Ramdas Pophale) SiO2 
 PCOD8172195
Probable space group: C M M 2
;
_chemical_formula_sum "Si O2"
_cell_formula_units_Z 64
_cell_length_a 9.011174
_cell_length_b 30.325739
_cell_length_c 15.143607
_cell_angle_alpha 90.000000
_cell_angle_beta 90.000000
_cell_angle_gamma 90.000000
_cell_volume 4138.301220
_symmetry_space_group_name_H-M "C M M 2"
_symmetry_group_IT_number 35
_symmetry_cell_setting 'orthorhombic'
loop_
_space_group_symop_operation_xyz
x,y,z
-x,-y,z
-x,y,z
x,-y,z
1/2+x,1/2+y,z
1/2-x,1/2-y,z
1/2-x,1/2+y,z
1/2+x,1/2-y,z
loop_
_atom_site_type_symbol
_atom_site_label
_atom_site_fract_x
_atom_site_fract_y
_atom_site_fract_z
Si Si1 0.672943 0.448609 0.718670
Si Si2 0.172987 0.709270 0.400836
Si Si3 0.174061 0.949742 0.258176
Si Si4 0.676891 0.293115 0.590191
Si Si5 0.673551 0.880701 0.596491
Si Si6 0.831465 0.611981 0.391059
Si Si7 0.164454 0.052404 0.915313
Si Si8 0.665538 0.052513 0.083440
O O1 0.500000 0.437807 0.703082
O O2 0.703559 0.500000 0.703767
O O3 0.775469 0.423245 0.650063
O O4 0.721215 0.434135 0.817849
O O5 0.250000 0.750000 0.346106
O O6 0.267235 0.706427 0.490000
O O7 0.188371 0.661942 0.352849
O O8 0.000000 0.719088 0.421276
O O9 0.222608 0.920724 0.340965
O O10 0.244168 0.930603 0.168257
O O11 0.000000 0.946786 0.246995
O O12 0.225850 0.000000 0.275085
O O13 0.500000 0.291039 0.596872
O O14 0.750000 0.250000 0.637490
O O15 0.737152 0.338266 0.633915
O O16 0.500000 0.871870 0.609710
O O17 0.710048 0.889429 0.494031
O O18 0.000000 0.596081 0.376112
O O19 0.000000 0.071453 0.930863
O O20 0.159084 0.000000 0.920963
O O21 0.267966 0.072094 0.992447
O O22 0.500000 0.070830 0.092583
O O23 0.669964 0.000000 0.079711
#
# Coordination Sequence:
#
# PCOD8172195 Si02
#       8
#     8   8   8   8   8   8   8   8
#     4   9  18  31  45  62  86 117 150 182 216 253
#     4   9  16  27  43  63  84 106 135 172 215 259
#     4  10  20  31  43  60  82 111 147 182 214 251
#     4  10  17  27  44  63  83 107 137 175 219 262
#     4  10  20  32  44  61  86 116 150 184 217 254
#     4   9  19  32  43  58  83 114 146 179 213 249
#     4   8  14  26  43  61  82 107 136 173 215 256
#     4   9  16  26  42  62  82 105 134 171 216 260
#
# _framework density 15.465282999999999
#
# number of rings (size 3 to 8) (size 9 to 14) (size 15 to 20)
#    0.000    2.750    0.000    4.875    0.000    6.500 
#    0.000    3.750    0.000    0.000    0.000    0.000 
#    0.000    1.000    0.000    7.000    0.000    5.125 
#
# Total GULP energy -396583.832496 kJ/mol
# GULP energy per Si atom -12393.244765 kJ/mol
# Density = 1.543008 g / cm^3
# Si number density = 15.465283 Si / 1000 Ang^3
#
#
#
# Elastic Constant Matrix: (Units=GPa)
#
#
# Indices 1 2 3 4 5 6 
#
# 1 103.7776 44.9244 44.9293 0.0000 0.0000 0.0000
# 2 44.9244 69.4320 40.0162 0.0000 0.0000 0.0000
# 3 44.9293 40.0162 71.4161 0.0000 0.0000 0.0000
# 4 0.0000 0.0000 0.0000 0.2623 0.0000 0.0000
# 5 0.0000 0.0000 0.0000 0.0000 24.7926 0.0000
# 6 0.0000 0.0000 0.0000 0.0000 0.0000 26.3575
#
#
#
# Elastic Compliance Matrix: (Units=1/GPa)
#
#
# Indices 1 2 3 4 5 6 
#
# 1 0.014878 -0.006250 -0.005858 0.000000 0.000000 0.000000
# 2 -0.006250 0.023898 -0.009458 0.000000 0.000000 0.000000
# 3 -0.005858 -0.009458 0.022987 0.000000 0.000000 0.000000
# 4 0.000000 0.000000 0.000000 3.812561 0.000000 0.000000
# 5 0.000000 0.000000 0.000000 0.000000 0.040335 0.000000
# 6 0.000000 0.000000 0.000000 0.000000 0.000000 0.037940
#
#
# Mechanical properties :
#
#
# Convention : Reuss Voigt Hill
#
# Bulk Modulus (GPa) = 53.67606 56.04062 54.85834
# Shear Modulus (GPa) = 1.24939 17.93287 9.59113
#
# Velocity S-wave (km/s) = 0.89979 3.40892 2.49303
# Velocity P-wave (km/s) = 5.98851 7.19787 6.62086
#
# Compressibility (1/GPa) = 0.01863028
#
# Stress axis : x y z
#
# Youngs Moduli (GPa) = 67.21479 41.84459 43.50205
#
# Poissons Ratio (x) = 0.26154 0.25482
# Poissons Ratio (y) = 0.42011 0.41146
# Poissons Ratio (z) = 0.39372 0.39578
#
# Static dielectric constant tensor:
#      x y z
#    x 3.085760 0.000000 0.000000 
#    y 0.000000 3.155660 0.000000 
#    z 0.000000 0.000000 2.788820 
# 
# 
# High freq. dielectric constant tensor:
#      x y z
#    x 1.606970 0.000000 0.000000 
#    y 0.000000 1.569880 0.000000 
#    z 0.000000 0.000000 1.559440 
# 
# From -- ./inp_files/16242.got.cif
#   From: 2010.03.12/outbox.cif.g09.slc.cpg/sg35_9_cif.got.tgz:16242.got - 2010.04.14 02:02:04.
