data_PCOD8172785
_publ_section_title
;
Structure prediction by ZEFSAII (Michael W. Deem and Ramdas Pophale) SiO2 
 PCOD8172785
Probable space group: C M M 2
;
_chemical_formula_sum "Si O2"
_cell_formula_units_Z 64
_cell_length_a 20.890685
_cell_length_b 18.629993
_cell_length_c 9.092971
_cell_angle_alpha 90.000000
_cell_angle_beta 90.000000
_cell_angle_gamma 90.000000
_cell_volume 3538.923530
_symmetry_space_group_name_H-M "C M M 2"
_symmetry_group_IT_number 35
_symmetry_cell_setting 'orthorhombic'
loop_
_space_group_symop_operation_xyz
x,y,z
-x,-y,z
-x,y,z
x,-y,z
1/2+x,1/2+y,z
1/2-x,1/2-y,z
1/2-x,1/2+y,z
1/2+x,1/2-y,z
loop_
_atom_site_type_symbol
_atom_site_label
_atom_site_fract_x
_atom_site_fract_y
_atom_site_fract_z
Si Si1 0.235900 0.580442 0.659180
Si Si2 0.188894 0.700215 0.142250
Si Si3 0.374185 0.417847 0.780118
Si Si4 0.878835 0.817474 0.309863
Si Si5 0.182069 0.709757 0.805486
Si Si6 0.427962 0.292921 0.632803
Si Si7 0.070863 0.079859 0.083590
Si Si8 0.745263 0.416930 0.319856
O O1 0.221787 0.500000 0.714083
O O2 0.304981 0.605285 0.719736
O O3 0.183478 0.632947 0.726382
O O4 0.228867 0.585278 0.484697
O O5 0.250000 0.750000 0.152433
O O6 0.134937 0.740712 0.235700
O O7 0.203908 0.621548 0.210696
O O8 0.166044 0.693995 0.974833
O O9 0.389066 0.500000 0.746593
O O10 0.427946 0.374131 0.692483
O O11 0.377929 0.401123 0.955200
O O12 0.907753 0.794962 0.464267
O O13 0.929139 0.861285 0.211739
O O14 0.819717 0.872053 0.320126
O O15 0.250000 0.750000 0.782786
O O16 0.122849 0.750901 0.733213
O O17 0.500000 0.261198 0.647641
O O18 0.000000 0.080745 0.013098
O O19 0.086073 0.000000 0.146187
O O20 0.734783 0.500000 0.269250
#
# Coordination Sequence:
#
# PCOD8172785 Si02
#       8
#     8   8   8   8   8   8   8   8
#     4  10  20  34  57  84 109 144 185 229 284 342
#     4   9  21  33  53  80 108 146 188 234 290 339
#     4  10  20  35  52  77 111 151 192 229 280 339
#     4  11  20  35  51  73 110 152 192 233 281 341
#     4  11  20  38  59  82 112 149 191 243 293 344
#     4  12  24  36  57  84 114 154 200 243 288 344
#     4  10  21  34  48  70 107 153 195 235 277 332
#     4  10  19  33  52  80 112 144 184 233 285 341
#
# _framework density 18.084595
#
# number of rings (size 3 to 8) (size 9 to 14) (size 15 to 20)
#    0.000    1.625    2.500    2.625    3.500    2.750 
#    0.000    0.625    0.000    0.375    0.000    0.000 
#    0.000    3.500    0.000    0.000    0.000    0.000 
#
# Total GULP energy -396675.949528 kJ/mol
# GULP energy per Si atom -12396.123423 kJ/mol
# Density = 1.804343 g / cm^3
# Si number density = 18.084595 Si / 1000 Ang^3
#
#
#
# Elastic Constant Matrix: (Units=GPa)
#
#
# Indices 1 2 3 4 5 6 
#
# 1 83.3337 46.8466 51.7894 0.0000 0.0000 0.0000
# 2 46.8466 93.7066 47.2733 0.0000 0.0000 0.0000
# 3 51.7894 47.2733 122.3869 0.0000 0.0000 0.0000
# 4 0.0000 0.0000 0.0000 34.9900 0.0000 0.0000
# 5 0.0000 0.0000 0.0000 0.0000 16.6883 0.0000
# 6 0.0000 0.0000 0.0000 0.0000 0.0000 21.2502
#
#
#
# Elastic Compliance Matrix: (Units=1/GPa)
#
#
# Indices 1 2 3 4 5 6 
#
# 1 0.019280 -0.006859 -0.005509 0.000000 0.000000 0.000000
# 2 -0.006859 0.015695 -0.003160 0.000000 0.000000 0.000000
# 3 -0.005509 -0.003160 0.011722 0.000000 0.000000 0.000000
# 4 0.000000 0.000000 0.000000 0.028580 0.000000 0.000000
# 5 0.000000 0.000000 0.000000 0.000000 0.059922 0.000000
# 6 0.000000 0.000000 0.000000 0.000000 0.000000 0.047058
#
#
# Mechanical properties :
#
#
# Convention : Reuss Voigt Hill
#
# Bulk Modulus (GPa) = 63.93443 65.69398 64.81420
# Shear Modulus (GPa) = 22.88053 24.82021 23.85037
#
# Velocity S-wave (km/s) = 3.56082 3.70868 3.63550
# Velocity P-wave (km/s) = 7.23434 7.39891 7.31709
#
# Compressibility (1/GPa) = 0.01564103
#
# Stress axis : x y z
#
# Youngs Moduli (GPa) = 51.86846 63.71551 85.30647
#
# Poissons Ratio (x) = 0.43704 0.46994
# Poissons Ratio (y) = 0.35578 0.26954
# Poissons Ratio (z) = 0.28574 0.20132
#
# Static dielectric constant tensor:
#      x y z
#    x 3.090880 0.000000 0.000000 
#    y 0.000000 3.469570 0.000000 
#    z 0.000000 0.000000 3.496790 
# 
# 
# High freq. dielectric constant tensor:
#      x y z
#    x 1.663480 0.000000 0.000000 
#    y 0.000000 1.698560 0.000000 
#    z 0.000000 0.000000 1.714700 
# 
# From -- ./inp_files/8737.got.cif
#   From: 2010.03.12/outbox.cif.g09.slc.cpg/sg35_5_cif.got.tgz:8737.got - 2010.04.14 02:02:04.
