data_PCOD8172152
_publ_section_title
;
Structure prediction by ZEFSAII (Michael W. Deem and Ramdas Pophale) SiO2 
 PCOD8172152
Probable space group: C M M 2
;
_chemical_formula_sum "Si O2"
_cell_formula_units_Z 64
_cell_length_a 8.682827
_cell_length_b 19.143463
_cell_length_c 21.013470
_cell_angle_alpha 90.000000
_cell_angle_beta 90.000000
_cell_angle_gamma 90.000000
_cell_volume 3492.845901
_symmetry_space_group_name_H-M "C M M 2"
_symmetry_group_IT_number 35
_symmetry_cell_setting 'orthorhombic'
loop_
_space_group_symop_operation_xyz
x,y,z
-x,-y,z
-x,y,z
x,-y,z
1/2+x,1/2+y,z
1/2-x,1/2-y,z
1/2-x,1/2+y,z
1/2+x,1/2-y,z
loop_
_atom_site_type_symbol
_atom_site_label
_atom_site_fract_x
_atom_site_fract_y
_atom_site_fract_z
Si Si1 0.682121 0.172078 0.400290
Si Si2 0.173158 0.417064 0.892875
Si Si3 0.317157 0.327548 0.526872
Si Si4 0.322198 0.417923 0.763043
Si Si5 0.182277 0.920378 0.022293
Si Si6 0.681183 0.173679 0.655520
Si Si7 0.680091 0.325934 0.136140
Si Si8 0.319867 0.326281 0.275508
O O1 0.500000 0.173231 0.405108
O O2 0.750000 0.250000 0.397416
O O3 0.751617 0.133992 0.463300
O O4 0.737001 0.133498 0.334790
O O5 0.175905 0.500000 0.895780
O O6 0.274959 0.391731 0.833300
O O7 0.000000 0.388435 0.885014
O O8 0.245129 0.387659 0.958207
O O9 0.500000 0.327752 0.525343
O O10 0.250000 0.250000 0.526946
O O11 0.255884 0.361932 0.592192
O O12 0.500000 0.399449 0.751422
O O13 0.290185 0.500000 0.755108
O O14 0.216469 0.377499 0.713358
O O15 0.247078 0.877487 0.082563
O O16 0.000000 0.915224 0.016124
O O17 0.235554 0.000000 0.032156
O O18 0.500000 0.181247 0.645625
O O19 0.750000 0.250000 0.669572
O O20 0.500000 0.316731 0.126983
O O21 0.750000 0.250000 0.127382
O O22 0.713540 0.360270 0.206119
O O23 0.500000 0.322293 0.290612
O O24 0.250000 0.250000 0.270493
#
# Coordination Sequence:
#
# PCOD8172152 Si02
#       8
#     8   8   8   8   8   8   8   8
#     4  10  16  23  36  57  84 115 152 191 232 276
#     4   9  17  30  49  73  97 121 154 197 241 281
#     4  10  17  27  42  62  90 123 158 195 237 282
#     4  10  20  35  55  77 100 128 163 201 241 287
#     4   9  17  31  50  70  92 120 155 193 233 279
#     4  11  21  34  51  73 103 134 164 199 243 291
#     4   9  18  30  45  66  93 124 154 188 232 280
#     4   9  15  24  37  56  83 114 148 185 227 274
#
# _framework density 18.323166000000001
#
# number of rings (size 3 to 8) (size 9 to 14) (size 15 to 20)
#    0.000    2.375    0.000    6.750    0.000    3.250 
#    0.000    0.625    0.000    1.500    0.000    0.875 
#    0.000    5.000    0.000    0.000    0.000    0.000 
#
# Total GULP energy -396577.356222 kJ/mol
# GULP energy per Si atom -12393.042382 kJ/mol
# Density = 1.828146 g / cm^3
# Si number density = 18.323166 Si / 1000 Ang^3
#
#
#
# Elastic Constant Matrix: (Units=GPa)
#
#
# Indices 1 2 3 4 5 6 
#
# 1 124.1144 20.2098 60.9418 0.0000 0.0000 0.0000
# 2 20.2098 30.5165 39.0443 0.0000 0.0000 0.0000
# 3 60.9418 39.0443 186.6890 0.0000 0.0000 0.0000
# 4 0.0000 0.0000 0.0000 2.4706 0.0000 0.0000
# 5 0.0000 0.0000 0.0000 0.0000 34.1597 0.0000
# 6 0.0000 0.0000 0.0000 0.0000 0.0000 15.0980
#
#
#
# Elastic Compliance Matrix: (Units=1/GPa)
#
#
# Indices 1 2 3 4 5 6 
#
# 1 0.009830 -0.003283 -0.002522 0.000000 0.000000 0.000000
# 2 -0.003283 0.045838 -0.008515 0.000000 0.000000 0.000000
# 3 -0.002522 -0.008515 0.007961 0.000000 0.000000 0.000000
# 4 0.000000 0.000000 0.000000 0.404756 0.000000 0.000000
# 5 0.000000 0.000000 0.000000 0.000000 0.029274 0.000000
# 6 0.000000 0.000000 0.000000 0.000000 0.000000 0.066234
#
#
# Mechanical properties :
#
#
# Convention : Reuss Voigt Hill
#
# Bulk Modulus (GPa) = 28.58104 64.63464 46.60784
# Shear Modulus (GPa) = 8.27547 25.08728 16.68137
#
# Velocity S-wave (km/s) = 2.12749 3.70423 3.02055
# Velocity P-wave (km/s) = 4.65479 7.32437 6.13651
#
# Compressibility (1/GPa) = 0.03498823
#
# Stress axis : x y z
#
# Youngs Moduli (GPa) = 101.72802 21.81616 125.61745
#
# Poissons Ratio (x) = 0.07162 0.31685
# Poissons Ratio (y) = 0.33396 1.06961
# Poissons Ratio (z) = 0.25659 0.18576
#
# Static dielectric constant tensor:
#      x y z
#    x 3.465770 0.000000 0.000000 
#    y 0.000000 2.816120 0.000000 
#    z 0.000000 0.000000 4.649530 
# 
# 
# High freq. dielectric constant tensor:
#      x y z
#    x 1.723270 0.000000 0.000000 
#    y 0.000000 1.630280 0.000000 
#    z 0.000000 0.000000 1.744440 
# 
# From -- ./inp_files/18506.got.cif
#   From: 2010.03.12/outbox.cif.g09.slc.cpg/sg35_10_cif.got.tgz:18506.got - 2010.04.14 02:02:04.
