data_PCOD8172253
_publ_section_title
;
Structure prediction by ZEFSAII (Michael W. Deem and Ramdas Pophale) SiO2 
 PCOD8172253
Probable space group: C M M 2
;
_chemical_formula_sum "Si O2"
_cell_formula_units_Z 64
_cell_length_a 8.859622
_cell_length_b 28.507392
_cell_length_c 15.629195
_cell_angle_alpha 90.000000
_cell_angle_beta 90.000000
_cell_angle_gamma 90.000000
_cell_volume 3947.383217
_symmetry_space_group_name_H-M "C M M 2"
_symmetry_group_IT_number 35
_symmetry_cell_setting 'orthorhombic'
loop_
_space_group_symop_operation_xyz
x,y,z
-x,-y,z
-x,y,z
x,-y,z
1/2+x,1/2+y,z
1/2-x,1/2-y,z
1/2-x,1/2+y,z
1/2+x,1/2-y,z
loop_
_atom_site_type_symbol
_atom_site_label
_atom_site_fract_x
_atom_site_fract_y
_atom_site_fract_z
Si Si1 0.320138 0.801582 0.931000
Si Si2 0.178578 0.699589 0.597296
Si Si3 0.177446 0.359811 0.432917
Si Si4 0.177685 0.353560 0.764105
Si Si5 0.324740 0.699321 0.286829
Si Si6 0.175077 0.199818 0.097474
Si Si7 0.674639 0.052182 0.684911
Si Si8 0.824975 0.053241 0.504445
O O1 0.500000 0.798392 0.932384
O O2 0.250000 0.750000 0.921015
O O3 0.257720 0.833139 0.852669
O O4 0.260215 0.826386 0.018889
O O5 0.250000 0.750000 0.585582
O O6 0.229186 0.668203 0.517172
O O7 0.242905 0.675487 0.683468
O O8 0.000000 0.704774 0.600776
O O9 0.252925 0.337831 0.350012
O O10 0.232520 0.413308 0.441022
O O11 0.000000 0.358663 0.420196
O O12 0.220947 0.408713 0.755112
O O13 0.000000 0.347233 0.764612
O O14 0.500000 0.706022 0.307773
O O15 0.250000 0.750000 0.298094
O O16 0.302166 0.677182 0.191332
O O17 0.250000 0.250000 0.103816
O O18 0.000000 0.204530 0.073734
O O19 0.500000 0.058870 0.657888
O O20 0.773417 0.060716 0.601542
O O21 0.702591 0.000000 0.723226
O O22 0.000000 0.066030 0.498607
O O23 0.793311 0.000000 0.475185
#
# Coordination Sequence:
#
# PCOD8172253 Si02
#       8
#     8   8   8   8   8   8   8   8
#     4  10  18  28  45  65  92 123 154 193 230 273
#     4  10  20  32  43  60  91 126 159 188 221 267
#     4  11  21  33  50  69  93 127 162 198 234 278
#     4   9  17  30  44  65  93 120 154 193 231 275
#     4  10  20  33  49  70  97 127 158 197 239 283
#     4   9  17  30  47  66  91 120 154 194 235 278
#     4   9  16  30  51  68  87 119 157 196 238 282
#     4  10  20  33  49  70  95 121 154 199 244 284
#
# _framework density 16.213272
#
# number of rings (size 3 to 8) (size 9 to 14) (size 15 to 20)
#    0.000    2.250    1.250    3.375    0.000    4.250 
#    0.000    1.875    0.000    0.000    0.000    0.875 
#    0.000    3.000    0.000    0.000    0.000    0.000 
#
# Total GULP energy -396661.540958 kJ/mol
# GULP energy per Si atom -12395.673155 kJ/mol
# Density = 1.617637 g / cm^3
# Si number density = 16.213272 Si / 1000 Ang^3
#
#
#
# Elastic Constant Matrix: (Units=GPa)
#
#
# Indices 1 2 3 4 5 6 
#
# 1 66.9076 37.8086 49.2367 0.0000 0.0000 0.0000
# 2 37.8086 99.1363 58.3244 0.0000 0.0000 0.0000
# 3 49.2367 58.3244 130.7750 0.0000 0.0000 0.0000
# 4 0.0000 0.0000 0.0000 28.0421 0.0000 0.0000
# 5 0.0000 0.0000 0.0000 0.0000 24.2028 0.0000
# 6 0.0000 0.0000 0.0000 0.0000 0.0000 19.8398
#
#
#
# Elastic Compliance Matrix: (Units=1/GPa)
#
#
# Indices 1 2 3 4 5 6 
#
# 1 0.022255 -0.004824 -0.006228 0.000000 0.000000 0.000000
# 2 -0.004824 0.014721 -0.004749 0.000000 0.000000 0.000000
# 3 -0.006228 -0.004749 0.012110 0.000000 0.000000 0.000000
# 4 0.000000 0.000000 0.000000 0.035661 0.000000 0.000000
# 5 0.000000 0.000000 0.000000 0.000000 0.041318 0.000000
# 6 0.000000 0.000000 0.000000 0.000000 0.000000 0.050404
#
#
# Mechanical properties :
#
#
# Convention : Reuss Voigt Hill
#
# Bulk Modulus (GPa) = 57.19495 65.28426 61.23961
# Shear Modulus (GPa) = 23.37586 24.51354 23.94470
#
# Velocity S-wave (km/s) = 3.80119 3.89259 3.84716
# Velocity P-wave (km/s) = 7.39044 7.78180 7.58864
#
# Compressibility (1/GPa) = 0.01748406
#
# Stress axis : x y z
#
# Youngs Moduli (GPa) = 44.93469 67.93071 82.57977
#
# Poissons Ratio (x) = 0.32767 0.51427
# Poissons Ratio (y) = 0.21675 0.39219
# Poissons Ratio (z) = 0.27983 0.32262
#
# Static dielectric constant tensor:
#      x y z
#    x 3.069000 0.000000 0.000000 
#    y 0.000000 3.043230 0.000000 
#    z 0.000000 0.000000 3.526710 
# 
# 
# High freq. dielectric constant tensor:
#      x y z
#    x 1.626470 0.000000 0.000000 
#    y 0.000000 1.602660 0.000000 
#    z 0.000000 0.000000 1.617480 
# 
# From -- ./inp_files/16212.got.cif
#   From: 2010.03.12/outbox.cif.g09.slc.cpg/sg35_9_cif.got.tgz:16212.got - 2010.04.14 02:02:04.
