data_PCOD8172629
_publ_section_title
;
Structure prediction by ZEFSAII (Michael W. Deem and Ramdas Pophale) SiO2 
 PCOD8172629
Probable space group: C M M 2
;
_chemical_formula_sum "Si O2"
_cell_formula_units_Z 64
_cell_length_a 9.193811
_cell_length_b 29.065785
_cell_length_c 12.337737
_cell_angle_alpha 90.000000
_cell_angle_beta 90.000000
_cell_angle_gamma 90.000000
_cell_volume 3296.955889
_symmetry_space_group_name_H-M "C M M 2"
_symmetry_group_IT_number 35
_symmetry_cell_setting 'orthorhombic'
loop_
_space_group_symop_operation_xyz
x,y,z
-x,-y,z
-x,y,z
x,-y,z
1/2+x,1/2+y,z
1/2-x,1/2-y,z
1/2-x,1/2+y,z
1/2+x,1/2-y,z
loop_
_atom_site_type_symbol
_atom_site_label
_atom_site_fract_x
_atom_site_fract_y
_atom_site_fract_z
Si Si1 0.171996 0.050064 0.045820
Si Si2 0.161516 0.929800 0.814618
Si Si3 0.168198 0.636341 0.505811
Si Si4 0.331777 0.792970 0.687848
Si Si5 0.839774 0.173475 0.877846
Si Si6 0.829116 0.147232 0.119887
Si Si7 0.829694 0.948594 0.580403
Si Si8 0.326994 0.200990 0.307652
O O1 0.223980 0.093330 0.118637
O O2 0.000000 0.057083 0.031357
O O3 0.209854 0.000000 0.098874
O O4 0.240686 0.051385 0.923943
O O5 0.156294 0.875367 0.820118
O O6 0.238755 0.945026 0.702364
O O7 0.000000 0.951084 0.810255
O O8 0.202384 0.661379 0.619328
O O9 0.254483 0.588233 0.500994
O O10 0.218380 0.669750 0.409399
O O11 0.000000 0.624203 0.493509
O O12 0.500000 0.781341 0.687480
O O13 0.250000 0.750000 0.632023
O O14 0.277498 0.796910 0.812092
O O15 0.000000 0.196229 0.867698
O O16 0.796202 0.169489 0.003192
O O17 0.729732 0.174941 0.201896
O O18 0.000000 0.151218 0.149912
O O19 0.000000 0.936763 0.582595
O O20 0.801003 0.000000 0.535084
O O21 0.500000 0.208323 0.299875
O O22 0.250000 0.250000 0.319229
#
# Coordination Sequence:
#
# PCOD8172629 Si02
#       8
#     8   8   8   8   8   8   8   8
#     4   8  13  24  47  80 116 151 185 222 265 315
#     4   8  13  24  45  76 113 149 183 220 262 310
#     4  10  23  41  58  80 111 147 186 230 283 339
#     4  11  22  35  54  80 109 143 183 227 280 341
#     4   9  17  32  53  79 114 152 182 219 274 331
#     4   9  19  35  57  86 116 146 185 230 278 330
#     4  10  19  31  54  87 117 149 190 231 271 320
#     4  11  24  43  65  84 104 138 187 239 291 340
#
# _framework density 19.411847000000002
#
# number of rings (size 3 to 8) (size 9 to 14) (size 15 to 20)
#    0.000    2.500    1.250    3.000    0.000    4.250 
#    0.000    0.625    0.000    2.625    0.000    0.000 
#    0.000    0.000    0.000    0.000    0.000    0.000 
#
# Total GULP energy -396561.764286 kJ/mol
# GULP energy per Si atom -12392.555134 kJ/mol
# Density = 1.936766 g / cm^3
# Si number density = 19.411847 Si / 1000 Ang^3
#
#
#
# Elastic Constant Matrix: (Units=GPa)
#
#
# Indices 1 2 3 4 5 6 
#
# 1 70.6090 55.3068 44.5186 0.0000 0.0000 0.0000
# 2 55.3068 140.1550 56.4576 0.0000 0.0000 0.0000
# 3 44.5186 56.4576 95.0923 0.0000 0.0000 0.0000
# 4 0.0000 0.0000 0.0000 24.0017 0.0000 0.0000
# 5 0.0000 0.0000 0.0000 0.0000 25.2542 0.0000
# 6 0.0000 0.0000 0.0000 0.0000 0.0000 25.7757
#
#
#
# Elastic Compliance Matrix: (Units=1/GPa)
#
#
# Indices 1 2 3 4 5 6 
#
# 1 0.023839 -0.006455 -0.007328 0.000000 0.000000 0.000000
# 2 -0.006455 0.011126 -0.003583 0.000000 0.000000 0.000000
# 3 -0.007328 -0.003583 0.016074 0.000000 0.000000 0.000000
# 4 0.000000 0.000000 0.000000 0.041664 0.000000 0.000000
# 5 0.000000 0.000000 0.000000 0.000000 0.039597 0.000000
# 6 0.000000 0.000000 0.000000 0.000000 0.000000 0.038796
#
#
# Mechanical properties :
#
#
# Convention : Reuss Voigt Hill
#
# Bulk Modulus (GPa) = 61.32782 68.71361 65.02071
# Shear Modulus (GPa) = 23.66697 24.97787 24.32242
#
# Velocity S-wave (km/s) = 3.49550 3.59100 3.54357
# Velocity P-wave (km/s) = 6.92480 7.25729 7.09300
#
# Compressibility (1/GPa) = 0.01630581
#
# Stress axis : x y z
#
# Youngs Moduli (GPa) = 41.94798 89.88134 62.21120
#
# Poissons Ratio (x) = 0.58021 0.45588
# Poissons Ratio (y) = 0.27079 0.22293
# Poissons Ratio (z) = 0.30739 0.32208
#
# Static dielectric constant tensor:
#      x y z
#    x 3.195730 0.000000 0.000000 
#    y 0.000000 3.647440 0.000000 
#    z 0.000000 0.000000 3.435490 
# 
# 
# High freq. dielectric constant tensor:
#      x y z
#    x 1.716830 0.000000 0.000000 
#    y 0.000000 1.768760 0.000000 
#    z 0.000000 0.000000 1.739580 
# 
# From -- ./inp_files/12011.got.cif
#   From: 2010.03.12/outbox.cif.g09.slc.cpg/sg35_7_cif.got.tgz:12011.got - 2010.04.14 02:02:04.
