data_PCOD8172128
_publ_section_title
;
Structure prediction by ZEFSAII (Michael W. Deem and Ramdas Pophale) SiO2 
 PCOD8172128
Probable space group: P N N 2
;
_chemical_formula_sum "Si O2"
_cell_formula_units_Z 20
_cell_length_a 7.683188
_cell_length_b 15.698211
_cell_length_c 6.879448
_cell_angle_alpha 90.000000
_cell_angle_beta 90.000000
_cell_angle_gamma 90.000000
_cell_volume 829.746090
_symmetry_space_group_name_H-M "P N N 2"
_symmetry_group_IT_number 34
_symmetry_cell_setting 'orthorhombic'
loop_
_space_group_symop_operation_xyz
x,y,z
-x,-y,z
1/2-x,1/2+y,1/2+z
1/2+x,1/2-y,1/2+z
loop_
_atom_site_type_symbol
_atom_site_label
_atom_site_fract_x
_atom_site_fract_y
_atom_site_fract_z
Si Si1 0.349273 0.094303 0.096420
Si Si2 0.500000 0.500000 0.200892
Si Si3 0.204583 0.464163 0.931799
Si Si4 0.524140 0.332699 0.437967
Si Si5 0.000000 0.500000 0.262562
Si Si6 0.691516 0.190571 0.176118
O O1 0.519382 0.153637 0.071662
O O2 0.374535 0.034439 0.282511
O O3 0.166802 0.144924 0.105336
O O4 0.345812 0.037667 0.898040
O O5 0.460538 0.418092 0.333083
O O6 0.345720 0.517071 0.050357
O O7 0.272087 0.380766 0.820641
O O8 0.072981 0.431240 0.103727
O O9 0.627811 0.273557 0.287948
O O10 0.350519 0.288252 0.527844
#
# Coordination Sequence:
#
# PCOD8172128 Si02
#       6
#     4   2   4   4   2   4
#     4  12  25  50  78 109 158 201 260 323 398 482
#     4  12  26  48  78 110 154 212 266 316 404 482
#     4  12  24  46  80 108 149 202 261 321 398 470
#     4  12  30  48  79 112 163 206 267 328 400 474
#     4  12  20  44  80 106 140 204 250 318 388 478
#     4  12  28  49  73 119 153 205 263 331 391 471
#
# _framework density 24.103760000000001
#
# number of rings (size 3 to 8) (size 9 to 14) (size 15 to 20)
#    0.000    0.000    6.000    3.600    8.400    1.600 
#    0.000    0.000    0.000    0.000    0.000    0.000 
#    0.000    0.000    0.000    0.000    0.000    0.000 
#
# Total GULP energy -247790.282175 kJ/mol
# GULP energy per Si atom -12389.514109 kJ/mol
# Density = 2.404890 g / cm^3
# Si number density = 24.103760 Si / 1000 Ang^3
#
#
#
# Elastic Constant Matrix: (Units=GPa)
#
#
# Indices 1 2 3 4 5 6 
#
# 1 159.2529 41.3949 63.5952 0.0000 0.0000 0.0000
# 2 41.3949 100.3150 36.8507 0.0000 0.0000 0.0000
# 3 63.5952 36.8507 141.5779 0.0000 0.0000 0.0000
# 4 0.0000 0.0000 0.0000 21.5616 0.0000 0.0000
# 5 0.0000 0.0000 0.0000 0.0000 48.3482 0.0000
# 6 0.0000 0.0000 0.0000 0.0000 0.0000 33.0538
#
#
#
# Elastic Compliance Matrix: (Units=1/GPa)
#
#
# Indices 1 2 3 4 5 6 
#
# 1 0.008072 -0.002210 -0.003051 0.000000 0.000000 0.000000
# 2 -0.002210 0.011628 -0.002034 0.000000 0.000000 0.000000
# 3 -0.003051 -0.002034 0.008963 0.000000 0.000000 0.000000
# 4 0.000000 0.000000 0.000000 0.046379 0.000000 0.000000
# 5 0.000000 0.000000 0.000000 0.000000 0.020683 0.000000
# 6 0.000000 0.000000 0.000000 0.000000 0.000000 0.030254
#
#
# Mechanical properties :
#
#
# Convention : Reuss Voigt Hill
#
# Bulk Modulus (GPa) = 71.05529 76.09195 73.57362
# Shear Modulus (GPa) = 34.42136 37.87972 36.15054
#
# Velocity S-wave (km/s) = 3.78305 3.96855 3.87691
# Velocity P-wave (km/s) = 6.97316 7.25508 7.11552
#
# Compressibility (1/GPa) = 0.01407355
#
# Stress axis : x y z
#
# Youngs Moduli (GPa) = 123.88438 86.00114 111.57141
#
# Poissons Ratio (x) = 0.19009 0.34036
# Poissons Ratio (y) = 0.27382 0.22690
# Poissons Ratio (z) = 0.37792 0.17490
#
# Static dielectric constant tensor:
#      x y z
#    x 4.893430 0.000000 0.000000 
#    y 0.000000 4.090910 0.000000 
#    z 0.000000 0.000000 4.444780 
# 
# 
# High freq. dielectric constant tensor:
#      x y z
#    x 1.983310 0.000000 0.000000 
#    y 0.000000 1.923590 0.000000 
#    z 0.000000 0.000000 1.969090 
# 
# From -- ./inp_files/436.got.cif
#   From: 2010.03.12/outbox.cif.g09.slc.cpg/sg34_1_cif.got.tgz:436.got - 2010.04.14 01:56:33.
