data_PCOD8172135
_publ_section_title
;
Structure prediction by ZEFSAII (Michael W. Deem and Ramdas Pophale) SiO2 
 PCOD8172135
Probable space group: P N N 2
;
_chemical_formula_sum "Si O2"
_cell_formula_units_Z 16
_cell_length_a 8.164502
_cell_length_b 17.245249
_cell_length_c 5.085626
_cell_angle_alpha 90.000000
_cell_angle_beta 90.000000
_cell_angle_gamma 90.000000
_cell_volume 716.050394
_symmetry_space_group_name_H-M "P N N 2"
_symmetry_group_IT_number 34
_symmetry_cell_setting 'orthorhombic'
loop_
_space_group_symop_operation_xyz
x,y,z
-x,-y,z
1/2-x,1/2+y,1/2+z
1/2+x,1/2-y,1/2+z
loop_
_atom_site_type_symbol
_atom_site_label
_atom_site_fract_x
_atom_site_fract_y
_atom_site_fract_z
Si Si1 0.744317 0.679986 0.016820
Si Si2 0.538495 0.714663 0.522607
Si Si3 0.688771 0.001237 0.512407
Si Si4 0.147054 0.057834 0.018460
O O1 0.629764 0.712345 0.245909
O O2 0.932597 0.706835 0.046574
O O3 0.738235 0.587426 0.018417
O O4 0.676576 0.713802 0.744825
O O5 0.410624 0.645107 0.558942
O O6 0.500000 0.000000 0.588331
O O7 0.711044 0.961897 0.228011
O O8 0.786296 0.950800 0.724808
O O9 0.000000 0.000000 0.078238
#
# Coordination Sequence:
#
# PCOD8172135 Si02
#       4
#     4   4   4   4
#     4  12  26  46  65 102 134 178 219 274 331 403
#     4  12  27  44  71  96 140 175 223 271 338 397
#     4  12  26  43  71 100 135 171 229 278 326 388
#     4  12  23  46  71  96 129 181 221 274 327 394
#
# _framework density 22.344798000000001
#
# number of rings (size 3 to 8) (size 9 to 14) (size 15 to 20)
#    0.000    0.000    5.000    4.500    7.000    0.000 
#    0.000    0.000    0.000    0.000    0.000    0.000 
#    0.000    0.000    0.000    0.000    0.000    0.000 
#
# Total GULP energy -198573.308331 kJ/mol
# GULP energy per Si atom -12410.831771 kJ/mol
# Density = 2.229394 g / cm^3
# Si number density = 22.344798 Si / 1000 Ang^3
#
#
#
# Elastic Constant Matrix: (Units=GPa)
#
#
# Indices 1 2 3 4 5 6 
#
# 1 81.8819 5.3573 15.4419 0.0000 0.0000 0.0000
# 2 5.3573 29.0453 23.7556 0.0000 0.0000 0.0000
# 3 15.4419 23.7556 102.6847 0.0000 0.0000 0.0000
# 4 0.0000 0.0000 0.0000 19.7854 0.0000 0.0000
# 5 0.0000 0.0000 0.0000 0.0000 41.8497 0.0000
# 6 0.0000 0.0000 0.0000 0.0000 0.0000 42.7057
#
#
#
# Elastic Compliance Matrix: (Units=1/GPa)
#
#
# Indices 1 2 3 4 5 6 
#
# 1 0.012591 -0.000954 -0.001673 0.000000 0.000000 0.000000
# 2 -0.000954 0.042536 -0.009697 0.000000 0.000000 0.000000
# 3 -0.001673 -0.009697 0.012233 0.000000 0.000000 0.000000
# 4 0.000000 0.000000 0.000000 0.050542 0.000000 0.000000
# 5 0.000000 0.000000 0.000000 0.000000 0.023895 0.000000
# 6 0.000000 0.000000 0.000000 0.000000 0.000000 0.023416
#
#
# Mechanical properties :
#
#
# Convention : Reuss Voigt Hill
#
# Bulk Modulus (GPa) = 23.41250 33.63572 28.52411
# Shear Modulus (GPa) = 24.49795 32.13863 28.31829
#
# Velocity S-wave (km/s) = 3.31473 3.79661 3.56382
# Velocity P-wave (km/s) = 5.01502 5.85703 5.45230
#
# Compressibility (1/GPa) = 0.04271223
#
# Stress axis : x y z
#
# Youngs Moduli (GPa) = 79.42443 23.50949 81.74322
#
# Poissons Ratio (x) = 0.02243 0.13673
# Poissons Ratio (y) = 0.07579 0.79266
# Poissons Ratio (z) = 0.13285 0.22797
#
# Static dielectric constant tensor:
#      x y z
#    x 4.001320 0.000000 0.000000 
#    y 0.000000 4.174820 0.000000 
#    z 0.000000 0.000000 4.089020 
# 
# 
# High freq. dielectric constant tensor:
#      x y z
#    x 1.889130 0.000000 0.000000 
#    y 0.000000 1.882460 0.000000 
#    z 0.000000 0.000000 1.895340 
# 
# From -- ./inp_files/360.got.cif
#   From: 2010.03.12/outbox.cif.g09.slc.cpg/sg34_1_cif.got.tgz:360.got - 2010.04.14 01:56:33.
