data_PCOD8172184
_publ_section_title
;
Structure prediction by ZEFSAII (Michael W. Deem and Ramdas Pophale) SiO2 
 PCOD8172184
Probable space group: C M M 2
;
_chemical_formula_sum "Si O2"
_cell_formula_units_Z 48
_cell_length_a 8.799875
_cell_length_b 19.313521
_cell_length_c 15.615249
_cell_angle_alpha 90.000000
_cell_angle_beta 90.000000
_cell_angle_gamma 90.000000
_cell_volume 2653.914169
_symmetry_space_group_name_H-M "C M M 2"
_symmetry_group_IT_number 35
_symmetry_cell_setting 'orthorhombic'
loop_
_space_group_symop_operation_xyz
x,y,z
-x,-y,z
-x,y,z
x,-y,z
1/2+x,1/2+y,z
1/2-x,1/2-y,z
1/2-x,1/2+y,z
1/2+x,1/2-y,z
loop_
_atom_site_type_symbol
_atom_site_label
_atom_site_fract_x
_atom_site_fract_y
_atom_site_fract_z
Si Si1 0.323686 0.675477 0.549390
Si Si2 0.822656 0.079159 0.044064
Si Si3 0.322160 0.079733 0.219474
Si Si4 0.180606 0.326699 0.714772
Si Si5 0.819784 0.825347 0.886599
Si Si6 0.323991 0.324828 0.360377
O O1 0.500000 0.682104 0.573298
O O2 0.250000 0.750000 0.541120
O O3 0.238656 0.634605 0.627524
O O4 0.300039 0.641681 0.455577
O O5 0.734770 0.106723 0.127463
O O6 0.000000 0.086785 0.062740
O O7 0.778383 0.000000 0.023080
O O8 0.771595 0.125673 0.964470
O O9 0.500000 0.091224 0.225006
O O10 0.245215 0.121733 0.294644
O O11 0.274942 0.000000 0.230871
O O12 0.250000 0.250000 0.711046
O O13 0.248604 0.360732 0.801016
O O14 0.000000 0.326173 0.718735
O O15 0.750000 0.750000 0.903473
O O16 0.000000 0.819052 0.876085
O O17 0.500000 0.314835 0.340496
O O18 0.250000 0.250000 0.349909
#
# Coordination Sequence:
#
# PCOD8172184 Si02
#       6
#     8   8   8   8   8   8
#     4   9  16  27  44  68  97 128 162 198 239 286
#     4   9  19  36  55  72  93 127 168 205 244 293
#     4  10  21  36  54  75 100 132 168 206 249 300
#     4  10  17  26  43  67  97 130 161 195 237 286
#     4  10  19  31  49  73 100 127 159 201 245 288
#     4  10  20  33  52  77 104 133 166 208 252 295
#
# _framework density 18.086492
#
# number of rings (size 3 to 8) (size 9 to 14) (size 15 to 20)
#    0.000    2.333    0.000    5.500    0.000    5.000 
#    0.000    1.667    0.000    1.000    0.000    2.333 
#    0.000    0.000    0.000    0.000    0.000    0.000 
#
# Total GULP energy -297465.895534 kJ/mol
# GULP energy per Si atom -12394.412314 kJ/mol
# Density = 1.804533 g / cm^3
# Si number density = 18.086492 Si / 1000 Ang^3
#
#
#
# Elastic Constant Matrix: (Units=GPa)
#
#
# Indices 1 2 3 4 5 6 
#
# 1 115.5093 36.7053 85.4316 0.0000 0.0000 0.0000
# 2 36.7053 47.4586 63.9401 0.0000 0.0000 0.0000
# 3 85.4316 63.9401 196.4104 0.0000 0.0000 0.0000
# 4 0.0000 0.0000 0.0000 -5.9381 0.0000 0.0000
# 5 0.0000 0.0000 0.0000 0.0000 34.1120 0.0000
# 6 0.0000 0.0000 0.0000 0.0000 0.0000 21.2311
#
#
#
# Elastic Compliance Matrix: (Units=1/GPa)
#
#
# Indices 1 2 3 4 5 6 
#
# 1 0.013266 -0.004428 -0.004329 0.000000 0.000000 0.000000
# 2 -0.004428 0.039011 -0.010774 0.000000 0.000000 0.000000
# 3 -0.004329 -0.010774 0.010481 0.000000 0.000000 0.000000
# 4 0.000000 0.000000 0.000000 -0.168404 0.000000 0.000000
# 5 0.000000 0.000000 0.000000 0.000000 0.029315 0.000000
# 6 0.000000 0.000000 0.000000 0.000000 0.000000 0.047101
#
#
# Mechanical properties :
#
#
# Convention : Reuss Voigt Hill
#
# Bulk Modulus (GPa) = 42.19870 81.28137 61.74004
# Shear Modulus (GPa) = 282.00201 21.43441 151.71821
#
# Velocity S-wave (km/s) = 12.50028 3.44627 9.16880
# Velocity P-wave (km/s) = 15.22252 7.80216 12.09543
#
# Compressibility (1/GPa) = 0.02369741
#
# Stress axis : x y z
#
# Youngs Moduli (GPa) = 75.38083 25.63381 95.40625
#
# Poissons Ratio (x) = 0.11351 0.41298
# Poissons Ratio (y) = 0.33380 1.02787
# Poissons Ratio (z) = 0.32630 0.27617
#
# Static dielectric constant tensor:
#      x y z
#    x 3.457570 0.000000 0.000000 
#    y 0.000000 2.932300 0.000000 
#    z 0.000000 0.000000 4.310360 
# 
# 
# High freq. dielectric constant tensor:
#      x y z
#    x 1.717490 0.000000 0.000000 
#    y 0.000000 1.643870 0.000000 
#    z 0.000000 0.000000 1.729150 
# 
# From -- ./inp_files/15372.got.cif
#   From: 2010.03.12/outbox.cif.g09.slc.cpg/sg35_8_cif.got.tgz:15372.got - 2010.04.14 02:02:04.
