data_PCOD8172597
_publ_section_title
;
Structure prediction by ZEFSAII (Michael W. Deem and Ramdas Pophale) SiO2 
 PCOD8172597
Probable space group: C M M 2
;
_chemical_formula_sum "Si O2"
_cell_formula_units_Z 64
_cell_length_a 9.005435
_cell_length_b 18.965230
_cell_length_c 20.498232
_cell_angle_alpha 90.000000
_cell_angle_beta 90.000000
_cell_angle_gamma 90.000000
_cell_volume 3500.896037
_symmetry_space_group_name_H-M "C M M 2"
_symmetry_group_IT_number 35
_symmetry_cell_setting 'orthorhombic'
loop_
_space_group_symop_operation_xyz
x,y,z
-x,-y,z
-x,y,z
x,-y,z
1/2+x,1/2+y,z
1/2-x,1/2-y,z
1/2-x,1/2+y,z
1/2+x,1/2-y,z
loop_
_atom_site_type_symbol
_atom_site_label
_atom_site_fract_x
_atom_site_fract_y
_atom_site_fract_z
Si Si1 0.174017 0.825365 0.625000
Si Si2 0.174967 0.919844 0.246243
Si Si3 0.824167 0.174137 0.125248
Si Si4 0.327599 0.918949 0.019673
Si Si5 0.826368 0.419546 0.377662
Si Si6 0.176629 0.326325 0.499644
Si Si7 0.167418 0.582040 0.869846
Si Si8 0.171542 0.824178 0.768334
O O1 0.250000 0.750000 0.627942
O O2 0.256862 0.864833 0.564929
O O3 0.201305 0.859324 0.696584
O O4 0.000000 0.818843 0.609088
O O5 0.230171 0.870421 0.187683
O O6 0.246009 0.891055 0.312928
O O7 0.000000 0.916350 0.253979
O O8 0.227931 0.000000 0.232006
O O9 0.750000 0.250000 0.127987
O O10 0.000000 0.183273 0.123783
O O11 0.774696 0.132738 0.060986
O O12 0.500000 0.905777 0.035972
O O13 0.294130 0.900833 0.944595
O O14 0.285332 0.000000 0.034770
O O15 0.780081 0.500000 0.391964
O O16 0.774009 0.373307 0.438609
O O17 0.000000 0.412170 0.365534
O O18 0.250000 0.250000 0.490487
O O19 0.000000 0.319876 0.505587
O O20 0.186271 0.500000 0.856203
O O21 0.279633 0.621912 0.823295
O O22 0.000000 0.606258 0.854097
O O23 0.250000 0.750000 0.777709
O O24 0.000000 0.808164 0.777196
#
# Coordination Sequence:
#
# PCOD8172597 Si02
#       8
#     8   8   8   8   8   8   8   8
#     4   9  17  30  48  71  99 131 169 209 250 299
#     4   9  19  36  56  76  99 131 170 209 251 302
#     4  11  23  37  54  79 110 139 171 213 258 303
#     4   9  19  37  59  80 103 135 174 212 254 308
#     4   9  19  35  53  74 100 131 168 207 247 296
#     4  10  19  31  50  74 100 130 166 208 251 299
#     4   9  19  36  56  78 105 136 171 212 257 307
#     4  10  20  33  52  77 104 136 174 216 259 307
#
# _framework density 18.281033000000001
#
# number of rings (size 3 to 8) (size 9 to 14) (size 15 to 20)
#    0.000    2.500    0.000    3.375    0.000    6.000 
#    0.000    5.625    0.000    2.250    0.000    0.000 
#    0.000    0.000    0.000    0.000    0.000    0.000 
#
# Total GULP energy -396712.178976 kJ/mol
# GULP energy per Si atom -12397.255593 kJ/mol
# Density = 1.823942 g / cm^3
# Si number density = 18.281033 Si / 1000 Ang^3
#
#
#
# Elastic Constant Matrix: (Units=GPa)
#
#
# Indices 1 2 3 4 5 6 
#
# 1 79.5306 43.0067 64.2242 0.0000 0.0000 0.0000
# 2 43.0067 80.4135 74.5947 0.0000 0.0000 0.0000
# 3 64.2242 74.5947 154.4502 0.0000 0.0000 0.0000
# 4 0.0000 0.0000 0.0000 8.7272 0.0000 0.0000
# 5 0.0000 0.0000 0.0000 0.0000 36.0606 0.0000
# 6 0.0000 0.0000 0.0000 0.0000 0.0000 25.6203
#
#
#
# Elastic Compliance Matrix: (Units=1/GPa)
#
#
# Indices 1 2 3 4 5 6 
#
# 1 0.020167 -0.005447 -0.005755 0.000000 0.000000 0.000000
# 2 -0.005447 0.024000 -0.009327 0.000000 0.000000 0.000000
# 3 -0.005755 -0.009327 0.013372 0.000000 0.000000 0.000000
# 4 0.000000 0.000000 0.000000 0.114585 0.000000 0.000000
# 5 0.000000 0.000000 0.000000 0.000000 0.027731 0.000000
# 6 0.000000 0.000000 0.000000 0.000000 0.000000 0.039032
#
#
# Mechanical properties :
#
#
# Convention : Reuss Voigt Hill
#
# Bulk Modulus (GPa) = 60.67143 75.33841 68.00492
# Shear Modulus (GPa) = 17.51695 22.91953 20.21824
#
# Velocity S-wave (km/s) = 3.09884 3.54465 3.32922
# Velocity P-wave (km/s) = 6.78705 7.61928 7.21517
#
# Compressibility (1/GPa) = 0.01648222
#
# Stress axis : x y z
#
# Youngs Moduli (GPa) = 49.58667 41.66586 74.78223
#
# Poissons Ratio (x) = 0.22695 0.43038
# Poissons Ratio (y) = 0.27009 0.69746
# Poissons Ratio (z) = 0.28538 0.38860
#
# Static dielectric constant tensor:
#      x y z
#    x 3.373010 0.000000 0.000000 
#    y 0.000000 3.182030 0.000000 
#    z 0.000000 0.000000 3.828210 
# 
# 
# High freq. dielectric constant tensor:
#      x y z
#    x 1.713470 0.000000 0.000000 
#    y 0.000000 1.685330 0.000000 
#    z 0.000000 0.000000 1.726130 
# 
# From -- ./inp_files/18393.got.cif
#   From: 2010.03.12/outbox.cif.g09.slc.cpg/sg35_10_cif.got.tgz:18393.got - 2010.04.14 02:02:04.
