data_PCOD8172917
_publ_section_title
;
Structure prediction by ZEFSAII (Michael W. Deem and Ramdas Pophale) SiO2 
 PCOD8172917
Probable space group: C M M 2
;
_chemical_formula_sum "Si O2"
_cell_formula_units_Z 56
_cell_length_a 9.142535
_cell_length_b 21.547929
_cell_length_c 14.611202
_cell_angle_alpha 90.000000
_cell_angle_beta 90.000000
_cell_angle_gamma 90.000000
_cell_volume 2878.446172
_symmetry_space_group_name_H-M "C M M 2"
_symmetry_group_IT_number 35
_symmetry_cell_setting 'orthorhombic'
loop_
_space_group_symop_operation_xyz
x,y,z
-x,-y,z
-x,y,z
x,-y,z
1/2+x,1/2+y,z
1/2-x,1/2-y,z
1/2-x,1/2+y,z
1/2+x,1/2-y,z
loop_
_atom_site_type_symbol
_atom_site_label
_atom_site_fract_x
_atom_site_fract_y
_atom_site_fract_z
Si Si1 0.325469 0.000000 0.799441
Si Si2 0.668024 0.605809 0.487334
Si Si3 0.672263 0.622549 0.826023
Si Si4 0.671786 0.000000 0.590322
Si Si5 0.824213 0.313110 0.982842
Si Si6 0.336160 0.309815 0.646495
Si Si7 0.327739 0.929644 0.107914
Si Si8 0.334301 0.428575 0.290923
O O1 0.255982 0.059027 0.850322
O O2 0.272809 0.000000 0.694505
O O3 0.500000 0.000000 0.813379
O O4 0.500000 0.582840 0.497283
O O5 0.774706 0.559272 0.536703
O O6 0.692215 0.670164 0.541325
O O7 0.707683 0.612728 0.380034
O O8 0.500000 0.618004 0.849745
O O9 0.699998 0.635490 0.718400
O O10 0.750512 0.676987 0.883741
O O11 0.500000 0.000000 0.590263
O O12 0.750000 0.250000 0.023890
O O13 0.777392 0.374685 0.040245
O O14 0.000000 0.305502 0.977583
O O15 0.500000 0.288630 0.660470
O O16 0.250000 0.250000 0.674057
O O17 0.500000 0.931150 0.113776
O O18 0.269498 0.910535 0.207680
O O19 0.271478 0.000000 0.080657
O O20 0.500000 0.415403 0.259707
O O21 0.313994 0.500000 0.320537
#
# Coordination Sequence:
#
# PCOD8172917 Si02
#       8
#     4   8   8   4   8   8   8   8
#     4  11  23  37  55  86 123 156 191 241 296 346
#     4  10  19  35  55  78 113 153 187 228 280 337
#     4  11  23  39  61  87 115 154 197 241 294 352
#     4  11  21  31  51  84 113 146 185 229 276 322
#     4  11  24  42  64  88 118 157 199 246 302 360
#     4  10  22  37  55  76 108 152 195 236 281 333
#     4   9  20  39  61  86 118 152 187 239 304 358
#     4   9  17  31  56  85 112 147 187 231 285 344
#
# _framework density 19.454941000000002
#
# number of rings (size 3 to 8) (size 9 to 14) (size 15 to 20)
#    0.000    1.857    2.143    1.714    1.000    5.143 
#    0.000    0.714    0.000    3.429    0.000    0.000 
#    0.000    0.000    0.000    0.000    0.000    0.000 
#
# Total GULP energy -347082.107026 kJ/mol
# GULP energy per Si atom -12395.789537 kJ/mol
# Density = 1.941066 g / cm^3
# Si number density = 19.454941 Si / 1000 Ang^3
#
#
#
# Elastic Constant Matrix: (Units=GPa)
#
#
# Indices 1 2 3 4 5 6 
#
# 1 53.9685 47.8443 30.7064 0.0000 0.0000 0.0000
# 2 47.8443 112.0459 40.1304 0.0000 0.0000 0.0000
# 3 30.7064 40.1304 87.9511 0.0000 0.0000 0.0000
# 4 0.0000 0.0000 0.0000 24.5968 0.0000 0.0000
# 5 0.0000 0.0000 0.0000 0.0000 32.1803 0.0000
# 6 0.0000 0.0000 0.0000 0.0000 0.0000 30.3659
#
#
#
# Elastic Compliance Matrix: (Units=1/GPa)
#
#
# Indices 1 2 3 4 5 6 
#
# 1 0.032221 -0.011630 -0.005943 0.000000 0.000000 0.000000
# 2 -0.011630 0.014866 -0.002723 0.000000 0.000000 0.000000
# 3 -0.005943 -0.002723 0.014687 0.000000 0.000000 0.000000
# 4 0.000000 0.000000 0.000000 0.040656 0.000000 0.000000
# 5 0.000000 0.000000 0.000000 0.000000 0.031075 0.000000
# 6 0.000000 0.000000 0.000000 0.000000 0.000000 0.032932
#
#
# Mechanical properties :
#
#
# Convention : Reuss Voigt Hill
#
# Bulk Modulus (GPa) = 47.20748 54.59198 50.89973
# Shear Modulus (GPa) = 23.35483 26.44756 24.90119
#
# Velocity S-wave (km/s) = 3.46852 3.69104 3.58151
# Velocity P-wave (km/s) = 6.35284 6.80343 6.58199
#
# Compressibility (1/GPa) = 0.02118308
#
# Stress axis : x y z
#
# Youngs Moduli (GPa) = 31.03582 67.26668 68.08707
#
# Poissons Ratio (x) = 0.78232 0.40462
# Poissons Ratio (y) = 0.36095 0.18538
# Poissons Ratio (z) = 0.18444 0.18315
#
# Static dielectric constant tensor:
#      x y z
#    x 3.492870 0.000000 0.000000 
#    y 0.000000 3.493250 0.000000 
#    z 0.000000 0.000000 3.586440 
# 
# 
# High freq. dielectric constant tensor:
#      x y z
#    x 1.757680 0.000000 0.000000 
#    y 0.000000 1.745110 0.000000 
#    z 0.000000 0.000000 1.756250 
# 
# From -- ./inp_files/15738.got.cif
#   From: 2010.03.12/outbox.cif.g09.slc.cpg/sg35_8_cif.got.tgz:15738.got - 2010.04.14 02:02:04.
