data_PCOD8172679
_publ_section_title
;
Structure prediction by ZEFSAII (Michael W. Deem and Ramdas Pophale) SiO2 
 PCOD8172679
Probable space group: C M M 2
;
_chemical_formula_sum "Si O2"
_cell_formula_units_Z 48
_cell_length_a 8.648340
_cell_length_b 18.811620
_cell_length_c 15.480377
_cell_angle_alpha 90.000000
_cell_angle_beta 90.000000
_cell_angle_gamma 90.000000
_cell_volume 2518.491477
_symmetry_space_group_name_H-M "C M M 2"
_symmetry_group_IT_number 35
_symmetry_cell_setting 'orthorhombic'
loop_
_space_group_symop_operation_xyz
x,y,z
-x,-y,z
-x,y,z
x,-y,z
1/2+x,1/2+y,z
1/2-x,1/2-y,z
1/2-x,1/2+y,z
1/2+x,1/2-y,z
loop_
_atom_site_type_symbol
_atom_site_label
_atom_site_fract_x
_atom_site_fract_y
_atom_site_fract_z
Si Si1 0.184058 0.327392 0.735240
Si Si2 0.816288 0.080118 0.076193
Si Si3 0.180327 0.417221 0.386407
Si Si4 0.681502 0.671757 0.236035
Si Si5 0.316456 0.327772 0.914315
Si Si6 0.816743 0.421784 0.579469
O O1 0.250000 0.250000 0.721294
O O2 0.248912 0.359043 0.824901
O O3 0.249924 0.372011 0.654602
O O4 0.000000 0.326205 0.738688
O O5 0.750597 0.124704 0.157277
O O6 0.000000 0.077184 0.080396
O O7 0.748209 0.000000 0.078816
O O8 0.761491 0.118568 0.988768
O O9 0.219774 0.500000 0.370241
O O10 0.279613 0.367479 0.324825
O O11 0.228337 0.394693 0.483798
O O12 0.000000 0.403093 0.369818
O O13 0.500000 0.679459 0.226905
O O14 0.750000 0.750000 0.233234
O O15 0.500000 0.321980 0.907986
O O16 0.250000 0.250000 0.934684
O O17 0.746426 0.500000 0.594247
O O18 0.000000 0.425612 0.585828
#
# Coordination Sequence:
#
# PCOD8172679 Si02
#       6
#     8   8   8   8   8   8
#     4  10  19  32  51  74 102 134 169 208 250 298
#     4   9  19  35  54  76 102 133 167 206 256 309
#     4   9  18  35  57  79 105 137 173 213 259 310
#     4  11  22  36  55  78 106 138 174 214 257 307
#     4  10  19  33  53  74 100 133 168 207 251 300
#     4   8  16  32  53  75 101 135 170 206 252 302
#
# _framework density 19.059027
#
# number of rings (size 3 to 8) (size 9 to 14) (size 15 to 20)
#    0.000    2.500    0.000    4.500    0.000    2.333 
#    0.000    5.833    0.000    9.000    0.000    0.000 
#    0.000    0.000    0.000    0.000    0.000    0.000 
#
# Total GULP energy -297557.680305 kJ/mol
# GULP energy per Si atom -12398.236679 kJ/mol
# Density = 1.901565 g / cm^3
# Si number density = 19.059027 Si / 1000 Ang^3
#
#
#
# Elastic Constant Matrix: (Units=GPa)
#
#
# Indices 1 2 3 4 5 6 
#
# 1 51.9784 29.6380 33.3275 0.0000 0.0000 0.0000
# 2 29.6380 125.6536 101.6235 0.0000 0.0000 0.0000
# 3 33.3275 101.6235 185.9098 0.0000 0.0000 0.0000
# 4 0.0000 0.0000 0.0000 43.2448 0.0000 0.0000
# 5 0.0000 0.0000 0.0000 0.0000 21.9690 0.0000
# 6 0.0000 0.0000 0.0000 0.0000 0.0000 9.6604
#
#
#
# Elastic Compliance Matrix: (Units=1/GPa)
#
#
# Indices 1 2 3 4 5 6 
#
# 1 0.022653 -0.003690 -0.002044 0.000000 0.000000 0.000000
# 2 -0.003690 0.014866 -0.007465 0.000000 0.000000 0.000000
# 3 -0.002044 -0.007465 0.009826 0.000000 0.000000 0.000000
# 4 0.000000 0.000000 0.000000 0.023124 0.000000 0.000000
# 5 0.000000 0.000000 0.000000 0.000000 0.045519 0.000000
# 6 0.000000 0.000000 0.000000 0.000000 0.000000 0.103515
#
#
# Mechanical properties :
#
#
# Convention : Reuss Voigt Hill
#
# Bulk Modulus (GPa) = 47.73815 76.96886 62.35351
# Shear Modulus (GPa) = 19.77204 28.23838 24.00521
#
# Velocity S-wave (km/s) = 3.22438 3.85337 3.55282
# Velocity P-wave (km/s) = 6.24212 7.76338 7.04394
#
# Compressibility (1/GPa) = 0.02094761
#
# Stress axis : x y z
#
# Youngs Moduli (GPa) = 44.14344 67.26833 101.77452
#
# Poissons Ratio (x) = 0.24825 0.20800
# Poissons Ratio (y) = 0.16291 0.75970
# Poissons Ratio (z) = 0.09022 0.50213
#
# Static dielectric constant tensor:
#      x y z
#    x 3.187890 0.000000 0.000000 
#    y 0.000000 3.640060 0.000000 
#    z 0.000000 0.000000 3.857060 
# 
# 
# High freq. dielectric constant tensor:
#      x y z
#    x 1.715210 0.000000 0.000000 
#    y 0.000000 1.740370 0.000000 
#    z 0.000000 0.000000 1.758960 
# 
# From -- ./inp_files/17075.got.cif
#   From: 2010.03.12/outbox.cif.g09.slc.cpg/sg35_9_cif.got.tgz:17075.got - 2010.04.14 02:02:04.
