data_PCOD8172822
_publ_section_title
;
Structure prediction by ZEFSAII (Michael W. Deem and Ramdas Pophale) SiO2 
 PCOD8172822
Probable space group: C M M 2
;
_chemical_formula_sum "Si O2"
_cell_formula_units_Z 64
_cell_length_a 16.918838
_cell_length_b 32.296954
_cell_length_c 6.546543
_cell_angle_alpha 90.000000
_cell_angle_beta 90.000000
_cell_angle_gamma 90.000000
_cell_volume 3577.207411
_symmetry_space_group_name_H-M "C M M 2"
_symmetry_group_IT_number 35
_symmetry_cell_setting 'orthorhombic'
loop_
_space_group_symop_operation_xyz
x,y,z
-x,-y,z
-x,y,z
x,-y,z
1/2+x,1/2+y,z
1/2-x,1/2-y,z
1/2-x,1/2+y,z
1/2+x,1/2-y,z
loop_
_atom_site_type_symbol
_atom_site_label
_atom_site_fract_x
_atom_site_fract_y
_atom_site_fract_z
Si Si1 0.291084 0.383695 0.975300
Si Si2 0.092137 0.183564 0.025407
Si Si3 0.801727 0.667848 0.661602
Si Si4 0.690939 0.098517 0.355152
Si Si5 0.090235 0.258067 0.714644
Si Si6 0.272425 0.047208 0.738368
Si Si7 0.590663 0.047222 0.051355
Si Si8 0.813750 0.782029 0.389584
O O1 0.223211 0.359056 0.854406
O O2 0.294926 0.428973 0.870457
O O3 0.375341 0.360507 0.942631
O O4 0.263642 0.387631 0.210196
O O5 0.147625 0.189485 0.220464
O O6 0.000000 0.179009 0.079582
O O7 0.107922 0.221828 0.876096
O O8 0.839274 0.638506 0.484388
O O9 0.862445 0.700145 0.761808
O O10 0.726398 0.691192 0.567281
O O11 0.724474 0.064083 0.508901
O O12 0.619307 0.078792 0.226779
O O13 0.114227 0.243250 0.489430
O O14 0.000000 0.270681 0.715991
O O15 0.357897 0.052973 0.846572
O O16 0.245400 0.000000 0.730573
O O17 0.500000 0.057637 0.996949
O O18 0.599000 0.000000 0.132338
O O19 0.750000 0.750000 0.293660
#
# Coordination Sequence:
#
# PCOD8172822 Si02
#       8
#     8   8   8   8   8   8   8   8
#     4  10  20  35  55  80 107 137 181 220 271 324
#     4  11  22  35  55  81 109 140 177 228 275 319
#     4  10  20  34  54  78 107 146 182 226 265 321
#     4  10  19  33  54  79 106 141 184 222 267 317
#     4  10  22  36  51  76 108 144 185 226 266 310
#     4   9  19  35  55  80 108 139 179 222 267 324
#     4   9  18  32  51  78 111 146 183 222 264 315
#     4  10  20  33  55  76 102 144 185 221 263 316
#
# _framework density 17.891051000000001
#
# number of rings (size 3 to 8) (size 9 to 14) (size 15 to 20)
#    0.000    2.125    2.500    0.750    1.750    1.500 
#    0.000    6.250    0.000    0.375    0.000    0.000 
#    0.000    0.000    0.000    0.000    0.000    0.000 
#
# Total GULP energy -396681.030956 kJ/mol
# GULP energy per Si atom -12396.282217 kJ/mol
# Density = 1.785033 g / cm^3
# Si number density = 17.891051 Si / 1000 Ang^3
#
#
#
# Elastic Constant Matrix: (Units=GPa)
#
#
# Indices 1 2 3 4 5 6 
#
# 1 90.7104 54.0437 42.6990 0.0000 0.0000 0.0000
# 2 54.0437 118.7704 39.6517 0.0000 0.0000 0.0000
# 3 42.6990 39.6517 81.7865 0.0000 0.0000 0.0000
# 4 0.0000 0.0000 0.0000 30.0922 0.0000 0.0000
# 5 0.0000 0.0000 0.0000 0.0000 16.9639 0.0000
# 6 0.0000 0.0000 0.0000 0.0000 0.0000 25.9446
#
#
#
# Elastic Compliance Matrix: (Units=1/GPa)
#
#
# Indices 1 2 3 4 5 6 
#
# 1 0.017467 -0.005851 -0.006283 0.000000 0.000000 0.000000
# 2 -0.005851 0.012005 -0.002766 0.000000 0.000000 0.000000
# 3 -0.006283 -0.002766 0.016848 0.000000 0.000000 0.000000
# 4 0.000000 0.000000 0.000000 0.033231 0.000000 0.000000
# 5 0.000000 0.000000 0.000000 0.000000 0.058949 0.000000
# 6 0.000000 0.000000 0.000000 0.000000 0.000000 0.038544
#
#
# Mechanical properties :
#
#
# Convention : Reuss Voigt Hill
#
# Bulk Modulus (GPa) = 60.52561 62.67290 61.59926
# Shear Modulus (GPa) = 23.54607 24.92500 24.23553
#
# Velocity S-wave (km/s) = 3.63172 3.73655 3.68451
# Velocity P-wave (km/s) = 7.17561 7.32953 7.25298
#
# Compressibility (1/GPa) = 0.01652193
#
# Stress axis : x y z
#
# Youngs Moduli (GPa) = 57.25031 83.29755 59.35417
#
# Poissons Ratio (x) = 0.48733 0.37291
# Poissons Ratio (y) = 0.33494 0.16417
# Poissons Ratio (z) = 0.35969 0.23039
#
# Static dielectric constant tensor:
#      x y z
#    x 3.086200 0.000000 0.000000 
#    y 0.000000 3.572590 0.000000 
#    z 0.000000 0.000000 3.278040 
# 
# 
# High freq. dielectric constant tensor:
#      x y z
#    x 1.662480 0.000000 0.000000 
#    y 0.000000 1.703640 0.000000 
#    z 0.000000 0.000000 1.695800 
# 
# From -- ./inp_files/2728.got.cif
#   From: 2010.03.12/outbox.cif.g09.slc.cpg/sg35_2_cif.got.tgz:2728.got - 2010.04.14 02:02:04.
