data_PCOD8172663
_publ_section_title
;
Structure prediction by ZEFSAII (Michael W. Deem and Ramdas Pophale) SiO2 
 PCOD8172663
Probable space group: C M M 2
;
_chemical_formula_sum "Si O2"
_cell_formula_units_Z 64
_cell_length_a 9.116613
_cell_length_b 27.766847
_cell_length_c 14.287127
_cell_angle_alpha 90.000000
_cell_angle_beta 90.000000
_cell_angle_gamma 90.000000
_cell_volume 3616.637590
_symmetry_space_group_name_H-M "C M M 2"
_symmetry_group_IT_number 35
_symmetry_cell_setting 'orthorhombic'
loop_
_space_group_symop_operation_xyz
x,y,z
-x,-y,z
-x,y,z
x,-y,z
1/2+x,1/2+y,z
1/2-x,1/2-y,z
1/2-x,1/2+y,z
1/2+x,1/2-y,z
loop_
_atom_site_type_symbol
_atom_site_label
_atom_site_fract_x
_atom_site_fract_y
_atom_site_fract_z
Si Si1 0.830869 0.201645 0.590950
Si Si2 0.333346 0.611206 0.468899
Si Si3 0.834428 0.053196 0.098795
Si Si4 0.327670 0.856003 0.094698
Si Si5 0.327868 0.860531 0.743357
Si Si6 0.330719 0.201691 0.918388
Si Si7 0.665309 0.615404 0.264433
Si Si8 0.674209 0.555810 0.647547
O O1 0.750000 0.250000 0.559730
O O2 0.820551 0.165880 0.503328
O O3 0.747582 0.179279 0.678759
O O4 0.000000 0.211615 0.618236
O O5 0.500000 0.594701 0.454886
O O6 0.257383 0.608599 0.366210
O O7 0.265726 0.574708 0.546408
O O8 0.731588 0.093347 0.050276
O O9 0.836123 0.063854 0.211142
O O10 0.000000 0.057227 0.059042
O O11 0.770199 0.000000 0.080836
O O12 0.500000 0.859814 0.106569
O O13 0.254700 0.847063 0.197248
O O14 0.282083 0.813934 0.022925
O O15 0.500000 0.864021 0.720095
O O16 0.298584 0.842877 0.848946
O O17 0.253594 0.912969 0.728203
O O18 0.500000 0.214917 0.915966
O O19 0.250000 0.250000 0.886802
O O20 0.500000 0.635941 0.276413
O O21 0.500000 0.564805 0.655162
O O22 0.715387 0.500000 0.660530
#
# Coordination Sequence:
#
# PCOD8172663 Si02
#       8
#     8   8   8   8   8   8   8   8
#     4  10  19  32  50  74 101 132 167 206 251 303
#     4   8  15  29  49  72 100 133 171 207 242 292
#     4   8  15  28  48  72  95 124 163 199 235 285
#     4   9  18  33  49  70 100 128 159 205 254 298
#     4  10  20  35  54  76 102 132 167 211 257 304
#     4  10  22  37  55  77  99 128 168 210 257 309
#     4   8  15  29  48  70  98 133 168 204 243 288
#     4   9  18  33  53  78 107 139 173 208 251 302
#
# _framework density 17.695995
#
# number of rings (size 3 to 8) (size 9 to 14) (size 15 to 20)
#    0.750    2.250    0.000    1.875    0.000    4.000 
#    0.000    6.875    0.000    6.750    0.000    0.000 
#    0.000    0.000    0.000    0.000    0.000    0.000 
#
# Total GULP energy -396443.985932 kJ/mol
# GULP energy per Si atom -12388.874560 kJ/mol
# Density = 1.765572 g / cm^3
# Si number density = 17.695995 Si / 1000 Ang^3
#
#
#
# Elastic Constant Matrix: (Units=GPa)
#
#
# Indices 1 2 3 4 5 6 
#
# 1 70.4775 42.7302 36.6163 0.0000 0.0000 0.0000
# 2 42.7302 108.6023 38.8331 0.0000 0.0000 0.0000
# 3 36.6163 38.8331 82.6131 0.0000 0.0000 0.0000
# 4 0.0000 0.0000 0.0000 16.3912 0.0000 0.0000
# 5 0.0000 0.0000 0.0000 0.0000 22.3669 0.0000
# 6 0.0000 0.0000 0.0000 0.0000 0.0000 28.7363
#
#
#
# Elastic Compliance Matrix: (Units=1/GPa)
#
#
# Indices 1 2 3 4 5 6 
#
# 1 0.021258 -0.006004 -0.006600 0.000000 0.000000 0.000000
# 2 -0.006004 0.012764 -0.003339 0.000000 0.000000 0.000000
# 3 -0.006600 -0.003339 0.016599 0.000000 0.000000 0.000000
# 4 0.000000 0.000000 0.000000 0.061009 0.000000 0.000000
# 5 0.000000 0.000000 0.000000 0.000000 0.044709 0.000000
# 6 0.000000 0.000000 0.000000 0.000000 0.000000 0.034799
#
#
# Mechanical properties :
#
#
# Convention : Reuss Voigt Hill
#
# Bulk Modulus (GPa) = 53.37306 55.33912 54.35609
# Shear Modulus (GPa) = 21.80843 23.06641 22.43742
#
# Velocity S-wave (km/s) = 3.51435 3.61429 3.56467
# Velocity P-wave (km/s) = 6.83331 6.98266 6.90839
#
# Compressibility (1/GPa) = 0.01873604
#
# Stress axis : x y z
#
# Youngs Moduli (GPa) = 47.04066 78.34451 60.24382
#
# Poissons Ratio (x) = 0.47040 0.39760
# Poissons Ratio (y) = 0.28244 0.20113
# Poissons Ratio (z) = 0.31046 0.26157
#
# Static dielectric constant tensor:
#      x y z
#    x 3.165250 0.000000 0.000000 
#    y 0.000000 3.161510 0.000000 
#    z 0.000000 0.000000 3.269470 
# 
# 
# High freq. dielectric constant tensor:
#      x y z
#    x 1.672100 0.000000 0.000000 
#    y 0.000000 1.670980 0.000000 
#    z 0.000000 0.000000 1.672990 
# 
# From -- ./inp_files/16247.got.cif
#   From: 2010.03.12/outbox.cif.g09.slc.cpg/sg35_9_cif.got.tgz:16247.got - 2010.04.14 02:02:04.
