data_PCOD8172436
_publ_section_title
;
Structure prediction by ZEFSAII (Michael W. Deem and Ramdas Pophale) SiO2 
 PCOD8172436
Probable space group: C M M 2
;
_chemical_formula_sum "Si O2"
_cell_formula_units_Z 64
_cell_length_a 30.821304
_cell_length_b 9.229829
_cell_length_c 11.881022
_cell_angle_alpha 90.000000
_cell_angle_beta 90.000000
_cell_angle_gamma 90.000000
_cell_volume 3379.858076
_symmetry_space_group_name_H-M "C M M 2"
_symmetry_group_IT_number 35
_symmetry_cell_setting 'orthorhombic'
loop_
_space_group_symop_operation_xyz
x,y,z
-x,-y,z
-x,y,z
x,-y,z
1/2+x,1/2+y,z
1/2-x,1/2-y,z
1/2-x,1/2+y,z
1/2+x,1/2-y,z
loop_
_atom_site_type_symbol
_atom_site_label
_atom_site_fract_x
_atom_site_fract_y
_atom_site_fract_z
Si Si1 0.077380 0.330878 0.274160
Si Si2 0.793055 0.330537 0.517810
Si Si3 0.791666 0.829768 0.053760
Si Si4 0.048450 0.671977 0.516028
Si Si5 0.321498 0.168169 0.268298
Si Si6 0.626059 0.171748 0.668858
Si Si7 0.048650 0.165913 0.060315
Si Si8 0.874372 0.830621 0.902988
O O1 0.067405 0.500000 0.265097
O O2 0.060182 0.267537 0.392519
O O3 0.127879 0.296912 0.264147
O O4 0.051596 0.254012 0.175070
O O5 0.785214 0.500000 0.530813
O O6 0.750000 0.250000 0.559657
O O7 0.803488 0.288366 0.389895
O O8 0.832862 0.279520 0.595107
O O9 0.750000 0.750000 0.998963
O O10 0.797512 0.769183 0.179301
O O11 0.782978 0.000000 0.059963
O O12 0.833299 0.791663 0.979576
O O13 0.052291 0.500000 0.511250
O O14 0.082527 0.730870 0.607884
O O15 0.000000 0.722447 0.550212
O O16 0.312516 0.000000 0.240672
O O17 0.629945 0.242697 0.789507
O O18 0.624480 0.000000 0.683036
O O19 0.000000 0.182665 0.011470
O O20 0.060003 0.000000 0.088562
O O21 0.082403 0.223652 0.967231
O O22 0.876600 0.000000 0.874866
#
# Coordination Sequence:
#
# PCOD8172436 Si02
#       8
#     8   8   8   8   8   8   8   8
#     4  10  18  32  58  88 116 146 182 225 274 330
#     4  10  21  37  56  82 114 145 180 222 274 328
#     4  11  23  39  59  83 113 146 185 229 278 333
#     4   9  17  32  56  85 115 145 177 220 277 330
#     4  10  19  34  58  86 117 148 180 223 276 332
#     4  10  21  38  58  80 108 144 186 232 274 318
#     4  10  21  38  58  81 114 151 184 225 279 333
#     4  10  23  41  57  78 109 147 188 230 278 329
#
# _framework density 18.935706
#
# number of rings (size 3 to 8) (size 9 to 14) (size 15 to 20)
#    0.000    2.000    2.500    1.125    0.000    5.250 
#    0.000    3.125    0.000    0.750    0.000    0.000 
#    0.000    0.000    0.000    0.000    0.000    0.000 
#
# Total GULP energy -396883.950915 kJ/mol
# GULP energy per Si atom -12402.623466 kJ/mol
# Density = 1.889261 g / cm^3
# Si number density = 18.935706 Si / 1000 Ang^3
#
#
#
# Elastic Constant Matrix: (Units=GPa)
#
#
# Indices 1 2 3 4 5 6 
#
# 1 155.4798 49.1960 71.2979 0.0000 0.0000 0.0000
# 2 49.1960 45.3823 43.0896 0.0000 0.0000 0.0000
# 3 71.2979 43.0896 128.0234 0.0000 0.0000 0.0000
# 4 0.0000 0.0000 0.0000 25.3510 0.0000 0.0000
# 5 0.0000 0.0000 0.0000 0.0000 11.0432 0.0000
# 6 0.0000 0.0000 0.0000 0.0000 0.0000 23.0253
#
#
#
# Elastic Compliance Matrix: (Units=1/GPa)
#
#
# Indices 1 2 3 4 5 6 
#
# 1 0.010503 -0.008571 -0.002965 0.000000 0.000000 0.000000
# 2 -0.008571 0.039378 -0.008481 0.000000 0.000000 0.000000
# 3 -0.002965 -0.008481 0.012316 0.000000 0.000000 0.000000
# 4 0.000000 0.000000 0.000000 0.039446 0.000000 0.000000
# 5 0.000000 0.000000 0.000000 0.000000 0.090553 0.000000
# 6 0.000000 0.000000 0.000000 0.000000 0.000000 0.043431
#
#
# Mechanical properties :
#
#
# Convention : Reuss Voigt Hill
#
# Bulk Modulus (GPa) = 45.11459 72.89473 59.00466
# Shear Modulus (GPa) = 17.66482 22.90404 20.28443
#
# Velocity S-wave (km/s) = 3.05763 3.48166 3.27651
# Velocity P-wave (km/s) = 6.02846 7.39879 6.74850
#
# Compressibility (1/GPa) = 0.02216578
#
# Stress axis : x y z
#
# Youngs Moduli (GPa) = 95.20982 25.39471 81.19254
#
# Poissons Ratio (x) = 0.21766 0.24070
# Poissons Ratio (y) = 0.81604 0.68855
# Poissons Ratio (z) = 0.28225 0.21536
#
# Static dielectric constant tensor:
#      x y z
#    x 3.772240 0.000000 0.000000 
#    y 0.000000 3.223800 0.000000 
#    z 0.000000 0.000000 3.385330 
# 
# 
# High freq. dielectric constant tensor:
#      x y z
#    x 1.757220 0.000000 0.000000 
#    y 0.000000 1.713040 0.000000 
#    z 0.000000 0.000000 1.731380 
# 
# From -- ./inp_files/11967.got.cif
#   From: 2010.03.12/outbox.cif.g09.slc.cpg/sg35_6_cif.got.tgz:11967.got - 2010.04.14 02:02:04.
