data_PCOD8172538
_publ_section_title
;
Structure prediction by ZEFSAII (Michael W. Deem and Ramdas Pophale) SiO2 
 PCOD8172538
Probable space group: C M M 2
;
_chemical_formula_sum "Si O2"
_cell_formula_units_Z 48
_cell_length_a 19.102508
_cell_length_b 8.764349
_cell_length_c 15.668485
_cell_angle_alpha 90.000000
_cell_angle_beta 90.000000
_cell_angle_gamma 90.000000
_cell_volume 2623.234162
_symmetry_space_group_name_H-M "C M M 2"
_symmetry_group_IT_number 35
_symmetry_cell_setting 'orthorhombic'
loop_
_space_group_symop_operation_xyz
x,y,z
-x,-y,z
-x,y,z
x,-y,z
1/2+x,1/2+y,z
1/2-x,1/2-y,z
1/2-x,1/2+y,z
1/2+x,1/2-y,z
loop_
_atom_site_type_symbol
_atom_site_label
_atom_site_fract_x
_atom_site_fract_y
_atom_site_fract_z
Si Si1 0.173305 0.819755 0.806060
Si Si2 0.173332 0.179409 0.284739
Si Si3 0.918401 0.676343 0.140966
Si Si4 0.919447 0.176673 0.964591
Si Si5 0.826225 0.678676 0.453074
Si Si6 0.173749 0.321378 0.637861
O O1 0.250000 0.750000 0.817989
O O2 0.126080 0.766436 0.884928
O O3 0.135915 0.757784 0.718823
O O4 0.178777 0.000000 0.800677
O O5 0.250000 0.250000 0.271610
O O6 0.124499 0.221691 0.206261
O O7 0.136108 0.242261 0.372028
O O8 0.180984 0.000000 0.290895
O O9 0.899782 0.500000 0.154831
O O10 0.000000 0.709731 0.155788
O O11 0.896362 0.724122 0.045753
O O12 0.000000 0.205622 0.940952
O O13 0.905532 0.000000 0.985843
O O14 0.820447 0.500000 0.434768
O O15 0.750000 0.750000 0.457836
O O16 0.863960 0.708291 0.545444
O O17 0.180063 0.500000 0.655859
O O18 0.250000 0.250000 0.632988
#
# Coordination Sequence:
#
# PCOD8172538 Si02
#       6
#     8   8   8   8   8   8
#     4  10  19  30  48  73 100 128 159 201 247 289
#     4  11  21  33  52  77 105 134 166 207 251 295
#     4  10  21  37  56  76  99 130 167 206 250 302
#     4   9  19  36  54  71  94 128 168 204 242 292
#     4   9  16  27  44  68  98 130 164 201 243 290
#     4   9  16  26  43  67  97 130 162 198 239 287
#
# _framework density 18.298023000000001
#
# number of rings (size 3 to 8) (size 9 to 14) (size 15 to 20)
#    0.000    2.333    0.000    5.500    0.000    5.000 
#    0.000    1.667    0.000    1.000    0.000    4.667 
#    0.000    0.000    0.000    0.000    0.000    0.000 
#
# Total GULP energy -297430.469018 kJ/mol
# GULP energy per Si atom -12392.936209 kJ/mol
# Density = 1.825638 g / cm^3
# Si number density = 18.298023 Si / 1000 Ang^3
#
#
#
# Elastic Constant Matrix: (Units=GPa)
#
#
# Indices 1 2 3 4 5 6 
#
# 1 40.6549 30.3342 55.4967 0.0000 0.0000 0.0000
# 2 30.3342 117.4235 69.4679 0.0000 0.0000 0.0000
# 3 55.4967 69.4679 176.1350 0.0000 0.0000 0.0000
# 4 0.0000 0.0000 0.0000 37.3972 0.0000 0.0000
# 5 0.0000 0.0000 0.0000 0.0000 -2.3625 0.0000
# 6 0.0000 0.0000 0.0000 0.0000 0.0000 19.8981
#
#
#
# Elastic Compliance Matrix: (Units=1/GPa)
#
#
# Indices 1 2 3 4 5 6 
#
# 1 0.044690 -0.004193 -0.012427 0.000000 0.000000 0.000000
# 2 -0.004193 0.011501 -0.003215 0.000000 0.000000 0.000000
# 3 -0.012427 -0.003215 0.010861 0.000000 0.000000 0.000000
# 4 0.000000 0.000000 0.000000 0.026740 0.000000 0.000000
# 5 0.000000 0.000000 0.000000 0.000000 -0.423275 0.000000
# 6 0.000000 0.000000 0.000000 0.000000 0.000000 0.050256
#
#
# Mechanical properties :
#
#
# Convention : Reuss Voigt Hill
#
# Bulk Modulus (GPa) = 36.52039 71.64565 54.08302
# Shear Modulus (GPa) = -21.69864 22.91418 0.60777
#
# Velocity S-wave (km/s) = -3.44735 3.54259 0.57695
# Velocity P-wave (km/s) = 2.03872 7.48152 5.48313
#
# Compressibility (1/GPa) = 0.02738196
#
# Stress axis : x y z
#
# Youngs Moduli (GPa) = 22.37651 86.94616 92.07193
#
# Poissons Ratio (x) = 0.36455 1.14420
# Poissons Ratio (y) = 0.09382 0.29602
# Poissons Ratio (z) = 0.27808 0.27954
#
# Static dielectric constant tensor:
#      x y z
#    x 2.935740 0.000000 0.000000 
#    y 0.000000 3.494820 0.000000 
#    z 0.000000 0.000000 4.274220 
# 
# 
# High freq. dielectric constant tensor:
#      x y z
#    x 1.650530 0.000000 0.000000 
#    y 0.000000 1.724930 0.000000 
#    z 0.000000 0.000000 1.738400 
# 
# From -- ./inp_files/15382.got.cif
#   From: 2010.03.12/outbox.cif.g09.slc.cpg/sg35_8_cif.got.tgz:15382.got - 2010.04.14 02:02:04.
