data_PCOD8172235
_publ_section_title
;
Structure prediction by ZEFSAII (Michael W. Deem and Ramdas Pophale) SiO2 
 PCOD8172235
Probable space group: C M M 2
;
_chemical_formula_sum "Si O2"
_cell_formula_units_Z 64
_cell_length_a 31.232752
_cell_length_b 8.569917
_cell_length_c 12.042954
_cell_angle_alpha 90.000000
_cell_angle_beta 90.000000
_cell_angle_gamma 90.000000
_cell_volume 3223.442265
_symmetry_space_group_name_H-M "C M M 2"
_symmetry_group_IT_number 35
_symmetry_cell_setting 'orthorhombic'
loop_
_space_group_symop_operation_xyz
x,y,z
-x,-y,z
-x,y,z
x,-y,z
1/2+x,1/2+y,z
1/2-x,1/2-y,z
1/2-x,1/2+y,z
1/2+x,1/2-y,z
loop_
_atom_site_type_symbol
_atom_site_label
_atom_site_fract_x
_atom_site_fract_y
_atom_site_fract_z
Si Si1 0.547097 0.815491 0.348240
Si Si2 0.125798 0.686150 0.489743
Si Si3 0.047115 0.684566 0.881907
Si Si4 0.914414 0.682871 0.115080
Si Si5 0.705587 0.815429 0.883422
Si Si6 0.294351 0.815157 0.346132
Si Si7 0.321722 0.682679 0.114700
Si Si8 0.625789 0.186216 0.740206
O O1 0.500000 0.746970 0.377547
O O2 0.582860 0.746439 0.431458
O O3 0.557969 0.770971 0.221958
O O4 0.546263 0.000000 0.361037
O O5 0.125131 0.500000 0.488214
O O6 0.166994 0.748201 0.422749
O O7 0.127701 0.750653 0.614963
O O8 0.046235 0.500000 0.869673
O O9 0.082767 0.753276 0.798258
O O10 0.000000 0.753043 0.852783
O O11 0.058189 0.729703 0.007967
O O12 0.901791 0.500000 0.114901
O O13 0.871831 0.783631 0.115706
O O14 0.750000 0.750000 0.834105
O O15 0.666884 0.750886 0.807353
O O16 0.706333 0.000000 0.880721
O O17 0.700235 0.759011 0.008584
O O18 0.250000 0.750000 0.396262
O O19 0.299466 0.754782 0.221850
O O20 0.293714 0.000000 0.346006
O O21 0.313021 0.500000 0.112459
O O22 0.625261 0.000000 0.741961
#
# Coordination Sequence:
#
# PCOD8172235 Si02
#       8
#     8   8   8   8   8   8   8   8
#     4   9  16  27  49  81 113 144 180 223 272 326
#     4   9  18  32  51  78 112 147 184 227 271 315
#     4   9  16  27  49  81 113 144 180 223 272 326
#     4  10  17  31  53  81 112 147 181 223 278 325
#     4  11  22  38  58  82 112 145 180 223 275 326
#     4  11  22  38  58  82 112 145 180 223 275 326
#     4  12  23  36  57  84 111 143 182 223 273 332
#     4   9  18  32  51  78 112 147 184 227 271 315
#
# _framework density 19.854551000000001
#
# number of rings (size 3 to 8) (size 9 to 14) (size 15 to 20)
#    0.000    2.000    2.500    2.625    0.000    2.500 
#    0.000    2.500    0.000    3.750    0.000    0.000 
#    0.000    2.000    0.000    0.000    0.000    0.000 
#
# Total GULP energy -396795.721389 kJ/mol
# GULP energy per Si atom -12399.866293 kJ/mol
# Density = 1.980936 g / cm^3
# Si number density = 19.854551 Si / 1000 Ang^3
#
#
#
# Elastic Constant Matrix: (Units=GPa)
#
#
# Indices 1 2 3 4 5 6 
#
# 1 198.4246 13.9021 79.4113 0.0000 0.0000 0.0000
# 2 13.9021 26.4022 3.3041 0.0000 0.0000 0.0000
# 3 79.4113 3.3041 151.8917 0.0000 0.0000 0.0000
# 4 0.0000 0.0000 0.0000 2.7707 0.0000 0.0000
# 5 0.0000 0.0000 0.0000 0.0000 18.3644 0.0000
# 6 0.0000 0.0000 0.0000 0.0000 0.0000 23.9756
#
#
#
# Elastic Compliance Matrix: (Units=1/GPa)
#
#
# Indices 1 2 3 4 5 6 
#
# 1 0.006610 -0.003057 -0.003390 0.000000 0.000000 0.000000
# 2 -0.003057 0.039392 0.000741 0.000000 0.000000 0.000000
# 3 -0.003390 0.000741 0.008340 0.000000 0.000000 0.000000
# 4 0.000000 0.000000 0.000000 0.360917 0.000000 0.000000
# 5 0.000000 0.000000 0.000000 0.000000 0.054453 0.000000
# 6 0.000000 0.000000 0.000000 0.000000 0.000000 0.041709
#
#
# Mechanical properties :
#
#
# Convention : Reuss Voigt Hill
#
# Bulk Modulus (GPa) = 23.29242 63.32816 43.31029
# Shear Modulus (GPa) = 9.30852 27.69555 18.50204
#
# Velocity S-wave (km/s) = 2.16761 3.73892 3.05598
# Velocity P-wave (km/s) = 4.24520 7.11369 5.85774
#
# Compressibility (1/GPa) = 0.04293242
#
# Stress axis : x y z
#
# Youngs Moduli (GPa) = 151.27784 25.38568 119.90977
#
# Poissons Ratio (x) = 0.07759 0.40643
# Poissons Ratio (y) = 0.46238 -0.08886
# Poissons Ratio (z) = 0.51276 -0.01881
#
# Static dielectric constant tensor:
#      x y z
#    x 4.095720 0.000000 0.000000 
#    y 0.000000 3.073460 0.000000 
#    z 0.000000 0.000000 3.864750 
# 
# 
# High freq. dielectric constant tensor:
#      x y z
#    x 1.796000 0.000000 0.000000 
#    y 0.000000 1.718560 0.000000 
#    z 0.000000 0.000000 1.773930 
# 
# From -- ./inp_files/14599.got.cif
#   From: 2010.03.12/outbox.cif.g09.slc.cpg/sg35_8_cif.got.tgz:14599.got - 2010.04.14 02:02:04.
