data_PCOD8172257
_publ_section_title
;
Structure prediction by ZEFSAII (Michael W. Deem and Ramdas Pophale) SiO2 
 PCOD8172257
Probable space group: C M M 2
;
_chemical_formula_sum "Si O2"
_cell_formula_units_Z 56
_cell_length_a 16.432549
_cell_length_b 27.354868
_cell_length_c 7.054788
_cell_angle_alpha 90.000000
_cell_angle_beta 90.000000
_cell_angle_gamma 90.000000
_cell_volume 3171.199227
_symmetry_space_group_name_H-M "C M M 2"
_symmetry_group_IT_number 35
_symmetry_cell_setting 'orthorhombic'
loop_
_space_group_symop_operation_xyz
x,y,z
-x,-y,z
-x,y,z
x,-y,z
1/2+x,1/2+y,z
1/2-x,1/2-y,z
1/2-x,1/2+y,z
1/2+x,1/2-y,z
loop_
_atom_site_type_symbol
_atom_site_label
_atom_site_fract_x
_atom_site_fract_y
_atom_site_fract_z
Si Si1 0.345119 0.185964 0.698880
Si Si2 0.089604 0.586107 0.754997
Si Si3 0.089875 0.556214 0.164465
Si Si4 0.724878 0.303682 0.032782
Si Si5 0.217636 0.554844 0.479377
Si Si6 0.794023 0.845592 0.439107
Si Si7 0.905728 0.793131 0.717630
O O1 0.407589 0.141449 0.677373
O O2 0.280564 0.184359 0.528483
O O3 0.393770 0.235935 0.675288
O O4 0.298709 0.178831 0.899189
O O5 0.161884 0.553678 0.667265
O O6 0.000000 0.564118 0.707728
O O7 0.103230 0.588487 0.979268
O O8 0.099226 0.500000 0.105354
O O9 0.157686 0.571839 0.312721
O O10 0.000000 0.565903 0.252077
O O11 0.750000 0.250000 0.105748
O O12 0.707902 0.338104 0.212944
O O13 0.642516 0.305786 0.909267
O O14 0.254142 0.500000 0.450855
O O15 0.287970 0.595948 0.486578
O O16 0.875996 0.825258 0.537218
O O17 0.000000 0.804906 0.750724
#
# Coordination Sequence:
#
# PCOD8172257 Si02
#       7
#     8   8   8   8   8   8   8
#     4   9  18  31  48  72 101 130 159 189 222 270
#     4  10  18  28  45  69  99 133 161 187 225 272
#     4   9  17  28  42  63  94 130 164 196 228 266
#     4   9  17  31  50  70  95 128 160 189 226 275
#     4  10  20  32  47  68  92 122 163 204 238 276
#     4  10  19  33  52  71  95 127 159 194 235 277
#     4  10  20  33  50  74 100 124 154 193 236 282
#
# _framework density 17.658936000000001
#
# number of rings (size 3 to 8) (size 9 to 14) (size 15 to 20)
#    0.000    2.429    0.000    4.286    0.000    2.000 
#    0.000    0.000    0.000    9.857    0.000    0.000 
#    0.000    0.000    0.000    0.000    0.000    0.000 
#
# Total GULP energy -347076.985211 kJ/mol
# GULP energy per Si atom -12395.606615 kJ/mol
# Density = 1.761874 g / cm^3
# Si number density = 17.658936 Si / 1000 Ang^3
#
#
#
# Elastic Constant Matrix: (Units=GPa)
#
#
# Indices 1 2 3 4 5 6 
#
# 1 72.1331 22.9407 21.4659 0.0000 0.0000 0.0000
# 2 22.9407 79.8856 20.1592 0.0000 0.0000 0.0000
# 3 21.4659 20.1592 79.4439 0.0000 0.0000 0.0000
# 4 0.0000 0.0000 0.0000 21.7913 0.0000 0.0000
# 5 0.0000 0.0000 0.0000 0.0000 11.5039 0.0000
# 6 0.0000 0.0000 0.0000 0.0000 0.0000 -37.3605
#
#
#
# Elastic Compliance Matrix: (Units=1/GPa)
#
#
# Indices 1 2 3 4 5 6 
#
# 1 0.016067 -0.003759 -0.003387 0.000000 0.000000 0.000000
# 2 -0.003759 0.014254 -0.002601 0.000000 0.000000 0.000000
# 3 -0.003387 -0.002601 0.014163 0.000000 0.000000 0.000000
# 4 0.000000 0.000000 0.000000 0.045890 0.000000 0.000000
# 5 0.000000 0.000000 0.000000 0.000000 0.086927 0.000000
# 6 0.000000 0.000000 0.000000 0.000000 0.000000 -0.026766
#
#
# Mechanical properties :
#
#
# Convention : Reuss Voigt Hill
#
# Bulk Modulus (GPa) = 40.01916 40.06601 40.04258
# Shear Modulus (GPa) = 28.03338 10.31341 19.17339
#
# Velocity S-wave (km/s) = 3.98865 2.41930 3.29866
# Velocity P-wave (km/s) = 6.62751 5.52649 6.10189
#
# Compressibility (1/GPa) = 0.02498803
#
# Stress axis : x y z
#
# Youngs Moduli (GPa) = 62.24001 70.15663 70.60724
#
# Poissons Ratio (x) = 0.26373 0.23918
# Poissons Ratio (y) = 0.23397 0.18367
# Poissons Ratio (z) = 0.21083 0.18249
#
# Static dielectric constant tensor:
#      x y z
#    x 3.114170 0.000000 0.000000 
#    y 0.000000 3.202210 0.000000 
#    z 0.000000 0.000000 3.243860 
# 
# 
# High freq. dielectric constant tensor:
#      x y z
#    x 1.647750 0.000000 0.000000 
#    y 0.000000 1.678150 0.000000 
#    z 0.000000 0.000000 1.687540 
# 
# From -- ./inp_files/2071.got.cif
#   From: 2010.03.12/outbox.cif.g09.slc.cpg/sg35_2_cif.got.tgz:2071.got - 2010.04.14 02:02:04.
