data_PCOD8172841
_publ_section_title
;
Structure prediction by ZEFSAII (Michael W. Deem and Ramdas Pophale) SiO2 
 PCOD8172841
Probable space group: C M M 2
;
_chemical_formula_sum "Si O2"
_cell_formula_units_Z 64
_cell_length_a 8.931515
_cell_length_b 18.998865
_cell_length_c 20.501715
_cell_angle_alpha 90.000000
_cell_angle_beta 90.000000
_cell_angle_gamma 90.000000
_cell_volume 3478.908295
_symmetry_space_group_name_H-M "C M M 2"
_symmetry_group_IT_number 35
_symmetry_cell_setting 'orthorhombic'
loop_
_space_group_symop_operation_xyz
x,y,z
-x,-y,z
-x,y,z
x,-y,z
1/2+x,1/2+y,z
1/2-x,1/2-y,z
1/2-x,1/2+y,z
1/2+x,1/2-y,z
loop_
_atom_site_type_symbol
_atom_site_label
_atom_site_fract_x
_atom_site_fract_y
_atom_site_fract_z
Si Si1 0.675637 0.822868 0.910190
Si Si2 0.675788 0.417542 0.806717
Si Si3 0.824076 0.580849 0.294378
Si Si4 0.672603 0.823505 0.553494
Si Si5 0.322735 0.173013 0.695290
Si Si6 0.674426 0.821926 0.061414
Si Si7 0.676274 0.174247 0.412986
Si Si8 0.328704 0.583041 0.163001
O O1 0.500000 0.819025 0.894940
O O2 0.750000 0.750000 0.886477
O O3 0.750144 0.887241 0.872116
O O4 0.709321 0.836423 0.985877
O O5 0.500000 0.401894 0.807531
O O6 0.710689 0.500000 0.803781
O O7 0.749551 0.381346 0.744431
O O8 0.781544 0.500000 0.306233
O O9 0.762553 0.622736 0.357086
O O10 0.742002 0.610965 0.230439
O O11 0.000000 0.590857 0.283989
O O12 0.500000 0.805913 0.552933
O O13 0.750000 0.750000 0.553084
O O14 0.711603 0.860447 0.622750
O O15 0.715073 0.861278 0.484502
O O16 0.500000 0.179288 0.708673
O O17 0.250000 0.250000 0.703607
O O18 0.500000 0.815755 0.075216
O O19 0.750000 0.750000 0.085187
O O20 0.741384 0.886128 0.101633
O O21 0.500000 0.184088 0.405050
O O22 0.750000 0.250000 0.404650
O O23 0.500000 0.607308 0.160283
O O24 0.310420 0.500000 0.158252
#
# Coordination Sequence:
#
# PCOD8172841 Si02
#       8
#     8   8   8   8   8   8   8   8
#     4  10  21  38  60  83 107 136 171 210 253 305
#     4  11  24  39  54  75 106 141 175 214 258 303
#     4   9  18  33  51  70  97 135 175 213 254 304
#     4   8  15  28  47  73 101 129 164 206 253 304
#     4  10  19  33  55  79 104 136 174 215 258 308
#     4  10  21  37  58  83 109 136 168 210 257 305
#     4   9  17  30  49  74 101 129 165 209 257 305
#     4  10  21  36  54  76 104 139 177 216 257 305
#
# _framework density 18.396576
#
# number of rings (size 3 to 8) (size 9 to 14) (size 15 to 20)
#    0.000    2.375    0.000    2.250    0.000    5.250 
#    0.000    4.375    0.000    2.250    0.000    1.750 
#    0.000    0.000    0.000    0.000    0.000    0.000 
#
# Total GULP energy -396637.696005 kJ/mol
# GULP energy per Si atom -12394.928000 kJ/mol
# Density = 1.835470 g / cm^3
# Si number density = 18.396576 Si / 1000 Ang^3
#
#
#
# Elastic Constant Matrix: (Units=GPa)
#
#
# Indices 1 2 3 4 5 6 
#
# 1 88.4148 47.7197 63.5208 0.0000 0.0000 0.0000
# 2 47.7197 79.4885 66.0307 0.0000 0.0000 0.0000
# 3 63.5208 66.0307 143.5501 0.0000 0.0000 0.0000
# 4 0.0000 0.0000 0.0000 16.8384 0.0000 0.0000
# 5 0.0000 0.0000 0.0000 0.0000 28.8115 0.0000
# 6 0.0000 0.0000 0.0000 0.0000 0.0000 28.6093
#
#
#
# Elastic Compliance Matrix: (Units=1/GPa)
#
#
# Indices 1 2 3 4 5 6 
#
# 1 0.018748 -0.007062 -0.005048 0.000000 0.000000 0.000000
# 2 -0.007062 0.023020 -0.007464 0.000000 0.000000 0.000000
# 3 -0.005048 -0.007464 0.012633 0.000000 0.000000 0.000000
# 4 0.000000 0.000000 0.000000 0.059388 0.000000 0.000000
# 5 0.000000 0.000000 0.000000 0.000000 0.034708 0.000000
# 6 0.000000 0.000000 0.000000 0.000000 0.000000 0.034954
#
#
# Mechanical properties :
#
#
# Convention : Reuss Voigt Hill
#
# Bulk Modulus (GPa) = 65.55576 73.99953 69.77764
# Shear Modulus (GPa) = 21.96020 23.79732 22.87876
#
# Velocity S-wave (km/s) = 3.45876 3.60053 3.53036
# Velocity P-wave (km/s) = 7.18769 7.58927 7.39121
#
# Compressibility (1/GPa) = 0.01525419
#
# Stress axis : x y z
#
# Youngs Moduli (GPa) = 53.33777 43.43963 79.15725
#
# Poissons Ratio (x) = 0.30678 0.39956
# Poissons Ratio (y) = 0.37669 0.59083
# Poissons Ratio (z) = 0.26923 0.32423
#
# Static dielectric constant tensor:
#      x y z
#    x 3.434020 0.000000 0.000000 
#    y 0.000000 3.159850 0.000000 
#    z 0.000000 0.000000 3.959490 
# 
# 
# High freq. dielectric constant tensor:
#      x y z
#    x 1.722660 0.000000 0.000000 
#    y 0.000000 1.685950 0.000000 
#    z 0.000000 0.000000 1.735910 
# 
# From -- ./inp_files/18440.got.cif
#   From: 2010.03.12/outbox.cif.g09.slc.cpg/sg35_10_cif.got.tgz:18440.got - 2010.04.14 02:02:04.
