data_PCOD8172073
_publ_section_title
;
Structure prediction by ZEFSAII (Michael W. Deem and Ramdas Pophale) SiO2 
 PCOD8172073
Probable space group: P N N 2
;
_chemical_formula_sum "Si O2"
_cell_formula_units_Z 20
_cell_length_a 7.353560
_cell_length_b 20.218813
_cell_length_c 5.340231
_cell_angle_alpha 90.000000
_cell_angle_beta 90.000000
_cell_angle_gamma 90.000000
_cell_volume 793.986904
_symmetry_space_group_name_H-M "P N N 2"
_symmetry_group_IT_number 34
_symmetry_cell_setting 'orthorhombic'
loop_
_space_group_symop_operation_xyz
x,y,z
-x,-y,z
1/2-x,1/2+y,1/2+z
1/2+x,1/2-y,1/2+z
loop_
_atom_site_type_symbol
_atom_site_label
_atom_site_fract_x
_atom_site_fract_y
_atom_site_fract_z
Si Si1 0.378027 0.611911 0.657550
Si Si2 0.533910 0.813609 0.101332
Si Si3 0.812985 0.189421 0.369336
Si Si4 0.636668 0.092921 0.726995
Si Si5 0.749460 0.448937 0.141610
O O1 0.225017 0.666815 0.727131
O O2 0.578023 0.644737 0.666804
O O3 0.347965 0.588033 0.373701
O O4 0.364093 0.557021 0.881613
O O5 0.386948 0.785464 0.293727
O O6 0.566152 0.754330 0.907982
O O7 0.436434 0.879374 0.990583
O O8 0.777843 0.145500 0.614909
O O9 0.449426 0.080165 0.572025
O O10 0.742899 0.023777 0.744621
#
# Coordination Sequence:
#
# PCOD8172073 Si02
#       5
#     4   4   4   4   4
#     4  11  26  47  77 111 149 193 255 305 379 438
#     4  11  27  47  74 106 152 198 248 309 371 446
#     4  12  27  46  77 107 149 197 253 308 370 446
#     4  10  24  45  76 107 149 199 247 307 382 437
#     4  10  24  48  77 109 152 197 244 315 374 451
#
# _framework density 25.189333000000001
#
# number of rings (size 3 to 8) (size 9 to 14) (size 15 to 20)
#    0.000    1.200    2.000    1.200   11.200    5.600 
#    0.000    0.000    0.000    0.000    0.000    0.000 
#    0.000    0.000    0.000    0.000    0.000    0.000 
#
# Total GULP energy -247855.302398 kJ/mol
# GULP energy per Si atom -12392.765120 kJ/mol
# Density = 2.513200 g / cm^3
# Si number density = 25.189333 Si / 1000 Ang^3
#
#
#
# Elastic Constant Matrix: (Units=GPa)
#
#
# Indices 1 2 3 4 5 6 
#
# 1 103.3608 24.0799 14.6717 0.0000 0.0000 0.0000
# 2 24.0799 104.4991 7.0309 0.0000 0.0000 0.0000
# 3 14.6717 7.0309 80.1217 0.0000 0.0000 0.0000
# 4 0.0000 0.0000 0.0000 30.2553 0.0000 0.0000
# 5 0.0000 0.0000 0.0000 0.0000 27.2819 0.0000
# 6 0.0000 0.0000 0.0000 0.0000 0.0000 27.9708
#
#
#
# Elastic Compliance Matrix: (Units=1/GPa)
#
#
# Indices 1 2 3 4 5 6 
#
# 1 0.010452 -0.002293 -0.001713 0.000000 0.000000 0.000000
# 2 -0.002293 0.010129 -0.000469 0.000000 0.000000 0.000000
# 3 -0.001713 -0.000469 0.012836 0.000000 0.000000 0.000000
# 4 0.000000 0.000000 0.000000 0.033052 0.000000 0.000000
# 5 0.000000 0.000000 0.000000 0.000000 0.036654 0.000000
# 6 0.000000 0.000000 0.000000 0.000000 0.000000 0.035752
#
#
# Mechanical properties :
#
#
# Convention : Reuss Voigt Hill
#
# Bulk Modulus (GPa) = 40.87049 42.17184 41.52117
# Shear Modulus (GPa) = 32.05512 33.24819 32.65166
#
# Velocity S-wave (km/s) = 3.57118 3.63703 3.60425
# Velocity P-wave (km/s) = 5.76758 5.86648 5.81724
#
# Compressibility (1/GPa) = 0.02446753
#
# Stress axis : x y z
#
# Youngs Moduli (GPa) = 95.67331 98.72193 77.90706
#
# Poissons Ratio (x) = 0.22640 0.13344
# Poissons Ratio (y) = 0.21941 0.03653
# Poissons Ratio (z) = 0.16386 0.04630
#
# Static dielectric constant tensor:
#      x y z
#    x 4.936110 0.000000 0.000000 
#    y 0.000000 4.477160 0.000000 
#    z 0.000000 0.000000 4.009740 
# 
# 
# High freq. dielectric constant tensor:
#      x y z
#    x 2.026530 0.000000 0.000000 
#    y 0.000000 2.001490 0.000000 
#    z 0.000000 0.000000 1.981090 
# 
# From -- ./inp_files/424.got.cif
#   From: 2010.03.12/outbox.cif.g09.slc.cpg/sg34_1_cif.got.tgz:424.got - 2010.04.14 01:56:33.
