data_PCOD8172979
_publ_section_title
;
Structure prediction by ZEFSAII (Michael W. Deem and Ramdas Pophale) SiO2 
 PCOD8172979
Probable space group: C M M 2
;
_chemical_formula_sum "Si O2"
_cell_formula_units_Z 64
_cell_length_a 30.486279
_cell_length_b 9.191396
_cell_length_c 15.260278
_cell_angle_alpha 90.000000
_cell_angle_beta 90.000000
_cell_angle_gamma 90.000000
_cell_volume 4276.104822
_symmetry_space_group_name_H-M "C M M 2"
_symmetry_group_IT_number 35
_symmetry_cell_setting 'orthorhombic'
loop_
_space_group_symop_operation_xyz
x,y,z
-x,-y,z
-x,y,z
x,-y,z
1/2+x,1/2+y,z
1/2-x,1/2-y,z
1/2-x,1/2+y,z
1/2+x,1/2-y,z
loop_
_atom_site_type_symbol
_atom_site_label
_atom_site_fract_x
_atom_site_fract_y
_atom_site_fract_z
Si Si1 0.449572 0.670168 0.245050
Si Si2 0.710137 0.169696 0.909983
Si Si3 0.789591 0.168861 0.094793
Si Si4 0.052246 0.337313 0.416103
Si Si5 0.613547 0.331637 0.091357
Si Si6 0.552078 0.661262 0.579859
Si Si7 0.612762 0.831083 0.908763
Si Si8 0.550732 0.670366 0.775239
O O1 0.500000 0.710855 0.226221
O O2 0.443536 0.500000 0.261898
O O3 0.431389 0.750022 0.331244
O O4 0.421719 0.723521 0.161904
O O5 0.750000 0.250000 0.855984
O O6 0.661832 0.190702 0.868289
O O7 0.721339 0.000000 0.921129
O O8 0.708140 0.251107 0.002160
O O9 0.750000 0.250000 0.148905
O O10 0.838121 0.188010 0.135769
O O11 0.777477 0.000000 0.084078
O O12 0.070797 0.500000 0.410203
O O13 0.071583 0.265968 0.504880
O O14 0.000000 0.335467 0.419676
O O15 0.605765 0.500000 0.066565
O O16 0.607352 0.239586 0.003891
O O17 0.500000 0.653633 0.573042
O O18 0.571415 0.500000 0.564436
O O19 0.564819 0.717607 0.676810
O O20 0.578875 0.761394 0.842588
O O21 0.601869 0.000000 0.919615
O O22 0.500000 0.707182 0.792120
O O23 0.559503 0.500000 0.788910
#
# Coordination Sequence:
#
# PCOD8172979 Si02
#       8
#     8   8   8   8   8   8   8   8
#     4   9  17  29  43  57  76 106 141 171 197 230
#     4   9  16  26  40  58  78 101 131 166 206 248
#     4   9  15  24  39  57  76  98 127 165 207 245
#     4   9  16  25  39  60  82 102 126 161 206 247
#     4   9  18  30  42  57  79 109 143 174 201 234
#     4   8  14  26  43  60  77 100 132 168 203 238
#     4  10  20  30  41  60  85 111 139 173 211 246
#     4   9  18  31  45  60  80 110 146 176 200 235
#
# _framework density 14.966892
#
# number of rings (size 3 to 8) (size 9 to 14) (size 15 to 20)
#    0.000    3.000    0.000    3.000    0.000    5.250 
#    0.000    2.500    0.000    0.000    0.000    0.000 
#    0.000    1.000    0.000    9.000    0.000    5.625 
#
# Total GULP energy -396484.678608 kJ/mol
# GULP energy per Si atom -12390.146206 kJ/mol
# Density = 1.493283 g / cm^3
# Si number density = 14.966892 Si / 1000 Ang^3
#
#
#
# Elastic Constant Matrix: (Units=GPa)
#
#
# Indices 1 2 3 4 5 6 
#
# 1 75.9201 49.1815 51.9565 0.0000 0.0000 0.0000
# 2 49.1815 96.1209 56.2276 0.0000 0.0000 0.0000
# 3 51.9565 56.2276 96.3225 0.0000 0.0000 0.0000
# 4 0.0000 0.0000 0.0000 6.9278 0.0000 0.0000
# 5 0.0000 0.0000 0.0000 0.0000 -0.3090 0.0000
# 6 0.0000 0.0000 0.0000 0.0000 0.0000 21.5863
#
#
#
# Elastic Compliance Matrix: (Units=1/GPa)
#
#
# Indices 1 2 3 4 5 6 
#
# 1 0.023652 -0.007044 -0.008646 0.000000 0.000000 0.000000
# 2 -0.007044 0.017896 -0.006647 0.000000 0.000000 0.000000
# 3 -0.008646 -0.006647 0.018926 0.000000 0.000000 0.000000
# 4 0.000000 0.000000 0.000000 0.144345 0.000000 0.000000
# 5 0.000000 0.000000 0.000000 0.000000 -3.235928 0.000000
# 6 0.000000 0.000000 0.000000 0.000000 0.000000 0.046326
#
#
# Mechanical properties :
#
#
# Convention : Reuss Voigt Hill
#
# Bulk Modulus (GPa) = 63.29405 64.78830 64.04117
# Shear Modulus (GPa) = -1.70367 13.04089 5.66861
#
# Velocity S-wave (km/s) = -1.06806 2.95501 1.94824
# Velocity P-wave (km/s) = 6.39220 7.41785 6.92404
#
# Compressibility (1/GPa) = 0.01579927
#
# Stress axis : x y z
#
# Youngs Moduli (GPa) = 42.27992 55.87789 52.83858
#
# Poissons Ratio (x) = 0.39362 0.45683
# Poissons Ratio (y) = 0.29783 0.35122
# Poissons Ratio (z) = 0.36555 0.37143
#
# Static dielectric constant tensor:
#      x y z
#    x 3.356020 0.000000 0.000000 
#    y 0.000000 3.039420 0.000000 
#    z 0.000000 0.000000 2.730260 
# 
# 
# High freq. dielectric constant tensor:
#      x y z
#    x 1.552450 0.000000 0.000000 
#    y 0.000000 1.584780 0.000000 
#    z 0.000000 0.000000 1.539770 
# 
# From -- ./inp_files/17766.got.cif
#   From: 2010.03.12/outbox.cif.g09.slc.cpg/sg35_9_cif.got.tgz:17766.got - 2010.04.14 02:02:04.
