data_PCOD8172491
_publ_section_title
;
Structure prediction by ZEFSAII (Michael W. Deem and Ramdas Pophale) SiO2 
 PCOD8172491
Probable space group: C M M 2
;
_chemical_formula_sum "Si O2"
_cell_formula_units_Z 56
_cell_length_a 25.779534
_cell_length_b 8.849349
_cell_length_c 14.573477
_cell_angle_alpha 90.000000
_cell_angle_beta 90.000000
_cell_angle_gamma 90.000000
_cell_volume 3324.677816
_symmetry_space_group_name_H-M "C M M 2"
_symmetry_group_IT_number 35
_symmetry_cell_setting 'orthorhombic'
loop_
_space_group_symop_operation_xyz
x,y,z
-x,-y,z
-x,y,z
x,-y,z
1/2+x,1/2+y,z
1/2-x,1/2-y,z
1/2-x,1/2+y,z
1/2+x,1/2-y,z
loop_
_atom_site_type_symbol
_atom_site_label
_atom_site_fract_x
_atom_site_fract_y
_atom_site_fract_z
Si Si1 0.104607 0.321580 0.679290
Si Si2 0.557504 0.335286 0.832300
Si Si3 0.695047 0.176919 0.818656
Si Si4 0.061233 0.668689 0.321210
Si Si5 0.560426 0.321990 0.507629
Si Si6 0.120251 0.674126 0.973580
Si Si7 0.940287 0.177991 0.134228
O O1 0.095569 0.500000 0.682165
O O2 0.058698 0.228650 0.729012
O O3 0.157072 0.274411 0.734600
O O4 0.100703 0.263387 0.575132
O O5 0.500000 0.365829 0.864229
O O6 0.586432 0.500000 0.841383
O O7 0.578415 0.200136 0.894539
O O8 0.750000 0.250000 0.800348
O O9 0.673709 0.222658 0.921048
O O10 0.702173 0.000000 0.815944
O O11 0.085184 0.500000 0.328241
O O12 0.078920 0.769755 0.406990
O O13 0.079980 0.746950 0.227677
O O14 0.000000 0.658589 0.319343
O O15 0.500000 0.276583 0.525014
O O16 0.568119 0.500000 0.516503
O O17 0.120966 0.500000 0.004384
O O18 0.102814 0.775840 0.059064
O O19 0.000000 0.228336 0.109760
O O20 0.938684 0.000000 0.146223
#
# Coordination Sequence:
#
# PCOD8172491 Si02
#       7
#     8   8   8   8   8   8   8
#     4  10  20  32  46  67  92 119 154 191 230 278
#     4  10  19  29  41  61  90 122 154 186 222 267
#     4   9  20  36  52  70  91 116 150 194 239 284
#     4   9  17  29  45  65  92 129 166 197 231 267
#     4  10  19  30  45  68  98 130 163 196 228 267
#     4  10  20  32  46  67  92 119 154 191 230 278
#     4  10  19  30  45  68  98 130 163 196 228 267
#
# _framework density 16.843737000000001
#
# number of rings (size 3 to 8) (size 9 to 14) (size 15 to 20)
#    0.000    2.286    0.000    4.286    0.000   11.429 
#    0.000    0.000    0.000    0.000    0.000    1.000 
#    0.000    0.000    0.000    0.000    0.000    0.000 
#
# Total GULP energy -346878.966747 kJ/mol
# GULP energy per Si atom -12388.534527 kJ/mol
# Density = 1.680540 g / cm^3
# Si number density = 16.843737 Si / 1000 Ang^3
#
#
#
# Elastic Constant Matrix: (Units=GPa)
#
#
# Indices 1 2 3 4 5 6 
#
# 1 63.0128 27.1928 32.1602 0.0000 0.0000 0.0000
# 2 27.1928 72.8499 28.4402 0.0000 0.0000 0.0000
# 3 32.1602 28.4402 105.0640 0.0000 0.0000 0.0000
# 4 0.0000 0.0000 0.0000 30.6101 0.0000 0.0000
# 5 0.0000 0.0000 0.0000 0.0000 16.3328 0.0000
# 6 0.0000 0.0000 0.0000 0.0000 0.0000 20.8832
#
#
#
# Elastic Compliance Matrix: (Units=1/GPa)
#
#
# Indices 1 2 3 4 5 6 
#
# 1 0.020867 -0.005921 -0.004785 0.000000 0.000000 0.000000
# 2 -0.005921 0.017029 -0.002797 0.000000 0.000000 0.000000
# 3 -0.004785 -0.002797 0.011740 0.000000 0.000000 0.000000
# 4 0.000000 0.000000 0.000000 0.032669 0.000000 0.000000
# 5 0.000000 0.000000 0.000000 0.000000 0.061227 0.000000
# 6 0.000000 0.000000 0.000000 0.000000 0.000000 0.047885
#
#
# Mechanical properties :
#
#
# Convention : Reuss Voigt Hill
#
# Bulk Modulus (GPa) = 44.18932 46.27924 45.23428
# Shear Modulus (GPa) = 22.12723 23.77411 22.95067
#
# Velocity S-wave (km/s) = 3.62840 3.76100 3.69530
# Velocity P-wave (km/s) = 6.62160 6.81142 6.71718
#
# Compressibility (1/GPa) = 0.02262990
#
# Stress axis : x y z
#
# Youngs Moduli (GPa) = 47.92263 58.72312 85.18061
#
# Poissons Ratio (x) = 0.34771 0.40755
# Poissons Ratio (y) = 0.28376 0.23827
# Poissons Ratio (z) = 0.22929 0.16426
#
# Static dielectric constant tensor:
#      x y z
#    x 3.132240 0.000000 0.000000 
#    y 0.000000 3.482470 0.000000 
#    z 0.000000 0.000000 3.339550 
# 
# 
# High freq. dielectric constant tensor:
#      x y z
#    x 1.592810 0.000000 0.000000 
#    y 0.000000 1.667810 0.000000 
#    z 0.000000 0.000000 1.653220 
# 
# From -- ./inp_files/17699.got.cif
#   From: 2010.03.12/outbox.cif.g09.slc.cpg/sg35_9_cif.got.tgz:17699.got - 2010.04.14 02:02:04.
