data_PCOD8172198
_publ_section_title
;
Structure prediction by ZEFSAII (Michael W. Deem and Ramdas Pophale) SiO2 
 PCOD8172198
Probable space group: C M M 2
;
_chemical_formula_sum "Si O2"
_cell_formula_units_Z 64
_cell_length_a 8.977158
_cell_length_b 30.123904
_cell_length_c 15.251980
_cell_angle_alpha 90.000000
_cell_angle_beta 90.000000
_cell_angle_gamma 90.000000
_cell_volume 4124.547894
_symmetry_space_group_name_H-M "C M M 2"
_symmetry_group_IT_number 35
_symmetry_cell_setting 'orthorhombic'
loop_
_space_group_symop_operation_xyz
x,y,z
-x,-y,z
-x,y,z
x,-y,z
1/2+x,1/2+y,z
1/2-x,1/2-y,z
1/2-x,1/2+y,z
1/2+x,1/2-y,z
loop_
_atom_site_type_symbol
_atom_site_label
_atom_site_fract_x
_atom_site_fract_y
_atom_site_fract_z
Si Si1 0.325170 0.882471 0.779690
Si Si2 0.169077 0.388788 0.983419
Si Si3 0.832546 0.447229 0.481077
Si Si4 0.825285 0.949683 0.118427
Si Si5 0.830987 0.447479 0.289409
Si Si6 0.822600 0.206338 0.784258
Si Si7 0.671048 0.447602 0.652888
Si Si8 0.326710 0.790971 0.972308
O O1 0.500000 0.874989 0.766639
O O2 0.286848 0.890597 0.881447
O O3 0.239804 0.839137 0.741639
O O4 0.270742 0.925423 0.727496
O O5 0.000000 0.404876 0.996901
O O6 0.276143 0.421275 0.035377
O O7 0.188060 0.338376 0.020665
O O8 0.833966 0.500000 0.478887
O O9 0.777320 0.429721 0.385217
O O10 0.723182 0.430134 0.557235
O O11 0.000000 0.429900 0.499873
O O12 0.764858 0.928019 0.208996
O O13 0.000000 0.948831 0.123988
O O14 0.765941 0.000000 0.105984
O O15 0.814688 0.500000 0.289035
O O16 0.000000 0.432623 0.273580
O O17 0.750000 0.250000 0.737668
O O18 0.000000 0.207961 0.776144
O O19 0.769153 0.206109 0.884225
O O20 0.500000 0.434203 0.665737
O O21 0.695632 0.500000 0.661377
O O22 0.500000 0.781156 0.950952
O O23 0.250000 0.750000 0.026886
#
# Coordination Sequence:
#
# PCOD8172198 Si02
#       8
#     8   8   8   8   8   8   8   8
#     4  10  20  33  46  61  83 114 152 187 217 252
#     4   9  19  32  44  59  81 112 148 180 210 249
#     4   8  14  26  44  63  81 105 138 174 213 256
#     4  10  20  30  41  60  85 113 145 180 216 252
#     4   8  14  26  44  62  80 105 137 173 214 257
#     4  10  17  27  44  64  85 108 136 173 218 262
#     4  10  20  31  43  62  88 117 147 180 218 257
#     4   9  16  27  43  63  83 105 136 173 215 259
#
# _framework density 15.516852999999999
#
# number of rings (size 3 to 8) (size 9 to 14) (size 15 to 20)
#    0.000    2.750    0.000    4.875    0.000    5.500 
#    0.000    5.000    0.000    0.000    0.000    0.000 
#    0.000    1.000    0.000    5.250    0.000    5.000 
#
# Total GULP energy -396536.273909 kJ/mol
# GULP energy per Si atom -12391.758560 kJ/mol
# Density = 1.548154 g / cm^3
# Si number density = 15.516853 Si / 1000 Ang^3
#
#
#
# Elastic Constant Matrix: (Units=GPa)
#
#
# Indices 1 2 3 4 5 6 
#
# 1 92.2584 38.7256 41.7063 0.0000 0.0000 0.0000
# 2 38.7256 61.4974 38.1374 0.0000 0.0000 0.0000
# 3 41.7063 38.1374 75.0438 0.0000 0.0000 0.0000
# 4 0.0000 0.0000 0.0000 0.7052 0.0000 0.0000
# 5 0.0000 0.0000 0.0000 0.0000 22.3070 0.0000
# 6 0.0000 0.0000 0.0000 0.0000 0.0000 25.9732
#
#
#
# Elastic Compliance Matrix: (Units=1/GPa)
#
#
# Indices 1 2 3 4 5 6 
#
# 1 0.016186 -0.006737 -0.005572 0.000000 0.000000 0.000000
# 2 -0.006737 0.026548 -0.009748 0.000000 0.000000 0.000000
# 3 -0.005572 -0.009748 0.021376 0.000000 0.000000 0.000000
# 4 0.000000 0.000000 0.000000 1.418009 0.000000 0.000000
# 5 0.000000 0.000000 0.000000 0.000000 0.044829 0.000000
# 6 0.000000 0.000000 0.000000 0.000000 0.000000 0.038501
#
#
# Mechanical properties :
#
#
# Convention : Reuss Voigt Hill
#
# Bulk Modulus (GPa) = 50.00728 51.77090 50.88909
# Shear Modulus (GPa) = 3.09362 17.14575 10.11969
#
# Velocity S-wave (km/s) = 1.41352 3.32772 2.55654
# Velocity P-wave (km/s) = 5.91285 6.94275 6.44839
#
# Compressibility (1/GPa) = 0.01999709
#
# Stress axis : x y z
#
# Youngs Moduli (GPa) = 61.78281 37.66718 46.78192
#
# Poissons Ratio (x) = 0.25377 0.26065
# Poissons Ratio (y) = 0.41624 0.45601
# Poissons Ratio (z) = 0.34423 0.36717
#
# Static dielectric constant tensor:
#      x y z
#    x 3.059560 0.000000 0.000000 
#    y 0.000000 3.173040 0.000000 
#    z 0.000000 0.000000 3.024370 
# 
# 
# High freq. dielectric constant tensor:
#      x y z
#    x 1.606910 0.000000 0.000000 
#    y 0.000000 1.570670 0.000000 
#    z 0.000000 0.000000 1.564230 
# 
# From -- ./inp_files/16164.got.cif
#   From: 2010.03.12/outbox.cif.g09.slc.cpg/sg35_9_cif.got.tgz:16164.got - 2010.04.14 02:02:04.
