data_PCOD8172319
_publ_section_title
;
Structure prediction by ZEFSAII (Michael W. Deem and Ramdas Pophale) SiO2 
 PCOD8172319
Probable space group: C M M 2
;
_chemical_formula_sum "Si O2"
_cell_formula_units_Z 64
_cell_length_a 28.461651
_cell_length_b 8.717844
_cell_length_c 15.647549
_cell_angle_alpha 90.000000
_cell_angle_beta 90.000000
_cell_angle_gamma 90.000000
_cell_volume 3882.536100
_symmetry_space_group_name_H-M "C M M 2"
_symmetry_group_IT_number 35
_symmetry_cell_setting 'orthorhombic'
loop_
_space_group_symop_operation_xyz
x,y,z
-x,-y,z
-x,y,z
x,-y,z
1/2+x,1/2+y,z
1/2-x,1/2-y,z
1/2-x,1/2+y,z
1/2+x,1/2-y,z
loop_
_atom_site_type_symbol
_atom_site_label
_atom_site_fract_x
_atom_site_fract_y
_atom_site_fract_z
Si Si1 0.388391 0.680107 0.752790
Si Si2 0.201043 0.818407 0.008856
Si Si3 0.947397 0.319491 0.236671
Si Si4 0.055936 0.829486 0.407263
Si Si5 0.947580 0.182953 0.593111
Si Si6 0.945154 0.822880 0.922182
Si Si7 0.110113 0.319314 0.074903
Si Si8 0.798828 0.681391 0.824083
O O1 0.377332 0.500000 0.747931
O O2 0.413197 0.742396 0.667072
O O3 0.422440 0.718343 0.831509
O O4 0.339878 0.772858 0.759149
O O5 0.250000 0.750000 0.043199
O O6 0.159682 0.768243 0.072105
O O7 0.204873 0.000000 0.003474
O O8 0.188764 0.753488 0.915655
O O9 0.949805 0.500000 0.231585
O O10 0.925509 0.272544 0.328404
O O11 0.915313 0.256652 0.160080
O O12 0.000000 0.250314 0.226059
O O13 0.072164 0.763340 0.499902
O O14 0.000000 0.832212 0.409186
O O15 0.076087 0.000000 0.393377
O O16 0.000000 0.248970 0.609516
O O17 0.950192 0.000000 0.594255
O O18 0.000000 0.785564 0.916090
O O19 0.935855 0.000000 0.945886
O O20 0.922350 0.716921 0.993986
O O21 0.119425 0.500000 0.078200
O O22 0.794398 0.500000 0.833446
O O23 0.750000 0.750000 0.789079
#
# Coordination Sequence:
#
# PCOD8172319 Si02
#       8
#     8   8   8   8   8   8   8   8
#     4  10  18  30  48  70  97 128 161 196 236 283
#     4  11  21  35  53  72  93 120 156 199 243 287
#     4   9  18  31  46  66  95 130 163 196 238 282
#     4   8  14  26  45  68  92 121 160 202 238 274
#     4   8  14  26  46  71  98 128 161 196 234 278
#     4  10  20  31  44  65  95 131 167 197 228 274
#     4  11  21  33  48  68  95 129 163 198 239 284
#     4  11  21  34  51  70  93 122 158 200 242 284
#
# _framework density 16.484072000000001
#
# number of rings (size 3 to 8) (size 9 to 14) (size 15 to 20)
#    0.000    2.250    1.250    4.875    0.000    3.250 
#    0.000    1.875    0.000    1.875    0.000    0.875 
#    0.000    6.000    0.000    0.000    0.000    0.000 
#
# Total GULP energy -396753.349597 kJ/mol
# GULP energy per Si atom -12398.542175 kJ/mol
# Density = 1.644655 g / cm^3
# Si number density = 16.484072 Si / 1000 Ang^3
#
#
#
# Elastic Constant Matrix: (Units=GPa)
#
#
# Indices 1 2 3 4 5 6 
#
# 1 108.8222 35.2175 62.2747 0.0000 0.0000 0.0000
# 2 35.2175 68.9149 34.2204 0.0000 0.0000 0.0000
# 3 62.2747 34.2204 130.5893 0.0000 0.0000 0.0000
# 4 0.0000 0.0000 0.0000 18.2321 0.0000 0.0000
# 5 0.0000 0.0000 0.0000 0.0000 13.2456 0.0000
# 6 0.0000 0.0000 0.0000 0.0000 0.0000 21.8280
#
#
#
# Elastic Compliance Matrix: (Units=1/GPa)
#
#
# Indices 1 2 3 4 5 6 
#
# 1 0.013667 -0.004309 -0.005389 0.000000 0.000000 0.000000
# 2 -0.004309 0.018040 -0.002673 0.000000 0.000000 0.000000
# 3 -0.005389 -0.002673 0.010928 0.000000 0.000000 0.000000
# 4 0.000000 0.000000 0.000000 0.054848 0.000000 0.000000
# 5 0.000000 0.000000 0.000000 0.000000 0.075497 0.000000
# 6 0.000000 0.000000 0.000000 0.000000 0.000000 0.045813
#
#
# Mechanical properties :
#
#
# Convention : Reuss Voigt Hill
#
# Bulk Modulus (GPa) = 55.88135 63.52795 59.70465
# Shear Modulus (GPa) = 20.04033 22.43539 21.23786
#
# Velocity S-wave (km/s) = 3.49053 3.69322 3.59330
# Velocity P-wave (km/s) = 7.08653 7.53719 7.31533
#
# Compressibility (1/GPa) = 0.01789506
#
# Stress axis : x y z
#
# Youngs Moduli (GPa) = 73.16715 55.43369 91.51174
#
# Poissons Ratio (x) = 0.23885 0.49311
# Poissons Ratio (y) = 0.31525 0.24457
# Poissons Ratio (z) = 0.39426 0.14815
#
# Static dielectric constant tensor:
#      x y z
#    x 3.131560 0.000000 0.000000 
#    y 0.000000 2.988090 0.000000 
#    z 0.000000 0.000000 3.272780 
# 
# 
# High freq. dielectric constant tensor:
#      x y z
#    x 1.618310 0.000000 0.000000 
#    y 0.000000 1.626050 0.000000 
#    z 0.000000 0.000000 1.624310 
# 
# From -- ./inp_files/16132.got.cif
#   From: 2010.03.12/outbox.cif.g09.slc.cpg/sg35_9_cif.got.tgz:16132.got - 2010.04.14 02:02:04.
