data_PCOD8172534
_publ_section_title
;
Structure prediction by ZEFSAII (Michael W. Deem and Ramdas Pophale) SiO2 
 PCOD8172534
Probable space group: C M M 2
;
_chemical_formula_sum "Si O2"
_cell_formula_units_Z 56
_cell_length_a 8.674832
_cell_length_b 23.711762
_cell_length_c 15.311181
_cell_angle_alpha 90.000000
_cell_angle_beta 90.000000
_cell_angle_gamma 90.000000
_cell_volume 3149.441824
_symmetry_space_group_name_H-M "C M M 2"
_symmetry_group_IT_number 35
_symmetry_cell_setting 'orthorhombic'
loop_
_space_group_symop_operation_xyz
x,y,z
-x,-y,z
-x,y,z
x,-y,z
1/2+x,1/2+y,z
1/2-x,1/2-y,z
1/2-x,1/2+y,z
1/2+x,1/2-y,z
loop_
_atom_site_type_symbol
_atom_site_label
_atom_site_fract_x
_atom_site_fract_y
_atom_site_fract_z
Si Si1 0.680352 0.933827 0.143650
Si Si2 0.680991 0.935474 0.787101
Si Si3 0.327987 0.433338 0.964924
Si Si4 0.174192 0.500000 0.381293
Si Si5 0.319985 0.395558 0.306779
Si Si6 0.176377 0.000000 0.551429
Si Si7 0.820830 0.385811 0.608539
Si Si8 0.680144 0.688903 0.460549
O O1 0.500000 0.925138 0.158994
O O2 0.778758 0.889276 0.204081
O O3 0.727647 0.000000 0.157994
O O4 0.721260 0.914653 0.045296
O O5 0.500000 0.938012 0.802819
O O6 0.760015 0.910622 0.873590
O O7 0.721694 0.889390 0.711502
O O8 0.737792 0.000000 0.763087
O O9 0.500000 0.409169 0.977892
O O10 0.330300 0.500000 0.957894
O O11 0.198350 0.445146 0.323992
O O12 0.318505 0.500000 0.447342
O O13 0.000000 0.500000 0.420344
O O14 0.500000 0.410402 0.319137
O O15 0.273596 0.345103 0.372597
O O16 0.274663 0.053351 0.576164
O O17 0.000000 0.000000 0.585548
O O18 0.732857 0.339114 0.551872
O O19 0.000000 0.374901 0.593300
O O20 0.500000 0.694830 0.467678
O O21 0.750000 0.750000 0.450589
#
# Coordination Sequence:
#
# PCOD8172534 Si02
#       8
#     8   8   8   4   8   4   8   8
#     4  10  19  30  47  73 105 142 179 212 254 311
#     4   9  17  30  47  72 105 141 177 212 255 309
#     4   9  17  28  43  67 102 143 178 212 255 302
#     4  12  22  32  50  75 104 139 174 210 260 316
#     4  11  22  35  53  77 106 137 174 220 264 312
#     4  12  22  32  48  75 108 139 174 216 262 314
#     4  11  21  35  55  78 106 141 179 219 265 318
#     4  11  25  42  58  77 103 138 179 224 271 317
#
# _framework density 17.780927999999999
#
# number of rings (size 3 to 8) (size 9 to 14) (size 15 to 20)
#    0.000    1.571    2.857    3.429    0.000    5.143 
#    0.000    0.000    0.000    0.000    0.000    1.000 
#    0.000    2.286    0.000    0.000    0.000    0.000 
#
# Total GULP energy -346897.747900 kJ/mol
# GULP energy per Si atom -12389.205282 kJ/mol
# Density = 1.774046 g / cm^3
# Si number density = 17.780928 Si / 1000 Ang^3
#
#
#
# Elastic Constant Matrix: (Units=GPa)
#
#
# Indices 1 2 3 4 5 6 
#
# 1 73.5860 37.1288 52.8865 0.0000 0.0000 0.0000
# 2 37.1288 81.6896 49.0171 0.0000 0.0000 0.0000
# 3 52.8865 49.0171 137.7474 0.0000 0.0000 0.0000
# 4 0.0000 0.0000 0.0000 23.1352 0.0000 0.0000
# 5 0.0000 0.0000 0.0000 0.0000 34.0658 0.0000
# 6 0.0000 0.0000 0.0000 0.0000 0.0000 -112.0721
#
#
#
# Elastic Compliance Matrix: (Units=1/GPa)
#
#
# Indices 1 2 3 4 5 6 
#
# 1 0.020806 -0.005929 -0.005878 0.000000 0.000000 0.000000
# 2 -0.005929 0.017255 -0.003864 0.000000 0.000000 0.000000
# 3 -0.005878 -0.003864 0.010891 0.000000 0.000000 0.000000
# 4 0.000000 0.000000 0.000000 0.043224 0.000000 0.000000
# 5 0.000000 0.000000 0.000000 0.000000 0.029355 0.000000
# 6 0.000000 0.000000 0.000000 0.000000 0.000000 -0.008923
#
#
# Mechanical properties :
#
#
# Convention : Reuss Voigt Hill
#
# Bulk Modulus (GPa) = 56.78668 63.45419 60.12044
# Shear Modulus (GPa) = 33.37323 -0.70818 16.33252
#
# Velocity S-wave (km/s) = 4.33703 -0.63178 3.03403
# Velocity P-wave (km/s) = 7.55553 5.93565 6.79404
#
# Compressibility (1/GPa) = 0.01760976
#
# Stress axis : x y z
#
# Youngs Moduli (GPa) = 48.06304 57.95532 91.81562
#
# Poissons Ratio (x) = 0.34364 0.53972
# Poissons Ratio (y) = 0.28498 0.35473
# Poissons Ratio (z) = 0.28253 0.22391
#
# Static dielectric constant tensor:
#      x y z
#    x 3.317240 0.000000 0.000000 
#    y 0.000000 2.683490 0.000000 
#    z 0.000000 0.000000 3.829070 
# 
# 
# High freq. dielectric constant tensor:
#      x y z
#    x 1.701440 0.000000 0.000000 
#    y 0.000000 1.619360 0.000000 
#    z 0.000000 0.000000 1.707680 
# 
# From -- ./inp_files/15778.got.cif
#   From: 2010.03.12/outbox.cif.g09.slc.cpg/sg35_8_cif.got.tgz:15778.got - 2010.04.14 02:02:04.
