data_PCOD8172719
_publ_section_title
;
Structure prediction by ZEFSAII (Michael W. Deem and Ramdas Pophale) SiO2 
 PCOD8172719
Probable space group: C M M 2
;
_chemical_formula_sum "Si O2"
_cell_formula_units_Z 48
_cell_length_a 15.610270
_cell_length_b 8.644353
_cell_length_c 17.285812
_cell_angle_alpha 90.000000
_cell_angle_beta 90.000000
_cell_angle_gamma 90.000000
_cell_volume 2332.559300
_symmetry_space_group_name_H-M "C M M 2"
_symmetry_group_IT_number 35
_symmetry_cell_setting 'orthorhombic'
loop_
_space_group_symop_operation_xyz
x,y,z
-x,-y,z
-x,y,z
x,-y,z
1/2+x,1/2+y,z
1/2-x,1/2-y,z
1/2-x,1/2+y,z
1/2+x,1/2-y,z
loop_
_atom_site_type_symbol
_atom_site_label
_atom_site_fract_x
_atom_site_fract_y
_atom_site_fract_z
Si Si1 0.000000 0.680540 0.824900
Si Si2 0.661595 0.318099 0.738320
Si Si3 0.157185 0.315779 0.256971
Si Si4 0.099026 0.316375 0.585303
Si Si5 0.344120 0.681253 0.102094
Si Si6 0.000000 0.179281 0.989823
Si Si7 0.100341 0.330339 0.418069
O O1 0.915914 0.751566 0.787228
O O2 0.000000 0.500000 0.807322
O O3 0.000000 0.712093 0.915568
O O4 0.662559 0.500000 0.747218
O O5 0.750000 0.250000 0.771954
O O6 0.655021 0.271758 0.648275
O O7 0.149920 0.500000 0.258829
O O8 0.250000 0.250000 0.243770
O O9 0.111017 0.252876 0.179835
O O10 0.124212 0.241330 0.338479
O O11 0.113593 0.500000 0.590869
O O12 0.129056 0.253506 0.499746
O O13 0.000000 0.275641 0.600558
O O14 0.331897 0.500000 0.114802
O O15 0.250000 0.750000 0.081094
O O16 0.412707 0.718330 0.035513
O O17 0.000000 0.000000 0.965007
O O18 0.143276 0.500000 0.413184
O O19 0.000000 0.349750 0.422680
#
# Coordination Sequence:
#
# PCOD8172719 Si02
#       7
#     4   8   8   8   8   4   8
#     4  12  26  46  70  97 128 159 198 249 308 371
#     4  12  25  42  66  95 128 165 208 252 305 367
#     4  10  19  32  52  77 112 153 198 246 297 349
#     4   9  17  34  59  84 119 162 206 254 308 362
#     4  10  21  39  61  87 121 158 198 245 300 356
#     4  10  24  44  66  91 122 159 194 239 304 367
#     4   8  16  30  50  79 112 153 200 247 295 345
#
# _framework density 20.578254000000001
#
# number of rings (size 3 to 8) (size 9 to 14) (size 15 to 20)
#    0.000    2.000    0.833    5.250    1.167    2.667 
#    0.000    5.000    0.000    2.000    0.000    0.000 
#    0.000    0.000    0.000    0.000    0.000    0.000 
#
# Total GULP energy -297382.273787 kJ/mol
# GULP energy per Si atom -12390.928074 kJ/mol
# Density = 2.053142 g / cm^3
# Si number density = 20.578254 Si / 1000 Ang^3
#
#
#
# Elastic Constant Matrix: (Units=GPa)
#
#
# Indices 1 2 3 4 5 6 
#
# 1 107.7223 46.8429 56.9775 0.0000 0.0000 0.0000
# 2 46.8429 110.2565 52.9109 0.0000 0.0000 0.0000
# 3 56.9775 52.9109 146.1856 0.0000 0.0000 0.0000
# 4 0.0000 0.0000 0.0000 46.4124 0.0000 0.0000
# 5 0.0000 0.0000 0.0000 0.0000 1.0780 0.0000
# 6 0.0000 0.0000 0.0000 0.0000 0.0000 23.6670
#
#
#
# Elastic Compliance Matrix: (Units=1/GPa)
#
#
# Indices 1 2 3 4 5 6 
#
# 1 0.012826 -0.003691 -0.003663 0.000000 0.000000 0.000000
# 2 -0.003691 0.012039 -0.002919 0.000000 0.000000 0.000000
# 3 -0.003663 -0.002919 0.009325 0.000000 0.000000 0.000000
# 4 0.000000 0.000000 0.000000 0.021546 0.000000 0.000000
# 5 0.000000 0.000000 0.000000 0.000000 0.927639 0.000000
# 6 0.000000 0.000000 0.000000 0.000000 0.000000 0.042253
#
#
# Mechanical properties :
#
#
# Convention : Reuss Voigt Hill
#
# Bulk Modulus (GPa) = 73.29545 75.29188 74.29367
# Shear Modulus (GPa) = 4.75864 28.06036 16.40950
#
# Velocity S-wave (km/s) = 1.52233 3.69669 2.82693
# Velocity P-wave (km/s) = 6.22778 7.40866 6.84374
#
# Compressibility (1/GPa) = 0.01364341
#
# Stress axis : x y z
#
# Youngs Moduli (GPa) = 77.96847 83.06616 107.24265
#
# Poissons Ratio (x) = 0.30662 0.39282
# Poissons Ratio (y) = 0.28780 0.31300
# Poissons Ratio (z) = 0.28559 0.24244
#
# Static dielectric constant tensor:
#      x y z
#    x 3.675000 0.000000 0.000000 
#    y 0.000000 3.551130 0.000000 
#    z 0.000000 0.000000 4.367080 
# 
# 
# High freq. dielectric constant tensor:
#      x y z
#    x 1.798170 0.000000 0.000000 
#    y 0.000000 1.785340 0.000000 
#    z 0.000000 0.000000 1.822450 
# 
# From -- ./inp_files/18764.got.cif
#   From: 2010.03.12/outbox.cif.g09.slc.cpg/sg35_10_cif.got.tgz:18764.got - 2010.04.14 02:02:04.
