data_PCOD8172505
_publ_section_title
;
Structure prediction by ZEFSAII (Michael W. Deem and Ramdas Pophale) SiO2 
 PCOD8172505
Probable space group: C M M 2
;
_chemical_formula_sum "Si O2"
_cell_formula_units_Z 64
_cell_length_a 9.137031
_cell_length_b 29.855128
_cell_length_c 15.353596
_cell_angle_alpha 90.000000
_cell_angle_beta 90.000000
_cell_angle_gamma 90.000000
_cell_volume 4188.264924
_symmetry_space_group_name_H-M "C M M 2"
_symmetry_group_IT_number 35
_symmetry_cell_setting 'orthorhombic'
loop_
_space_group_symop_operation_xyz
x,y,z
-x,-y,z
-x,y,z
x,-y,z
1/2+x,1/2+y,z
1/2-x,1/2-y,z
1/2-x,1/2+y,z
1/2+x,1/2-y,z
loop_
_atom_site_type_symbol
_atom_site_label
_atom_site_fract_x
_atom_site_fract_y
_atom_site_fract_z
Si Si1 0.673749 0.382678 0.512560
Si Si2 0.165596 0.553055 0.832182
Si Si3 0.166988 0.946827 0.190603
Si Si4 0.324704 0.889625 0.331298
Si Si5 0.164847 0.292659 0.524095
Si Si6 0.164563 0.446734 0.023071
Si Si7 0.829255 0.949347 0.665672
Si Si8 0.160202 0.708766 0.317620
O O1 0.500000 0.376741 0.499364
O O2 0.747786 0.398640 0.423294
O O3 0.742636 0.336640 0.547860
O O4 0.714010 0.420620 0.582029
O O5 0.180263 0.500000 0.831214
O O6 0.260278 0.572754 0.752788
O O7 0.000000 0.568454 0.816947
O O8 0.218202 0.570540 0.927681
O O9 0.269331 0.927018 0.265408
O O10 0.225450 0.929151 0.097316
O O11 0.000000 0.930722 0.202046
O O12 0.179166 0.000000 0.197283
O O13 0.500000 0.891856 0.343301
O O14 0.276164 0.840504 0.295030
O O15 0.250000 0.250000 0.564529
O O16 0.154359 0.287032 0.421065
O O17 0.000000 0.295733 0.562898
O O18 0.162371 0.500000 0.022707
O O19 0.000000 0.429152 0.042421
O O20 0.000000 0.949031 0.681749
O O21 0.771930 0.000000 0.649722
O O22 0.250000 0.750000 0.276419
O O23 0.000000 0.713395 0.276704
#
# Coordination Sequence:
#
# PCOD8172505 Si02
#       8
#     8   8   8   8   8   8   8   8
#     4  10  19  30  43  60  85 116 148 181 214 249
#     4   8  14  25  42  62  81 103 134 172 213 254
#     4  10  20  31  43  61  84 112 146 180 213 250
#     4  10  20  32  44  60  83 113 148 180 211 250
#     4   9  16  27  43  62  82 105 136 174 217 260
#     4   8  14  26  43  61  81 105 133 169 214 257
#     4   9  18  30  42  58  83 115 147 178 212 248
#     4   8  15  26  41  60  79 100 129 166 208 251
#
# _framework density 15.28079
#
# number of rings (size 3 to 8) (size 9 to 14) (size 15 to 20)
#    0.000    3.000    0.000    3.000    0.000    6.250 
#    0.000    3.750    0.000    0.000    0.000    0.000 
#    0.000    1.000    0.000    5.500    0.000    4.250 
#
# Total GULP energy -396574.067924 kJ/mol
# GULP energy per Si atom -12392.939623 kJ/mol
# Density = 1.524601 g / cm^3
# Si number density = 15.280790 Si / 1000 Ang^3
#
#
#
# Elastic Constant Matrix: (Units=GPa)
#
#
# Indices 1 2 3 4 5 6 
#
# 1 82.6773 37.1047 50.3043 0.0000 0.0000 0.0000
# 2 37.1047 55.8959 41.3442 0.0000 0.0000 0.0000
# 3 50.3043 41.3442 91.9489 0.0000 0.0000 0.0000
# 4 0.0000 0.0000 0.0000 0.3388 0.0000 0.0000
# 5 0.0000 0.0000 0.0000 0.0000 24.6196 0.0000
# 6 0.0000 0.0000 0.0000 0.0000 0.0000 22.7226
#
#
#
# Elastic Compliance Matrix: (Units=1/GPa)
#
#
# Indices 1 2 3 4 5 6 
#
# 1 0.020189 -0.007839 -0.007520 0.000000 0.000000 0.000000
# 2 -0.007839 0.029849 -0.009133 0.000000 0.000000 0.000000
# 3 -0.007520 -0.009133 0.019096 0.000000 0.000000 0.000000
# 4 0.000000 0.000000 0.000000 2.951721 0.000000 0.000000
# 5 0.000000 0.000000 0.000000 0.000000 0.040618 0.000000
# 6 0.000000 0.000000 0.000000 0.000000 0.000000 0.044009
#
#
# Mechanical properties :
#
#
# Convention : Reuss Voigt Hill
#
# Bulk Modulus (GPa) = 49.62771 54.22539 51.92655
# Shear Modulus (GPa) = 1.58169 16.32078 8.95123
#
# Velocity S-wave (km/s) = 1.01849 3.27166 2.42292
# Velocity P-wave (km/s) = 5.82501 7.05937 6.47169
#
# Compressibility (1/GPa) = 0.02015003
#
# Stress axis : x y z
#
# Youngs Moduli (GPa) = 49.53154 33.50142 52.36591
#
# Poissons Ratio (x) = 0.26263 0.39381
# Poissons Ratio (y) = 0.38830 0.47825
# Poissons Ratio (z) = 0.37250 0.30596
#
# Static dielectric constant tensor:
#      x y z
#    x 3.115260 0.000000 0.000000 
#    y 0.000000 2.846460 0.000000 
#    z 0.000000 0.000000 2.967720 
# 
# 
# High freq. dielectric constant tensor:
#      x y z
#    x 1.596770 0.000000 0.000000 
#    y 0.000000 1.555190 0.000000 
#    z 0.000000 0.000000 1.559320 
# 
# From -- ./inp_files/16246.got.cif
#   From: 2010.03.12/outbox.cif.g09.slc.cpg/sg35_9_cif.got.tgz:16246.got - 2010.04.14 02:02:04.
