data_PCOD8172807
_publ_section_title
;
Structure prediction by ZEFSAII (Michael W. Deem and Ramdas Pophale) SiO2 
 PCOD8172807
Probable space group: C M M 2
;
_chemical_formula_sum "Si O2"
_cell_formula_units_Z 56
_cell_length_a 8.626902
_cell_length_b 23.276190
_cell_length_c 15.467468
_cell_angle_alpha 90.000000
_cell_angle_beta 90.000000
_cell_angle_gamma 90.000000
_cell_volume 3105.889385
_symmetry_space_group_name_H-M "C M M 2"
_symmetry_group_IT_number 35
_symmetry_cell_setting 'orthorhombic'
loop_
_space_group_symop_operation_xyz
x,y,z
-x,-y,z
-x,y,z
x,-y,z
1/2+x,1/2+y,z
1/2-x,1/2-y,z
1/2-x,1/2+y,z
1/2+x,1/2-y,z
loop_
_atom_site_type_symbol
_atom_site_label
_atom_site_fract_x
_atom_site_fract_y
_atom_site_fract_z
Si Si1 0.182517 0.186127 0.409190
Si Si2 0.683705 0.500000 0.611311
Si Si3 0.183899 0.813930 0.034016
Si Si4 0.818288 0.500000 0.800894
Si Si5 0.682089 0.311594 0.719356
Si Si6 0.678381 0.689243 0.221996
Si Si7 0.182050 0.621954 0.877071
Si Si8 0.817680 0.617496 0.564669
O O1 0.250000 0.250000 0.416215
O O2 0.210274 0.156859 0.313338
O O3 0.275254 0.146632 0.474727
O O4 0.000000 0.187809 0.431717
O O5 0.500000 0.500000 0.599566
O O6 0.722489 0.500000 0.712774
O O7 0.759897 0.552722 0.561160
O O8 0.250000 0.750000 0.016772
O O9 0.235837 0.837016 0.130350
O O10 0.000000 0.811910 0.020853
O O11 0.255833 0.861337 0.971094
O O12 0.771999 0.443871 0.856277
O O13 0.000000 0.500000 0.777382
O O14 0.500000 0.306703 0.725088
O O15 0.750000 0.250000 0.696921
O O16 0.743852 0.334114 0.810036
O O17 0.728791 0.354070 0.643788
O O18 0.500000 0.700544 0.208920
O O19 0.750000 0.750000 0.237710
O O20 0.000000 0.630367 0.873489
O O21 0.000000 0.621192 0.581834
#
# Coordination Sequence:
#
# PCOD8172807 Si02
#       8
#     8   4   8   4   8   8   8   8
#     4  10  19  34  55  83 114 146 184 226 276 331
#     4  12  24  40  62  83 104 139 188 231 272 322
#     4  10  19  33  53  81 113 146 182 223 272 327
#     4  10  22  40  60  77 104 141 184 229 276 322
#     4  12  24  38  55  79 109 144 180 221 272 328
#     4   8  16  30  51  77 109 144 180 222 269 323
#     4  11  22  37  56  79 107 142 181 227 276 325
#     4  12  24  39  57  80 111 145 181 226 274 323
#
# _framework density 18.030263000000001
#
# number of rings (size 3 to 8) (size 9 to 14) (size 15 to 20)
#    0.000    1.429    1.429    5.357    0.000    1.714 
#    0.000    0.000    0.000    0.857    0.000    5.000 
#    0.000    0.000    0.000    0.000    0.000    0.000 
#
# Total GULP energy -347064.461368 kJ/mol
# GULP energy per Si atom -12395.159335 kJ/mol
# Density = 1.798922 g / cm^3
# Si number density = 18.030263 Si / 1000 Ang^3
#
#
#
# Elastic Constant Matrix: (Units=GPa)
#
#
# Indices 1 2 3 4 5 6 
#
# 1 41.6527 13.0659 28.5059 0.0000 0.0000 0.0000
# 2 13.0659 85.3224 38.9056 0.0000 0.0000 0.0000
# 3 28.5059 38.9056 120.0633 0.0000 0.0000 0.0000
# 4 0.0000 0.0000 0.0000 -1.9730 0.0000 0.0000
# 5 0.0000 0.0000 0.0000 0.0000 36.9697 0.0000
# 6 0.0000 0.0000 0.0000 0.0000 0.0000 25.9220
#
#
#
# Elastic Compliance Matrix: (Units=1/GPa)
#
#
# Indices 1 2 3 4 5 6 
#
# 1 0.028832 -0.001518 -0.006354 0.000000 0.000000 0.000000
# 2 -0.001518 0.013832 -0.004122 0.000000 0.000000 0.000000
# 3 -0.006354 -0.004122 0.011173 0.000000 0.000000 0.000000
# 4 0.000000 0.000000 0.000000 -0.506850 0.000000 0.000000
# 5 0.000000 0.000000 0.000000 0.000000 0.027049 0.000000
# 6 0.000000 0.000000 0.000000 0.000000 0.000000 0.038577
#
#
# Mechanical properties :
#
#
# Convention : Reuss Voigt Hill
#
# Bulk Modulus (GPa) = 33.50005 45.33259 39.41632
# Shear Modulus (GPa) = -14.14634 23.28781 4.57073
#
# Velocity S-wave (km/s) = -2.80409 3.59778 1.59391
# Velocity P-wave (km/s) = 2.85243 6.51581 5.02952
#
# Compressibility (1/GPa) = 0.02985070
#
# Stress axis : x y z
#
# Youngs Moduli (GPa) = 34.68314 72.29517 89.50098
#
# Poissons Ratio (x) = 0.10976 0.56865
# Poissons Ratio (y) = 0.05265 0.36890
# Poissons Ratio (z) = 0.22036 0.29798
#
# Static dielectric constant tensor:
#      x y z
#    x 3.478150 0.000000 0.000000 
#    y 0.000000 3.420400 0.000000 
#    z 0.000000 0.000000 3.786490 
# 
# 
# High freq. dielectric constant tensor:
#      x y z
#    x 1.715880 0.000000 0.000000 
#    y 0.000000 1.673160 0.000000 
#    z 0.000000 0.000000 1.713120 
# 
# From -- ./inp_files/15672.got.cif
#   From: 2010.03.12/outbox.cif.g09.slc.cpg/sg35_8_cif.got.tgz:15672.got - 2010.04.14 02:02:04.
