data_PCOD8172268
_publ_section_title
;
Structure prediction by ZEFSAII (Michael W. Deem and Ramdas Pophale) SiO2 
 PCOD8172268
Probable space group: C M M 2
;
_chemical_formula_sum "Si O2"
_cell_formula_units_Z 48
_cell_length_a 18.722178
_cell_length_b 10.378146
_cell_length_c 14.099043
_cell_angle_alpha 90.000000
_cell_angle_beta 90.000000
_cell_angle_gamma 90.000000
_cell_volume 2739.465157
_symmetry_space_group_name_H-M "C M M 2"
_symmetry_group_IT_number 35
_symmetry_cell_setting 'orthorhombic'
loop_
_space_group_symop_operation_xyz
x,y,z
-x,-y,z
-x,y,z
x,-y,z
1/2+x,1/2+y,z
1/2-x,1/2-y,z
1/2-x,1/2+y,z
1/2+x,1/2-y,z
loop_
_atom_site_type_symbol
_atom_site_label
_atom_site_fract_x
_atom_site_fract_y
_atom_site_fract_z
Si Si1 0.916375 0.350388 0.766520
Si Si2 0.336723 0.500000 0.477926
Si Si3 0.584859 0.856328 0.976965
Si Si4 0.669898 0.000000 0.474985
Si Si5 0.085440 0.000000 0.278502
Si Si6 0.166954 0.251690 0.595588
Si Si7 0.915436 0.750552 0.169357
Si Si8 0.415602 0.000000 0.283207
O O1 0.896017 0.500000 0.750695
O O2 0.875137 0.258253 0.694248
O O3 0.000000 0.329598 0.750994
O O4 0.892694 0.306577 0.872620
O O5 0.253568 0.500000 0.450025
O O6 0.383095 0.500000 0.383363
O O7 0.356964 0.375290 0.539434
O O8 0.500000 0.865296 0.981744
O O9 0.613005 0.761395 0.060471
O O10 0.615629 0.000000 0.994401
O O11 0.646990 0.125346 0.532994
O O12 0.624399 0.000000 0.381306
O O13 0.115369 0.123115 0.220787
O O14 0.000000 0.000000 0.286908
O O15 0.250000 0.250000 0.620741
O O16 0.890304 0.625101 0.226077
O O17 0.000000 0.759986 0.168685
O O18 0.500000 0.000000 0.301414
#
# Coordination Sequence:
#
# PCOD8172268 Si02
#       8
#     8   4   8   4   4   8   8   4
#     4   9  17  30  53  82 103 123 162 215 256 285
#     4  10  22  36  49  66  98 140 167 200 249 298
#     4   8  13  25  47  75 102 123 149 195 251 294
#     4  10  20  34  51  70  94 128 173 210 243 294
#     4  10  20  32  47  68  96 132 167 198 239 290
#     4  10  20  35  52  71  99 135 170 202 247 305
#     4   9  16  28  46  72 101 127 157 195 244 296
#     4  10  18  28  49  76  96 118 161 216 247 276
#
# _framework density 17.521667999999998
#
# number of rings (size 3 to 8) (size 9 to 14) (size 15 to 20)
#    0.000    2.667    1.667    2.000    0.000    1.333 
#    0.000    0.833    0.000    4.000    0.000    0.000 
#    0.000    0.000    0.000    0.000    0.000    0.000 
#
# Total GULP energy -297518.471463 kJ/mol
# GULP energy per Si atom -12396.602978 kJ/mol
# Density = 1.748179 g / cm^3
# Si number density = 17.521668 Si / 1000 Ang^3
#
#
#
# Elastic Constant Matrix: (Units=GPa)
#
#
# Indices 1 2 3 4 5 6 
#
# 1 27.5419 27.7086 48.0856 0.0000 0.0000 0.0000
# 2 27.7086 141.0581 87.8163 0.0000 0.0000 0.0000
# 3 48.0856 87.8163 184.2536 0.0000 0.0000 0.0000
# 4 0.0000 0.0000 0.0000 32.5195 0.0000 0.0000
# 5 0.0000 0.0000 0.0000 0.0000 -11.1578 0.0000
# 6 0.0000 0.0000 0.0000 0.0000 0.0000 2.3949
#
#
#
# Elastic Compliance Matrix: (Units=1/GPa)
#
#
# Indices 1 2 3 4 5 6 
#
# 1 0.067744 -0.003271 -0.016120 0.000000 0.000000 0.000000
# 2 -0.003271 0.010238 -0.004026 0.000000 0.000000 0.000000
# 3 -0.016120 -0.004026 0.011553 0.000000 0.000000 0.000000
# 4 0.000000 0.000000 0.000000 0.030751 0.000000 0.000000
# 5 0.000000 0.000000 0.000000 0.000000 -0.089623 0.000000
# 6 0.000000 0.000000 0.000000 0.000000 0.000000 0.417555
#
#
# Mechanical properties :
#
#
# Convention : Reuss Voigt Hill
#
# Bulk Modulus (GPa) = 23.41914 75.56385 49.49149
# Shear Modulus (GPa) = 9.81766 17.36754 13.59260
#
# Velocity S-wave (km/s) = 2.36967 3.15175 2.78827
# Velocity P-wave (km/s) = 4.56967 7.51427 6.21877
#
# Compressibility (1/GPa) = 0.04270012
#
# Stress axis : x y z
#
# Youngs Moduli (GPa) = 14.76144 97.67360 86.55748
#
# Poissons Ratio (x) = 0.31954 1.39533
# Poissons Ratio (y) = 0.04829 0.34846
# Poissons Ratio (z) = 0.23796 0.39321
#
# Static dielectric constant tensor:
#      x y z
#    x 2.832610 0.000000 0.000000 
#    y 0.000000 3.085050 0.000000 
#    z 0.000000 0.000000 3.483530 
# 
# 
# High freq. dielectric constant tensor:
#      x y z
#    x 1.632250 0.000000 0.000000 
#    y 0.000000 1.673500 0.000000 
#    z 0.000000 0.000000 1.694260 
# 
# From -- ./inp_files/13889.got.cif
#   From: 2010.03.12/outbox.cif.g09.slc.cpg/sg35_7_cif.got.tgz:13889.got - 2010.04.14 02:02:04.
