data_PCOD8172622
_publ_section_title
;
Structure prediction by ZEFSAII (Michael W. Deem and Ramdas Pophale) SiO2 
 PCOD8172622
Probable space group: C M M 2
;
_chemical_formula_sum "Si O2"
_cell_formula_units_Z 64
_cell_length_a 13.866634
_cell_length_b 19.392698
_cell_length_c 10.979956
_cell_angle_alpha 90.000000
_cell_angle_beta 90.000000
_cell_angle_gamma 90.000000
_cell_volume 2952.635839
_symmetry_space_group_name_H-M "C M M 2"
_symmetry_group_IT_number 35
_symmetry_cell_setting 'orthorhombic'
loop_
_space_group_symop_operation_xyz
x,y,z
-x,-y,z
-x,y,z
x,-y,z
1/2+x,1/2+y,z
1/2-x,1/2-y,z
1/2-x,1/2+y,z
1/2+x,1/2-y,z
loop_
_atom_site_type_symbol
_atom_site_label
_atom_site_fract_x
_atom_site_fract_y
_atom_site_fract_z
Si Si1 0.390286 0.075902 0.883310
Si Si2 0.393612 0.640325 0.760714
Si Si3 0.113635 0.846662 0.224630
Si Si4 0.891292 0.701501 0.328231
Si Si5 0.714200 0.099309 0.651384
Si Si6 0.893838 0.727484 0.601878
Si Si7 0.739376 0.922069 0.369207
Si Si8 0.275797 0.328424 0.989961
O O1 0.500000 0.103937 0.894450
O O2 0.364152 0.064541 0.739738
O O3 0.319461 0.129232 0.950902
O O4 0.382306 0.000000 0.944254
O O5 0.500000 0.608138 0.778848
O O6 0.319251 0.583225 0.709899
O O7 0.395188 0.697465 0.656652
O O8 0.356567 0.672712 0.885563
O O9 0.133215 0.764766 0.239629
O O10 0.153365 0.893708 0.337309
O O11 0.000000 0.862239 0.212602
O O12 0.173210 0.866695 0.103729
O O13 0.870161 0.733704 0.459858
O O14 0.829799 0.632788 0.300488
O O15 0.000000 0.676612 0.311952
O O16 0.689753 0.180992 0.661111
O O17 0.712971 0.074041 0.512633
O O18 0.000000 0.692891 0.619887
O O19 0.726186 0.000000 0.318573
O O20 0.250000 0.250000 0.020525
#
# Coordination Sequence:
#
# PCOD8172622 Si02
#       8
#     8   8   8   8   8   8   8   8
#     4  10  22  41  65  93 126 161 194 236 299 370
#     4  10  19  31  51  82 118 154 195 245 298 352
#     4  11  24  43  64  84 114 161 213 258 299 348
#     4   9  19  37  61  87 116 154 197 242 300 365
#     4  10  19  33  55  84 119 157 196 239 293 361
#     4   9  16  28  50  82 117 151 190 240 299 358
#     4  11  23  38  59  89 123 158 200 251 305 360
#     4  11  23  39  62  90 119 155 202 255 302 352
#
# _framework density 21.675547999999999
#
# number of rings (size 3 to 8) (size 9 to 14) (size 15 to 20)
#    0.000    1.875    0.000    4.875    0.000    7.000 
#    0.000    0.625    0.000   12.000    0.000    0.000 
#    0.000    0.000    0.000    0.000    0.000    0.000 
#
# Total GULP energy -396530.964928 kJ/mol
# GULP energy per Si atom -12391.592654 kJ/mol
# Density = 2.162621 g / cm^3
# Si number density = 21.675548 Si / 1000 Ang^3
#
#
#
# Elastic Constant Matrix: (Units=GPa)
#
#
# Indices 1 2 3 4 5 6 
#
# 1 160.3095 43.8248 47.8832 0.0000 0.0000 0.0000
# 2 43.8248 95.7393 23.5612 0.0000 0.0000 0.0000
# 3 47.8832 23.5612 71.1899 0.0000 0.0000 0.0000
# 4 0.0000 0.0000 0.0000 10.7773 0.0000 0.0000
# 5 0.0000 0.0000 0.0000 0.0000 32.6167 0.0000
# 6 0.0000 0.0000 0.0000 0.0000 0.0000 18.0055
#
#
#
# Elastic Compliance Matrix: (Units=1/GPa)
#
#
# Indices 1 2 3 4 5 6 
#
# 1 0.008389 -0.002669 -0.004759 0.000000 0.000000 0.000000
# 2 -0.002669 0.012220 -0.002249 0.000000 0.000000 0.000000
# 3 -0.004759 -0.002249 0.017993 0.000000 0.000000 0.000000
# 4 0.000000 0.000000 0.000000 0.092787 0.000000 0.000000
# 5 0.000000 0.000000 0.000000 0.000000 0.030659 0.000000
# 6 0.000000 0.000000 0.000000 0.000000 0.000000 0.055539
#
#
# Mechanical properties :
#
#
# Convention : Reuss Voigt Hill
#
# Bulk Modulus (GPa) = 51.95646 61.97521 56.96584
# Shear Modulus (GPa) = 20.54589 26.41121 23.47855
#
# Velocity S-wave (km/s) = 3.08211 3.49446 3.29474
# Velocity P-wave (km/s) = 6.05706 6.70343 6.38843
#
# Compressibility (1/GPa) = 0.01924688
#
# Stress axis : x y z
#
# Youngs Moduli (GPa) = 119.20212 81.83132 55.57853
#
# Poissons Ratio (x) = 0.21840 0.26452
# Poissons Ratio (y) = 0.31813 0.12501
# Poissons Ratio (z) = 0.56732 0.18407
#
# Static dielectric constant tensor:
#      x y z
#    x 4.361270 0.000000 0.000000 
#    y 0.000000 3.722620 0.000000 
#    z 0.000000 0.000000 3.828870 
# 
# 
# High freq. dielectric constant tensor:
#      x y z
#    x 1.866930 0.000000 0.000000 
#    y 0.000000 1.826670 0.000000 
#    z 0.000000 0.000000 1.844020 
# 
# From -- ./inp_files/13235.got.cif
#   From: 2010.03.12/outbox.cif.g09.slc.cpg/sg35_7_cif.got.tgz:13235.got - 2010.04.14 02:02:04.
