data_PCOD8172552
_publ_section_title
;
Structure prediction by ZEFSAII (Michael W. Deem and Ramdas Pophale) SiO2 
 PCOD8172552
Probable space group: C M M 2
;
_chemical_formula_sum "Si O2"
_cell_formula_units_Z 64
_cell_length_a 28.665952
_cell_length_b 8.878423
_cell_length_c 15.716407
_cell_angle_alpha 90.000000
_cell_angle_beta 90.000000
_cell_angle_gamma 90.000000
_cell_volume 3999.958347
_symmetry_space_group_name_H-M "C M M 2"
_symmetry_group_IT_number 35
_symmetry_cell_setting 'orthorhombic'
loop_
_space_group_symop_operation_xyz
x,y,z
-x,-y,z
-x,y,z
x,-y,z
1/2+x,1/2+y,z
1/2-x,1/2-y,z
1/2-x,1/2+y,z
1/2+x,1/2-y,z
loop_
_atom_site_type_symbol
_atom_site_label
_atom_site_fract_x
_atom_site_fract_y
_atom_site_fract_z
Si Si1 0.640375 0.177254 0.301500
Si Si2 0.852113 0.179457 0.980204
Si Si3 0.199470 0.322327 0.458040
Si Si4 0.447619 0.325138 0.240708
Si Si5 0.050658 0.178509 0.049451
Si Si6 0.798936 0.326466 0.641340
Si Si7 0.699993 0.179188 0.138378
Si Si8 0.698837 0.821842 0.826224
O O1 0.666228 0.243804 0.384653
O O2 0.588057 0.240344 0.302205
O O3 0.667225 0.228497 0.216478
O O4 0.637563 0.000000 0.307403
O O5 0.836693 0.242122 0.889613
O O6 0.846754 0.000000 0.984009
O O7 0.906069 0.231910 0.991734
O O8 0.820055 0.252137 0.052093
O O9 0.205524 0.500000 0.446084
O O10 0.250000 0.250000 0.448375
O O11 0.176196 0.282580 0.551423
O O12 0.500000 0.296245 0.274380
O O13 0.435073 0.500000 0.242010
O O14 0.442272 0.259792 0.145101
O O15 0.000000 0.236082 0.013972
O O16 0.049369 0.000000 0.054382
O O17 0.787375 0.500000 0.639210
O O18 0.750000 0.250000 0.643090
O O19 0.823585 0.288579 0.731795
O O20 0.750000 0.250000 0.156828
O O21 0.704094 0.000000 0.129364
O O22 0.750000 0.750000 0.836623
O O23 0.702307 0.000000 0.845055
#
# Coordination Sequence:
#
# PCOD8172552 Si02
#       8
#     8   8   8   8   8   8   8   8
#     4  10  20  31  45  67  94 120 149 187 226 264
#     4  11  20  31  48  67  88 118 151 186 223 265
#     4   9  17  30  46  67  92 120 153 186 222 266
#     4   9  17  31  50  68  87 115 152 190 226 268
#     4   8  15  29  48  67  85 109 145 186 224 264
#     4   8  15  28  46  64  86 116 148 185 226 263
#     4  11  22  33  43  60  90 125 156 183 214 256
#     4  10  19  31  46  66  92 120 151 187 224 267
#
# _framework density 16.000166
#
# number of rings (size 3 to 8) (size 9 to 14) (size 15 to 20)
#    0.000    2.500    1.250    2.625    0.000    1.750 
#    0.000    0.000    0.000    1.500    0.000    0.875 
#    0.000    5.000    0.000    0.000    0.000    0.000 
#
# Total GULP energy -396488.067842 kJ/mol
# GULP energy per Si atom -12390.252120 kJ/mol
# Density = 1.596375 g / cm^3
# Si number density = 16.000166 Si / 1000 Ang^3
#
#
#
# Elastic Constant Matrix: (Units=GPa)
#
#
# Indices 1 2 3 4 5 6 
#
# 1 102.4351 27.0487 54.2597 0.0000 0.0000 0.0000
# 2 27.0487 37.5675 30.9790 0.0000 0.0000 0.0000
# 3 54.2597 30.9790 123.8680 0.0000 0.0000 0.0000
# 4 0.0000 0.0000 0.0000 29.8735 0.0000 0.0000
# 5 0.0000 0.0000 0.0000 0.0000 8.9121 0.0000
# 6 0.0000 0.0000 0.0000 0.0000 0.0000 20.8674
#
#
#
# Elastic Compliance Matrix: (Units=1/GPa)
#
#
# Indices 1 2 3 4 5 6 
#
# 1 0.013779 -0.006228 -0.004478 0.000000 0.000000 0.000000
# 2 -0.006228 0.036350 -0.006363 0.000000 0.000000 0.000000
# 3 -0.004478 -0.006363 0.011626 0.000000 0.000000 0.000000
# 4 0.000000 0.000000 0.000000 0.033475 0.000000 0.000000
# 5 0.000000 0.000000 0.000000 0.000000 0.112207 0.000000
# 6 0.000000 0.000000 0.000000 0.000000 0.000000 0.047922
#
#
# Mechanical properties :
#
#
# Convention : Reuss Voigt Hill
#
# Bulk Modulus (GPa) = 36.20986 54.27171 45.24078
# Shear Modulus (GPa) = 16.73911 22.03614 19.38763
#
# Velocity S-wave (km/s) = 3.23799 3.71515 3.48474
# Velocity P-wave (km/s) = 6.05471 7.23852 6.67292
#
# Compressibility (1/GPa) = 0.02761679
#
# Stress axis : x y z
#
# Youngs Moduli (GPa) = 72.57465 27.51037 86.01357
#
# Poissons Ratio (x) = 0.17134 0.38518
# Poissons Ratio (y) = 0.45200 0.54729
# Poissons Ratio (z) = 0.32500 0.17504
#
# Static dielectric constant tensor:
#      x y z
#    x 3.227450 0.000000 0.000000 
#    y 0.000000 2.634810 0.000000 
#    z 0.000000 0.000000 3.511760 
# 
# 
# High freq. dielectric constant tensor:
#      x y z
#    x 1.593930 0.000000 0.000000 
#    y 0.000000 1.611620 0.000000 
#    z 0.000000 0.000000 1.612190 
# 
# From -- ./inp_files/16222.got.cif
#   From: 2010.03.12/outbox.cif.g09.slc.cpg/sg35_9_cif.got.tgz:16222.got - 2010.04.14 02:02:04.
