data_PCOD8172209
_publ_section_title
;
Structure prediction by ZEFSAII (Michael W. Deem and Ramdas Pophale) SiO2 
 PCOD8172209
Probable space group: C M M 2
;
_chemical_formula_sum "Si O2"
_cell_formula_units_Z 40
_cell_length_a 8.670662
_cell_length_b 18.410612
_cell_length_c 13.024897
_cell_angle_alpha 90.000000
_cell_angle_beta 90.000000
_cell_angle_gamma 90.000000
_cell_volume 2079.192883
_symmetry_space_group_name_H-M "C M M 2"
_symmetry_group_IT_number 35
_symmetry_cell_setting 'orthorhombic'
loop_
_space_group_symop_operation_xyz
x,y,z
-x,-y,z
-x,y,z
x,-y,z
1/2+x,1/2+y,z
1/2-x,1/2-y,z
1/2-x,1/2+y,z
1/2+x,1/2-y,z
loop_
_atom_site_type_symbol
_atom_site_label
_atom_site_fract_x
_atom_site_fract_y
_atom_site_fract_z
Si Si1 0.181012 0.170628 0.930040
Si Si2 0.821946 0.414884 0.746490
Si Si3 0.317991 0.169231 0.137131
Si Si4 0.822343 0.828514 0.336874
Si Si5 0.179646 0.170049 0.563981
O O1 0.250000 0.250000 0.909392
O O2 0.218764 0.119309 0.835342
O O3 0.000000 0.178711 0.943579
O O4 0.251101 0.133371 0.033280
O O5 0.792173 0.500000 0.745696
O O6 0.769880 0.384106 0.637401
O O7 0.000000 0.395531 0.766065
O O8 0.500000 0.169228 0.130980
O O9 0.250000 0.250000 0.141942
O O10 0.262304 0.128770 0.242509
O O11 0.750000 0.750000 0.347798
O O12 0.800497 0.864323 0.449192
O O13 0.000000 0.821393 0.306826
O O14 0.250000 0.250000 0.574194
O O15 0.000000 0.174541 0.594029
#
# Coordination Sequence:
#
# PCOD8172209 Si02
#       5
#     8   8   8   8   8
#     4  11  21  35  56  80 108 139 175 217 260 310
#     4  11  24  40  56  75 103 138 176 219 267 317
#     4  10  17  27  46  74 107 138 170 210 257 307
#     4   9  16  27  45  73 106 137 169 208 255 305
#     4  10  20  34  55  81 109 140 176 217 259 308
#
# _framework density 19.238236000000001
#
# number of rings (size 3 to 8) (size 9 to 14) (size 15 to 20)
#    0.000    1.800    0.000    8.400    0.000    4.000 
#    0.000    0.000    0.000    1.200    0.000    5.600 
#    0.000    0.000    0.000    0.000    0.000    0.000 
#
# Total GULP energy -247899.389368 kJ/mol
# GULP energy per Si atom -12394.969468 kJ/mol
# Density = 1.919445 g / cm^3
# Si number density = 19.238236 Si / 1000 Ang^3
#
#
#
# Elastic Constant Matrix: (Units=GPa)
#
#
# Indices 1 2 3 4 5 6 
#
# 1 158.7770 35.5838 62.3603 0.0000 0.0000 0.0000
# 2 35.5838 47.8524 38.8037 0.0000 0.0000 0.0000
# 3 62.3603 38.8037 158.3197 0.0000 0.0000 0.0000
# 4 0.0000 0.0000 0.0000 -2.2903 0.0000 0.0000
# 5 0.0000 0.0000 0.0000 0.0000 39.8242 0.0000
# 6 0.0000 0.0000 0.0000 0.0000 0.0000 19.2949
#
#
#
# Elastic Compliance Matrix: (Units=1/GPa)
#
#
# Indices 1 2 3 4 5 6 
#
# 1 0.008099 -0.004288 -0.002139 0.000000 0.000000 0.000000
# 2 -0.004288 0.028352 -0.005260 0.000000 0.000000 0.000000
# 3 -0.002139 -0.005260 0.008448 0.000000 0.000000 0.000000
# 4 0.000000 0.000000 0.000000 -0.436622 0.000000 0.000000
# 5 0.000000 0.000000 0.000000 0.000000 0.025110 0.000000
# 6 0.000000 0.000000 0.000000 0.000000 0.000000 0.051827
#
#
# Mechanical properties :
#
#
# Convention : Reuss Voigt Hill
#
# Bulk Modulus (GPa) = 46.45837 70.93831 58.69834
# Shear Modulus (GPa) = -17.59099 26.57917 4.49409
#
# Velocity S-wave (km/s) = -3.02715 3.72099 1.53006
# Velocity P-wave (km/s) = 3.46168 7.44411 5.80508
#
# Compressibility (1/GPa) = 0.02152465
#
# Stress axis : x y z
#
# Youngs Moduli (GPa) = 123.46671 35.27146 118.36937
#
# Poissons Ratio (x) = 0.15125 0.25322
# Poissons Ratio (y) = 0.52944 0.62260
# Poissons Ratio (z) = 0.26413 0.18552
#
# Static dielectric constant tensor:
#      x y z
#    x 3.685580 0.000000 0.000000 
#    y 0.000000 2.926280 0.000000 
#    z 0.000000 0.000000 4.738710 
# 
# 
# High freq. dielectric constant tensor:
#      x y z
#    x 1.771630 0.000000 0.000000 
#    y 0.000000 1.677070 0.000000 
#    z 0.000000 0.000000 1.783900 
# 
# From -- ./inp_files/14706.got.cif
#   From: 2010.03.12/outbox.cif.g09.slc.cpg/sg35_8_cif.got.tgz:14706.got - 2010.04.14 02:02:04.
