data_PCOD8172411
_publ_section_title
;
Structure prediction by ZEFSAII (Michael W. Deem and Ramdas Pophale) SiO2 
 PCOD8172411
Probable space group: C M M 2
;
_chemical_formula_sum "Si O2"
_cell_formula_units_Z 48
_cell_length_a 17.067022
_cell_length_b 15.533902
_cell_length_c 9.454039
_cell_angle_alpha 90.000000
_cell_angle_beta 90.000000
_cell_angle_gamma 90.000000
_cell_volume 2506.430685
_symmetry_space_group_name_H-M "C M M 2"
_symmetry_group_IT_number 35
_symmetry_cell_setting 'orthorhombic'
loop_
_space_group_symop_operation_xyz
x,y,z
-x,-y,z
-x,y,z
x,-y,z
1/2+x,1/2+y,z
1/2-x,1/2-y,z
1/2-x,1/2+y,z
1/2+x,1/2-y,z
loop_
_atom_site_type_symbol
_atom_site_label
_atom_site_fract_x
_atom_site_fract_y
_atom_site_fract_z
Si Si1 0.843613 0.751663 0.242150
Si Si2 0.411308 0.746674 0.932122
Si Si3 0.667419 0.595762 0.438300
Si Si4 0.353381 0.904820 0.432108
Si Si5 0.363435 0.095347 0.753351
Si Si6 0.797250 0.164156 0.724353
O O1 0.750000 0.750000 0.227475
O O2 0.868700 0.839617 0.322074
O O3 0.880134 0.670145 0.326210
O O4 0.883472 0.746992 0.091650
O O5 0.500000 0.712986 0.926873
O O6 0.406911 0.839359 0.856916
O O7 0.355138 0.679111 0.854703
O O8 0.631772 0.500000 0.415322
O O9 0.760320 0.592805 0.429479
O O10 0.648769 0.630570 0.595773
O O11 0.383970 0.882848 0.589850
O O12 0.384821 0.000000 0.385988
O O13 0.268936 0.096778 0.774042
O O14 0.392808 0.000000 0.792534
O O15 0.750000 0.250000 0.676417
#
# Coordination Sequence:
#
# PCOD8172411 Si02
#       6
#     8   8   8   8   8   8
#     4  10  18  32  52  75 104 136 174 215 257 310
#     4  11  23  35  48  72 110 150 178 207 255 311
#     4   9  16  29  54  81  99 121 165 226 275 307
#     4   8  15  29  53  83 105 124 161 217 271 311
#     4   9  17  33  58  83 104 128 168 221 268 313
#     4   9  16  32  56  79 101 130 172 216 261 311
#
# _framework density 19.150739999999999
#
# number of rings (size 3 to 8) (size 9 to 14) (size 15 to 20)
#    0.000    2.667    0.000    6.500    0.000    1.000 
#    0.000    8.333    0.000    6.500    0.000    0.000 
#    0.000    0.000    0.000    0.000    0.000    0.000 
#
# Total GULP energy -297474.838266 kJ/mol
# GULP energy per Si atom -12394.784928 kJ/mol
# Density = 1.910715 g / cm^3
# Si number density = 19.150740 Si / 1000 Ang^3
#
#
#
# Elastic Constant Matrix: (Units=GPa)
#
#
# Indices 1 2 3 4 5 6 
#
# 1 45.6892 14.3688 30.3300 0.0000 0.0000 0.0000
# 2 14.3688 114.7291 68.8912 0.0000 0.0000 0.0000
# 3 30.3300 68.8912 141.3479 0.0000 0.0000 0.0000
# 4 0.0000 0.0000 0.0000 17.3989 0.0000 0.0000
# 5 0.0000 0.0000 0.0000 0.0000 -7.9131 0.0000
# 6 0.0000 0.0000 0.0000 0.0000 0.0000 6.1677
#
#
#
# Elastic Compliance Matrix: (Units=1/GPa)
#
#
# Indices 1 2 3 4 5 6 
#
# 1 0.025524 0.000130 -0.005540 0.000000 0.000000 0.000000
# 2 0.000130 0.012323 -0.006034 0.000000 0.000000 0.000000
# 3 -0.005540 -0.006034 0.011204 0.000000 0.000000 0.000000
# 4 0.000000 0.000000 0.000000 0.057475 0.000000 0.000000
# 5 0.000000 0.000000 0.000000 0.000000 -0.126372 0.000000
# 6 0.000000 0.000000 0.000000 0.000000 0.000000 0.162135
#
#
# Mechanical properties :
#
#
# Convention : Reuss Voigt Hill
#
# Bulk Modulus (GPa) = 38.22177 58.77179 48.49678
# Shear Modulus (GPa) = 28.75244 15.67578 22.21411
#
# Velocity S-wave (km/s) = 3.87896 2.86413 3.40951
# Velocity P-wave (km/s) = 6.32957 6.45704 6.39362
#
# Compressibility (1/GPa) = 0.02616310
#
# Stress axis : x y z
#
# Youngs Moduli (GPa) = 39.17901 81.14799 89.24991
#
# Poissons Ratio (x) = -0.01056 0.49447
# Poissons Ratio (y) = -0.00510 0.53854
# Poissons Ratio (z) = 0.21706 0.48965
#
# Static dielectric constant tensor:
#      x y z
#    x 3.033930 0.000000 0.000000 
#    y 0.000000 3.873300 0.000000 
#    z 0.000000 0.000000 3.475310 
# 
# 
# High freq. dielectric constant tensor:
#      x y z
#    x 1.695510 0.000000 0.000000 
#    y 0.000000 1.749480 0.000000 
#    z 0.000000 0.000000 1.741340 
# 
# From -- ./inp_files/8376.got.cif
#   From: 2010.03.12/outbox.cif.g09.slc.cpg/sg35_5_cif.got.tgz:8376.got - 2010.04.14 02:02:04.
