data_PCOD8172497
_publ_section_title
;
Structure prediction by ZEFSAII (Michael W. Deem and Ramdas Pophale) SiO2 
 PCOD8172497
Probable space group: C M M 2
;
_chemical_formula_sum "Si O2"
_cell_formula_units_Z 64
_cell_length_a 28.669389
_cell_length_b 8.957583
_cell_length_c 15.612760
_cell_angle_alpha 90.000000
_cell_angle_beta 90.000000
_cell_angle_gamma 90.000000
_cell_volume 4009.488407
_symmetry_space_group_name_H-M "C M M 2"
_symmetry_group_IT_number 35
_symmetry_cell_setting 'orthorhombic'
loop_
_space_group_symop_operation_xyz
x,y,z
-x,-y,z
-x,y,z
x,-y,z
1/2+x,1/2+y,z
1/2-x,1/2-y,z
1/2-x,1/2+y,z
1/2+x,1/2-y,z
loop_
_atom_site_type_symbol
_atom_site_label
_atom_site_fract_x
_atom_site_fract_y
_atom_site_fract_z
Si Si1 0.447521 0.826874 0.743530
Si Si2 0.299673 0.323092 0.844306
Si Si3 0.700308 0.325733 0.525602
Si Si4 0.800223 0.675493 0.172650
Si Si5 0.860283 0.824177 0.681814
Si Si6 0.199962 0.825304 0.337478
Si Si7 0.050518 0.323133 0.936437
Si Si8 0.648376 0.824930 0.999572
O O1 0.500000 0.798495 0.710245
O O2 0.412208 0.741433 0.681480
O O3 0.441921 0.763465 0.839966
O O4 0.434723 0.000000 0.741142
O O5 0.293830 0.500000 0.848857
O O6 0.250000 0.250000 0.827484
O O7 0.332787 0.272355 0.766505
O O8 0.320607 0.265892 0.933075
O O9 0.709077 0.500000 0.539568
O O10 0.750000 0.250000 0.536184
O O11 0.665588 0.261379 0.597369
O O12 0.677352 0.296386 0.431234
O O13 0.793109 0.500000 0.184427
O O14 0.750000 0.750000 0.155946
O O15 0.825782 0.744646 0.257467
O O16 0.834079 0.713032 0.094112
O O17 0.864235 0.000000 0.677206
O O18 0.250000 0.750000 0.339899
O O19 0.204178 0.000000 0.317806
O O20 0.047974 0.500000 0.932752
O O21 0.000000 0.263321 0.971541
O O22 0.094180 0.271426 0.994403
O O23 0.653208 0.000000 0.978155
#
# Coordination Sequence:
#
# PCOD8172497 Si02
#       8
#     8   8   8   8   8   8   8   8
#     4   9  17  30  49  69  88 115 152 190 226 266
#     4  11  22  32  43  61  89 124 155 183 215 256
#     4   9  18  31  46  66  91 119 153 186 223 268
#     4  10  19  29  43  64  89 117 149 184 221 264
#     4  10  20  32  45  66  93 120 150 186 225 265
#     4   9  16  28  46  64  85 114 146 185 225 263
#     4   8  14  27  47  67  86 111 146 186 223 261
#     4  10  19  31  47  66  89 119 152 185 221 264
#
# _framework density 15.962135999999999
#
# number of rings (size 3 to 8) (size 9 to 14) (size 15 to 20)
#    0.000    2.500    1.250    3.375    0.000    3.750 
#    0.000    0.000    0.000    0.375    0.000    0.875 
#    0.000    3.000    0.000    0.000    0.000    0.000 
#
# Total GULP energy -396600.332827 kJ/mol
# GULP energy per Si atom -12393.760401 kJ/mol
# Density = 1.592581 g / cm^3
# Si number density = 15.962136 Si / 1000 Ang^3
#
#
#
# Elastic Constant Matrix: (Units=GPa)
#
#
# Indices 1 2 3 4 5 6 
#
# 1 101.9169 31.1713 55.2828 0.0000 0.0000 0.0000
# 2 31.1713 50.0706 41.1486 0.0000 0.0000 0.0000
# 3 55.2828 41.1486 123.1701 0.0000 0.0000 0.0000
# 4 0.0000 0.0000 0.0000 18.3732 0.0000 0.0000
# 5 0.0000 0.0000 0.0000 0.0000 11.4983 0.0000
# 6 0.0000 0.0000 0.0000 0.0000 0.0000 19.0825
#
#
#
# Elastic Compliance Matrix: (Units=1/GPa)
#
#
# Indices 1 2 3 4 5 6 
#
# 1 0.013762 -0.004813 -0.004569 0.000000 0.000000 0.000000
# 2 -0.004813 0.029213 -0.007599 0.000000 0.000000 0.000000
# 3 -0.004569 -0.007599 0.012708 0.000000 0.000000 0.000000
# 4 0.000000 0.000000 0.000000 0.054427 0.000000 0.000000
# 5 0.000000 0.000000 0.000000 0.000000 0.086969 0.000000
# 6 0.000000 0.000000 0.000000 0.000000 0.000000 0.052404
#
#
# Mechanical properties :
#
#
# Convention : Reuss Voigt Hill
#
# Bulk Modulus (GPa) = 46.03751 58.92922 52.48337
# Shear Modulus (GPa) = 17.20060 19.62779 18.41419
#
# Velocity S-wave (km/s) = 3.28622 3.51044 3.40018
# Velocity P-wave (km/s) = 6.58053 7.30953 6.95458
#
# Compressibility (1/GPa) = 0.02172142
#
# Stress axis : x y z
#
# Youngs Moduli (GPa) = 72.66205 34.23105 78.68763
#
# Poissons Ratio (x) = 0.16474 0.35954
# Poissons Ratio (y) = 0.34970 0.59798
# Poissons Ratio (z) = 0.33201 0.26014
#
# Static dielectric constant tensor:
#      x y z
#    x 3.132800 0.000000 0.000000 
#    y 0.000000 2.951820 0.000000 
#    z 0.000000 0.000000 3.445830 
# 
# 
# High freq. dielectric constant tensor:
#      x y z
#    x 1.593080 0.000000 0.000000 
#    y 0.000000 1.608680 0.000000 
#    z 0.000000 0.000000 1.607780 
# 
# From -- ./inp_files/16238.got.cif
#   From: 2010.03.12/outbox.cif.g09.slc.cpg/sg35_9_cif.got.tgz:16238.got - 2010.04.14 02:02:04.
