data_PCOD8172470
_publ_section_title
;
Structure prediction by ZEFSAII (Michael W. Deem and Ramdas Pophale) SiO2 
 PCOD8172470
Probable space group: C M M 2
;
_chemical_formula_sum "Si O2"
_cell_formula_units_Z 48
_cell_length_a 13.361587
_cell_length_b 17.423881
_cell_length_c 10.075994
_cell_angle_alpha 90.000000
_cell_angle_beta 90.000000
_cell_angle_gamma 90.000000
_cell_volume 2345.799235
_symmetry_space_group_name_H-M "C M M 2"
_symmetry_group_IT_number 35
_symmetry_cell_setting 'orthorhombic'
loop_
_space_group_symop_operation_xyz
x,y,z
-x,-y,z
-x,y,z
x,-y,z
1/2+x,1/2+y,z
1/2-x,1/2-y,z
1/2-x,1/2+y,z
1/2+x,1/2-y,z
loop_
_atom_site_type_symbol
_atom_site_label
_atom_site_fract_x
_atom_site_fract_y
_atom_site_fract_z
Si Si1 0.113587 0.201726 0.261660
Si Si2 0.746709 0.585443 0.104783
Si Si3 0.677124 0.857548 0.605622
Si Si4 0.381968 0.127450 0.320678
Si Si5 0.388659 0.314900 0.562736
Si Si6 0.890805 0.588909 0.883102
O O1 0.165015 0.146860 0.153162
O O2 0.159782 0.287495 0.278386
O O3 0.119000 0.163896 0.407298
O O4 0.000000 0.209949 0.213143
O O5 0.700061 0.500000 0.076245
O O6 0.831300 0.570825 0.216406
O O7 0.801680 0.622638 0.974814
O O8 0.653052 0.899243 0.466941
O O9 0.626572 0.774686 0.589974
O O10 0.797165 0.858282 0.634223
O O11 0.628538 0.900952 0.727601
O O12 0.500000 0.122803 0.311286
O O13 0.500000 0.338720 0.615499
O O14 0.895288 0.500000 0.916503
O O15 0.000000 0.625804 0.917257
#
# Coordination Sequence:
#
# PCOD8172470 Si02
#       6
#     8   8   8   8   8   8
#     4   9  18  36  59  82 113 147 183 233 286 334
#     4  11  22  36  55  80 114 154 190 228 282 340
#     4  10  18  34  58  82 108 143 185 229 279 335
#     4  10  19  34  59  86 110 140 187 241 289 336
#     4   9  17  32  57  85 111 139 176 231 287 331
#     4  10  22  39  55  76 114 155 187 230 288 340
#
# _framework density 20.462109999999999
#
# number of rings (size 3 to 8) (size 9 to 14) (size 15 to 20)
#    0.000    2.167    1.667    3.500    0.000    2.000 
#    6.000    0.833    0.000    1.500    0.000    0.000 
#    0.000    0.000    0.000    0.000    0.000    0.000 
#
# Total GULP energy -297370.837088 kJ/mol
# GULP energy per Si atom -12390.451545 kJ/mol
# Density = 2.041554 g / cm^3
# Si number density = 20.462110 Si / 1000 Ang^3
#
#
#
# Elastic Constant Matrix: (Units=GPa)
#
#
# Indices 1 2 3 4 5 6 
#
# 1 89.1369 14.9918 19.3207 0.0000 0.0000 0.0000
# 2 14.9918 40.1030 18.1686 0.0000 0.0000 0.0000
# 3 19.3207 18.1686 100.7417 0.0000 0.0000 0.0000
# 4 0.0000 0.0000 0.0000 26.1498 0.0000 0.0000
# 5 0.0000 0.0000 0.0000 0.0000 30.1462 0.0000
# 6 0.0000 0.0000 0.0000 0.0000 0.0000 19.8376
#
#
#
# Elastic Compliance Matrix: (Units=1/GPa)
#
#
# Indices 1 2 3 4 5 6 
#
# 1 0.012220 -0.003818 -0.001655 0.000000 0.000000 0.000000
# 2 -0.003818 0.028348 -0.004380 0.000000 0.000000 0.000000
# 3 -0.001655 -0.004380 0.011034 0.000000 0.000000 0.000000
# 4 0.000000 0.000000 0.000000 0.038241 0.000000 0.000000
# 5 0.000000 0.000000 0.000000 0.000000 0.033172 0.000000
# 6 0.000000 0.000000 0.000000 0.000000 0.000000 0.050409
#
#
# Mechanical properties :
#
#
# Convention : Reuss Voigt Hill
#
# Bulk Modulus (GPa) = 31.35370 37.21598 34.28484
# Shear Modulus (GPa) = 24.53853 27.06010 25.79931
#
# Velocity S-wave (km/s) = 3.46673 3.64049 3.55467
# Velocity P-wave (km/s) = 5.60182 5.99151 5.79994
#
# Compressibility (1/GPa) = 0.03189416
#
# Stress axis : x y z
#
# Youngs Moduli (GPa) = 81.83569 35.27636 90.63131
#
# Poissons Ratio (x) = 0.13470 0.14999
# Poissons Ratio (y) = 0.31247 0.39698
# Poissons Ratio (z) = 0.13543 0.15452
#
# Static dielectric constant tensor:
#      x y z
#    x 4.003780 0.000000 0.000000 
#    y 0.000000 3.339980 0.000000 
#    z 0.000000 0.000000 3.616390 
# 
# 
# High freq. dielectric constant tensor:
#      x y z
#    x 1.813690 0.000000 0.000000 
#    y 0.000000 1.760950 0.000000 
#    z 0.000000 0.000000 1.784100 
# 
# From -- ./inp_files/7334.got.cif
#   From: 2010.03.12/outbox.cif.g09.slc.cpg/sg35_4_cif.got.tgz:7334.got - 2010.04.14 02:02:04.
