data_PCOD8172535
_publ_section_title
;
Structure prediction by ZEFSAII (Michael W. Deem and Ramdas Pophale) SiO2 
 PCOD8172535
Probable space group: C M M 2
;
_chemical_formula_sum "Si O2"
_cell_formula_units_Z 64
_cell_length_a 29.366187
_cell_length_b 9.160792
_cell_length_c 12.407512
_cell_angle_alpha 90.000000
_cell_angle_beta 90.000000
_cell_angle_gamma 90.000000
_cell_volume 3337.838243
_symmetry_space_group_name_H-M "C M M 2"
_symmetry_group_IT_number 35
_symmetry_cell_setting 'orthorhombic'
loop_
_space_group_symop_operation_xyz
x,y,z
-x,-y,z
-x,y,z
x,-y,z
1/2+x,1/2+y,z
1/2-x,1/2-y,z
1/2-x,1/2+y,z
1/2+x,1/2-y,z
loop_
_atom_site_type_symbol
_atom_site_label
_atom_site_fract_x
_atom_site_fract_y
_atom_site_fract_z
Si Si1 0.949668 0.829968 0.781260
Si Si2 0.170709 0.334086 0.496015
Si Si3 0.549236 0.666697 0.352248
Si Si4 0.068641 0.334733 0.563543
Si Si5 0.641072 0.332000 0.876901
Si Si6 0.701238 0.672979 0.070574
Si Si7 0.353076 0.330255 0.284712
Si Si8 0.208018 0.168691 0.688348
O O1 0.948212 0.748777 0.668245
O O2 0.910722 0.769991 0.864277
O O3 0.000000 0.807347 0.832811
O O4 0.939764 0.000000 0.758132
O O5 0.188241 0.500000 0.485254
O O6 0.122580 0.327475 0.554777
O O7 0.170036 0.263580 0.378232
O O8 0.203922 0.240881 0.570892
O O9 0.500000 0.687531 0.291817
O O10 0.555158 0.500000 0.390098
O O11 0.546835 0.763946 0.458359
O O12 0.592560 0.708038 0.276705
O O13 0.051157 0.500000 0.571553
O O14 0.638281 0.500000 0.909616
O O15 0.663632 0.307228 0.760629
O O16 0.671608 0.260041 0.971117
O O17 0.709536 0.500000 0.059656
O O18 0.750000 0.750000 0.075262
O O19 0.671696 0.713516 0.175049
O O20 0.345920 0.500000 0.311388
O O21 0.250000 0.250000 0.747540
O O22 0.219738 0.000000 0.674210
#
# Coordination Sequence:
#
# PCOD8172535 Si02
#       8
#     8   8   8   8   8   8   8   8
#     4  10  19  32  52  77 107 145 183 215 258 320
#     4  10  20  34  52  77 110 145 180 219 266 322
#     4   9  17  30  49  74 105 143 183 216 257 319
#     4  10  19  30  47  74 109 145 181 222 262 307
#     4   9  19  36  56  79 108 140 176 222 269 315
#     4  10  21  39  61  82 104 135 179 227 274 323
#     4   9  19  35  55  78 107 141 177 223 274 319
#     4  11  21  34  54  78 108 142 176 218 269 328
#
# _framework density 19.174087
#
# number of rings (size 3 to 8) (size 9 to 14) (size 15 to 20)
#    0.000    2.250    1.250    1.875    0.000    4.000 
#    0.000    3.125    0.000    3.750    0.000    0.000 
#    0.000    3.000    0.000    0.000    0.000    0.000 
#
# Total GULP energy -396612.185692 kJ/mol
# GULP energy per Si atom -12394.130803 kJ/mol
# Density = 1.913045 g / cm^3
# Si number density = 19.174087 Si / 1000 Ang^3
#
#
#
# Elastic Constant Matrix: (Units=GPa)
#
#
# Indices 1 2 3 4 5 6 
#
# 1 150.9269 44.8550 64.7699 0.0000 0.0000 0.0000
# 2 44.8550 79.0961 43.6387 0.0000 0.0000 0.0000
# 3 64.7699 43.6387 99.5646 0.0000 0.0000 0.0000
# 4 0.0000 0.0000 0.0000 14.2139 0.0000 0.0000
# 5 0.0000 0.0000 0.0000 0.0000 20.1110 0.0000
# 6 0.0000 0.0000 0.0000 0.0000 0.0000 24.3395
#
#
#
# Elastic Compliance Matrix: (Units=1/GPa)
#
#
# Indices 1 2 3 4 5 6 
#
# 1 0.009590 -0.002633 -0.005085 0.000000 0.000000 0.000000
# 2 -0.002633 0.017398 -0.005912 0.000000 0.000000 0.000000
# 3 -0.005085 -0.005912 0.015943 0.000000 0.000000 0.000000
# 4 0.000000 0.000000 0.000000 0.070353 0.000000 0.000000
# 5 0.000000 0.000000 0.000000 0.000000 0.049724 0.000000
# 6 0.000000 0.000000 0.000000 0.000000 0.000000 0.041086
#
#
# Mechanical properties :
#
#
# Convention : Reuss Voigt Hill
#
# Bulk Modulus (GPa) = 63.81419 70.67941 67.24680
# Shear Modulus (GPa) = 21.13457 23.48781 22.31119
#
# Velocity S-wave (km/s) = 3.32361 3.50376 3.41488
# Velocity P-wave (km/s) = 6.93414 7.30140 7.12014
#
# Compressibility (1/GPa) = 0.01567050
#
# Stress axis : x y z
#
# Youngs Moduli (GPa) = 104.27052 57.47709 62.72389
#
# Poissons Ratio (x) = 0.15136 0.31893
# Poissons Ratio (y) = 0.27458 0.37085
# Poissons Ratio (z) = 0.53018 0.33983
#
# Static dielectric constant tensor:
#      x y z
#    x 3.895900 0.000000 0.000000 
#    y 0.000000 3.432520 0.000000 
#    z 0.000000 0.000000 3.290850 
# 
# 
# High freq. dielectric constant tensor:
#      x y z
#    x 1.767070 0.000000 0.000000 
#    y 0.000000 1.731080 0.000000 
#    z 0.000000 0.000000 1.716220 
# 
# From -- ./inp_files/11942.got.cif
#   From: 2010.03.12/outbox.cif.g09.slc.cpg/sg35_6_cif.got.tgz:11942.got - 2010.04.14 02:02:04.
