data_PCOD8172692
_publ_section_title
;
Structure prediction by ZEFSAII (Michael W. Deem and Ramdas Pophale) SiO2 
 PCOD8172692
Probable space group: C M M 2
;
_chemical_formula_sum "Si O2"
_cell_formula_units_Z 64
_cell_length_a 37.950500
_cell_length_b 9.360149
_cell_length_c 9.885076
_cell_angle_alpha 90.000000
_cell_angle_beta 90.000000
_cell_angle_gamma 90.000000
_cell_volume 3511.399775
_symmetry_space_group_name_H-M "C M M 2"
_symmetry_group_IT_number 35
_symmetry_cell_setting 'orthorhombic'
loop_
_space_group_symop_operation_xyz
x,y,z
-x,-y,z
-x,y,z
x,-y,z
1/2+x,1/2+y,z
1/2-x,1/2-y,z
1/2-x,1/2+y,z
1/2+x,1/2-y,z
loop_
_atom_site_type_symbol
_atom_site_label
_atom_site_fract_x
_atom_site_fract_y
_atom_site_fract_z
Si Si1 0.349813 0.331719 0.000000
Si Si2 0.651203 0.332382 0.686535
Si Si3 0.214775 0.166558 0.187942
Si Si4 0.539645 0.168707 0.363686
Si Si5 0.215190 0.834263 0.495817
Si Si6 0.538307 0.164861 0.862338
Si Si7 0.915920 0.665125 0.115190
Si Si8 0.916171 0.668623 0.622068
O O1 0.356069 0.500000 0.010825
O O2 0.345411 0.283935 0.843453
O O3 0.315440 0.284421 0.083948
O O4 0.382626 0.255614 0.069750
O O5 0.643721 0.500000 0.676242
O O6 0.686050 0.288848 0.604827
O O7 0.620504 0.249964 0.607456
O O8 0.250000 0.250000 0.148062
O O9 0.202989 0.202782 0.342186
O O10 0.222910 0.000000 0.171547
O O11 0.500000 0.234291 0.351764
O O12 0.567257 0.227343 0.252740
O O13 0.556351 0.211039 0.506248
O O14 0.536666 0.000000 0.345332
O O15 0.250000 0.750000 0.536036
O O16 0.224172 0.000000 0.508003
O O17 0.500000 0.239591 0.850809
O O18 0.566302 0.230810 0.758597
O O19 0.534203 0.000000 0.822418
O O20 0.552045 0.184123 0.012415
O O21 0.904052 0.500000 0.127513
O O22 0.908276 0.500000 0.624795
#
# Coordination Sequence:
#
# PCOD8172692 Si02
#       8
#     8   8   8   8   8   8   8   8
#     4  10  21  36  53  75 107 142 172 207 255 306
#     4  10  21  36  53  75 107 142 172 207 255 306
#     4   9  19  36  56  78 103 134 170 207 251 302
#     4   9  18  32  51  77 106 133 168 219 270 309
#     4   9  19  36  56  78 103 134 170 207 251 302
#     4   9  16  28  49  73  98 131 170 211 254 299
#     4  10  19  32  51  77 104 133 173 216 257 304
#     4  10  19  32  51  77 104 133 173 216 257 304
#
# _framework density 18.22635
#
# number of rings (size 3 to 8) (size 9 to 14) (size 15 to 20)
#    0.000    2.500    1.250    0.750    1.750    4.500 
#    0.000    0.000    0.000    4.500    0.000    0.000 
#    0.000    0.000    0.000    0.000    0.000    0.000 
#
# Total GULP energy -396725.732183 kJ/mol
# GULP energy per Si atom -12397.679131 kJ/mol
# Density = 1.818487 g / cm^3
# Si number density = 18.226350 Si / 1000 Ang^3
#
#
#
# Elastic Constant Matrix: (Units=GPa)
#
#
# Indices 1 2 3 4 5 6 
#
# 1 144.1197 44.2345 53.5983 0.0000 0.0000 0.0000
# 2 44.2345 29.6051 23.7756 0.0000 0.0000 0.0000
# 3 53.5983 23.7756 90.2854 0.0000 0.0000 0.0000
# 4 0.0000 0.0000 0.0000 18.4239 0.0000 0.0000
# 5 0.0000 0.0000 0.0000 0.0000 17.9268 0.0000
# 6 0.0000 0.0000 0.0000 0.0000 0.0000 24.5076
#
#
#
# Elastic Compliance Matrix: (Units=1/GPa)
#
#
# Indices 1 2 3 4 5 6 
#
# 1 0.013617 -0.017569 -0.003457 0.000000 0.000000 0.000000
# 2 -0.017569 0.065506 -0.006820 0.000000 0.000000 0.000000
# 3 -0.003457 -0.006820 0.014924 0.000000 0.000000 0.000000
# 4 0.000000 0.000000 0.000000 0.054277 0.000000 0.000000
# 5 0.000000 0.000000 0.000000 0.000000 0.055782 0.000000
# 6 0.000000 0.000000 0.000000 0.000000 0.000000 0.040804
#
#
# Mechanical properties :
#
#
# Convention : Reuss Voigt Hill
#
# Bulk Modulus (GPa) = 26.07267 56.35855 41.21561
# Shear Modulus (GPa) = 15.95462 21.66511 18.80986
#
# Velocity S-wave (km/s) = 2.96186 3.45145 3.21598
# Velocity P-wave (km/s) = 5.10223 6.84631 6.03758
#
# Compressibility (1/GPa) = 0.03835433
#
# Stress axis : x y z
#
# Youngs Moduli (GPa) = 73.43819 15.26570 67.00474
#
# Poissons Ratio (x) = 0.26821 0.23164
# Poissons Ratio (y) = 1.29026 0.45699
# Poissons Ratio (z) = 0.25388 0.10412
#
# Static dielectric constant tensor:
#      x y z
#    x 3.403850 0.000000 0.000000 
#    y 0.000000 3.049070 0.000000 
#    z 0.000000 0.000000 3.556280 
# 
# 
# High freq. dielectric constant tensor:
#      x y z
#    x 1.715090 0.000000 0.000000 
#    y 0.000000 1.668180 0.000000 
#    z 0.000000 0.000000 1.719700 
# 
# From -- ./inp_files/10634.got.cif
#   From: 2010.03.12/outbox.cif.g09.slc.cpg/sg35_6_cif.got.tgz:10634.got - 2010.04.14 02:02:04.
