data_PCOD8172956
_publ_section_title
;
Structure prediction by ZEFSAII (Michael W. Deem and Ramdas Pophale) SiO2 
 PCOD8172956
Probable space group: C M M 2
;
_chemical_formula_sum "Si O2"
_cell_formula_units_Z 48
_cell_length_a 25.858585
_cell_length_b 16.823601
_cell_length_c 5.090887
_cell_angle_alpha 90.000000
_cell_angle_beta 90.000000
_cell_angle_gamma 90.000000
_cell_volume 2214.711564
_symmetry_space_group_name_H-M "C M M 2"
_symmetry_group_IT_number 35
_symmetry_cell_setting 'orthorhombic'
loop_
_space_group_symop_operation_xyz
x,y,z
-x,-y,z
-x,y,z
x,-y,z
1/2+x,1/2+y,z
1/2-x,1/2-y,z
1/2-x,1/2+y,z
1/2+x,1/2-y,z
loop_
_atom_site_type_symbol
_atom_site_label
_atom_site_fract_x
_atom_site_fract_y
_atom_site_fract_z
Si Si1 0.279738 0.406478 0.161700
Si Si2 0.058952 0.908529 0.728497
Si Si3 0.559415 0.174192 0.201534
Si Si4 0.400057 0.906817 0.704755
Si Si5 0.109189 0.159905 0.225791
Si Si6 0.715765 0.907457 0.672518
O O1 0.294697 0.500000 0.150755
O O2 0.329797 0.353707 0.214551
O O3 0.238365 0.389022 0.387985
O O4 0.254237 0.373548 0.894348
O O5 0.090689 0.857041 0.520922
O O6 0.000000 0.879335 0.723938
O O7 0.063829 0.000000 0.647989
O O8 0.081240 0.897980 0.019752
O O9 0.500000 0.199761 0.163705
O O10 0.565801 0.138172 0.490019
O O11 0.595930 0.249882 0.154264
O O12 0.575658 0.108105 0.989821
O O13 0.341742 0.871537 0.691958
O O14 0.401184 0.000000 0.643342
O O15 0.711052 0.000000 0.731822
#
# Coordination Sequence:
#
# PCOD8172956 Si02
#       6
#     8   8   8   8   8   8
#     4  10  19  35  61  91 124 164 207 244 287 355
#     4  11  22  37  59  85 118 167 221 263 297 346
#     4  12  26  43  64  92 127 165 204 256 322 375
#     4  11  24  45  70  93 119 155 206 263 320 385
#     4  12  24  40  59  90 131 169 204 252 308 362
#     4   9  19  37  62  91 121 155 198 253 310 361
#
# _framework density 21.673252000000002
#
# number of rings (size 3 to 8) (size 9 to 14) (size 15 to 20)
#    0.000    1.167    0.000    7.000    0.000    7.333 
#    0.000    5.000    0.000    0.000    0.000    0.000 
#    0.000    0.000    0.000    0.000    0.000    0.000 
#
# Total GULP energy -297764.933425 kJ/mol
# GULP energy per Si atom -12406.872226 kJ/mol
# Density = 2.162392 g / cm^3
# Si number density = 21.673252 Si / 1000 Ang^3
#
#
#
# Elastic Constant Matrix: (Units=GPa)
#
#
# Indices 1 2 3 4 5 6 
#
# 1 115.2336 35.3767 14.3504 0.0000 0.0000 0.0000
# 2 35.3767 57.8530 13.8836 0.0000 0.0000 0.0000
# 3 14.3504 13.8836 88.2897 0.0000 0.0000 0.0000
# 4 0.0000 0.0000 0.0000 25.1910 0.0000 0.0000
# 5 0.0000 0.0000 0.0000 0.0000 40.1006 0.0000
# 6 0.0000 0.0000 0.0000 0.0000 0.0000 14.8846
#
#
#
# Elastic Compliance Matrix: (Units=1/GPa)
#
#
# Indices 1 2 3 4 5 6 
#
# 1 0.010730 -0.006384 -0.000740 0.000000 0.000000 0.000000
# 2 -0.006384 0.021761 -0.002384 0.000000 0.000000 0.000000
# 3 -0.000740 -0.002384 0.011822 0.000000 0.000000 0.000000
# 4 0.000000 0.000000 0.000000 0.039697 0.000000 0.000000
# 5 0.000000 0.000000 0.000000 0.000000 0.024937 0.000000
# 6 0.000000 0.000000 0.000000 0.000000 0.000000 0.067184
#
#
# Mechanical properties :
#
#
# Convention : Reuss Voigt Hill
#
# Bulk Modulus (GPa) = 39.53173 43.17753 41.35463
# Shear Modulus (GPa) = 24.56053 29.21961 26.89007
#
# Velocity S-wave (km/s) = 3.36998 3.67575 3.52618
# Velocity P-wave (km/s) = 5.78116 6.16280 5.97503
#
# Compressibility (1/GPa) = 0.02529613
#
# Stress axis : x y z
#
# Youngs Moduli (GPa) = 93.19670 45.95380 84.59098
#
# Poissons Ratio (x) = 0.29335 0.06261
# Poissons Ratio (y) = 0.59494 0.20169
# Poissons Ratio (z) = 0.06898 0.10957
#
# Static dielectric constant tensor:
#      x y z
#    x 4.034940 0.000000 0.000000 
#    y 0.000000 3.611830 0.000000 
#    z 0.000000 0.000000 3.940460 
# 
# 
# High freq. dielectric constant tensor:
#      x y z
#    x 1.864280 0.000000 0.000000 
#    y 0.000000 1.829690 0.000000 
#    z 0.000000 0.000000 1.866760 
# 
# From -- ./inp_files/3380.got.cif
#   From: 2010.03.12/outbox.cif.g09.slc.cpg/sg35_2_cif.got.tgz:3380.got - 2010.04.14 02:02:04.
