data_PCOD8172220
_publ_section_title
;
Structure prediction by ZEFSAII (Michael W. Deem and Ramdas Pophale) SiO2 
 PCOD8172220
Probable space group: C M M 2
;
_chemical_formula_sum "Si O2"
_cell_formula_units_Z 40
_cell_length_a 8.800809
_cell_length_b 29.674869
_cell_length_c 7.397109
_cell_angle_alpha 90.000000
_cell_angle_beta 90.000000
_cell_angle_gamma 90.000000
_cell_volume 1931.850099
_symmetry_space_group_name_H-M "C M M 2"
_symmetry_group_IT_number 35
_symmetry_cell_setting 'orthorhombic'
loop_
_space_group_symop_operation_xyz
x,y,z
-x,-y,z
-x,y,z
x,-y,z
1/2+x,1/2+y,z
1/2-x,1/2-y,z
1/2-x,1/2+y,z
1/2+x,1/2-y,z
loop_
_atom_site_type_symbol
_atom_site_label
_atom_site_fract_x
_atom_site_fract_y
_atom_site_fract_z
Si Si1 0.821280 0.705404 0.577970
Si Si2 0.675980 0.707721 0.187662
Si Si3 0.823778 0.552129 0.865338
Si Si4 0.822038 0.114470 0.582638
Si Si5 0.674157 0.391809 0.165943
O O1 0.750000 0.750000 0.673510
O O2 0.772707 0.705147 0.369958
O O3 0.758548 0.659062 0.664160
O O4 0.000000 0.707046 0.602006
O O5 0.500000 0.717106 0.233333
O O6 0.750000 0.750000 0.075271
O O7 0.693257 0.659467 0.089463
O O8 0.782097 0.500000 0.883209
O O9 0.726958 0.571811 0.700209
O O10 0.000000 0.559790 0.824130
O O11 0.782293 0.575592 0.054151
O O12 0.776041 0.105278 0.375077
O O13 0.000000 0.122730 0.598690
O O14 0.500000 0.407377 0.142059
#
# Coordination Sequence:
#
# PCOD8172220 Si02
#       5
#     8   8   8   8   8
#     4  10  17  28  50  81 117 154 191 231 278 334
#     4   9  16  28  49  80 115 151 191 231 275 332
#     4  11  25  42  60  85 115 147 188 241 298 352
#     4  10  21  39  62  87 116 152 195 239 285 341
#     4   9  20  38  60  86 115 150 192 235 281 338
#
# _framework density 20.705539999999999
#
# number of rings (size 3 to 8) (size 9 to 14) (size 15 to 20)
#    0.000    2.200    0.000    6.000    0.000    7.200 
#    0.000    5.000    0.000    2.400    0.000    0.000 
#    0.000    0.000    0.000    0.000    0.000    0.000 
#
# Total GULP energy -247927.763145 kJ/mol
# GULP energy per Si atom -12396.388157 kJ/mol
# Density = 2.065841 g / cm^3
# Si number density = 20.705540 Si / 1000 Ang^3
#
#
#
# Elastic Constant Matrix: (Units=GPa)
#
#
# Indices 1 2 3 4 5 6 
#
# 1 122.4844 64.7840 34.8317 0.0000 0.0000 0.0000
# 2 64.7840 156.0089 49.2897 0.0000 0.0000 0.0000
# 3 34.8317 49.2897 70.6060 0.0000 0.0000 0.0000
# 4 0.0000 0.0000 0.0000 104.0800 0.0000 0.0000
# 5 0.0000 0.0000 0.0000 0.0000 25.4436 0.0000
# 6 0.0000 0.0000 0.0000 0.0000 0.0000 40.0886
#
#
#
# Elastic Compliance Matrix: (Units=1/GPa)
#
#
# Indices 1 2 3 4 5 6 
#
# 1 0.010889 -0.003624 -0.002842 0.000000 0.000000 0.000000
# 2 -0.003624 0.009430 -0.004795 0.000000 0.000000 0.000000
# 3 -0.002842 -0.004795 0.018913 0.000000 0.000000 0.000000
# 4 0.000000 0.000000 0.000000 0.009608 0.000000 0.000000
# 5 0.000000 0.000000 0.000000 0.000000 0.039303 0.000000
# 6 0.000000 0.000000 0.000000 0.000000 0.000000 0.024945
#
#
# Mechanical properties :
#
#
# Convention : Reuss Voigt Hill
#
# Bulk Modulus (GPa) = 59.84655 71.87888 65.86272
# Shear Modulus (GPa) = 35.41605 47.26871 41.34238
#
# Velocity S-wave (km/s) = 4.14026 4.78316 4.47327
# Velocity P-wave (km/s) = 7.19875 8.08053 7.65235
#
# Compressibility (1/GPa) = 0.01670940
#
# Stress axis : x y z
#
# Youngs Moduli (GPa) = 91.83340 106.04777 52.87484
#
# Poissons Ratio (x) = 0.38431 0.15028
# Poissons Ratio (y) = 0.33280 0.25354
# Poissons Ratio (z) = 0.26100 0.50851
#
# Static dielectric constant tensor:
#      x y z
#    x 3.749500 0.000000 0.000000 
#    y 0.000000 4.331090 0.000000 
#    z 0.000000 0.000000 3.347270 
# 
# 
# High freq. dielectric constant tensor:
#      x y z
#    x 1.816850 0.000000 0.000000 
#    y 0.000000 1.822560 0.000000 
#    z 0.000000 0.000000 1.779040 
# 
# From -- ./inp_files/4979.got.cif
#   From: 2010.03.12/outbox.cif.g09.slc.cpg/sg35_3_cif.got.tgz:4979.got - 2010.04.14 02:02:04.
