data_PCOD8172213
_publ_section_title
;
Structure prediction by ZEFSAII (Michael W. Deem and Ramdas Pophale) SiO2 
 PCOD8172213
Probable space group: C M M 2
;
_chemical_formula_sum "Si O2"
_cell_formula_units_Z 64
_cell_length_a 24.173860
_cell_length_b 14.051171
_cell_length_c 9.993903
_cell_angle_alpha 90.000000
_cell_angle_beta 90.000000
_cell_angle_gamma 90.000000
_cell_volume 3394.639432
_symmetry_space_group_name_H-M "C M M 2"
_symmetry_group_IT_number 35
_symmetry_cell_setting 'orthorhombic'
loop_
_space_group_symop_operation_xyz
x,y,z
-x,-y,z
-x,y,z
x,-y,z
1/2+x,1/2+y,z
1/2-x,1/2-y,z
1/2-x,1/2+y,z
1/2+x,1/2-y,z
loop_
_atom_site_type_symbol
_atom_site_label
_atom_site_fract_x
_atom_site_fract_y
_atom_site_fract_z
Si Si1 0.650120 0.608297 0.004620
Si Si2 0.880359 0.696334 0.620563
Si Si3 0.381274 0.797395 0.115258
Si Si4 0.769292 0.646607 0.727466
Si Si5 0.435264 0.891466 0.869261
Si Si6 0.650188 0.603183 0.690477
Si Si7 0.277327 0.895938 0.020589
Si Si8 0.934995 0.611117 0.364429
O O1 0.634477 0.500000 0.046364
O O2 0.612392 0.683999 0.086008
O O3 0.713556 0.631646 0.040350
O O4 0.640221 0.623094 0.847173
O O5 0.818326 0.652114 0.617580
O O6 0.906115 0.677410 0.764819
O O7 0.877123 0.811687 0.604089
O O8 0.918274 0.646835 0.510980
O O9 0.316593 0.822508 0.097577
O O10 0.401147 0.822175 0.263662
O O11 0.418855 0.860185 0.017739
O O12 0.750000 0.750000 0.775082
O O13 0.716315 0.594439 0.663600
O O14 0.791779 0.597598 0.862261
O O15 0.500000 0.880054 0.852098
O O16 0.416722 0.000000 0.845728
O O17 0.624615 0.500000 0.649320
O O18 0.288847 0.000000 0.081714
O O19 0.919629 0.500000 0.347308
O O20 0.000000 0.626843 0.344465
#
# Coordination Sequence:
#
# PCOD8172213 Si02
#       8
#     8   8   8   8   8   8   8   8
#     4   9  18  33  56  88 122 149 176 220 277 333
#     4  11  20  36  58  81 110 150 190 227 276 333
#     4  12  20  36  58  81 110 148 189 227 276 334
#     4   9  16  28  50  84 118 147 179 220 272 332
#     4  11  22  34  54  82 104 129 182 247 287 321
#     4   9  17  32  56  89 123 149 177 221 277 332
#     4  10  17  27  51  87 120 146 177 221 274 333
#     4  11  26  44  58  76 109 150 187 232 293 341
#
# _framework density 18.853254
#
# number of rings (size 3 to 8) (size 9 to 14) (size 15 to 20)
#    0.000    1.750    2.500    5.250    0.000    3.500 
#    0.000    4.375    0.000    6.000    0.000    0.000 
#    0.000    0.000    0.000    0.000    0.000    0.000 
#
# Total GULP energy -396694.397718 kJ/mol
# GULP energy per Si atom -12396.699929 kJ/mol
# Density = 1.881034 g / cm^3
# Si number density = 18.853254 Si / 1000 Ang^3
#
#
#
# Elastic Constant Matrix: (Units=GPa)
#
#
# Indices 1 2 3 4 5 6 
#
# 1 51.8374 38.4428 13.8887 0.0000 0.0000 0.0000
# 2 38.4428 118.9364 18.8030 0.0000 0.0000 0.0000
# 3 13.8887 18.8030 41.1164 0.0000 0.0000 0.0000
# 4 0.0000 0.0000 0.0000 29.9329 0.0000 0.0000
# 5 0.0000 0.0000 0.0000 0.0000 18.7047 0.0000
# 6 0.0000 0.0000 0.0000 0.0000 0.0000 20.5278
#
#
#
# Elastic Compliance Matrix: (Units=1/GPa)
#
#
# Indices 1 2 3 4 5 6 
#
# 1 0.026446 -0.007692 -0.005416 0.000000 0.000000 0.000000
# 2 -0.007692 0.011300 -0.002570 0.000000 0.000000 0.000000
# 3 -0.005416 -0.002570 0.027326 0.000000 0.000000 0.000000
# 4 0.000000 0.000000 0.000000 0.033408 0.000000 0.000000
# 5 0.000000 0.000000 0.000000 0.000000 0.053462 0.000000
# 6 0.000000 0.000000 0.000000 0.000000 0.000000 0.048715
#
#
# Mechanical properties :
#
#
# Convention : Reuss Voigt Hill
#
# Bulk Modulus (GPa) = 29.65769 39.35102 34.50436
# Shear Modulus (GPa) = 20.55491 23.21679 21.88585
#
# Velocity S-wave (km/s) = 3.30549 3.51301 3.41082
# Velocity P-wave (km/s) = 5.50757 6.11331 5.81832
#
# Compressibility (1/GPa) = 0.03371807
#
# Stress axis : x y z
#
# Youngs Moduli (GPa) = 37.81227 88.49368 36.59568
#
# Poissons Ratio (x) = 0.68068 0.19819
# Poissons Ratio (y) = 0.29085 0.09403
# Poissons Ratio (z) = 0.20478 0.22738
#
# Static dielectric constant tensor:
#      x y z
#    x 3.384630 0.000000 0.000000 
#    y 0.000000 3.528510 0.000000 
#    z 0.000000 0.000000 2.981130 
# 
# 
# High freq. dielectric constant tensor:
#      x y z
#    x 1.720530 0.000000 0.000000 
#    y 0.000000 1.749740 0.000000 
#    z 0.000000 0.000000 1.684400 
# 
# From -- ./inp_files/9911.got.cif
#   From: 2010.03.12/outbox.cif.g09.slc.cpg/sg35_5_cif.got.tgz:9911.got - 2010.04.14 02:02:04.
