data_PCOD8172406
_publ_section_title
;
Structure prediction by ZEFSAII (Michael W. Deem and Ramdas Pophale) SiO2 
 PCOD8172406
Probable space group: C M M 2
;
_chemical_formula_sum "Si O2"
_cell_formula_units_Z 36
_cell_length_a 9.154374
_cell_length_b 23.057227
_cell_length_c 9.197487
_cell_angle_alpha 90.000000
_cell_angle_beta 90.000000
_cell_angle_gamma 90.000000
_cell_volume 1941.354780
_symmetry_space_group_name_H-M "C M M 2"
_symmetry_group_IT_number 35
_symmetry_cell_setting 'orthorhombic'
loop_
_space_group_symop_operation_xyz
x,y,z
-x,-y,z
-x,y,z
x,-y,z
1/2+x,1/2+y,z
1/2-x,1/2-y,z
1/2-x,1/2+y,z
1/2+x,1/2-y,z
loop_
_atom_site_type_symbol
_atom_site_label
_atom_site_fract_x
_atom_site_fract_y
_atom_site_fract_z
Si Si1 0.325088 0.308444 0.949790
Si Si2 0.172455 0.066839 0.472391
Si Si3 0.160886 0.838130 0.262449
Si Si4 0.250000 0.750000 0.492205
Si Si5 0.333264 0.855689 0.689315
O O1 0.500000 0.303026 0.942056
O O2 0.250000 0.250000 0.895746
O O3 0.265996 0.354682 0.834031
O O4 0.259627 0.321654 0.111437
O O5 0.229324 0.103896 0.333323
O O6 0.266063 0.089085 0.607479
O O7 0.000000 0.078079 0.500464
O O8 0.206668 0.000000 0.442762
O O9 0.148455 0.786613 0.381776
O O10 0.000000 0.854215 0.210489
O O11 0.332762 0.796377 0.593548
O O12 0.500000 0.868823 0.731266
#
# Coordination Sequence:
#
# PCOD8172406 Si02
#       5
#     8   8   8   4   8
#     4  11  21  34  52  78 114 148 181 221 271 330
#     4   9  19  38  61  81 105 141 187 234 275 320
#     4   9  18  32  52  78 107 140 180 226 272 323
#     4  10  18  32  50  78 108 144 178 222 272 330
#     4  11  22  34  54  81 113 147 181 225 273 326
#
# _framework density 18.543751
#
# number of rings (size 3 to 8) (size 9 to 14) (size 15 to 20)
#    0.000    2.000    2.222    2.000    0.000    2.222 
#    0.000    2.222    0.000    4.000    0.000    0.000 
#    0.000    0.000    0.000    0.000    0.000    0.000 
#
# Total GULP energy -223008.242267 kJ/mol
# GULP energy per Si atom -12389.346793 kJ/mol
# Density = 1.850154 g / cm^3
# Si number density = 18.543751 Si / 1000 Ang^3
#
#
#
# Elastic Constant Matrix: (Units=GPa)
#
#
# Indices 1 2 3 4 5 6 
#
# 1 88.2416 23.8720 33.9659 0.0000 0.0000 0.0000
# 2 23.8720 100.9862 32.1420 0.0000 0.0000 0.0000
# 3 33.9659 32.1420 118.6877 0.0000 0.0000 0.0000
# 4 0.0000 0.0000 0.0000 17.9631 0.0000 0.0000
# 5 0.0000 0.0000 0.0000 0.0000 21.4793 0.0000
# 6 0.0000 0.0000 0.0000 0.0000 0.0000 21.8838
#
#
#
# Elastic Compliance Matrix: (Units=1/GPa)
#
#
# Indices 1 2 3 4 5 6 
#
# 1 0.013125 -0.002087 -0.003191 0.000000 0.000000 0.000000
# 2 -0.002087 0.011168 -0.002427 0.000000 0.000000 0.000000
# 3 -0.003191 -0.002427 0.009996 0.000000 0.000000 0.000000
# 4 0.000000 0.000000 0.000000 0.055670 0.000000 0.000000
# 5 0.000000 0.000000 0.000000 0.000000 0.046556 0.000000
# 6 0.000000 0.000000 0.000000 0.000000 0.000000 0.045696
#
#
# Mechanical properties :
#
#
# Convention : Reuss Voigt Hill
#
# Bulk Modulus (GPa) = 52.96873 54.20837 53.58855
# Shear Modulus (GPa) = 24.51996 26.79426 25.65711
#
# Velocity S-wave (km/s) = 3.64026 3.80534 3.72371
# Velocity P-wave (km/s) = 6.80403 6.97163 6.88834
#
# Compressibility (1/GPa) = 0.01887906
#
# Stress axis : x y z
#
# Youngs Moduli (GPa) = 76.18805 89.53959 100.04008
#
# Poissons Ratio (x) = 0.18687 0.31923
# Poissons Ratio (y) = 0.15901 0.24282
# Poissons Ratio (z) = 0.24312 0.21733
#
# Static dielectric constant tensor:
#      x y z
#    x 3.155300 0.000000 0.000000 
#    y 0.000000 3.269030 0.000000 
#    z 0.000000 0.000000 3.652080 
# 
# 
# High freq. dielectric constant tensor:
#      x y z
#    x 1.701330 0.000000 0.000000 
#    y 0.000000 1.698850 0.000000 
#    z 0.000000 0.000000 1.730090 
# 
# From -- ./inp_files/4818.got.cif
#   From: 2010.03.12/outbox.cif.g09.slc.cpg/sg35_3_cif.got.tgz:4818.got - 2010.04.14 02:02:04.
