data_PCOD8172174
_publ_section_title
;
Structure prediction by ZEFSAII (Michael W. Deem and Ramdas Pophale) SiO2 
 PCOD8172174
Probable space group: C M M 2
;
_chemical_formula_sum "Si O2"
_cell_formula_units_Z 56
_cell_length_a 8.647770
_cell_length_b 18.960217
_cell_length_c 18.363340
_cell_angle_alpha 90.000000
_cell_angle_beta 90.000000
_cell_angle_gamma 90.000000
_cell_volume 3010.919257
_symmetry_space_group_name_H-M "C M M 2"
_symmetry_group_IT_number 35
_symmetry_cell_setting 'orthorhombic'
loop_
_space_group_symop_operation_xyz
x,y,z
-x,-y,z
-x,y,z
x,-y,z
1/2+x,1/2+y,z
1/2-x,1/2-y,z
1/2-x,1/2+y,z
1/2+x,1/2-y,z
loop_
_atom_site_type_symbol
_atom_site_label
_atom_site_fract_x
_atom_site_fract_y
_atom_site_fract_z
Si Si1 0.678413 0.582492 0.079480
Si Si2 0.319777 0.827366 0.494172
Si Si3 0.818839 0.672968 0.204399
Si Si4 0.319022 0.827142 0.651911
Si Si5 0.682447 0.671564 0.351322
Si Si6 0.317257 0.328469 0.797357
Si Si7 0.679673 0.918145 0.927015
O O1 0.500000 0.602782 0.090536
O O2 0.708230 0.500000 0.090698
O O3 0.782749 0.623138 0.136957
O O4 0.730535 0.605983 0.999255
O O5 0.500000 0.821174 0.477474
O O6 0.250000 0.750000 0.499176
O O7 0.291402 0.865493 0.573054
O O8 0.239731 0.868005 0.425669
O O9 0.750000 0.750000 0.189632
O O10 0.747468 0.636545 0.277336
O O11 0.000000 0.680776 0.215018
O O12 0.500000 0.822622 0.669942
O O13 0.250000 0.750000 0.644961
O O14 0.232840 0.864420 0.719921
O O15 0.500000 0.671530 0.348434
O O16 0.750000 0.750000 0.353387
O O17 0.500000 0.326622 0.804511
O O18 0.250000 0.250000 0.802636
O O19 0.246658 0.374939 0.860528
O O20 0.500000 0.901175 0.937746
O O21 0.708813 0.000000 0.910618
#
# Coordination Sequence:
#
# PCOD8172174 Si02
#       7
#     8   8   8   8   8   8   8
#     4  10  21  38  58  79 103 130 164 205 249 299
#     4   9  15  23  37  59  89 126 164 201 243 292
#     4  11  21  34  52  75 105 136 170 209 252 299
#     4   9  16  26  41  63  94 129 165 204 247 294
#     4  10  17  26  41  63  94 129 165 204 248 294
#     4  11  21  33  51  75 105 136 169 209 253 299
#     4  10  21  38  58  78 101 130 166 206 249 299
#
# _framework density 18.598972
#
# number of rings (size 3 to 8) (size 9 to 14) (size 15 to 20)
#    0.000    2.000    0.000    8.143    0.000    4.000 
#    0.000    2.857    0.000    0.000    0.000    1.000 
#    0.000    1.143    0.000    0.000    0.000    0.000 
#
# Total GULP energy -347007.898807 kJ/mol
# GULP energy per Si atom -12393.139243 kJ/mol
# Density = 1.855664 g / cm^3
# Si number density = 18.598972 Si / 1000 Ang^3
#
#
#
# Elastic Constant Matrix: (Units=GPa)
#
#
# Indices 1 2 3 4 5 6 
#
# 1 105.6131 26.6912 36.9371 0.0000 0.0000 0.0000
# 2 26.6912 27.8008 42.1561 0.0000 0.0000 0.0000
# 3 36.9371 42.1561 160.7457 0.0000 0.0000 0.0000
# 4 0.0000 0.0000 0.0000 -9.9955 0.0000 0.0000
# 5 0.0000 0.0000 0.0000 0.0000 39.0312 0.0000
# 6 0.0000 0.0000 0.0000 0.0000 0.0000 18.7745
#
#
#
# Elastic Compliance Matrix: (Units=1/GPa)
#
#
# Indices 1 2 3 4 5 6 
#
# 1 0.012522 -0.012716 0.000457 0.000000 0.000000 0.000000
# 2 -0.012716 0.072631 -0.016126 0.000000 0.000000 0.000000
# 3 0.000457 -0.016126 0.010345 0.000000 0.000000 0.000000
# 4 0.000000 0.000000 0.000000 -0.100045 0.000000 0.000000
# 5 0.000000 0.000000 0.000000 0.000000 0.025621 0.000000
# 6 0.000000 0.000000 0.000000 0.000000 0.000000 0.053264
#
#
# Mechanical properties :
#
#
# Convention : Reuss Voigt Hill
#
# Bulk Modulus (GPa) = 25.82001 56.19205 41.00603
# Shear Modulus (GPa) = 34.71820 22.12038 28.41929
#
# Velocity S-wave (km/s) = 4.32519 3.45241 3.91321
# Velocity P-wave (km/s) = 6.23343 6.79487 6.52019
#
# Compressibility (1/GPa) = 0.03872965
#
# Stress axis : x y z
#
# Youngs Moduli (GPa) = 79.85812 13.76815 96.66532
#
# Poissons Ratio (x) = 0.17508 -0.04421
# Poissons Ratio (y) = 1.01547 1.55881
# Poissons Ratio (z) = -0.03653 0.22202
#
# Static dielectric constant tensor:
#      x y z
#    x 3.629730 0.000000 0.000000 
#    y 0.000000 2.815580 0.000000 
#    z 0.000000 0.000000 4.578070 
# 
# 
# High freq. dielectric constant tensor:
#      x y z
#    x 1.745050 0.000000 0.000000 
#    y 0.000000 1.646730 0.000000 
#    z 0.000000 0.000000 1.757580 
# 
# From -- ./inp_files/18236.got.cif
#   From: 2010.03.12/outbox.cif.g09.slc.cpg/sg35_10_cif.got.tgz:18236.got - 2010.04.14 02:02:04.
