data_PCOD8172797
_publ_section_title
;
Structure prediction by ZEFSAII (Michael W. Deem and Ramdas Pophale) SiO2 
 PCOD8172797
Probable space group: C M M 2
;
_chemical_formula_sum "Si O2"
_cell_formula_units_Z 56
_cell_length_a 19.161065
_cell_length_b 8.682798
_cell_length_c 17.857767
_cell_angle_alpha 90.000000
_cell_angle_beta 90.000000
_cell_angle_gamma 90.000000
_cell_volume 2971.026284
_symmetry_space_group_name_H-M "C M M 2"
_symmetry_group_IT_number 35
_symmetry_cell_setting 'orthorhombic'
loop_
_space_group_symop_operation_xyz
x,y,z
-x,-y,z
-x,y,z
x,-y,z
1/2+x,1/2+y,z
1/2-x,1/2-y,z
1/2-x,1/2+y,z
1/2+x,1/2-y,z
loop_
_atom_site_type_symbol
_atom_site_label
_atom_site_fract_x
_atom_site_fract_y
_atom_site_fract_z
Si Si1 0.080073 0.320002 0.798220
Si Si2 0.174251 0.816720 0.234040
Si Si3 0.076858 0.817421 0.365233
Si Si4 0.080702 0.180296 0.533215
Si Si5 0.581488 0.322901 0.954923
Si Si6 0.674828 0.819068 0.079018
Si Si7 0.673283 0.819030 0.660224
O O1 0.090629 0.500000 0.814623
O O2 0.102594 0.225532 0.871302
O O3 0.129262 0.259939 0.731542
O O4 0.000000 0.284778 0.775943
O O5 0.250000 0.750000 0.248108
O O6 0.127691 0.750731 0.301838
O O7 0.144440 0.755917 0.155079
O O8 0.176114 0.000000 0.232461
O O9 0.101552 0.771336 0.448597
O O10 0.000000 0.748974 0.350096
O O11 0.073735 0.000000 0.359826
O O12 0.132152 0.273951 0.585812
O O13 0.000000 0.223774 0.549161
O O14 0.092508 0.000000 0.546516
O O15 0.500000 0.294650 0.968214
O O16 0.602399 0.500000 0.967489
O O17 0.621993 0.215523 0.012446
O O18 0.750000 0.750000 0.058757
O O19 0.682766 0.000000 0.090724
O O20 0.750000 0.750000 0.661458
O O21 0.680725 0.000000 0.662604
#
# Coordination Sequence:
#
# PCOD8172797 Si02
#       7
#     8   8   8   8   8   8   8
#     4   9  19  37  58  78 104 140 179 220 268 318
#     4  10  19  33  53  76 105 140 178 219 265 318
#     4   8  16  32  54  79 105 136 175 218 264 314
#     4   9  18  35  58  81 107 141 180 220 266 321
#     4  10  21  37  58  84 111 140 177 218 262 316
#     4  11  22  37  56  78 108 144 182 222 267 318
#     4  11  23  37  54  79 111 144 180 222 267 315
#
# _framework density 18.848704999999999
#
# number of rings (size 3 to 8) (size 9 to 14) (size 15 to 20)
#    0.000    2.286    0.000    4.714    0.000    4.571 
#    0.000    7.143    0.000    3.000    0.000    0.000 
#    0.000    0.000    0.000    0.000    0.000    0.000 
#
# Total GULP energy -347222.466148 kJ/mol
# GULP energy per Si atom -12400.802362 kJ/mol
# Density = 1.880580 g / cm^3
# Si number density = 18.848705 Si / 1000 Ang^3
#
#
#
# Elastic Constant Matrix: (Units=GPa)
#
#
# Indices 1 2 3 4 5 6 
#
# 1 98.2441 33.9250 86.3657 0.0000 0.0000 0.0000
# 2 33.9250 68.9877 40.5422 0.0000 0.0000 0.0000
# 3 86.3657 40.5422 150.7630 0.0000 0.0000 0.0000
# 4 0.0000 0.0000 0.0000 30.3661 0.0000 0.0000
# 5 0.0000 0.0000 0.0000 0.0000 23.7390 0.0000
# 6 0.0000 0.0000 0.0000 0.0000 0.0000 18.6947
#
#
#
# Elastic Compliance Matrix: (Units=1/GPa)
#
#
# Indices 1 2 3 4 5 6 
#
# 1 0.021369 -0.003936 -0.011183 0.000000 0.000000 0.000000
# 2 -0.003936 0.017941 -0.002570 0.000000 0.000000 0.000000
# 3 -0.011183 -0.002570 0.013730 0.000000 0.000000 0.000000
# 4 0.000000 0.000000 0.000000 0.032931 0.000000 0.000000
# 5 0.000000 0.000000 0.000000 0.000000 0.042125 0.000000
# 6 0.000000 0.000000 0.000000 0.000000 0.000000 0.053491
#
#
# Mechanical properties :
#
#
# Convention : Reuss Voigt Hill
#
# Bulk Modulus (GPa) = 56.61718 71.07340 63.84529
# Shear Modulus (GPa) = 22.43646 25.03743 23.73694
#
# Velocity S-wave (km/s) = 3.45388 3.64859 3.55257
# Velocity P-wave (km/s) = 6.78297 7.45243 7.12557
#
# Compressibility (1/GPa) = 0.01766248
#
# Stress axis : x y z
#
# Youngs Moduli (GPa) = 46.79783 55.73767 72.83350
#
# Poissons Ratio (x) = 0.21940 0.81446
# Poissons Ratio (y) = 0.18421 0.18716
# Poissons Ratio (z) = 0.52332 0.14323
#
# Static dielectric constant tensor:
#      x y z
#    x 3.563580 0.000000 0.000000 
#    y 0.000000 3.320740 0.000000 
#    z 0.000000 0.000000 3.685430 
# 
# 
# High freq. dielectric constant tensor:
#      x y z
#    x 1.728880 0.000000 0.000000 
#    y 0.000000 1.724780 0.000000 
#    z 0.000000 0.000000 1.744980 
# 
# From -- ./inp_files/17405.got.cif
#   From: 2010.03.12/outbox.cif.g09.slc.cpg/sg35_9_cif.got.tgz:17405.got - 2010.04.14 02:02:04.
