data_PCOD8172966
_publ_section_title
;
Structure prediction by ZEFSAII (Michael W. Deem and Ramdas Pophale) SiO2 
 PCOD8172966
Probable space group: C M M 2
;
_chemical_formula_sum "Si O2"
_cell_formula_units_Z 64
_cell_length_a 13.243178
_cell_length_b 24.181597
_cell_length_c 9.644701
_cell_angle_alpha 90.000000
_cell_angle_beta 90.000000
_cell_angle_gamma 90.000000
_cell_volume 3088.630558
_symmetry_space_group_name_H-M "C M M 2"
_symmetry_group_IT_number 35
_symmetry_cell_setting 'orthorhombic'
loop_
_space_group_symop_operation_xyz
x,y,z
-x,-y,z
-x,y,z
x,-y,z
1/2+x,1/2+y,z
1/2-x,1/2-y,z
1/2-x,1/2+y,z
1/2+x,1/2-y,z
loop_
_atom_site_type_symbol
_atom_site_label
_atom_site_fract_x
_atom_site_fract_y
_atom_site_fract_z
Si Si1 0.381620 0.722482 0.020710
Si Si2 0.256604 0.438224 0.977053
Si Si3 0.881697 0.135600 0.788198
Si Si4 0.884639 0.342700 0.062320
Si Si5 0.239768 0.809713 0.554037
Si Si6 0.384798 0.124950 0.373908
Si Si7 0.385651 0.673466 0.303709
Si Si8 0.298975 0.440123 0.292994
O O1 0.500000 0.731112 0.047353
O O2 0.333443 0.784445 0.011597
O O3 0.339224 0.687148 0.151857
O O4 0.361645 0.689243 0.881809
O O5 0.218030 0.500000 0.934570
O O6 0.340492 0.418915 0.865696
O O7 0.166170 0.393849 0.982224
O O8 0.305663 0.441727 0.127562
O O9 0.819100 0.145921 0.648244
O O10 0.000000 0.127346 0.755115
O O11 0.875978 0.342242 0.228931
O O12 0.000000 0.346289 0.014662
O O13 0.250000 0.750000 0.630584
O O14 0.344761 0.837385 0.501709
O O15 0.174189 0.793158 0.419479
O O16 0.500000 0.107035 0.405134
O O17 0.313991 0.071153 0.352776
O O18 0.500000 0.692137 0.314343
O O19 0.373966 0.608308 0.340064
O O20 0.333467 0.500000 0.351441
#
# Coordination Sequence:
#
# PCOD8172966 Si02
#       8
#     8   8   8   8   8   8   8   8
#     4   9  18  33  58  88 119 156 196 241 298 361
#     4  10  21  37  59  86 118 159 204 249 299 360
#     4  11  24  41  57  85 124 162 203 247 301 359
#     4   9  18  34  61  94 123 153 194 251 307 359
#     4  11  24  38  57  87 118 164 198 248 303 364
#     4   9  19  37  58  85 119 156 201 246 301 360
#     4  10  19  36  59  89 124 160 200 246 302 363
#     4   9  18  33  56  91 122 150 200 254 302 355
#
# _framework density 20.721157000000002
#
# number of rings (size 3 to 8) (size 9 to 14) (size 15 to 20)
#    0.000    2.250    1.250    1.125    1.750    3.000 
#    0.000    6.875    0.000    3.000    0.000    0.000 
#    0.000    0.000    0.000    0.000    0.000    0.000 
#
# Total GULP energy -396638.058578 kJ/mol
# GULP energy per Si atom -12394.939331 kJ/mol
# Density = 2.067399 g / cm^3
# Si number density = 20.721157 Si / 1000 Ang^3
#
#
#
# Elastic Constant Matrix: (Units=GPa)
#
#
# Indices 1 2 3 4 5 6 
#
# 1 72.2454 22.9215 31.3889 0.0000 0.0000 0.0000
# 2 22.9215 137.7901 17.8467 0.0000 0.0000 0.0000
# 3 31.3889 17.8467 62.1050 0.0000 0.0000 0.0000
# 4 0.0000 0.0000 0.0000 14.8152 0.0000 0.0000
# 5 0.0000 0.0000 0.0000 0.0000 29.2963 0.0000
# 6 0.0000 0.0000 0.0000 0.0000 0.0000 24.9284
#
#
#
# Elastic Compliance Matrix: (Units=1/GPa)
#
#
# Indices 1 2 3 4 5 6 
#
# 1 0.018207 -0.001908 -0.008654 0.000000 0.000000 0.000000
# 2 -0.001908 0.007738 -0.001259 0.000000 0.000000 0.000000
# 3 -0.008654 -0.001259 0.020837 0.000000 0.000000 0.000000
# 4 0.000000 0.000000 0.000000 0.067498 0.000000 0.000000
# 5 0.000000 0.000000 0.000000 0.000000 0.034134 0.000000
# 6 0.000000 0.000000 0.000000 0.000000 0.000000 0.040115
#
#
# Mechanical properties :
#
#
# Convention : Reuss Voigt Hill
#
# Bulk Modulus (GPa) = 43.21486 46.27278 44.74382
# Shear Modulus (GPa) = 22.73920 27.14022 24.93971
#
# Velocity S-wave (km/s) = 3.31628 3.62302 3.47304
# Velocity P-wave (km/s) = 5.96358 6.31517 6.14189
#
# Compressibility (1/GPa) = 0.02314019
#
# Stress axis : x y z
#
# Youngs Moduli (GPa) = 54.92422 129.23403 47.99059
#
# Poissons Ratio (x) = 0.24656 0.41530
# Poissons Ratio (y) = 0.10479 0.06044
# Poissons Ratio (z) = 0.47530 0.16275
#
# Static dielectric constant tensor:
#      x y z
#    x 3.804550 0.000000 0.000000 
#    y 0.000000 3.909080 0.000000 
#    z 0.000000 0.000000 3.476140 
# 
# 
# High freq. dielectric constant tensor:
#      x y z
#    x 1.811230 0.000000 0.000000 
#    y 0.000000 1.808680 0.000000 
#    z 0.000000 0.000000 1.784020 
# 
# From -- ./inp_files/7866.got.cif
#   From: 2010.03.12/outbox.cif.g09.slc.cpg/sg35_4_cif.got.tgz:7866.got - 2010.04.14 02:02:04.
