data_PCOD8172972
_publ_section_title
;
Structure prediction by ZEFSAII (Michael W. Deem and Ramdas Pophale) SiO2 
 PCOD8172972
Probable space group: C M M 2
;
_chemical_formula_sum "Si O2"
_cell_formula_units_Z 64
_cell_length_a 30.596015
_cell_length_b 8.963656
_cell_length_c 11.800334
_cell_angle_alpha 90.000000
_cell_angle_beta 90.000000
_cell_angle_gamma 90.000000
_cell_volume 3236.267011
_symmetry_space_group_name_H-M "C M M 2"
_symmetry_group_IT_number 35
_symmetry_cell_setting 'orthorhombic'
loop_
_space_group_symop_operation_xyz
x,y,z
-x,-y,z
-x,y,z
x,-y,z
1/2+x,1/2+y,z
1/2-x,1/2-y,z
1/2-x,1/2+y,z
1/2+x,1/2-y,z
loop_
_atom_site_type_symbol
_atom_site_label
_atom_site_fract_x
_atom_site_fract_y
_atom_site_fract_z
Si Si1 0.822318 0.173791 0.820690
Si Si2 0.376855 0.824685 0.190130
Si Si3 0.549658 0.670153 0.052614
Si Si4 0.377719 0.677018 0.432341
Si Si5 0.449998 0.171258 0.579544
Si Si6 0.076948 0.172350 0.802844
Si Si7 0.206563 0.324528 0.044049
Si Si8 0.794024 0.174685 0.571004
O O1 0.872854 0.218246 0.816396
O O2 0.800636 0.217100 0.701832
O O3 0.816461 0.000000 0.849944
O O4 0.798695 0.270896 0.915374
O O5 0.420445 0.782506 0.122557
O O6 0.375288 0.737021 0.306365
O O7 0.334936 0.774228 0.117628
O O8 0.377081 0.000000 0.214014
O O9 0.500000 0.693411 0.093154
O O10 0.565165 0.500000 0.074502
O O11 0.552256 0.706083 0.919549
O O12 0.379791 0.500000 0.430918
O O13 0.421059 0.734649 0.493176
O O14 0.335210 0.735040 0.499900
O O15 0.500000 0.189783 0.540835
O O16 0.445274 0.228127 0.707482
O O17 0.435101 0.000000 0.574559
O O18 0.072813 0.000000 0.766270
O O19 0.212684 0.500000 0.045031
O O20 0.250000 0.250000 0.097009
O O21 0.750000 0.250000 0.524413
O O22 0.789333 0.000000 0.553797
#
# Coordination Sequence:
#
# PCOD8172972 Si02
#       8
#     8   8   8   8   8   8   8   8
#     4  10  19  36  62  91 124 157 196 245 298 355
#     4  11  25  43  62  88 120 157 202 252 308 360
#     4  10  21  38  63  93 122 159 204 246 295 356
#     4  11  24  44  66  87 115 157 208 254 300 357
#     4  11  24  40  61  92 127 161 199 247 304 360
#     4  10  19  36  63  92 125 161 199 245 296 356
#     4  11  24  40  61  90 123 160 202 246 300 361
#     4  10  22  39  60  90 121 154 194 241 297 355
#
# _framework density 19.775872
#
# number of rings (size 3 to 8) (size 9 to 14) (size 15 to 20)
#    0.000    1.500    2.500    2.250    0.000    7.750 
#    0.000    2.500    0.000    0.000    0.000    0.000 
#    0.000    0.000    0.000    0.000    0.000    0.000 
#
# Total GULP energy -396984.223975 kJ/mol
# GULP energy per Si atom -12405.756999 kJ/mol
# Density = 1.973086 g / cm^3
# Si number density = 19.775872 Si / 1000 Ang^3
#
#
#
# Elastic Constant Matrix: (Units=GPa)
#
#
# Indices 1 2 3 4 5 6 
#
# 1 133.6509 51.9662 53.6813 0.0000 0.0000 0.0000
# 2 51.9662 75.5063 47.9235 0.0000 0.0000 0.0000
# 3 53.6813 47.9235 106.3245 0.0000 0.0000 0.0000
# 4 0.0000 0.0000 0.0000 31.6198 0.0000 0.0000
# 5 0.0000 0.0000 0.0000 0.0000 10.7799 0.0000
# 6 0.0000 0.0000 0.0000 0.0000 0.0000 34.7246
#
#
#
# Elastic Compliance Matrix: (Units=1/GPa)
#
#
# Indices 1 2 3 4 5 6 
#
# 1 0.010841 -0.005585 -0.002956 0.000000 0.000000 0.000000
# 2 -0.005585 0.021428 -0.006839 0.000000 0.000000 0.000000
# 3 -0.002956 -0.006839 0.013980 0.000000 0.000000 0.000000
# 4 0.000000 0.000000 0.000000 0.031626 0.000000 0.000000
# 5 0.000000 0.000000 0.000000 0.000000 0.092765 0.000000
# 6 0.000000 0.000000 0.000000 0.000000 0.000000 0.028798
#
#
# Mechanical properties :
#
#
# Convention : Reuss Voigt Hill
#
# Bulk Modulus (GPa) = 64.55823 69.18042 66.86933
# Shear Modulus (GPa) = 21.24397 26.21890 23.73143
#
# Velocity S-wave (km/s) = 3.28111 3.64511 3.46789
# Velocity P-wave (km/s) = 6.86076 7.26457 7.06555
#
# Compressibility (1/GPa) = 0.01548989
#
# Stress axis : x y z
#
# Youngs Moduli (GPa) = 92.24170 46.66772 71.53078
#
# Poissons Ratio (x) = 0.26064 0.21146
# Poissons Ratio (y) = 0.51517 0.48916
# Poissons Ratio (z) = 0.27268 0.31914
#
# Static dielectric constant tensor:
#      x y z
#    x 3.807460 0.000000 0.000000 
#    y 0.000000 3.539760 0.000000 
#    z 0.000000 0.000000 3.563420 
# 
# 
# High freq. dielectric constant tensor:
#      x y z
#    x 1.787710 0.000000 0.000000 
#    y 0.000000 1.768880 0.000000 
#    z 0.000000 0.000000 1.767980 
# 
# From -- ./inp_files/11948.got.cif
#   From: 2010.03.12/outbox.cif.g09.slc.cpg/sg35_6_cif.got.tgz:11948.got - 2010.04.14 02:02:04.
