data_PCOD8172027
_publ_section_title
;
Structure prediction by ZEFSAII (Michael W. Deem and Ramdas Pophale) SiO2 
 PCOD8172027
Probable space group: P N N 2
;
_chemical_formula_sum "Si O2"
_cell_formula_units_Z 26
_cell_length_a 7.431602
_cell_length_b 14.273044
_cell_length_c 12.640291
_cell_angle_alpha 90.000000
_cell_angle_beta 90.000000
_cell_angle_gamma 90.000000
_cell_volume 1340.775668
_symmetry_space_group_name_H-M "P N N 2"
_symmetry_group_IT_number 34
_symmetry_cell_setting 'orthorhombic'
loop_
_space_group_symop_operation_xyz
x,y,z
-x,-y,z
1/2-x,1/2+y,1/2+z
1/2+x,1/2-y,1/2+z
loop_
_atom_site_type_symbol
_atom_site_label
_atom_site_fract_x
_atom_site_fract_y
_atom_site_fract_z
Si Si1 0.054626 0.815374 0.478390
Si Si2 0.200969 0.008462 0.003416
Si Si3 0.000000 0.000000 0.354204
Si Si4 0.841778 0.434258 0.721052
Si Si5 0.454978 0.279115 0.219936
Si Si6 0.668544 0.165778 0.882613
Si Si7 0.222317 0.666920 0.349534
O O1 0.075643 0.819899 0.604010
O O2 0.219921 0.752840 0.433771
O O3 0.865313 0.765011 0.443861
O O4 0.072023 0.918538 0.430370
O O5 0.190414 0.075811 0.902061
O O6 0.290632 0.909913 0.973110
O O7 0.321248 0.051593 0.095789
O O8 0.000000 0.000000 0.048067
O O9 0.158264 0.041670 0.281827
O O10 0.902997 0.328196 0.735578
O O11 0.000000 0.500000 0.765762
O O12 0.331498 0.336020 0.301221
O O13 0.663045 0.299498 0.248793
O O14 0.484324 0.141853 0.817595
#
# Coordination Sequence:
#
# PCOD8172027 Si02
#       7
#     4   4   2   4   4   4   4
#     4  10  24  42  63  94 137 168 214 277 320 395
#     4  12  21  39  70  99 128 169 223 279 321 378
#     4  12  24  44  60  96 138 170 216 272 330 402
#     4  12  23  40  69  95 127 177 228 268 329 384
#     4  12  22  43  66  95 129 179 214 270 337 386
#     4  10  23  42  63  95 131 165 216 278 314 384
#     4  10  22  42  61  96 130 163 219 272 318 387
#
# _framework density 19.391760999999999
#
# number of rings (size 3 to 8) (size 9 to 14) (size 15 to 20)
#    0.923    0.000    5.385    3.231    0.000    1.231 
#    5.538    0.000    0.000    0.000    0.000    0.000 
#    0.000    0.000    0.000    0.000    0.000    0.000 
#
# Total GULP energy -322318.426620 kJ/mol
# GULP energy per Si atom -12396.862562 kJ/mol
# Density = 1.934762 g / cm^3
# Si number density = 19.391761 Si / 1000 Ang^3
#
#
#
# Elastic Constant Matrix: (Units=GPa)
#
#
# Indices 1 2 3 4 5 6 
#
# 1 91.1426 11.0030 11.9078 0.0000 0.0000 0.0000
# 2 11.0030 96.3483 24.0785 0.0000 0.0000 0.0000
# 3 11.9078 24.0785 81.6396 0.0000 0.0000 0.0000
# 4 0.0000 0.0000 0.0000 30.7891 0.0000 0.0000
# 5 0.0000 0.0000 0.0000 0.0000 22.4565 0.0000
# 6 0.0000 0.0000 0.0000 0.0000 0.0000 32.5700
#
#
#
# Elastic Compliance Matrix: (Units=1/GPa)
#
#
# Indices 1 2 3 4 5 6 
#
# 1 0.011264 -0.000945 -0.001364 0.000000 0.000000 0.000000
# 2 -0.000945 0.011284 -0.003190 0.000000 0.000000 0.000000
# 3 -0.001364 -0.003190 0.013389 0.000000 0.000000 0.000000
# 4 0.000000 0.000000 0.000000 0.032479 0.000000 0.000000
# 5 0.000000 0.000000 0.000000 0.000000 0.044530 0.000000
# 6 0.000000 0.000000 0.000000 0.000000 0.000000 0.030703
#
#
# Mechanical properties :
#
#
# Convention : Reuss Voigt Hill
#
# Bulk Modulus (GPa) = 40.09999 40.34542 40.22271
# Shear Modulus (GPa) = 30.68199 31.97254 31.32726
#
# Velocity S-wave (km/s) = 3.98203 4.06491 4.02368
# Velocity P-wave (km/s) = 6.47038 6.54843 6.50952
#
# Compressibility (1/GPa) = 0.02493766
#
# Stress axis : x y z
#
# Youngs Moduli (GPa) = 88.77698 88.61903 74.68908
#
# Poissons Ratio (x) = 0.08379 0.10188
# Poissons Ratio (y) = 0.08394 0.23828
# Poissons Ratio (z) = 0.12110 0.28272
#
# Static dielectric constant tensor:
#      x y z
#    x 3.589600 0.000000 0.000000 
#    y 0.000000 3.526080 0.000000 
#    z 0.000000 0.000000 3.299370 
# 
# 
# High freq. dielectric constant tensor:
#      x y z
#    x 1.757650 0.000000 0.000000 
#    y 0.000000 1.760690 0.000000 
#    z 0.000000 0.000000 1.739700 
# 
# From -- ./inp_files/5025.got.cif
#   From: 2010.03.12/outbox.cif.g09.slc.cpg/sg34_3_cif.got.tgz:5025.got - 2010.04.14 01:56:33.
