data_PCOD8172256
_publ_section_title
;
Structure prediction by ZEFSAII (Michael W. Deem and Ramdas Pophale) SiO2 
 PCOD8172256
Probable space group: C M M 2
;
_chemical_formula_sum "Si O2"
_cell_formula_units_Z 64
_cell_length_a 28.414522
_cell_length_b 9.110274
_cell_length_c 15.716210
_cell_angle_alpha 90.000000
_cell_angle_beta 90.000000
_cell_angle_gamma 90.000000
_cell_volume 4068.362258
_symmetry_space_group_name_H-M "C M M 2"
_symmetry_group_IT_number 35
_symmetry_cell_setting 'orthorhombic'
loop_
_space_group_symop_operation_xyz
x,y,z
-x,-y,z
-x,y,z
x,-y,z
1/2+x,1/2+y,z
1/2-x,1/2-y,z
1/2-x,1/2+y,z
1/2+x,1/2-y,z
loop_
_atom_site_type_symbol
_atom_site_label
_atom_site_fract_x
_atom_site_fract_y
_atom_site_fract_z
Si Si1 0.446678 0.674206 0.078550
Si Si2 0.703345 0.829006 0.491750
Si Si3 0.054589 0.168559 0.403738
Si Si4 0.797243 0.327106 0.295254
Si Si5 0.444251 0.329105 0.711114
Si Si6 0.396628 0.173631 0.556733
Si Si7 0.112427 0.826555 0.237036
Si Si8 0.051977 0.173621 0.895452
O O1 0.500000 0.735005 0.088132
O O2 0.448408 0.500000 0.086163
O O3 0.414243 0.735583 0.153811
O O4 0.424212 0.721108 0.985698
O O5 0.750000 0.750000 0.527427
O O6 0.694072 0.786725 0.393790
O O7 0.657632 0.776792 0.544299
O O8 0.712470 0.000000 0.502098
O O9 0.071007 0.267177 0.481509
O O10 0.081511 0.214907 0.318687
O O11 0.000000 0.196593 0.386449
O O12 0.064567 0.000000 0.427724
O O13 0.793699 0.500000 0.280387
O O14 0.750000 0.250000 0.262443
O O15 0.838988 0.260385 0.239722
O O16 0.500000 0.297718 0.702650
O O17 0.434236 0.500000 0.693449
O O18 0.414771 0.233303 0.645912
O O19 0.424790 0.279316 0.805269
O O20 0.400714 0.000000 0.555513
O O21 0.122104 0.000000 0.232211
O O22 0.000000 0.242090 0.897490
O O23 0.047691 0.000000 0.892759
#
# Coordination Sequence:
#
# PCOD8172256 Si02
#       8
#     8   8   8   8   8   8   8   8
#     4   8  13  23  42  68  95 121 151 187 222 259
#     4   9  19  33  48  64  83 109 145 186 226 267
#     4  10  20  31  42  60  90 126 158 183 208 249
#     4  10  19  33  49  65  87 115 150 190 230 271
#     4   9  17  29  45  66  91 120 155 189 220 260
#     4  11  21  32  44  64  90 118 150 185 226 269
#     4  10  18  28  45  69  93 119 151 186 224 263
#     4   7  11  22  41  64  89 116 148 188 226 256
#
# _framework density 15.731146000000001
#
# number of rings (size 3 to 8) (size 9 to 14) (size 15 to 20)
#    0.000    2.750    1.250    3.000    0.000    5.000 
#    0.000    0.000    0.000    1.875    0.000    2.625 
#    0.000    2.000    0.000    0.000    0.000    0.000 
#
# Total GULP energy -396553.907996 kJ/mol
# GULP energy per Si atom -12392.309625 kJ/mol
# Density = 1.569534 g / cm^3
# Si number density = 15.731146 Si / 1000 Ang^3
#
#
#
# Elastic Constant Matrix: (Units=GPa)
#
#
# Indices 1 2 3 4 5 6 
#
# 1 101.7648 35.7981 59.3836 0.0000 0.0000 0.0000
# 2 35.7981 39.9741 33.9651 0.0000 0.0000 0.0000
# 3 59.3836 33.9651 129.8539 0.0000 0.0000 0.0000
# 4 0.0000 0.0000 0.0000 8.3543 0.0000 0.0000
# 5 0.0000 0.0000 0.0000 0.0000 8.9698 0.0000
# 6 0.0000 0.0000 0.0000 0.0000 0.0000 24.9758
#
#
#
# Elastic Compliance Matrix: (Units=1/GPa)
#
#
# Indices 1 2 3 4 5 6 
#
# 1 0.016287 -0.010616 -0.004671 0.000000 0.000000 0.000000
# 2 -0.010616 0.039085 -0.005368 0.000000 0.000000 0.000000
# 3 -0.004671 -0.005368 0.011241 0.000000 0.000000 0.000000
# 4 0.000000 0.000000 0.000000 0.119699 0.000000 0.000000
# 5 0.000000 0.000000 0.000000 0.000000 0.111485 0.000000
# 6 0.000000 0.000000 0.000000 0.000000 0.000000 0.040039
#
#
# Mechanical properties :
#
#
# Convention : Reuss Voigt Hill
#
# Bulk Modulus (GPa) = 39.52378 58.87628 49.20003
# Shear Modulus (GPa) = 12.90052 17.95638 15.42845
#
# Velocity S-wave (km/s) = 2.86678 3.38221 3.13510
# Velocity P-wave (km/s) = 6.01140 7.26362 6.66698
#
# Compressibility (1/GPa) = 0.02530122
#
# Stress axis : x y z
#
# Youngs Moduli (GPa) = 61.39833 25.58548 88.95733
#
# Poissons Ratio (x) = 0.27163 0.41555
# Poissons Ratio (y) = 0.65183 0.47753
# Poissons Ratio (z) = 0.28682 0.13735
#
# Static dielectric constant tensor:
#      x y z
#    x 2.946160 0.000000 0.000000 
#    y 0.000000 2.785260 0.000000 
#    z 0.000000 0.000000 3.258160 
# 
# 
# High freq. dielectric constant tensor:
#      x y z
#    x 1.585310 0.000000 0.000000 
#    y 0.000000 1.582520 0.000000 
#    z 0.000000 0.000000 1.601110 
# 
# From -- ./inp_files/16236.got.cif
#   From: 2010.03.12/outbox.cif.g09.slc.cpg/sg35_9_cif.got.tgz:16236.got - 2010.04.14 02:02:04.
