data_PCOD8172042
_publ_section_title
;
Structure prediction by ZEFSAII (Michael W. Deem and Ramdas Pophale) SiO2 
 PCOD8172042
Probable space group: P N N 2
;
_chemical_formula_sum "Si O2"
_cell_formula_units_Z 18
_cell_length_a 5.193299
_cell_length_b 5.693565
_cell_length_c 24.152515
_cell_angle_alpha 90.000000
_cell_angle_beta 90.000000
_cell_angle_gamma 90.000000
_cell_volume 714.150872
_symmetry_space_group_name_H-M "P N N 2"
_symmetry_group_IT_number 34
_symmetry_cell_setting 'orthorhombic'
loop_
_space_group_symop_operation_xyz
x,y,z
-x,-y,z
1/2-x,1/2+y,1/2+z
1/2+x,1/2-y,1/2+z
loop_
_atom_site_type_symbol
_atom_site_label
_atom_site_fract_x
_atom_site_fract_y
_atom_site_fract_z
Si Si1 0.500000 0.500000 0.768360
Si Si2 0.743411 0.649704 0.349620
Si Si3 0.242975 0.849000 0.083787
Si Si4 0.852080 0.752026 0.466244
Si Si5 0.251982 0.636518 0.197465
O O1 0.691870 0.351436 0.806537
O O2 0.284855 0.381121 0.729049
O O3 0.500000 0.500000 0.327989
O O4 0.674227 0.750144 0.411155
O O5 0.000000 0.500000 0.355823
O O6 0.273308 0.652857 0.130997
O O7 0.500000 0.000000 0.083405
O O8 0.189590 0.733711 0.023508
O O9 0.000000 0.000000 0.102063
O O10 0.000000 0.500000 0.468661
O O11 0.000000 0.000000 0.463465
O O12 0.500000 0.500000 0.220297
O O13 0.000000 0.500000 0.216713
#
# Coordination Sequence:
#
# PCOD8172042 Si02
#       5
#     2   4   4   4   4
#     4  12  28  52  76 108 164 206 272 338 412 488
#     4  11  26  50  76 112 150 207 268 326 407 486
#     4  11  23  46  75 113 153 200 257 326 403 483
#     4  10  22  46  78 116 157 207 262 335 406 487
#     4  12  28  48  76 114 151 205 266 326 405 485
#
# _framework density 25.204754999999999
#
# number of rings (size 3 to 8) (size 9 to 14) (size 15 to 20)
#    0.000    0.889    2.222    3.333    0.000    8.000 
#    0.000    6.667    0.000    0.000    0.000    0.000 
#    0.000    0.000    0.000    0.000    0.000    0.000 
#
# Total GULP energy -223052.712299 kJ/mol
# GULP energy per Si atom -12391.817350 kJ/mol
# Density = 2.514739 g / cm^3
# Si number density = 25.204755 Si / 1000 Ang^3
#
#
#
# Elastic Constant Matrix: (Units=GPa)
#
#
# Indices 1 2 3 4 5 6 
#
# 1 170.6977 55.3345 32.9771 0.0000 0.0000 0.0000
# 2 55.3345 143.3443 55.1628 0.0000 0.0000 0.0000
# 3 32.9771 55.1628 199.0356 0.0000 0.0000 0.0000
# 4 0.0000 0.0000 0.0000 39.3136 0.0000 0.0000
# 5 0.0000 0.0000 0.0000 0.0000 32.9826 0.0000
# 6 0.0000 0.0000 0.0000 0.0000 0.0000 50.2296
#
#
#
# Elastic Compliance Matrix: (Units=1/GPa)
#
#
# Indices 1 2 3 4 5 6 
#
# 1 0.006731 -0.002428 -0.000442 0.000000 0.000000 0.000000
# 2 -0.002428 0.008685 -0.002005 0.000000 0.000000 0.000000
# 3 -0.000442 -0.002005 0.005653 0.000000 0.000000 0.000000
# 4 0.000000 0.000000 0.000000 0.025436 0.000000 0.000000
# 5 0.000000 0.000000 0.000000 0.000000 0.030319 0.000000
# 6 0.000000 0.000000 0.000000 0.000000 0.000000 0.019909
#
#
# Mechanical properties :
#
#
# Convention : Reuss Voigt Hill
#
# Bulk Modulus (GPa) = 88.34872 88.89181 88.62027
# Shear Modulus (GPa) = 45.34894 49.14538 47.24716
#
# Velocity S-wave (km/s) = 4.24633 4.42050 4.33429
# Velocity P-wave (km/s) = 7.69222 7.83574 7.76431
#
# Compressibility (1/GPa) = 0.01131878
#
# Stress axis : x y z
#
# Youngs Moduli (GPa) = 148.56962 115.14105 176.89344
#
# Poissons Ratio (x) = 0.27957 0.07823
# Poissons Ratio (y) = 0.36074 0.35463
# Poissons Ratio (z) = 0.06571 0.23083
#
# Static dielectric constant tensor:
#      x y z
#    x 4.249680 0.000000 0.000000 
#    y 0.000000 4.591440 0.000000 
#    z 0.000000 0.000000 5.512820 
# 
# 
# High freq. dielectric constant tensor:
#      x y z
#    x 1.987450 0.000000 0.000000 
#    y 0.000000 2.005330 0.000000 
#    z 0.000000 0.000000 2.048310 
# 
# From -- ./inp_files/8221.got.cif
#   From: 2010.03.12/outbox.cif.g09.slc.cpg/sg34_5_cif.got.tgz:8221.got - 2010.04.14 01:56:33.
