data_PCOD8172341
_publ_section_title
;
Structure prediction by ZEFSAII (Michael W. Deem and Ramdas Pophale) SiO2 
 PCOD8172341
Probable space group: C M M 2
;
_chemical_formula_sum "Si O2"
_cell_formula_units_Z 56
_cell_length_a 9.292385
_cell_length_b 21.928287
_cell_length_c 14.686378
_cell_angle_alpha 90.000000
_cell_angle_beta 90.000000
_cell_angle_gamma 90.000000
_cell_volume 2992.585751
_symmetry_space_group_name_H-M "C M M 2"
_symmetry_group_IT_number 35
_symmetry_cell_setting 'orthorhombic'
loop_
_space_group_symop_operation_xyz
x,y,z
-x,-y,z
-x,y,z
x,-y,z
1/2+x,1/2+y,z
1/2-x,1/2-y,z
1/2-x,1/2+y,z
1/2+x,1/2-y,z
loop_
_atom_site_type_symbol
_atom_site_label
_atom_site_fract_x
_atom_site_fract_y
_atom_site_fract_z
Si Si1 0.669791 0.129279 0.219640
Si Si2 0.172073 0.500000 0.187668
Si Si3 0.670671 0.000000 0.985098
Si Si4 0.831613 0.613289 0.869215
Si Si5 0.167216 0.070019 0.703485
Si Si6 0.333097 0.930332 0.518400
Si Si7 0.169527 0.688691 0.398731
Si Si8 0.833181 0.690480 0.036937
O O1 0.500000 0.129586 0.230999
O O2 0.727447 0.176647 0.295428
O O3 0.714560 0.143136 0.115509
O O4 0.726427 0.060515 0.240156
O O5 0.000000 0.500000 0.181078
O O6 0.237270 0.500000 0.085637
O O7 0.724825 0.942110 0.929813
O O8 0.500000 0.000000 0.992396
O O9 0.741033 0.615341 0.776390
O O10 0.000000 0.608124 0.844630
O O11 0.797956 0.671023 0.933429
O O12 0.238023 0.082173 0.606709
O O13 0.000000 0.086453 0.697010
O O14 0.192267 0.000000 0.733598
O O15 0.500000 0.926033 0.545690
O O16 0.292747 0.874855 0.450570
O O17 0.301968 0.000000 0.480443
O O18 0.250000 0.750000 0.435646
O O19 0.000000 0.702052 0.405117
O O20 0.750000 0.750000 0.062121
O O21 0.000000 0.703803 0.046972
#
# Coordination Sequence:
#
# PCOD8172341 Si02
#       8
#     8   4   4   8   8   8   8   8
#     4   9  17  29  49  78 109 138 173 217 263 310
#     4   9  14  24  46  78 109 134 170 223 265 296
#     4   9  14  24  45  74 101 128 164 209 253 288
#     4  10  18  30  51  76 102 135 175 213 251 301
#     4  10  20  33  52  80 109 135 165 207 267 328
#     4   9  19  36  57  81 107 136 176 225 271 317
#     4  10  21  36  56  82 109 141 180 220 268 321
#     4  10  20  33  49  72 103 142 183 217 255 305
#
# _framework density 18.712914999999999
#
# number of rings (size 3 to 8) (size 9 to 14) (size 15 to 20)
#    0.000    2.429    2.143    0.857    1.000    1.714 
#    0.000    0.714    0.000    0.000    0.000    1.000 
#    0.000    0.000    0.000    0.000    0.000    0.000 
#
# Total GULP energy -346895.219477 kJ/mol
# GULP energy per Si atom -12389.114981 kJ/mol
# Density = 1.867032 g / cm^3
# Si number density = 18.712915 Si / 1000 Ang^3
#
#
#
# Elastic Constant Matrix: (Units=GPa)
#
#
# Indices 1 2 3 4 5 6 
#
# 1 51.4046 38.8883 45.0032 0.0000 0.0000 0.0000
# 2 38.8883 123.9161 45.0990 0.0000 0.0000 0.0000
# 3 45.0032 45.0990 94.6809 0.0000 0.0000 0.0000
# 4 0.0000 0.0000 0.0000 18.1933 0.0000 0.0000
# 5 0.0000 0.0000 0.0000 0.0000 15.7680 0.0000
# 6 0.0000 0.0000 0.0000 0.0000 0.0000 24.9762
#
#
#
# Elastic Compliance Matrix: (Units=1/GPa)
#
#
# Indices 1 2 3 4 5 6 
#
# 1 0.036981 -0.006301 -0.014577 0.000000 0.000000 0.000000
# 2 -0.006301 0.010836 -0.002167 0.000000 0.000000 0.000000
# 3 -0.014577 -0.002167 0.018522 0.000000 0.000000 0.000000
# 4 0.000000 0.000000 0.000000 0.054965 0.000000 0.000000
# 5 0.000000 0.000000 0.000000 0.000000 0.063420 0.000000
# 6 0.000000 0.000000 0.000000 0.000000 0.000000 0.040038
#
#
# Mechanical properties :
#
#
# Convention : Reuss Voigt Hill
#
# Bulk Modulus (GPa) = 49.37841 58.66474 54.02158
# Shear Modulus (GPa) = 18.01146 21.18824 19.59985
#
# Velocity S-wave (km/s) = 3.10581 3.36859 3.23986
# Velocity P-wave (km/s) = 6.26945 6.82259 6.55186
#
# Compressibility (1/GPa) = 0.02025177
#
# Stress axis : x y z
#
# Youngs Moduli (GPa) = 27.04056 92.28641 53.98901
#
# Poissons Ratio (x) = 0.58147 0.78698
# Poissons Ratio (y) = 0.17037 0.11697
# Poissons Ratio (z) = 0.39416 0.19995
#
# Static dielectric constant tensor:
#      x y z
#    x 3.048570 0.000000 0.000000 
#    y 0.000000 3.493960 0.000000 
#    z 0.000000 0.000000 3.462310 
# 
# 
# High freq. dielectric constant tensor:
#      x y z
#    x 1.684710 0.000000 0.000000 
#    y 0.000000 1.724670 0.000000 
#    z 0.000000 0.000000 1.727080 
# 
# From -- ./inp_files/15767.got.cif
#   From: 2010.03.12/outbox.cif.g09.slc.cpg/sg35_8_cif.got.tgz:15767.got - 2010.04.14 02:02:04.
