data_PCOD8172659
_publ_section_title
;
Structure prediction by ZEFSAII (Michael W. Deem and Ramdas Pophale) SiO2 
 PCOD8172659
Probable space group: C M M 2
;
_chemical_formula_sum "Si O2"
_cell_formula_units_Z 48
_cell_length_a 9.046314
_cell_length_b 32.923758
_cell_length_c 9.145024
_cell_angle_alpha 90.000000
_cell_angle_beta 90.000000
_cell_angle_gamma 90.000000
_cell_volume 2723.741629
_symmetry_space_group_name_H-M "C M M 2"
_symmetry_group_IT_number 35
_symmetry_cell_setting 'orthorhombic'
loop_
_space_group_symop_operation_xyz
x,y,z
-x,-y,z
-x,y,z
x,-y,z
1/2+x,1/2+y,z
1/2-x,1/2-y,z
1/2-x,1/2+y,z
1/2+x,1/2-y,z
loop_
_atom_site_type_symbol
_atom_site_label
_atom_site_fract_x
_atom_site_fract_y
_atom_site_fract_z
Si Si1 0.833867 0.166738 0.409740
Si Si2 0.824284 0.380318 0.167095
Si Si3 0.175293 0.290799 0.657463
Si Si4 0.173600 0.046099 0.317238
Si Si5 0.827555 0.369838 0.835796
Si Si6 0.662445 0.586379 0.601118
O O1 0.749313 0.155739 0.260430
O O2 0.741511 0.200902 0.496053
O O3 0.841608 0.127320 0.508825
O O4 0.000000 0.182572 0.375427
O O5 0.767811 0.424812 0.212920
O O6 0.000000 0.378402 0.186754
O O7 0.772388 0.372620 0.001494
O O8 0.250000 0.250000 0.719852
O O9 0.220948 0.326574 0.769131
O O10 0.000000 0.285670 0.645831
O O11 0.220986 0.052049 0.488035
O O12 0.000000 0.057063 0.301448
O O13 0.206809 0.000000 0.270603
O O14 0.763515 0.407698 0.743111
O O15 0.000000 0.375318 0.825898
O O16 0.500000 0.574831 0.659026
#
# Coordination Sequence:
#
# PCOD8172659 Si02
#       6
#     8   8   8   8   8   8
#     4   9  17  31  50  72  95 124 162 199 237 285
#     4  10  19  32  50  73 101 132 165 202 245 294
#     4  10  19  33  52  74  99 128 163 205 250 292
#     4   9  18  33  51  72  98 127 163 208 252 294
#     4   9  19  33  49  70  99 132 163 198 242 293
#     4   8  15  28  48  70  91 119 158 199 237 283
#
# _framework density 17.622816
#
# number of rings (size 3 to 8) (size 9 to 14) (size 15 to 20)
#    0.000    2.833    0.000    2.500    0.000    6.333 
#    0.000    1.667    0.000    5.000    0.000    0.000 
#    0.000    0.000    0.000    0.000    0.000    0.000 
#
# Total GULP energy -297507.368717 kJ/mol
# GULP energy per Si atom -12396.140363 kJ/mol
# Density = 1.758271 g / cm^3
# Si number density = 17.622816 Si / 1000 Ang^3
#
#
#
# Elastic Constant Matrix: (Units=GPa)
#
#
# Indices 1 2 3 4 5 6 
#
# 1 75.1745 33.3418 54.8197 0.0000 0.0000 0.0000
# 2 33.3418 69.1010 42.1246 0.0000 0.0000 0.0000
# 3 54.8197 42.1246 136.3642 0.0000 0.0000 0.0000
# 4 0.0000 0.0000 0.0000 17.6284 0.0000 0.0000
# 5 0.0000 0.0000 0.0000 0.0000 26.9762 0.0000
# 6 0.0000 0.0000 0.0000 0.0000 0.0000 24.1236
#
#
#
# Elastic Compliance Matrix: (Units=1/GPa)
#
#
# Indices 1 2 3 4 5 6 
#
# 1 0.020688 -0.006052 -0.006447 0.000000 0.000000 0.000000
# 2 -0.006052 0.019599 -0.003622 0.000000 0.000000 0.000000
# 3 -0.006447 -0.003622 0.011044 0.000000 0.000000 0.000000
# 4 0.000000 0.000000 0.000000 0.056727 0.000000 0.000000
# 5 0.000000 0.000000 0.000000 0.000000 0.037070 0.000000
# 6 0.000000 0.000000 0.000000 0.000000 0.000000 0.041453
#
#
# Mechanical properties :
#
#
# Convention : Reuss Voigt Hill
#
# Bulk Modulus (GPa) = 52.38364 60.13464 56.25914
# Shear Modulus (GPa) = 22.20389 23.76922 22.98656
#
# Velocity S-wave (km/s) = 3.55343 3.67655 3.61552
# Velocity P-wave (km/s) = 6.82827 7.22634 7.03012
#
# Compressibility (1/GPa) = 0.01908993
#
# Stress axis : x y z
#
# Youngs Moduli (GPa) = 48.33690 51.02203 90.54739
#
# Poissons Ratio (x) = 0.30878 0.58379
# Poissons Ratio (y) = 0.29253 0.32793
# Poissons Ratio (z) = 0.31164 0.18478
#
# Static dielectric constant tensor:
#      x y z
#    x 3.359940 0.000000 0.000000 
#    y 0.000000 3.235610 0.000000 
#    z 0.000000 0.000000 3.389150 
# 
# 
# High freq. dielectric constant tensor:
#      x y z
#    x 1.686490 0.000000 0.000000 
#    y 0.000000 1.661780 0.000000 
#    z 0.000000 0.000000 1.670630 
# 
# From -- ./inp_files/5303.got.cif
#   From: 2010.03.12/outbox.cif.g09.slc.cpg/sg35_3_cif.got.tgz:5303.got - 2010.04.14 02:02:04.
