data_PCOD8172404
_publ_section_title
;
Structure prediction by ZEFSAII (Michael W. Deem and Ramdas Pophale) SiO2 
 PCOD8172404
Probable space group: C M M 2
;
_chemical_formula_sum "Si O2"
_cell_formula_units_Z 32
_cell_length_a 24.676678
_cell_length_b 8.601718
_cell_length_c 7.365920
_cell_angle_alpha 90.000000
_cell_angle_beta 90.000000
_cell_angle_gamma 90.000000
_cell_volume 1563.503624
_symmetry_space_group_name_H-M "C M M 2"
_symmetry_group_IT_number 35
_symmetry_cell_setting 'orthorhombic'
loop_
_space_group_symop_operation_xyz
x,y,z
-x,-y,z
-x,y,z
x,-y,z
1/2+x,1/2+y,z
1/2-x,1/2-y,z
1/2-x,1/2+y,z
1/2+x,1/2-y,z
loop_
_atom_site_type_symbol
_atom_site_label
_atom_site_fract_x
_atom_site_fract_y
_atom_site_fract_z
Si Si1 0.890782 0.681443 0.997880
Si Si2 0.809516 0.817549 0.716405
Si Si3 0.883199 0.683000 0.420810
Si Si4 0.500000 0.318554 0.023912
Si Si5 0.500000 0.818031 0.415107
O O1 0.899951 0.500000 0.967420
O O2 0.839780 0.737600 0.883505
O O3 0.878527 0.721253 0.207716
O O4 0.944588 0.769671 0.921405
O O5 0.750000 0.750000 0.707002
O O6 0.838300 0.780456 0.525515
O O7 0.807432 0.000000 0.748507
O O8 0.874802 0.500000 0.457513
O O9 0.942676 0.741527 0.496790
O O10 0.500000 0.500000 0.065365
O O11 0.500000 0.217752 0.204003
O O12 0.500000 0.000000 0.432945
#
# Coordination Sequence:
#
# PCOD8172404 Si02
#       5
#     8   8   8   4   4
#     4  10  21  40  64  88 119 157 195 239 293 349
#     4  12  26  42  60  84 116 154 200 249 294 347
#     4   9  19  38  63  89 118 154 193 235 288 349
#     4  10  18  31  56  91 125 153 189 236 288 349
#     4   8  16  33  58  87 119 155 191 230 286 351
#
# _framework density 20.466854000000001
#
# number of rings (size 3 to 8) (size 9 to 14) (size 15 to 20)
#    0.000    2.000    0.000    5.625    0.000    7.000 
#    0.000    3.750    0.000    0.000    0.000    0.000 
#    0.000    0.000    0.000    0.000    0.000    0.000 
#
# Total GULP energy -198314.046234 kJ/mol
# GULP energy per Si atom -12394.627890 kJ/mol
# Density = 2.042027 g / cm^3
# Si number density = 20.466854 Si / 1000 Ang^3
#
#
#
# Elastic Constant Matrix: (Units=GPa)
#
#
# Indices 1 2 3 4 5 6 
#
# 1 173.3626 -36.9222 59.4555 0.0000 0.0000 0.0000
# 2 -36.9222 -447.9870 40.6965 0.0000 0.0000 0.0000
# 3 59.4555 40.6965 86.2619 0.0000 0.0000 0.0000
# 4 0.0000 0.0000 0.0000 31.1089 0.0000 0.0000
# 5 0.0000 0.0000 0.0000 0.0000 52.8651 0.0000
# 6 0.0000 0.0000 0.0000 0.0000 0.0000 36.2270
#
#
#
# Elastic Compliance Matrix: (Units=1/GPa)
#
#
# Indices 1 2 3 4 5 6 
#
# 1 0.007071 -0.000983 -0.004410 0.000000 0.000000 0.000000
# 2 -0.000983 -0.002004 0.001623 0.000000 0.000000 0.000000
# 3 -0.004410 0.001623 0.013866 0.000000 0.000000 0.000000
# 4 0.000000 0.000000 0.000000 0.032145 0.000000 0.000000
# 5 0.000000 0.000000 0.000000 0.000000 0.018916 0.000000
# 6 0.000000 0.000000 0.000000 0.000000 0.000000 0.027604
#
#
# Mechanical properties :
#
#
# Convention : Reuss Voigt Hill
#
# Bulk Modulus (GPa) = 87.76903 -6.87808 40.44547
# Shear Modulus (GPa) = 45.89820 7.26739 26.58279
#
# Velocity S-wave (km/s) = 4.74071 1.88640 3.60783
# Velocity P-wave (km/s) = 8.54063 1.17337 6.09586
#
# Compressibility (1/GPa) = 0.01139354
#
# Stress axis : x y z
#
# Youngs Moduli (GPa) = 141.41895 -499.07420 72.11730
#
# Poissons Ratio (x) = -0.49079 0.31802
# Poissons Ratio (y) = 0.13907 -0.11705
# Poissons Ratio (z) = 0.62363 0.81005
#
# Static dielectric constant tensor:
#      x y z
#    x 4.142360 0.000000 0.000000 
#    y 0.000000 3.619780 0.000000 
#    z 0.000000 0.000000 3.546150 
# 
# 
# High freq. dielectric constant tensor:
#      x y z
#    x 1.814940 0.000000 0.000000 
#    y 0.000000 1.796020 0.000000 
#    z 0.000000 0.000000 1.788440 
# 
# From -- ./inp_files/4779.got.cif
#   From: 2010.03.12/outbox.cif.g09.slc.cpg/sg35_3_cif.got.tgz:4779.got - 2010.04.14 02:02:04.
