data_PCOD8172795
_publ_section_title
;
Structure prediction by ZEFSAII (Michael W. Deem and Ramdas Pophale) SiO2 
 PCOD8172795
Probable space group: C M M 2
;
_chemical_formula_sum "Si O2"
_cell_formula_units_Z 64
_cell_length_a 8.817014
_cell_length_b 19.290034
_cell_length_c 20.328665
_cell_angle_alpha 90.000000
_cell_angle_beta 90.000000
_cell_angle_gamma 90.000000
_cell_volume 3457.509504
_symmetry_space_group_name_H-M "C M M 2"
_symmetry_group_IT_number 35
_symmetry_cell_setting 'orthorhombic'
loop_
_space_group_symop_operation_xyz
x,y,z
-x,-y,z
-x,y,z
x,-y,z
1/2+x,1/2+y,z
1/2-x,1/2-y,z
1/2-x,1/2+y,z
1/2+x,1/2-y,z
loop_
_atom_site_type_symbol
_atom_site_label
_atom_site_fract_x
_atom_site_fract_y
_atom_site_fract_z
Si Si1 0.681328 0.676629 0.361990
Si Si2 0.180211 0.676021 0.223563
Si Si3 0.668796 0.417474 0.620027
Si Si4 0.177075 0.179507 0.000513
Si Si5 0.327035 0.918315 0.750276
Si Si6 0.680518 0.423106 0.476863
Si Si7 0.821545 0.178746 0.852323
Si Si8 0.822739 0.080567 0.116475
O O1 0.500000 0.680267 0.356718
O O2 0.750000 0.750000 0.381813
O O3 0.750015 0.651702 0.292870
O O4 0.739775 0.624752 0.418180
O O5 0.250000 0.750000 0.201956
O O6 0.222632 0.616913 0.171929
O O7 0.000000 0.683791 0.229160
O O8 0.500000 0.387703 0.632604
O O9 0.662597 0.500000 0.618732
O O10 0.776069 0.390483 0.678554
O O11 0.732535 0.393304 0.548466
O O12 0.250000 0.250000 0.028678
O O13 0.235822 0.163659 0.926729
O O14 0.000000 0.192791 0.000172
O O15 0.220190 0.114725 0.046500
O O16 0.500000 0.896908 0.760691
O O17 0.227999 0.884766 0.807333
O O18 0.301225 0.000000 0.755192
O O19 0.500000 0.426291 0.477100
O O20 0.747424 0.500000 0.465068
O O21 0.750000 0.250000 0.825680
O O22 0.000000 0.186106 0.849384
O O23 0.000000 0.090883 0.132779
O O24 0.778872 0.000000 0.112950
#
# Coordination Sequence:
#
# PCOD8172795 Si02
#       8
#     8   8   8   8   8   8   8   8
#     4  10  19  33  53  76 103 134 168 208 256 307
#     4  11  22  37  56  77 103 137 178 216 254 305
#     4   8  14  28  50  73  97 129 171 214 255 303
#     4   9  19  35  56  79 102 134 173 211 252 305
#     4  10  20  33  50  75 106 138 174 216 260 306
#     4   8  15  29  51  76  98 126 169 215 255 300
#     4  10  20  35  55  78 105 136 172 213 258 307
#     4  10  21  37  56  80 110 139 168 208 257 304
#
# _framework density 18.510432999999999
#
# number of rings (size 3 to 8) (size 9 to 14) (size 15 to 20)
#    0.000    2.500    0.000    4.125    0.000    4.000 
#    0.000    4.375    0.000    4.125    0.000    0.000 
#    0.000    0.000    0.000    0.000    0.000    0.000 
#
# Total GULP energy -396755.571224 kJ/mol
# GULP energy per Si atom -12398.611601 kJ/mol
# Density = 1.846830 g / cm^3
# Si number density = 18.510433 Si / 1000 Ang^3
#
#
#
# Elastic Constant Matrix: (Units=GPa)
#
#
# Indices 1 2 3 4 5 6 
#
# 1 75.6092 37.6442 44.9627 0.0000 0.0000 0.0000
# 2 37.6442 88.6274 71.7582 0.0000 0.0000 0.0000
# 3 44.9627 71.7582 132.5946 0.0000 0.0000 0.0000
# 4 0.0000 0.0000 0.0000 27.0610 0.0000 0.0000
# 5 0.0000 0.0000 0.0000 0.0000 20.1671 0.0000
# 6 0.0000 0.0000 0.0000 0.0000 0.0000 26.0838
#
#
#
# Elastic Compliance Matrix: (Units=1/GPa)
#
#
# Indices 1 2 3 4 5 6 
#
# 1 0.017604 -0.004706 -0.003423 0.000000 0.000000 0.000000
# 2 -0.004706 0.021341 -0.009954 0.000000 0.000000 0.000000
# 3 -0.003423 -0.009954 0.014089 0.000000 0.000000 0.000000
# 4 0.000000 0.000000 0.000000 0.036954 0.000000 0.000000
# 5 0.000000 0.000000 0.000000 0.000000 0.049586 0.000000
# 6 0.000000 0.000000 0.000000 0.000000 0.000000 0.038338
#
#
# Mechanical properties :
#
#
# Convention : Reuss Voigt Hill
#
# Bulk Modulus (GPa) = 59.27796 67.28462 63.28129
# Shear Modulus (GPa) = 22.75824 24.16012 23.45918
#
# Velocity S-wave (km/s) = 3.51020 3.61670 3.56385
# Velocity P-wave (km/s) = 6.96579 7.33956 7.15512
#
# Compressibility (1/GPa) = 0.01686968
#
# Stress axis : x y z
#
# Youngs Moduli (GPa) = 56.80396 46.85755 70.97616
#
# Poissons Ratio (x) = 0.22052 0.24293
# Poissons Ratio (y) = 0.26733 0.70648
# Poissons Ratio (z) = 0.19442 0.46641
#
# Static dielectric constant tensor:
#      x y z
#    x 3.320920 0.000000 0.000000 
#    y 0.000000 3.279450 0.000000 
#    z 0.000000 0.000000 3.741860 
# 
# 
# High freq. dielectric constant tensor:
#      x y z
#    x 1.709260 0.000000 0.000000 
#    y 0.000000 1.698610 0.000000 
#    z 0.000000 0.000000 1.731870 
# 
# From -- ./inp_files/18412.got.cif
#   From: 2010.03.12/outbox.cif.g09.slc.cpg/sg35_10_cif.got.tgz:18412.got - 2010.04.14 02:02:04.
