data_PCOD8172958
_publ_section_title
;
Structure prediction by ZEFSAII (Michael W. Deem and Ramdas Pophale) SiO2 
 PCOD8172958
Probable space group: C M M 2
;
_chemical_formula_sum "Si O2"
_cell_formula_units_Z 40
_cell_length_a 16.856519
_cell_length_b 11.518579
_cell_length_c 10.132633
_cell_angle_alpha 90.000000
_cell_angle_beta 90.000000
_cell_angle_gamma 90.000000
_cell_volume 1967.383898
_symmetry_space_group_name_H-M "C M M 2"
_symmetry_group_IT_number 35
_symmetry_cell_setting 'orthorhombic'
loop_
_space_group_symop_operation_xyz
x,y,z
-x,-y,z
-x,y,z
x,-y,z
1/2+x,1/2+y,z
1/2-x,1/2-y,z
1/2-x,1/2+y,z
1/2+x,1/2-y,z
loop_
_atom_site_type_symbol
_atom_site_label
_atom_site_fract_x
_atom_site_fract_y
_atom_site_fract_z
Si Si1 0.840972 0.759238 0.767500
Si Si2 0.405455 0.500000 0.850598
Si Si3 0.406935 0.130116 0.522257
Si Si4 0.590605 0.864830 0.007988
Si Si5 0.093268 0.239312 0.269983
Si Si6 0.094640 0.000000 0.155135
O O1 0.750000 0.750000 0.724883
O O2 0.870329 0.890970 0.772311
O O3 0.892307 0.688899 0.662284
O O4 0.851666 0.702128 0.910263
O O5 0.500000 0.500000 0.840914
O O6 0.376562 0.500000 0.002885
O O7 0.500000 0.119812 0.498489
O O8 0.369477 0.210094 0.405439
O O9 0.369974 0.000000 0.518912
O O10 0.500000 0.826505 0.978362
O O11 0.613908 0.831635 0.156331
O O12 0.602779 0.000000 0.987708
O O13 0.128878 0.113243 0.230796
O O14 0.000000 0.224072 0.287079
O O15 0.000000 0.000000 0.154429
#
# Coordination Sequence:
#
# PCOD8172958 Si02
#       6
#     8   4   8   8   8   4
#     4  12  26  39  59  87 129 163 206 254 308 364
#     4  11  22  41  67  93 124 166 213 259 305 368
#     4  10  21  39  63  88 119 156 201 251 307 371
#     4  10  19  35  62  90 117 152 202 252 302 364
#     4   9  17  32  58  92 118 149 195 255 307 358
#     4   9  16  31  59  91 123 146 193 263 310 348
#
# _framework density 20.331568000000001
#
# number of rings (size 3 to 8) (size 9 to 14) (size 15 to 20)
#    0.000    1.800    2.000    3.000    2.800    4.800 
#    0.000    3.000    0.000    0.000    0.000    0.000 
#    0.000    0.000    0.000    0.000    0.000    0.000 
#
# Total GULP energy -248023.209343 kJ/mol
# GULP energy per Si atom -12401.160467 kJ/mol
# Density = 2.028529 g / cm^3
# Si number density = 20.331568 Si / 1000 Ang^3
#
#
#
# Elastic Constant Matrix: (Units=GPa)
#
#
# Indices 1 2 3 4 5 6 
#
# 1 33.4332 27.2206 12.8964 0.0000 0.0000 0.0000
# 2 27.2206 159.8686 54.8104 0.0000 0.0000 0.0000
# 3 12.8964 54.8104 90.2401 0.0000 0.0000 0.0000
# 4 0.0000 0.0000 0.0000 49.4000 0.0000 0.0000
# 5 0.0000 0.0000 0.0000 0.0000 4.6881 0.0000
# 6 0.0000 0.0000 0.0000 0.0000 0.0000 16.7985
#
#
#
# Elastic Compliance Matrix: (Units=1/GPa)
#
#
# Indices 1 2 3 4 5 6 
#
# 1 0.034940 -0.005352 -0.001743 0.000000 0.000000 0.000000
# 2 -0.005352 0.008720 -0.004532 0.000000 0.000000 0.000000
# 3 -0.001743 -0.004532 0.014083 0.000000 0.000000 0.000000
# 4 0.000000 0.000000 0.000000 0.020243 0.000000 0.000000
# 5 0.000000 0.000000 0.000000 0.000000 0.213308 0.000000
# 6 0.000000 0.000000 0.000000 0.000000 0.000000 0.059529
#
#
# Mechanical properties :
#
#
# Convention : Reuss Voigt Hill
#
# Bulk Modulus (GPa) = 28.99320 52.59962 40.79641
# Shear Modulus (GPa) = 12.96775 26.75161 19.85968
#
# Velocity S-wave (km/s) = 2.52824 3.63129 3.12876
# Velocity P-wave (km/s) = 4.77638 6.59611 5.75858
#
# Compressibility (1/GPa) = 0.03449084
#
# Stress axis : x y z
#
# Youngs Moduli (GPa) = 28.62057 114.67909 71.00750
#
# Poissons Ratio (x) = 0.61372 0.12375
# Poissons Ratio (y) = 0.15317 0.32178
# Poissons Ratio (z) = 0.04988 0.51968
#
# Static dielectric constant tensor:
#      x y z
#    x 3.205360 0.000000 0.000000 
#    y 0.000000 4.027530 0.000000 
#    z 0.000000 0.000000 3.708060 
# 
# 
# High freq. dielectric constant tensor:
#      x y z
#    x 1.743860 0.000000 0.000000 
#    y 0.000000 1.815420 0.000000 
#    z 0.000000 0.000000 1.798890 
# 
# From -- ./inp_files/9088.got.cif
#   From: 2010.03.12/outbox.cif.g09.slc.cpg/sg35_5_cif.got.tgz:9088.got - 2010.04.14 02:02:04.
