data_PCOD8172621
_publ_section_title
;
Structure prediction by ZEFSAII (Michael W. Deem and Ramdas Pophale) SiO2 
 PCOD8172621
Probable space group: C M M 2
;
_chemical_formula_sum "Si O2"
_cell_formula_units_Z 64
_cell_length_a 8.700457
_cell_length_b 28.930616
_cell_length_c 12.409797
_cell_angle_alpha 90.000000
_cell_angle_beta 90.000000
_cell_angle_gamma 90.000000
_cell_volume 3123.664797
_symmetry_space_group_name_H-M "C M M 2"
_symmetry_group_IT_number 35
_symmetry_cell_setting 'orthorhombic'
loop_
_space_group_symop_operation_xyz
x,y,z
-x,-y,z
-x,y,z
x,-y,z
1/2+x,1/2+y,z
1/2-x,1/2-y,z
1/2-x,1/2+y,z
1/2+x,1/2-y,z
loop_
_atom_site_type_symbol
_atom_site_label
_atom_site_fract_x
_atom_site_fract_y
_atom_site_fract_z
Si Si1 0.173232 0.929672 0.017220
Si Si2 0.825855 0.174556 0.089003
Si Si3 0.819561 0.140708 0.714186
Si Si4 0.677739 0.947772 0.792785
Si Si5 0.680499 0.203636 0.883796
Si Si6 0.318700 0.148493 0.306479
Si Si7 0.676732 0.950182 0.233720
Si Si8 0.681684 0.198945 0.521711
O O1 0.183280 0.875945 0.040096
O O2 0.228755 0.955406 0.124087
O O3 0.000000 0.945104 0.989981
O O4 0.279202 0.943590 0.917881
O O5 0.760733 0.176252 0.209587
O O6 0.000000 0.193575 0.089210
O O7 0.719630 0.205342 0.011034
O O8 0.774835 0.086542 0.715775
O O9 0.766149 0.160411 0.829510
O O10 0.732664 0.168638 0.622366
O O11 0.000000 0.146318 0.698282
O O12 0.500000 0.934583 0.780494
O O13 0.709463 0.000000 0.752967
O O14 0.500000 0.200782 0.863003
O O15 0.750000 0.250000 0.829850
O O16 0.500000 0.153884 0.294279
O O17 0.269027 0.093920 0.305325
O O18 0.259268 0.171834 0.415950
O O19 0.500000 0.942021 0.202103
O O20 0.697529 0.000000 0.295185
O O21 0.500000 0.203471 0.523041
O O22 0.750000 0.250000 0.526063
#
# Coordination Sequence:
#
# PCOD8172621 Si02
#       8
#     8   8   8   8   8   8   8   8
#     4  10  19  31  51  81 121 164 204 247 295 351
#     4  10  20  35  56  86 124 163 202 247 302 361
#     4  12  25  43  65  90 122 157 200 253 310 366
#     4  11  23  38  59  88 122 163 207 249 298 359
#     4  12  24  39  61  88 122 160 200 247 304 371
#     4   9  20  38  60  86 119 158 202 252 307 362
#     4   9  17  31  53  82 117 158 203 246 293 355
#     4  11  24  44  68  92 117 153 204 259 314 372
#
# _framework density 20.488754
#
# number of rings (size 3 to 8) (size 9 to 14) (size 15 to 20)
#    0.000    1.500    1.250    4.500    0.000    5.250 
#    0.000    1.875    0.000    2.250    0.000    0.000 
#    0.000    0.000    0.000    0.000    0.000    0.000 
#
# Total GULP energy -396780.918316 kJ/mol
# GULP energy per Si atom -12399.403697 kJ/mol
# Density = 2.044212 g / cm^3
# Si number density = 20.488754 Si / 1000 Ang^3
#
#
#
# Elastic Constant Matrix: (Units=GPa)
#
#
# Indices 1 2 3 4 5 6 
#
# 1 68.3812 28.3509 20.2963 0.0000 0.0000 0.0000
# 2 28.3509 116.2918 48.0554 0.0000 0.0000 0.0000
# 3 20.2963 48.0554 103.3928 0.0000 0.0000 0.0000
# 4 0.0000 0.0000 0.0000 21.5277 0.0000 0.0000
# 5 0.0000 0.0000 0.0000 0.0000 26.4386 0.0000
# 6 0.0000 0.0000 0.0000 0.0000 0.0000 28.5740
#
#
#
# Elastic Compliance Matrix: (Units=1/GPa)
#
#
# Indices 1 2 3 4 5 6 
#
# 1 0.016505 -0.003323 -0.001695 0.000000 0.000000 0.000000
# 2 -0.003323 0.011312 -0.004605 0.000000 0.000000 0.000000
# 3 -0.001695 -0.004605 0.012145 0.000000 0.000000 0.000000
# 4 0.000000 0.000000 0.000000 0.046452 0.000000 0.000000
# 5 0.000000 0.000000 0.000000 0.000000 0.037824 0.000000
# 6 0.000000 0.000000 0.000000 0.000000 0.000000 0.034997
#
#
# Mechanical properties :
#
#
# Convention : Reuss Voigt Hill
#
# Bulk Modulus (GPa) = 48.27556 53.49677 50.88616
# Shear Modulus (GPa) = 26.97054 28.06559 27.51806
#
# Velocity S-wave (km/s) = 3.63210 3.70510 3.66878
# Velocity P-wave (km/s) = 6.41893 6.66864 6.54497
#
# Compressibility (1/GPa) = 0.02071442
#
# Stress axis : x y z
#
# Youngs Moduli (GPa) = 60.58805 88.39909 82.33690
#
# Poissons Ratio (x) = 0.29376 0.13960
# Poissons Ratio (y) = 0.20134 0.37920
# Poissons Ratio (z) = 0.10272 0.40712
#
# Static dielectric constant tensor:
#      x y z
#    x 3.756250 0.000000 0.000000 
#    y 0.000000 3.992780 0.000000 
#    z 0.000000 0.000000 3.579250 
# 
# 
# High freq. dielectric constant tensor:
#      x y z
#    x 1.805330 0.000000 0.000000 
#    y 0.000000 1.818070 0.000000 
#    z 0.000000 0.000000 1.775070 
# 
# From -- ./inp_files/11962.got.cif
#   From: 2010.03.12/outbox.cif.g09.slc.cpg/sg35_6_cif.got.tgz:11962.got - 2010.04.14 02:02:04.
