data_PCOD8172085
_publ_section_title
;
Structure prediction by ZEFSAII (Michael W. Deem and Ramdas Pophale) SiO2 
 PCOD8172085
Probable space group: P N N 2
;
_chemical_formula_sum "Si O2"
_cell_formula_units_Z 28
_cell_length_a 17.981174
_cell_length_b 12.187738
_cell_length_c 5.400986
_cell_angle_alpha 90.000000
_cell_angle_beta 90.000000
_cell_angle_gamma 90.000000
_cell_volume 1183.625205
_symmetry_space_group_name_H-M "P N N 2"
_symmetry_group_IT_number 34
_symmetry_cell_setting 'orthorhombic'
loop_
_space_group_symop_operation_xyz
x,y,z
-x,-y,z
1/2-x,1/2+y,1/2+z
1/2+x,1/2-y,1/2+z
loop_
_atom_site_type_symbol
_atom_site_label
_atom_site_fract_x
_atom_site_fract_y
_atom_site_fract_z
Si Si1 0.805175 0.205898 0.831530
Si Si2 0.000000 0.500000 0.413056
Si Si3 0.500000 0.500000 0.531254
Si Si4 0.467431 0.206816 0.253580
Si Si5 0.908698 0.646101 0.107902
Si Si6 0.854748 0.974254 0.739984
Si Si7 0.219740 0.252547 0.851643
Si Si8 0.440411 0.655987 0.896604
O O1 0.886381 0.258606 0.846760
O O2 0.770973 0.263055 0.590606
O O3 0.798753 0.076385 0.757615
O O4 0.763050 0.224299 0.094331
O O5 0.030599 0.601789 0.571842
O O6 0.073835 0.467844 0.249475
O O7 0.573870 0.518307 0.380421
O O8 0.495536 0.611742 0.688725
O O9 0.511336 0.174556 0.497200
O O10 0.508757 0.311377 0.131302
O O11 0.890702 0.740284 0.311476
O O12 0.841384 0.648971 0.906698
O O13 0.822235 0.863054 0.850994
O O14 0.882593 0.942366 0.463702
#
# Coordination Sequence:
#
# PCOD8172085 Si02
#       8
#     4   2   2   4   4   4   4   4
#     4  12  31  49  77 113 159 204 255 325 390 484
#     4  10  26  42  84 112 154 210 270 324 386 468
#     4  12  22  38  82 110 138 190 260 334 388 446
#     4  11  24  49  74 116 150 201 271 322 381 469
#     4  11  23  48  77 109 149 207 262 324 380 473
#     4  12  26  49  73 115 143 208 252 324 396 462
#     4  12  29  52  74 111 162 203 252 320 400 472
#     4  11  21  40  80 109 148 186 268 331 385 445
#
# _framework density 23.656137000000001
#
# number of rings (size 3 to 8) (size 9 to 14) (size 15 to 20)
#    0.000    0.571    2.857    4.286   10.000    1.143 
#    5.143    0.000    0.000    0.000    0.000    0.000 
#    0.000    0.000    0.000    0.000    0.000    0.000 
#
# Total GULP energy -346952.815394 kJ/mol
# GULP energy per Si atom -12391.171978 kJ/mol
# Density = 2.360229 g / cm^3
# Si number density = 23.656137 Si / 1000 Ang^3
#
#
#
# Elastic Constant Matrix: (Units=GPa)
#
#
# Indices 1 2 3 4 5 6 
#
# 1 108.3322 17.0691 46.2088 0.0000 0.0000 0.0000
# 2 17.0691 79.2139 16.0627 0.0000 0.0000 0.0000
# 3 46.2088 16.0627 117.8325 0.0000 0.0000 0.0000
# 4 0.0000 0.0000 0.0000 44.0137 0.0000 0.0000
# 5 0.0000 0.0000 0.0000 0.0000 53.4001 0.0000
# 6 0.0000 0.0000 0.0000 0.0000 0.0000 29.3242
#
#
#
# Elastic Compliance Matrix: (Units=1/GPa)
#
#
# Indices 1 2 3 4 5 6 
#
# 1 0.011273 -0.001576 -0.004206 0.000000 0.000000 0.000000
# 2 -0.001576 0.013203 -0.001182 0.000000 0.000000 0.000000
# 3 -0.004206 -0.001182 0.010297 0.000000 0.000000 0.000000
# 4 0.000000 0.000000 0.000000 0.022720 0.000000 0.000000
# 5 0.000000 0.000000 0.000000 0.000000 0.018727 0.000000
# 6 0.000000 0.000000 0.000000 0.000000 0.000000 0.034102
#
#
# Mechanical properties :
#
#
# Convention : Reuss Voigt Hill
#
# Bulk Modulus (GPa) = 47.97148 51.56220 49.76684
# Shear Modulus (GPa) = 38.11013 40.41678 39.26345
#
# Velocity S-wave (km/s) = 4.01809 4.13790 4.07843
# Velocity P-wave (km/s) = 6.46911 6.68382 6.57734
#
# Compressibility (1/GPa) = 0.02084572
#
# Stress axis : x y z
#
# Youngs Moduli (GPa) = 88.70517 75.73845 97.11450
#
# Poissons Ratio (x) = 0.11939 0.40847
# Poissons Ratio (y) = 0.13983 0.11476
# Poissons Ratio (z) = 0.37310 0.08950
#
# Static dielectric constant tensor:
#      x y z
#    x 4.214900 0.000000 0.000000 
#    y 0.000000 4.446860 0.000000 
#    z 0.000000 0.000000 4.479110 
# 
# 
# High freq. dielectric constant tensor:
#      x y z
#    x 1.928550 0.000000 0.000000 
#    y 0.000000 1.941970 0.000000 
#    z 0.000000 0.000000 1.954490 
# 
# From -- ./inp_files/1602.got.cif
#   From: 2010.03.12/outbox.cif.g09.slc.cpg/sg34_1_cif.got.tgz:1602.got - 2010.04.14 01:56:33.
