data_PCOD8172059
_publ_section_title
;
Structure prediction by ZEFSAII (Michael W. Deem and Ramdas Pophale) SiO2 
 PCOD8172059
Probable space group: P N N 2
;
_chemical_formula_sum "Si O2"
_cell_formula_units_Z 24
_cell_length_a 10.921748
_cell_length_b 8.323455
_cell_length_c 12.581065
_cell_angle_alpha 90.000000
_cell_angle_beta 90.000000
_cell_angle_gamma 90.000000
_cell_volume 1143.702825
_symmetry_space_group_name_H-M "P N N 2"
_symmetry_group_IT_number 34
_symmetry_cell_setting 'orthorhombic'
loop_
_space_group_symop_operation_xyz
x,y,z
-x,-y,z
1/2-x,1/2+y,1/2+z
1/2+x,1/2-y,1/2+z
loop_
_atom_site_type_symbol
_atom_site_label
_atom_site_fract_x
_atom_site_fract_y
_atom_site_fract_z
Si Si1 0.820623 0.247219 0.239820
Si Si2 0.500000 0.500000 0.995712
Si Si3 0.418934 0.154135 0.941858
Si Si4 0.354090 0.012566 0.313851
Si Si5 0.766972 0.471450 0.056638
Si Si6 0.000000 0.000000 0.169636
Si Si7 0.228466 0.188637 0.127168
O O1 0.847240 0.378085 0.331253
O O2 0.695529 0.156446 0.269996
O O3 0.813716 0.318466 0.121664
O O4 0.936559 0.129030 0.245670
O O5 0.485894 0.329451 0.932564
O O6 0.620307 0.477556 0.066885
O O7 0.500000 0.000000 0.964884
O O8 0.324421 0.152794 0.036684
O O9 0.500000 0.000000 0.305091
O O10 0.312700 0.040686 0.435451
O O11 0.292891 0.152795 0.241436
O O12 0.817740 0.627996 0.118036
O O13 0.891057 0.919292 0.101573
#
# Coordination Sequence:
#
# PCOD8172059 Si02
#       7
#     4   2   4   4   4   2   4
#     4  11  25  44  68 100 133 183 226 286 352 412
#     4  10  23  46  67  98 142 175 228 295 334 416
#     4  11  24  42  74 101 135 180 239 280 349 424
#     4  11  25  46  69  97 141 182 226 290 349 406
#     4  11  26  43  71  99 138 181 229 285 351 414
#     4  10  25  42  67  92 140 173 226 283 344 412
#     4  10  24  46  65 101 133 181 229 280 350 410
#
# _framework density 20.984473999999999
#
# number of rings (size 3 to 8) (size 9 to 14) (size 15 to 20)
#    0.000    1.333    3.333    1.000   16.333    0.000 
#    0.000    0.833    0.000    0.000    0.000    0.000 
#    0.000    0.000    0.000    0.000    0.000    0.000 
#
# Total GULP energy -297371.482106 kJ/mol
# GULP energy per Si atom -12390.478421 kJ/mol
# Density = 2.093671 g / cm^3
# Si number density = 20.984474 Si / 1000 Ang^3
#
#
#
# Elastic Constant Matrix: (Units=GPa)
#
#
# Indices 1 2 3 4 5 6 
#
# 1 138.0553 58.2094 47.5132 0.0000 0.0000 0.0000
# 2 58.2094 120.2456 67.0816 0.0000 0.0000 0.0000
# 3 47.5132 67.0816 147.9572 0.0000 0.0000 0.0000
# 4 0.0000 0.0000 0.0000 34.3184 0.0000 0.0000
# 5 0.0000 0.0000 0.0000 0.0000 11.0869 0.0000
# 6 0.0000 0.0000 0.0000 0.0000 0.0000 21.5039
#
#
#
# Elastic Compliance Matrix: (Units=1/GPa)
#
#
# Indices 1 2 3 4 5 6 
#
# 1 0.009274 -0.003785 -0.001262 0.000000 0.000000 0.000000
# 2 -0.003785 0.012677 -0.004532 0.000000 0.000000 0.000000
# 3 -0.001262 -0.004532 0.009219 0.000000 0.000000 0.000000
# 4 0.000000 0.000000 0.000000 0.029139 0.000000 0.000000
# 5 0.000000 0.000000 0.000000 0.000000 0.090197 0.000000
# 6 0.000000 0.000000 0.000000 0.000000 0.000000 0.046503
#
#
# Mechanical properties :
#
#
# Convention : Reuss Voigt Hill
#
# Bulk Modulus (GPa) = 83.25649 83.54072 83.39861
# Shear Modulus (GPa) = 22.70969 28.94544 25.82756
#
# Velocity S-wave (km/s) = 3.29327 3.71802 3.51207
# Velocity P-wave (km/s) = 7.36358 7.63733 7.50170
#
# Compressibility (1/GPa) = 0.01201108
#
# Stress axis : x y z
#
# Youngs Moduli (GPa) = 107.83054 78.88271 108.47562
#
# Poissons Ratio (x) = 0.29860 0.13688
# Poissons Ratio (y) = 0.40818 0.49161
# Poissons Ratio (z) = 0.13606 0.35750
#
# Static dielectric constant tensor:
#      x y z
#    x 3.969430 0.000000 0.000000 
#    y 0.000000 4.166070 0.000000 
#    z 0.000000 0.000000 3.700540 
# 
# 
# High freq. dielectric constant tensor:
#      x y z
#    x 1.829910 0.000000 0.000000 
#    y 0.000000 1.823250 0.000000 
#    z 0.000000 0.000000 1.822280 
# 
# From -- ./inp_files/5342.got.cif
#   From: 2010.03.12/outbox.cif.g09.slc.cpg/sg34_3_cif.got.tgz:5342.got - 2010.04.14 01:56:33.
