data_PCOD8172851
_publ_section_title
;
Structure prediction by ZEFSAII (Michael W. Deem and Ramdas Pophale) SiO2 
 PCOD8172851
Probable space group: C M M 2
;
_chemical_formula_sum "Si O2"
_cell_formula_units_Z 64
_cell_length_a 17.784667
_cell_length_b 22.570060
_cell_length_c 8.122795
_cell_angle_alpha 90.000000
_cell_angle_beta 90.000000
_cell_angle_gamma 90.000000
_cell_volume 3260.498046
_symmetry_space_group_name_H-M "C M M 2"
_symmetry_group_IT_number 35
_symmetry_cell_setting 'orthorhombic'
loop_
_space_group_symop_operation_xyz
x,y,z
-x,-y,z
-x,y,z
x,-y,z
1/2+x,1/2+y,z
1/2-x,1/2-y,z
1/2-x,1/2+y,z
1/2+x,1/2-y,z
loop_
_atom_site_type_symbol
_atom_site_label
_atom_site_fract_x
_atom_site_fract_y
_atom_site_fract_z
Si Si1 0.082482 0.566121 0.710880
Si Si2 0.088556 0.208913 0.762427
Si Si3 0.324036 0.658997 0.064397
Si Si4 0.762694 0.434848 0.869808
Si Si5 0.269078 0.810303 0.369139
Si Si6 0.583099 0.815675 0.520034
Si Si7 0.171428 0.892990 0.572480
Si Si8 0.586484 0.434264 0.268587
O O1 0.092212 0.500000 0.631980
O O2 0.149247 0.576905 0.839134
O O3 0.086289 0.616049 0.572390
O O4 0.000000 0.570398 0.798544
O O5 0.136414 0.203160 0.933107
O O6 0.104936 0.271957 0.673082
O O7 0.114280 0.155779 0.644007
O O8 0.000000 0.202275 0.801758
O O9 0.261121 0.616606 0.990109
O O10 0.275757 0.695591 0.196845
O O11 0.386434 0.617063 0.146462
O O12 0.752555 0.500000 0.949478
O O13 0.709333 0.433736 0.709646
O O14 0.250000 0.750000 0.466763
O O15 0.360310 0.811373 0.364241
O O16 0.241602 0.864637 0.477272
O O17 0.500000 0.798141 0.456465
O O18 0.126392 0.933357 0.445479
O O19 0.500000 0.421924 0.300894
O O20 0.599571 0.500000 0.191630
#
# Coordination Sequence:
#
# PCOD8172851 Si02
#       8
#     8   8   8   8   8   8   8   8
#     4   9  18  33  55  82 108 136 175 228 282 327
#     4  10  20  36  58  84 111 145 188 239 285 329
#     4  10  23  36  53  81 115 155 183 227 281 344
#     4  10  19  34  55  81 110 143 189 235 274 326
#     4  11  21  38  54  83 115 149 184 226 289 339
#     4  10  20  36  60  86 112 143 188 237 281 332
#     4  10  19  33  56  83 109 144 189 241 277 327
#     4  10  20  35  54  78 114 156 192 228 275 333
#
# _framework density 19.628903000000001
#
# number of rings (size 3 to 8) (size 9 to 14) (size 15 to 20)
#    0.000    2.000    2.500    1.500    0.000    1.000 
#    0.000    1.875    0.000    6.000    0.000    0.000 
#    0.000    0.000    0.000    0.000    0.000    0.000 
#
# Total GULP energy -396492.382568 kJ/mol
# GULP energy per Si atom -12390.386955 kJ/mol
# Density = 1.958423 g / cm^3
# Si number density = 19.628903 Si / 1000 Ang^3
#
#
#
# Elastic Constant Matrix: (Units=GPa)
#
#
# Indices 1 2 3 4 5 6 
#
# 1 151.1426 42.7532 36.9583 0.0000 0.0000 0.0000
# 2 42.7532 83.3935 10.9525 0.0000 0.0000 0.0000
# 3 36.9583 10.9525 52.9416 0.0000 0.0000 0.0000
# 4 0.0000 0.0000 0.0000 3.5255 0.0000 0.0000
# 5 0.0000 0.0000 0.0000 0.0000 19.7323 0.0000
# 6 0.0000 0.0000 0.0000 0.0000 0.0000 28.2341
#
#
#
# Elastic Compliance Matrix: (Units=1/GPa)
#
#
# Indices 1 2 3 4 5 6 
#
# 1 0.009079 -0.003929 -0.005525 0.000000 0.000000 0.000000
# 2 -0.003929 0.014026 -0.000159 0.000000 0.000000 0.000000
# 3 -0.005525 -0.000159 0.022779 0.000000 0.000000 0.000000
# 4 0.000000 0.000000 0.000000 0.283648 0.000000 0.000000
# 5 0.000000 0.000000 0.000000 0.000000 0.050678 0.000000
# 6 0.000000 0.000000 0.000000 0.000000 0.000000 0.035418
#
#
# Mechanical properties :
#
#
# Convention : Reuss Voigt Hill
#
# Bulk Modulus (GPa) = 37.51228 52.08952 44.80090
# Shear Modulus (GPa) = 11.26788 23.41930 17.34359
#
# Velocity S-wave (km/s) = 2.39852 3.45788 2.97572
# Velocity P-wave (km/s) = 5.17907 6.52207 5.88898
#
# Compressibility (1/GPa) = 0.02665794
#
# Stress axis : x y z
#
# Youngs Moduli (GPa) = 110.14979 71.29437 43.90087
#
# Poissons Ratio (x) = 0.28009 0.24255
# Poissons Ratio (y) = 0.43274 0.00699
# Poissons Ratio (z) = 0.60857 0.01135
#
# Static dielectric constant tensor:
#      x y z
#    x 3.846950 0.000000 0.000000 
#    y 0.000000 3.686450 0.000000 
#    z 0.000000 0.000000 3.324160 
# 
# 
# High freq. dielectric constant tensor:
#      x y z
#    x 1.785450 0.000000 0.000000 
#    y 0.000000 1.778870 0.000000 
#    z 0.000000 0.000000 1.724510 
# 
# From -- ./inp_files/7881.got.cif
#   From: 2010.03.12/outbox.cif.g09.slc.cpg/sg35_4_cif.got.tgz:7881.got - 2010.04.14 02:02:04.
