data_PCOD8172493
_publ_section_title
;
Structure prediction by ZEFSAII (Michael W. Deem and Ramdas Pophale) SiO2 
 PCOD8172493
Probable space group: C M M 2
;
_chemical_formula_sum "Si O2"
_cell_formula_units_Z 64
_cell_length_a 30.813488
_cell_length_b 9.137029
_cell_length_c 15.111259
_cell_angle_alpha 90.000000
_cell_angle_beta 90.000000
_cell_angle_gamma 90.000000
_cell_volume 4254.480276
_symmetry_space_group_name_H-M "C M M 2"
_symmetry_group_IT_number 35
_symmetry_cell_setting 'orthorhombic'
loop_
_space_group_symop_operation_xyz
x,y,z
-x,-y,z
-x,y,z
x,-y,z
1/2+x,1/2+y,z
1/2-x,1/2-y,z
1/2-x,1/2+y,z
1/2+x,1/2-y,z
loop_
_atom_site_type_symbol
_atom_site_label
_atom_site_fract_x
_atom_site_fract_y
_atom_site_fract_z
Si Si1 0.132248 0.171148 0.652910
Si Si2 0.704681 0.670080 0.319771
Si Si3 0.047165 0.335652 0.444738
Si Si4 0.795783 0.330313 0.962789
Si Si5 0.796065 0.329230 0.766476
Si Si6 0.952111 0.664821 0.654927
Si Si7 0.130364 0.829975 0.446482
Si Si8 0.203960 0.170532 0.124116
O O1 0.170713 0.257442 0.699121
O O2 0.085672 0.227516 0.689671
O O3 0.137257 0.206162 0.549219
O O4 0.135951 0.000000 0.673656
O O5 0.713976 0.500000 0.336244
O O6 0.750000 0.750000 0.333114
O O7 0.670873 0.733865 0.391300
O O8 0.683640 0.693982 0.221711
O O9 0.054069 0.500000 0.410254
O O10 0.047718 0.332124 0.549938
O O11 0.086147 0.238215 0.407452
O O12 0.000000 0.276677 0.411859
O O13 0.790038 0.500000 0.986700
O O14 0.750000 0.250000 0.957609
O O15 0.816572 0.311236 0.865351
O O16 0.822608 0.249915 0.043112
O O17 0.789587 0.500000 0.743664
O O18 0.750000 0.250000 0.756587
O O19 0.942390 0.500000 0.688436
O O20 0.000000 0.715396 0.689333
O O21 0.126036 0.000000 0.428793
O O22 0.250000 0.250000 0.127292
O O23 0.208912 0.000000 0.101843
#
# Coordination Sequence:
#
# PCOD8172493 Si02
#       8
#     8   8   8   8   8   8   8   8
#     4  10  19  29  42  60  83 111 142 175 205 235
#     4   9  18  30  41  56  80 109 140 170 199 235
#     4   8  14  25  41  60  79 100 130 167 206 245
#     4   9  16  26  41  59  77  98 126 163 205 246
#     4  10  20  32  44  58  80 110 141 172 205 242
#     4   8  14  26  43  60  79 104 133 167 208 249
#     4   9  18  30  41  57  82 110 141 172 200 233
#     4   9  15  24  40  58  76  99 126 161 203 242
#
# _framework density 15.042966
#
# number of rings (size 3 to 8) (size 9 to 14) (size 15 to 20)
#    0.000    3.000    0.000    3.000    0.000    4.000 
#    0.000    3.750    0.000    0.000    0.000    0.000 
#    0.000    1.000    0.000    6.500    0.000    5.875 
#
# Total GULP energy -396421.721538 kJ/mol
# GULP energy per Si atom -12388.178798 kJ/mol
# Density = 1.500873 g / cm^3
# Si number density = 15.042966 Si / 1000 Ang^3
#
#
#
# Elastic Constant Matrix: (Units=GPa)
#
#
# Indices 1 2 3 4 5 6 
#
# 1 101.5804 51.5483 47.3480 0.0000 0.0000 0.0000
# 2 51.5483 90.8946 44.0146 0.0000 0.0000 0.0000
# 3 47.3480 44.0146 61.9790 0.0000 0.0000 0.0000
# 4 0.0000 0.0000 0.0000 19.8298 0.0000 0.0000
# 5 0.0000 0.0000 0.0000 0.0000 0.4431 0.0000
# 6 0.0000 0.0000 0.0000 0.0000 0.0000 25.1836
#
#
#
# Elastic Compliance Matrix: (Units=1/GPa)
#
#
# Indices 1 2 3 4 5 6 
#
# 1 0.016660 -0.005007 -0.009172 0.000000 0.000000 0.000000
# 2 -0.005007 0.018273 -0.009151 0.000000 0.000000 0.000000
# 3 -0.009172 -0.009151 0.029640 0.000000 0.000000 0.000000
# 4 0.000000 0.000000 0.000000 0.050429 0.000000 0.000000
# 5 0.000000 0.000000 0.000000 0.000000 2.256746 0.000000
# 6 0.000000 0.000000 0.000000 0.000000 0.000000 0.039708
#
#
# Mechanical properties :
#
#
# Convention : Reuss Voigt Hill
#
# Bulk Modulus (GPa) = 55.82594 60.03066 57.92830
# Shear Modulus (GPa) = 2.02915 16.52752 9.27833
#
# Velocity S-wave (km/s) = 1.16268 3.31824 2.48622
# Velocity P-wave (km/s) = 6.24452 7.39417 6.84353
#
# Compressibility (1/GPa) = 0.01791282
#
# Stress axis : x y z
#
# Youngs Moduli (GPa) = 60.02247 54.72587 33.73842
#
# Poissons Ratio (x) = 0.27403 0.30943
# Poissons Ratio (y) = 0.30055 0.30875
# Poissons Ratio (z) = 0.55050 0.50081
#
# Static dielectric constant tensor:
#      x y z
#    x 2.925700 0.000000 0.000000 
#    y 0.000000 3.037820 0.000000 
#    z 0.000000 0.000000 3.387170 
# 
# 
# High freq. dielectric constant tensor:
#      x y z
#    x 1.546170 0.000000 0.000000 
#    y 0.000000 1.587580 0.000000 
#    z 0.000000 0.000000 1.554060 
# 
# From -- ./inp_files/17734.got.cif
#   From: 2010.03.12/outbox.cif.g09.slc.cpg/sg35_9_cif.got.tgz:17734.got - 2010.04.14 02:02:04.
