data_PCOD8172770
_publ_section_title
;
Structure prediction by ZEFSAII (Michael W. Deem and Ramdas Pophale) SiO2 
 PCOD8172770
Probable space group: C M M 2
;
_chemical_formula_sum "Si O2"
_cell_formula_units_Z 64
_cell_length_a 29.114595
_cell_length_b 8.730506
_cell_length_c 12.451030
_cell_angle_alpha 90.000000
_cell_angle_beta 90.000000
_cell_angle_gamma 90.000000
_cell_volume 3164.866883
_symmetry_space_group_name_H-M "C M M 2"
_symmetry_group_IT_number 35
_symmetry_cell_setting 'orthorhombic'
loop_
_space_group_symop_operation_xyz
x,y,z
-x,-y,z
-x,y,z
x,-y,z
1/2+x,1/2+y,z
1/2-x,1/2-y,z
1/2-x,1/2+y,z
1/2+x,1/2-y,z
loop_
_atom_site_type_symbol
_atom_site_label
_atom_site_fract_x
_atom_site_fract_y
_atom_site_fract_z
Si Si1 0.551054 0.172510 0.782570
Si Si2 0.203373 0.816742 0.150185
Si Si3 0.682588 0.671523 0.918033
Si Si4 0.079882 0.826794 0.983435
Si Si5 0.948166 0.319190 0.407337
Si Si6 0.391448 0.818325 0.201362
Si Si7 0.893349 0.821425 0.601529
Si Si8 0.703390 0.318059 0.685787
O O1 0.500000 0.172159 0.732745
O O2 0.582582 0.285599 0.714213
O O3 0.571334 0.000000 0.781291
O O4 0.546537 0.233842 0.904593
O O5 0.250000 0.750000 0.203330
O O6 0.159225 0.754716 0.214191
O O7 0.202022 0.000000 0.154392
O O8 0.201672 0.750989 0.027332
O O9 0.701760 0.500000 0.915957
O O10 0.698143 0.752863 0.807030
O O11 0.628045 0.673013 0.922238
O O12 0.082409 0.741570 0.096668
O O13 0.062286 0.000000 0.002343
O O14 0.951637 0.500000 0.407211
O O15 0.922137 0.261851 0.300988
O O16 0.918089 0.271484 0.508692
O O17 0.000000 0.249653 0.411694
O O18 0.386454 0.000000 0.196270
O O19 0.839864 0.770726 0.611588
O O20 0.897794 0.000000 0.576621
O O21 0.705735 0.500000 0.691777
O O22 0.750000 0.250000 0.634236
#
# Coordination Sequence:
#
# PCOD8172770 Si02
#       8
#     8   8   8   8   8   8   8   8
#     4  11  23  37  56  85 120 158 198 239 293 362
#     4  10  19  32  54  84 120 161 202 245 292 348
#     4   8  15  30  50  76 114 154 190 233 280 334
#     4  10  19  35  57  84 121 158 193 242 296 348
#     4  10  23  44  67  88 113 149 196 250 303 358
#     4  10  21  38  60  87 119 156 197 245 303 360
#     4  11  23  40  62  87 119 153 194 249 300 351
#     4  10  20  35  54  82 117 154 193 235 285 342
#
# _framework density 20.222020000000001
#
# number of rings (size 3 to 8) (size 9 to 14) (size 15 to 20)
#    0.000    2.000    1.250    3.375    0.000    5.250 
#    0.000    2.500    0.000    1.500    0.000    0.000 
#    0.000    0.000    0.000    0.000    0.000    0.000 
#
# Total GULP energy -396703.694733 kJ/mol
# GULP energy per Si atom -12396.990460 kJ/mol
# Density = 2.017599 g / cm^3
# Si number density = 20.222020 Si / 1000 Ang^3
#
#
#
# Elastic Constant Matrix: (Units=GPa)
#
#
# Indices 1 2 3 4 5 6 
#
# 1 141.0117 27.8385 58.7523 0.0000 0.0000 0.0000
# 2 27.8385 44.6335 16.9863 0.0000 0.0000 0.0000
# 3 58.7523 16.9863 102.3960 0.0000 0.0000 0.0000
# 4 0.0000 0.0000 0.0000 27.6441 0.0000 0.0000
# 5 0.0000 0.0000 0.0000 0.0000 22.2481 0.0000
# 6 0.0000 0.0000 0.0000 0.0000 0.0000 28.1622
#
#
#
# Elastic Compliance Matrix: (Units=1/GPa)
#
#
# Indices 1 2 3 4 5 6 
#
# 1 0.010053 -0.004350 -0.005047 0.000000 0.000000 0.000000
# 2 -0.004350 0.025796 -0.001784 0.000000 0.000000 0.000000
# 3 -0.005047 -0.001784 0.012957 0.000000 0.000000 0.000000
# 4 0.000000 0.000000 0.000000 0.036174 0.000000 0.000000
# 5 0.000000 0.000000 0.000000 0.000000 0.044948 0.000000
# 6 0.000000 0.000000 0.000000 0.000000 0.000000 0.035509
#
#
# Mechanical properties :
#
#
# Convention : Reuss Voigt Hill
#
# Bulk Modulus (GPa) = 37.81112 55.02171 46.41641
# Shear Modulus (GPa) = 25.43071 27.90847 26.66959
#
# Velocity S-wave (km/s) = 3.55008 3.71900 3.63552
# Velocity P-wave (km/s) = 5.96177 6.76086 6.37385
#
# Compressibility (1/GPa) = 0.02644725
#
# Stress axis : x y z
#
# Youngs Moduli (GPa) = 99.47321 38.76509 77.17540
#
# Poissons Ratio (x) = 0.16861 0.38947
# Poissons Ratio (y) = 0.43267 0.13765
# Poissons Ratio (z) = 0.50200 0.06914
#
# Static dielectric constant tensor:
#      x y z
#    x 3.854990 0.000000 0.000000 
#    y 0.000000 3.495390 0.000000 
#    z 0.000000 0.000000 3.563650 
# 
# 
# High freq. dielectric constant tensor:
#      x y z
#    x 1.798190 0.000000 0.000000 
#    y 0.000000 1.779040 0.000000 
#    z 0.000000 0.000000 1.771570 
# 
# From -- ./inp_files/14596.got.cif
#   From: 2010.03.12/outbox.cif.g09.slc.cpg/sg35_8_cif.got.tgz:14596.got - 2010.04.14 02:02:04.
