data_PCOD8172786
_publ_section_title
;
Structure prediction by ZEFSAII (Michael W. Deem and Ramdas Pophale) SiO2 
 PCOD8172786
Probable space group: C M M 2
;
_chemical_formula_sum "Si O2"
_cell_formula_units_Z 56
_cell_length_a 19.523369
_cell_length_b 8.694522
_cell_length_c 17.744751
_cell_angle_alpha 90.000000
_cell_angle_beta 90.000000
_cell_angle_gamma 90.000000
_cell_volume 3012.106914
_symmetry_space_group_name_H-M "C M M 2"
_symmetry_group_IT_number 35
_symmetry_cell_setting 'orthorhombic'
loop_
_space_group_symop_operation_xyz
x,y,z
-x,-y,z
-x,y,z
x,-y,z
1/2+x,1/2+y,z
1/2-x,1/2-y,z
1/2-x,1/2+y,z
1/2+x,1/2-y,z
loop_
_atom_site_type_symbol
_atom_site_label
_atom_site_fract_x
_atom_site_fract_y
_atom_site_fract_z
Si Si1 0.422880 0.817276 0.195210
Si Si2 0.424623 0.182460 0.772968
Si Si3 0.176881 0.682566 0.326694
Si Si4 0.321911 0.319696 0.486793
Si Si5 0.322586 0.181794 0.066696
Si Si6 0.580626 0.176671 0.604583
Si Si7 0.678075 0.817889 0.896937
O O1 0.500000 0.748191 0.196271
O O2 0.381528 0.761565 0.268785
O O3 0.382788 0.756994 0.121115
O O4 0.426759 0.000000 0.193642
O O5 0.500000 0.252912 0.785804
O O6 0.397946 0.225379 0.689445
O O7 0.376404 0.251426 0.838001
O O8 0.428627 0.000000 0.779460
O O9 0.182908 0.500000 0.328542
O O10 0.250000 0.750000 0.301177
O O11 0.155156 0.743458 0.408407
O O12 0.312993 0.500000 0.474467
O O13 0.250000 0.250000 0.514833
O O14 0.379765 0.287697 0.548216
O O15 0.250000 0.250000 0.092773
O O16 0.315808 0.000000 0.072435
O O17 0.341129 0.234671 0.981721
O O18 0.500000 0.200185 0.592975
O O19 0.600959 0.000000 0.588631
O O20 0.750000 0.750000 0.871880
O O21 0.681544 0.000000 0.891543
#
# Coordination Sequence:
#
# PCOD8172786 Si02
#       7
#     8   8   8   8   8   8   8
#     4   9  18  31  48  73 100 125 159 201 241 283
#     4   8  15  29  49  72  97 127 164 202 239 284
#     4  10  19  33  53  73  96 128 163 199 243 294
#     4  11  22  36  54  76 102 129 164 208 250 296
#     4   9  17  30  49  71  97 129 162 198 239 284
#     4   9  18  34  54  74 100 134 168 203 248 300
#     4   9  17  29  47  72  99 127 161 200 241 283
#
# _framework density 18.591639000000001
#
# number of rings (size 3 to 8) (size 9 to 14) (size 15 to 20)
#    0.000    2.714    0.000    3.857    0.000    2.000 
#    0.000    7.143    0.000    4.714    0.000    4.000 
#    0.000    0.000    0.000    0.000    0.000    0.000 
#
# Total GULP energy -347146.256636 kJ/mol
# GULP energy per Si atom -12398.080594 kJ/mol
# Density = 1.854932 g / cm^3
# Si number density = 18.591639 Si / 1000 Ang^3
#
#
#
# Elastic Constant Matrix: (Units=GPa)
#
#
# Indices 1 2 3 4 5 6 
#
# 1 135.8035 25.6126 98.4280 0.0000 0.0000 0.0000
# 2 25.6126 43.8775 26.2735 0.0000 0.0000 0.0000
# 3 98.4280 26.2735 140.2154 0.0000 0.0000 0.0000
# 4 0.0000 0.0000 0.0000 17.5991 0.0000 0.0000
# 5 0.0000 0.0000 0.0000 0.0000 35.7765 0.0000
# 6 0.0000 0.0000 0.0000 0.0000 0.0000 26.0395
#
#
#
# Elastic Compliance Matrix: (Units=1/GPa)
#
#
# Indices 1 2 3 4 5 6 
#
# 1 0.015293 -0.002815 -0.010208 0.000000 0.000000 0.000000
# 2 -0.002815 0.026189 -0.002932 0.000000 0.000000 0.000000
# 3 -0.010208 -0.002932 0.014847 0.000000 0.000000 0.000000
# 4 0.000000 0.000000 0.000000 0.056821 0.000000 0.000000
# 5 0.000000 0.000000 0.000000 0.000000 0.027951 0.000000
# 6 0.000000 0.000000 0.000000 0.000000 0.000000 0.038403
#
#
# Mechanical properties :
#
#
# Convention : Reuss Voigt Hill
#
# Bulk Modulus (GPa) = 40.94850 68.94718 54.94784
# Shear Modulus (GPa) = 22.77356 27.18848 24.98102
#
# Velocity S-wave (km/s) = 3.50371 3.82829 3.66959
# Velocity P-wave (km/s) = 6.20008 7.53038 6.89738
#
# Compressibility (1/GPa) = 0.02442092
#
# Stress axis : x y z
#
# Youngs Moduli (GPa) = 65.38975 38.18387 67.35407
#
# Poissons Ratio (x) = 0.10747 0.68754
# Poissons Ratio (y) = 0.18404 0.19745
# Poissons Ratio (z) = 0.66749 0.11194
#
# Static dielectric constant tensor:
#      x y z
#    x 3.696210 0.000000 0.000000 
#    y 0.000000 3.094000 0.000000 
#    z 0.000000 0.000000 3.656560 
# 
# 
# High freq. dielectric constant tensor:
#      x y z
#    x 1.720020 0.000000 0.000000 
#    y 0.000000 1.690890 0.000000 
#    z 0.000000 0.000000 1.732760 
# 
# From -- ./inp_files/17398.got.cif
#   From: 2010.03.12/outbox.cif.g09.slc.cpg/sg35_9_cif.got.tgz:17398.got - 2010.04.14 02:02:04.
