data_PCOD8172347
_publ_section_title
;
Structure prediction by ZEFSAII (Michael W. Deem and Ramdas Pophale) SiO2 
 PCOD8172347
Probable space group: C M M 2
;
_chemical_formula_sum "Si O2"
_cell_formula_units_Z 64
_cell_length_a 18.481316
_cell_length_b 14.475141
_cell_length_c 12.118848
_cell_angle_alpha 90.000000
_cell_angle_beta 90.000000
_cell_angle_gamma 90.000000
_cell_volume 3242.030036
_symmetry_space_group_name_H-M "C M M 2"
_symmetry_group_IT_number 35
_symmetry_cell_setting 'orthorhombic'
loop_
_space_group_symop_operation_xyz
x,y,z
-x,-y,z
-x,y,z
x,-y,z
1/2+x,1/2+y,z
1/2-x,1/2-y,z
1/2-x,1/2+y,z
1/2+x,1/2-y,z
loop_
_atom_site_type_symbol
_atom_site_label
_atom_site_fract_x
_atom_site_fract_y
_atom_site_fract_z
Si Si1 0.179449 0.308988 0.005700
Si Si2 0.660759 0.396348 0.287064
Si Si3 0.083052 0.101363 0.823632
Si Si4 0.582933 0.650687 0.066393
Si Si5 0.915820 0.607757 0.583683
Si Si6 0.828777 0.278352 0.759305
Si Si7 0.179030 0.397590 0.221893
Si Si8 0.085076 0.275377 0.367543
O O1 0.250000 0.250000 0.032223
O O2 0.107391 0.254465 0.039803
O O3 0.183657 0.396406 0.087755
O O4 0.177142 0.333001 0.876005
O O5 0.651848 0.500000 0.334566
O O6 0.627393 0.394563 0.164996
O O7 0.744997 0.369387 0.277568
O O8 0.621124 0.326432 0.371830
O O9 0.129018 0.181680 0.767255
O O10 0.000000 0.125341 0.798322
O O11 0.103591 0.000000 0.774505
O O12 0.096161 0.093137 0.954751
O O13 0.500000 0.651832 0.103142
O O14 0.896629 0.500000 0.565117
O O15 0.867669 0.648923 0.680885
O O16 0.895803 0.665450 0.475059
O O17 0.000000 0.619407 0.614137
O O18 0.750000 0.250000 0.713981
O O19 0.156508 0.500000 0.258127
O O20 0.117852 0.326721 0.261505
O O21 0.000000 0.264387 0.350764
#
# Coordination Sequence:
#
# PCOD8172347 Si02
#       8
#     8   8   8   8   8   8   8   8
#     4  10  18  35  54  81 123 160 189 229 285 343
#     4  11  22  35  56  87 121 155 188 228 287 353
#     4   9  18  33  54  81 116 156 192 229 281 345
#     4  10  18  30  51  79 113 154 194 229 269 329
#     4  10  23  45  67  83 107 152 204 248 294 348
#     4  10  22  36  59  91 119 150 192 244 293 341
#     4  11  22  36  58  87 120 160 194 231 289 350
#     4  11  23  41  63  84 112 148 196 253 296 344
#
# _framework density 19.740717
#
# number of rings (size 3 to 8) (size 9 to 14) (size 15 to 20)
#    0.000    1.750    2.500    1.875    0.000    4.750 
#    0.000    0.625    0.000    0.750    0.000    0.000 
#    0.000    0.000    0.000    0.000    0.000    0.000 
#
# Total GULP energy -396697.697861 kJ/mol
# GULP energy per Si atom -12396.803058 kJ/mol
# Density = 1.969579 g / cm^3
# Si number density = 19.740717 Si / 1000 Ang^3
#
#
#
# Elastic Constant Matrix: (Units=GPa)
#
#
# Indices 1 2 3 4 5 6 
#
# 1 77.1250 57.2752 32.3827 0.0000 0.0000 0.0000
# 2 57.2752 127.3005 50.3652 0.0000 0.0000 0.0000
# 3 32.3827 50.3652 82.3868 0.0000 0.0000 0.0000
# 4 0.0000 0.0000 0.0000 23.9465 0.0000 0.0000
# 5 0.0000 0.0000 0.0000 0.0000 26.3268 0.0000
# 6 0.0000 0.0000 0.0000 0.0000 0.0000 26.1635
#
#
#
# Elastic Compliance Matrix: (Units=1/GPa)
#
#
# Indices 1 2 3 4 5 6 
#
# 1 0.020063 -0.007791 -0.003123 0.000000 0.000000 0.000000
# 2 -0.007791 0.013387 -0.005122 0.000000 0.000000 0.000000
# 3 -0.003123 -0.005122 0.016496 0.000000 0.000000 0.000000
# 4 0.000000 0.000000 0.000000 0.041760 0.000000 0.000000
# 5 0.000000 0.000000 0.000000 0.000000 0.037984 0.000000
# 6 0.000000 0.000000 0.000000 0.000000 0.000000 0.038221
#
#
# Mechanical properties :
#
#
# Convention : Reuss Voigt Hill
#
# Bulk Modulus (GPa) = 55.94357 62.98426 59.46392
# Shear Modulus (GPa) = 24.27872 25.07331 24.67601
#
# Velocity S-wave (km/s) = 3.51077 3.56776 3.53938
# Velocity P-wave (km/s) = 6.69587 6.99620 6.84769
#
# Compressibility (1/GPa) = 0.01787516
#
# Stress axis : x y z
#
# Youngs Moduli (GPa) = 49.84233 74.69833 60.61975
#
# Poissons Ratio (x) = 0.58200 0.18931
# Poissons Ratio (y) = 0.38834 0.31046
# Poissons Ratio (z) = 0.15566 0.38257
#
# Static dielectric constant tensor:
#      x y z
#    x 3.692840 0.000000 0.000000 
#    y 0.000000 3.650650 0.000000 
#    z 0.000000 0.000000 3.433070 
# 
# 
# High freq. dielectric constant tensor:
#      x y z
#    x 1.778110 0.000000 0.000000 
#    y 0.000000 1.767650 0.000000 
#    z 0.000000 0.000000 1.748010 
# 
# From -- ./inp_files/13592.got.cif
#   From: 2010.03.12/outbox.cif.g09.slc.cpg/sg35_7_cif.got.tgz:13592.got - 2010.04.14 02:02:04.
