data_PCOD8172829
_publ_section_title
;
Structure prediction by ZEFSAII (Michael W. Deem and Ramdas Pophale) SiO2 
 PCOD8172829
Probable space group: C M M 2
;
_chemical_formula_sum "Si O2"
_cell_formula_units_Z 48
_cell_length_a 8.495038
_cell_length_b 18.637694
_cell_length_c 15.376045
_cell_angle_alpha 90.000000
_cell_angle_beta 90.000000
_cell_angle_gamma 90.000000
_cell_volume 2434.457204
_symmetry_space_group_name_H-M "C M M 2"
_symmetry_group_IT_number 35
_symmetry_cell_setting 'orthorhombic'
loop_
_space_group_symop_operation_xyz
x,y,z
-x,-y,z
-x,y,z
x,-y,z
1/2+x,1/2+y,z
1/2-x,1/2-y,z
1/2-x,1/2+y,z
1/2+x,1/2-y,z
loop_
_atom_site_type_symbol
_atom_site_label
_atom_site_fract_x
_atom_site_fract_y
_atom_site_fract_z
Si Si1 0.186536 0.578933 0.575800
Si Si2 0.313893 0.828764 0.418085
Si Si3 0.183213 0.416896 0.082631
Si Si4 0.683623 0.671740 0.237088
Si Si5 0.316356 0.670127 0.923992
Si Si6 0.317024 0.915816 0.769982
O O1 0.259181 0.500000 0.563728
O O2 0.258396 0.627298 0.499035
O O3 0.229151 0.607910 0.671880
O O4 0.000000 0.574820 0.567503
O O5 0.500000 0.829453 0.420873
O O6 0.250000 0.750000 0.428576
O O7 0.258262 0.860281 0.325546
O O8 0.229158 0.500000 0.071295
O O9 0.282701 0.384199 0.161138
O O10 0.000000 0.407346 0.103651
O O11 0.223360 0.375907 0.994618
O O12 0.500000 0.680721 0.251627
O O13 0.750000 0.750000 0.212419
O O14 0.500000 0.672126 0.947287
O O15 0.250000 0.750000 0.921761
O O16 0.291257 0.632188 0.831518
O O17 0.500000 0.899813 0.789360
O O18 0.282209 0.000000 0.784181
#
# Coordination Sequence:
#
# PCOD8172829 Si02
#       6
#     8   8   8   8   8   8
#     4   8  16  32  55  81 109 145 187 229 274 327
#     4  10  19  33  54  80 111 147 188 231 278 330
#     4  11  24  42  63  86 113 146 183 224 275 334
#     4  11  22  38  59  83 114 149 188 232 279 330
#     4  12  25  40  59  84 115 148 186 230 277 330
#     4   9  18  36  60  84 113 149 188 230 279 333
#
# _framework density 19.716919999999998
#
# number of rings (size 3 to 8) (size 9 to 14) (size 15 to 20)
#    0.000    1.833    0.000    7.000    0.000    5.000 
#    0.000    5.000    0.000    3.500    0.000    0.000 
#    0.000    0.000    0.000    0.000    0.000    0.000 
#
# Total GULP energy -297623.748546 kJ/mol
# GULP energy per Si atom -12400.989523 kJ/mol
# Density = 1.967204 g / cm^3
# Si number density = 19.716920 Si / 1000 Ang^3
#
#
#
# Elastic Constant Matrix: (Units=GPa)
#
#
# Indices 1 2 3 4 5 6 
#
# 1 64.7941 18.5333 13.5324 0.0000 0.0000 0.0000
# 2 18.5333 93.0785 63.8579 0.0000 0.0000 0.0000
# 3 13.5324 63.8579 143.3704 0.0000 0.0000 0.0000
# 4 0.0000 0.0000 0.0000 42.8670 0.0000 0.0000
# 5 0.0000 0.0000 0.0000 0.0000 11.7918 0.0000
# 6 0.0000 0.0000 0.0000 0.0000 0.0000 20.3857
#
#
#
# Elastic Compliance Matrix: (Units=1/GPa)
#
#
# Indices 1 2 3 4 5 6 
#
# 1 0.016367 -0.003167 -0.000134 0.000000 0.000000 0.000000
# 2 -0.003167 0.016084 -0.006865 0.000000 0.000000 0.000000
# 3 -0.000134 -0.006865 0.010045 0.000000 0.000000 0.000000
# 4 0.000000 0.000000 0.000000 0.023328 0.000000 0.000000
# 5 0.000000 0.000000 0.000000 0.000000 0.084805 0.000000
# 6 0.000000 0.000000 0.000000 0.000000 0.000000 0.049054
#
#
# Mechanical properties :
#
#
# Convention : Reuss Voigt Hill
#
# Bulk Modulus (GPa) = 45.11743 54.78779 49.95261
# Shear Modulus (GPa) = 21.98731 28.69686 25.34209
#
# Velocity S-wave (km/s) = 3.34301 3.81917 3.58899
# Velocity P-wave (km/s) = 6.15087 6.87718 6.52414
#
# Compressibility (1/GPa) = 0.02216439
#
# Stress axis : x y z
#
# Youngs Moduli (GPa) = 61.09717 62.17353 99.54876
#
# Poissons Ratio (x) = 0.19689 0.01338
# Poissons Ratio (y) = 0.19348 0.68340
# Poissons Ratio (z) = 0.00821 0.42682
#
# Static dielectric constant tensor:
#      x y z
#    x 3.463760 0.000000 0.000000 
#    y 0.000000 3.733330 0.000000 
#    z 0.000000 0.000000 3.937040 
# 
# 
# High freq. dielectric constant tensor:
#      x y z
#    x 1.759350 0.000000 0.000000 
#    y 0.000000 1.765310 0.000000 
#    z 0.000000 0.000000 1.786470 
# 
# From -- ./inp_files/17830.got.cif
#   From: 2010.03.12/outbox.cif.g09.slc.cpg/sg35_9_cif.got.tgz:17830.got - 2010.04.14 02:02:04.
