data_PCOD8172345
_publ_section_title
;
Structure prediction by ZEFSAII (Michael W. Deem and Ramdas Pophale) SiO2 
 PCOD8172345
Probable space group: C M M 2
;
_chemical_formula_sum "Si O2"
_cell_formula_units_Z 52
_cell_length_a 7.588455
_cell_length_b 27.354989
_cell_length_c 14.556331
_cell_angle_alpha 90.000000
_cell_angle_beta 90.000000
_cell_angle_gamma 90.000000
_cell_volume 3021.633802
_symmetry_space_group_name_H-M "C M M 2"
_symmetry_group_IT_number 35
_symmetry_cell_setting 'orthorhombic'
loop_
_space_group_symop_operation_xyz
x,y,z
-x,-y,z
-x,y,z
x,-y,z
1/2+x,1/2+y,z
1/2-x,1/2-y,z
1/2-x,1/2+y,z
1/2+x,1/2-y,z
loop_
_atom_site_type_symbol
_atom_site_label
_atom_site_fract_x
_atom_site_fract_y
_atom_site_fract_z
Si Si1 0.795644 0.698493 0.745990
Si Si2 0.500000 0.441794 0.331648
Si Si3 0.696708 0.057744 0.199250
Si Si4 0.292416 0.803291 0.538945
Si Si5 0.206863 0.055486 0.000675
Si Si6 0.200796 0.403214 0.812142
Si Si7 0.000000 0.878313 0.508787
Si Si8 0.500000 0.444329 0.689736
O O1 0.750000 0.750000 0.795623
O O2 0.718034 0.698070 0.643196
O O3 0.723828 0.652225 0.802596
O O4 0.000000 0.692879 0.736428
O O5 0.500000 0.500000 0.341654
O O6 0.670243 0.422186 0.275926
O O7 0.500000 0.419883 0.432333
O O8 0.500000 0.072584 0.229275
O O9 0.722584 0.000000 0.191926
O O10 0.739439 0.079445 0.098280
O O11 0.500000 0.815915 0.529314
O O12 0.250000 0.750000 0.494700
O O13 0.175443 0.845649 0.492426
O O14 0.298956 0.085137 0.919654
O O15 0.000000 0.058006 0.987106
O O16 0.275853 0.000000 0.995231
O O17 0.325744 0.438208 0.752456
O O18 0.000000 0.408453 0.775219
O O19 0.000000 0.905957 0.606482
O O20 0.500000 0.500000 0.652609
#
# Coordination Sequence:
#
# PCOD8172345 Si02
#       8
#     8   4   8   8   8   8   4   4
#     4   9  19  31  51  75 102 136 177 226 270 305
#     4  10  21  37  54  77 111 142 183 226 269 330
#     4   9  17  32  54  76 101 136 176 226 276 315
#     4  10  19  34  56  81 105 135 176 230 279 315
#     4  10  18  30  51  78 106 138 178 221 266 317
#     4  11  22  35  50  77 110 147 185 222 262 318
#     4  12  23  36  56  80 110 144 181 230 278 320
#     4  12  25  37  50  71 109 158 193 212 259 320
#
# _framework density 17.209233999999999
#
# number of rings (size 3 to 8) (size 9 to 14) (size 15 to 20)
#    0.000    1.846    3.846    1.154    2.154    2.462 
#    0.000    0.000    0.000    2.769    0.000    1.077 
#    0.000    0.000    0.000    0.000    0.000    0.000 
#
# Total GULP energy -322300.606049 kJ/mol
# GULP energy per Si atom -12396.177156 kJ/mol
# Density = 1.717006 g / cm^3
# Si number density = 17.209234 Si / 1000 Ang^3
#
#
#
# Elastic Constant Matrix: (Units=GPa)
#
#
# Indices 1 2 3 4 5 6 
#
# 1 106.6324 30.7951 32.2786 0.0000 0.0000 0.0000
# 2 30.7951 80.8891 24.7626 0.0000 0.0000 0.0000
# 3 32.2786 24.7626 82.3414 0.0000 0.0000 0.0000
# 4 0.0000 0.0000 0.0000 27.9817 0.0000 0.0000
# 5 0.0000 0.0000 0.0000 0.0000 18.0028 0.0000
# 6 0.0000 0.0000 0.0000 0.0000 0.0000 20.3553
#
#
#
# Elastic Compliance Matrix: (Units=1/GPa)
#
#
# Indices 1 2 3 4 5 6 
#
# 1 0.011373 -0.003266 -0.003476 0.000000 0.000000 0.000000
# 2 -0.003266 0.014554 -0.003097 0.000000 0.000000 0.000000
# 3 -0.003476 -0.003097 0.014439 0.000000 0.000000 0.000000
# 4 0.000000 0.000000 0.000000 0.035738 0.000000 0.000000
# 5 0.000000 0.000000 0.000000 0.000000 0.055547 0.000000
# 6 0.000000 0.000000 0.000000 0.000000 0.000000 0.049127
#
#
# Mechanical properties :
#
#
# Convention : Reuss Voigt Hill
#
# Bulk Modulus (GPa) = 48.33613 49.50393 48.92003
# Shear Modulus (GPa) = 24.11367 25.40308 24.75837
#
# Velocity S-wave (km/s) = 3.74733 3.84621 3.79709
# Velocity P-wave (km/s) = 6.84628 6.96799 6.90740
#
# Compressibility (1/GPa) = 0.02068846
#
# Stress axis : x y z
#
# Youngs Moduli (GPa) = 87.92379 68.71035 69.25887
#
# Poissons Ratio (x) = 0.22439 0.24077
# Poissons Ratio (y) = 0.28714 0.21447
# Poissons Ratio (z) = 0.30566 0.21277
#
# Static dielectric constant tensor:
#      x y z
#    x 3.314230 0.000000 0.000000 
#    y 0.000000 2.051410 0.000000 
#    z 0.000000 0.000000 3.047540 
# 
# 
# High freq. dielectric constant tensor:
#      x y z
#    x 1.681950 0.000000 0.000000 
#    y 0.000000 1.641600 0.000000 
#    z 0.000000 0.000000 1.634060 
# 
# From -- ./inp_files/15990.got.cif
#   From: 2010.03.12/outbox.cif.g09.slc.cpg/sg35_8_cif.got.tgz:15990.got - 2010.04.14 02:02:04.
