data_PCOD8172547
_publ_section_title
;
Structure prediction by ZEFSAII (Michael W. Deem and Ramdas Pophale) SiO2 
 PCOD8172547
Probable space group: C M M 2
;
_chemical_formula_sum "Si O2"
_cell_formula_units_Z 56
_cell_length_a 21.253482
_cell_length_b 22.337757
_cell_length_c 7.663761
_cell_angle_alpha 90.000000
_cell_angle_beta 90.000000
_cell_angle_gamma 90.000000
_cell_volume 3638.409745
_symmetry_space_group_name_H-M "C M M 2"
_symmetry_group_IT_number 35
_symmetry_cell_setting 'orthorhombic'
loop_
_space_group_symop_operation_xyz
x,y,z
-x,-y,z
-x,y,z
x,-y,z
1/2+x,1/2+y,z
1/2-x,1/2-y,z
1/2-x,1/2+y,z
1/2+x,1/2-y,z
loop_
_atom_site_type_symbol
_atom_site_label
_atom_site_fract_x
_atom_site_fract_y
_atom_site_fract_z
Si Si1 0.857963 0.881244 0.133950
Si Si2 0.073151 0.240353 0.739182
Si Si3 0.357963 0.381244 0.743100
Si Si4 0.277403 0.343686 0.438525
Si Si5 0.927215 0.000000 0.233169
Si Si6 0.153341 0.282063 0.438524
Si Si7 0.426849 0.740353 0.137866
Si Si8 0.427215 0.500000 0.643881
O O1 0.799215 0.879689 0.266487
O O2 0.895851 0.942211 0.149600
O O3 0.906347 0.827722 0.176128
O O4 0.830666 0.874985 0.938526
O O5 0.093654 0.172278 0.700920
O O6 0.110598 0.285419 0.612331
O O7 0.000000 0.245512 0.695596
O O8 0.087757 0.258735 0.938524
O O9 0.299214 0.379690 0.610563
O O10 0.395851 0.442211 0.727450
O O11 0.201574 0.338031 0.438524
O O12 0.307338 0.278501 0.438527
O O13 0.916680 0.000000 0.438525
O O14 0.000000 0.000000 0.181890
O O15 0.110598 0.285419 0.264717
O O16 0.500000 0.745513 0.181451
O O17 0.500000 0.500000 0.695161
#
# Coordination Sequence:
#
# PCOD8172547 Si02
#       8
#     8   8   8   8   4   8   8   4
#     4  10  19  31  45  60  84 116 147 181 216 247
#     4   9  17  28  43  64  86 110 142 176 213 257
#     4  10  19  31  45  60  84 116 147 181 216 247
#     4   9  18  31  41  60  80 106 149 184 211 251
#     4  11  21  31  45  64  87 115 148 185 218 248
#     4   9  17  28  44  58  81 110 140 179 219 251
#     4   9  17  28  43  64  86 110 142 176 213 257
#     4  11  21  31  45  64  87 115 148 185 218 248
#
# _framework density 15.391339
#
# number of rings (size 3 to 8) (size 9 to 14) (size 15 to 20)
#    0.000    2.429    1.429    1.714    0.000    3.429 
#    0.000    5.714    0.000    0.000    0.000    0.000 
#    0.000    0.000    0.000   10.286    0.000   38.857 
#
# Total GULP energy -347186.796162 kJ/mol
# GULP energy per Si atom -12399.528434 kJ/mol
# Density = 1.535631 g / cm^3
# Si number density = 15.391339 Si / 1000 Ang^3
#
#
#
# Elastic Constant Matrix: (Units=GPa)
#
#
# Indices 1 2 3 4 5 6 
#
# 1 110.0740 41.5629 70.1076 0.0000 0.0000 0.0000
# 2 41.5629 36.6342 31.6015 0.0000 0.0000 0.0000
# 3 70.1076 31.6015 122.6413 0.0000 0.0000 0.0000
# 4 0.0000 0.0000 0.0000 13.8778 0.0000 0.0000
# 5 0.0000 0.0000 0.0000 0.0000 15.6733 0.0000
# 6 0.0000 0.0000 0.0000 0.0000 0.0000 18.0653
#
#
#
# Elastic Compliance Matrix: (Units=1/GPa)
#
#
# Indices 1 2 3 4 5 6 
#
# 1 0.019756 -0.016294 -0.007095 0.000000 0.000000 0.000000
# 2 -0.016294 0.048537 -0.003192 0.000000 0.000000 0.000000
# 3 -0.007095 -0.003192 0.013032 0.000000 0.000000 0.000000
# 4 0.000000 0.000000 0.000000 0.072058 0.000000 0.000000
# 5 0.000000 0.000000 0.000000 0.000000 0.063803 0.000000
# 6 0.000000 0.000000 0.000000 0.000000 0.000000 0.055355
#
#
# Mechanical properties :
#
#
# Convention : Reuss Voigt Hill
#
# Bulk Modulus (GPa) = 35.50795 61.76595 48.63695
# Shear Modulus (GPa) = 14.92137 17.92843 16.42490
#
# Velocity S-wave (km/s) = 3.11700 3.41668 3.27027
# Velocity P-wave (km/s) = 6.00620 7.46876 6.77705
#
# Compressibility (1/GPa) = 0.02816271
#
# Stress axis : x y z
#
# Youngs Moduli (GPa) = 50.61737 20.60305 76.73227
#
# Poissons Ratio (x) = 0.33570 0.54442
# Poissons Ratio (y) = 0.82474 0.24496
# Poissons Ratio (z) = 0.35913 0.06577
#
# Static dielectric constant tensor:
#      x y z
#    x 2.981320 0.000000 0.000000 
#    y 0.000000 2.635720 0.000000 
#    z 0.000000 0.000000 3.212490 
# 
# 
# High freq. dielectric constant tensor:
#      x y z
#    x 1.574190 0.000000 0.000000 
#    y 0.000000 1.539890 0.000000 
#    z 0.000000 0.000000 1.613550 
# 
# From -- ./inp_files/9493.got.cif
#   From: 2010.03.12/outbox.cif.g09.slc.cpg/sg35_5_cif.got.tgz:9493.got - 2010.04.14 02:02:04.
