data_PCOD8172023
_publ_section_title
;
Structure prediction by ZEFSAII (Michael W. Deem and Ramdas Pophale) SiO2 
 PCOD8172023
Probable space group: P N N 2
;
_chemical_formula_sum "Si O2"
_cell_formula_units_Z 22
_cell_length_a 13.486400
_cell_length_b 8.731413
_cell_length_c 8.623644
_cell_angle_alpha 90.000000
_cell_angle_beta 90.000000
_cell_angle_gamma 90.000000
_cell_volume 1015.480030
_symmetry_space_group_name_H-M "P N N 2"
_symmetry_group_IT_number 34
_symmetry_cell_setting 'orthorhombic'
loop_
_space_group_symop_operation_xyz
x,y,z
-x,-y,z
1/2-x,1/2+y,1/2+z
1/2+x,1/2-y,1/2+z
loop_
_atom_site_type_symbol
_atom_site_label
_atom_site_fract_x
_atom_site_fract_y
_atom_site_fract_z
Si Si1 0.184091 0.517923 0.314860
Si Si2 0.500000 0.500000 0.553380
Si Si3 0.625172 0.290958 0.340352
Si Si4 0.753572 0.549668 0.986058
Si Si5 0.073463 0.814850 0.318026
Si Si6 0.872854 0.773001 0.484934
O O1 0.279212 0.607001 0.376594
O O2 0.095524 0.637416 0.276739
O O3 0.149322 0.403149 0.448950
O O4 0.213418 0.421299 0.162746
O O5 0.539895 0.361254 0.447529
O O6 0.416860 0.418571 0.662575
O O7 0.655777 0.115409 0.382805
O O8 0.591847 0.291557 0.162300
O O9 0.650113 0.635428 0.951167
O O10 0.729071 0.369676 0.957225
O O11 0.961119 0.835900 0.377718
#
# Coordination Sequence:
#
# PCOD8172023 Si02
#       6
#     4   2   4   4   4   4
#     4  10  24  41  66  94 132 169 223 275 339 407
#     4  12  24  42  70  94 138 176 228 282 330 410
#     4  10  26  39  65  98 129 177 224 271 340 404
#     4  10  22  41  63  96 127 174 218 269 337 404
#     4  11  23  42  68  96 128 180 219 273 344 397
#     4  11  22  42  67  94 133 169 224 281 335 403
#
# _framework density 21.664629000000001
#
# number of rings (size 3 to 8) (size 9 to 14) (size 15 to 20)
#    0.000    1.455    1.818    1.636   12.727    1.455 
#    0.000    3.636    0.000    0.000    0.000    0.000 
#    0.000    0.000    0.000    0.000    0.000    0.000 
#
# Total GULP energy -272740.840885 kJ/mol
# GULP energy per Si atom -12397.310949 kJ/mol
# Density = 2.161532 g / cm^3
# Si number density = 21.664629 Si / 1000 Ang^3
#
#
#
# Elastic Constant Matrix: (Units=GPa)
#
#
# Indices 1 2 3 4 5 6 
#
# 1 62.2767 24.4823 42.4872 0.0000 0.0000 0.0000
# 2 24.4823 112.8445 60.7911 0.0000 0.0000 0.0000
# 3 42.4872 60.7911 130.3455 0.0000 0.0000 0.0000
# 4 0.0000 0.0000 0.0000 35.7835 0.0000 0.0000
# 5 0.0000 0.0000 0.0000 0.0000 33.7867 0.0000
# 6 0.0000 0.0000 0.0000 0.0000 0.0000 41.9855
#
#
#
# Elastic Compliance Matrix: (Units=1/GPa)
#
#
# Indices 1 2 3 4 5 6 
#
# 1 0.020760 -0.001147 -0.006232 0.000000 0.000000 0.000000
# 2 -0.001147 0.011899 -0.005176 0.000000 0.000000 0.000000
# 3 -0.006232 -0.005176 0.012117 0.000000 0.000000 0.000000
# 4 0.000000 0.000000 0.000000 0.027946 0.000000 0.000000
# 5 0.000000 0.000000 0.000000 0.000000 0.029597 0.000000
# 6 0.000000 0.000000 0.000000 0.000000 0.000000 0.023818
#
#
# Mechanical properties :
#
#
# Convention : Reuss Voigt Hill
#
# Bulk Modulus (GPa) = 50.84652 62.33199 56.58926
# Shear Modulus (GPa) = 31.68547 34.15822 32.92185
#
# Velocity S-wave (km/s) = 3.82847 3.97505 3.90245
# Velocity P-wave (km/s) = 6.56229 7.06412 6.81783
#
# Compressibility (1/GPa) = 0.01966703
#
# Stress axis : x y z
#
# Youngs Moduli (GPa) = 48.16987 84.04270 82.52784
#
# Poissons Ratio (x) = 0.09637 0.51432
# Poissons Ratio (y) = 0.05524 0.42713
# Poissons Ratio (z) = 0.30020 0.43497
#
# Static dielectric constant tensor:
#      x y z
#    x 3.746740 0.000000 0.000000 
#    y 0.000000 4.155240 0.000000 
#    z 0.000000 0.000000 3.843630 
# 
# 
# High freq. dielectric constant tensor:
#      x y z
#    x 1.832820 0.000000 0.000000 
#    y 0.000000 1.860360 0.000000 
#    z 0.000000 0.000000 1.849020 
# 
# From -- ./inp_files/2558.got.cif
#   From: 2010.03.12/outbox.cif.g09.slc.cpg/sg34_2_cif.got.tgz:2558.got - 2010.04.14 01:56:33.
