data_PCOD8172293
_publ_section_title
;
Structure prediction by ZEFSAII (Michael W. Deem and Ramdas Pophale) SiO2 
 PCOD8172293
Probable space group: C M M 2
;
_chemical_formula_sum "Si O2"
_cell_formula_units_Z 48
_cell_length_a 8.766218
_cell_length_b 15.770259
_cell_length_c 17.296349
_cell_angle_alpha 90.000000
_cell_angle_beta 90.000000
_cell_angle_gamma 90.000000
_cell_volume 2391.142905
_symmetry_space_group_name_H-M "C M M 2"
_symmetry_group_IT_number 35
_symmetry_cell_setting 'orthorhombic'
loop_
_space_group_symop_operation_xyz
x,y,z
-x,-y,z
-x,y,z
x,-y,z
1/2+x,1/2+y,z
1/2-x,1/2-y,z
1/2-x,1/2+y,z
1/2+x,1/2-y,z
loop_
_atom_site_type_symbol
_atom_site_label
_atom_site_fract_x
_atom_site_fract_y
_atom_site_fract_z
Si Si1 0.818984 0.157627 0.268580
Si Si2 0.180959 0.162203 0.946109
Si Si3 0.323027 0.158639 0.417446
Si Si4 0.819552 0.093112 0.106248
Si Si5 0.322581 0.842275 0.588654
Si Si6 0.680546 0.000000 0.863055
Si Si7 0.180436 0.500000 0.684855
O O1 0.750000 0.250000 0.275756
O O2 0.759693 0.108201 0.346086
O O3 0.750850 0.119313 0.189287
O O4 0.000000 0.157973 0.267249
O O5 0.250000 0.250000 0.913963
O O6 0.000000 0.161845 0.935699
O O7 0.249437 0.084093 0.899693
O O8 0.229845 0.154741 0.036542
O O9 0.500000 0.165475 0.396550
O O10 0.250000 0.250000 0.424827
O O11 0.296665 0.118528 0.502222
O O12 0.000000 0.091707 0.113454
O O13 0.757067 0.000000 0.085473
O O14 0.500000 0.828290 0.604430
O O15 0.250000 0.750000 0.603096
O O16 0.253239 0.913775 0.645978
O O17 0.727875 0.000000 0.773796
O O18 0.500000 0.000000 0.875298
O O19 0.000000 0.500000 0.672704
#
# Coordination Sequence:
#
# PCOD8172293 Si02
#       7
#     8   8   8   8   8   4   4
#     4  10  18  29  49  73 103 140 183 228 273 324
#     4  11  22  40  65  89 118 155 195 238 290 347
#     4   9  16  28  48  73 103 139 181 225 271 321
#     4   9  18  34  54  76 107 149 189 230 280 333
#     4   9  18  35  58  81 109 148 187 227 276 331
#     4  11  23  41  63  90 121 150 190 239 291 353
#     4   9  20  39  61  84 113 148 182 225 283 343
#
# _framework density 20.074083000000002
#
# number of rings (size 3 to 8) (size 9 to 14) (size 15 to 20)
#    0.000    2.333    0.833    3.250    0.000    1.333 
#    1.500    6.250    0.000    0.000    0.000    0.000 
#    0.000    0.000    0.000    0.000    0.000    0.000 
#
# Total GULP energy -297371.596248 kJ/mol
# GULP energy per Si atom -12390.483177 kJ/mol
# Density = 2.002839 g / cm^3
# Si number density = 20.074083 Si / 1000 Ang^3
#
#
#
# Elastic Constant Matrix: (Units=GPa)
#
#
# Indices 1 2 3 4 5 6 
#
# 1 77.3519 37.4077 51.5880 0.0000 0.0000 0.0000
# 2 37.4077 128.4144 71.0112 0.0000 0.0000 0.0000
# 3 51.5880 71.0112 160.3823 0.0000 0.0000 0.0000
# 4 0.0000 0.0000 0.0000 31.4158 0.0000 0.0000
# 5 0.0000 0.0000 0.0000 0.0000 14.0844 0.0000
# 6 0.0000 0.0000 0.0000 0.0000 0.0000 23.5691
#
#
#
# Elastic Compliance Matrix: (Units=1/GPa)
#
#
# Indices 1 2 3 4 5 6 
#
# 1 0.017074 -0.002565 -0.004356 0.000000 0.000000 0.000000
# 2 -0.002565 0.010697 -0.003911 0.000000 0.000000 0.000000
# 3 -0.004356 -0.003911 0.009368 0.000000 0.000000 0.000000
# 4 0.000000 0.000000 0.000000 0.031831 0.000000 0.000000
# 5 0.000000 0.000000 0.000000 0.000000 0.071000 0.000000
# 6 0.000000 0.000000 0.000000 0.000000 0.000000 0.042428
#
#
# Mechanical properties :
#
#
# Convention : Reuss Voigt Hill
#
# Bulk Modulus (GPa) = 64.62328 76.24027 70.43178
# Shear Modulus (GPa) = 23.89808 27.55665 25.72737
#
# Velocity S-wave (km/s) = 3.45410 3.70908 3.58386
# Velocity P-wave (km/s) = 6.94046 7.51032 7.23101
#
# Compressibility (1/GPa) = 0.01547430
#
# Stress axis : x y z
#
# Youngs Moduli (GPa) = 58.57024 93.48111 106.74438
#
# Poissons Ratio (x) = 0.23974 0.46501
# Poissons Ratio (y) = 0.15021 0.41753
# Poissons Ratio (z) = 0.25515 0.36565
#
# Static dielectric constant tensor:
#      x y z
#    x 3.454800 0.000000 0.000000 
#    y 0.000000 3.583400 0.000000 
#    z 0.000000 0.000000 4.488840 
# 
# 
# High freq. dielectric constant tensor:
#      x y z
#    x 1.762930 0.000000 0.000000 
#    y 0.000000 1.768850 0.000000 
#    z 0.000000 0.000000 1.800980 
# 
# From -- ./inp_files/17855.got.cif
#   From: 2010.03.12/outbox.cif.g09.slc.cpg/sg35_9_cif.got.tgz:17855.got - 2010.04.14 02:02:04.
