data_PCOD8172938
_publ_section_title
;
Structure prediction by ZEFSAII (Michael W. Deem and Ramdas Pophale) SiO2 
 PCOD8172938
Probable space group: C M M 2
;
_chemical_formula_sum "Si O2"
_cell_formula_units_Z 48
_cell_length_a 9.078666
_cell_length_b 15.557691
_cell_length_c 17.154643
_cell_angle_alpha 90.000000
_cell_angle_beta 90.000000
_cell_angle_gamma 90.000000
_cell_volume 2422.974619
_symmetry_space_group_name_H-M "C M M 2"
_symmetry_group_IT_number 35
_symmetry_cell_setting 'orthorhombic'
loop_
_space_group_symop_operation_xyz
x,y,z
-x,-y,z
-x,y,z
x,-y,z
1/2+x,1/2+y,z
1/2-x,1/2-y,z
1/2-x,1/2+y,z
1/2+x,1/2-y,z
loop_
_atom_site_type_symbol
_atom_site_label
_atom_site_fract_x
_atom_site_fract_y
_atom_site_fract_z
Si Si1 0.671140 0.903112 0.701100
Si Si2 0.325347 0.335319 0.221060
Si Si3 0.824683 0.000000 0.948479
Si Si4 0.327188 0.500000 0.129285
Si Si5 0.175218 0.904427 0.383519
Si Si6 0.835503 0.102728 0.551791
Si Si7 0.325055 0.837886 0.868336
O O1 0.500000 0.906123 0.685056
O O2 0.742967 0.860385 0.624343
O O3 0.709414 0.846980 0.776609
O O4 0.731294 0.000000 0.715280
O O5 0.500000 0.326791 0.213274
O O6 0.250000 0.250000 0.187337
O O7 0.263246 0.414799 0.170483
O O8 0.274414 0.346031 0.311192
O O9 0.750672 0.915846 0.913028
O O10 0.000000 0.000000 0.932986
O O11 0.785456 0.000000 0.039249
O O12 0.500000 0.500000 0.143434
O O13 0.229555 0.866527 0.467474
O O14 0.000000 0.910906 0.386750
O O15 0.239819 0.000000 0.370000
O O16 0.000000 0.137688 0.563456
O O17 0.832008 0.000000 0.551439
O O18 0.500000 0.837536 0.884992
O O19 0.250000 0.750000 0.897979
#
# Coordination Sequence:
#
# PCOD8172938 Si02
#       7
#     8   8   4   4   8   8   8
#     4   9  17  32  52  75 109 149 186 230 286 337
#     4  10  19  35  58  83 112 148 186 228 274 328
#     4  11  23  41  65  92 117 148 190 237 293 357
#     4   9  20  39  63  86 111 146 186 223 275 345
#     4   8  13  26  50  75 102 143 189 229 269 322
#     4   8  14  24  44  76 105 136 188 237 271 319
#     4  11  23  41  62  88 119 155 195 239 289 347
#
# _framework density 19.810361
#
# number of rings (size 3 to 8) (size 9 to 14) (size 15 to 20)
#    0.000    2.667    1.667    1.750    0.000    2.000 
#    0.000    5.417    0.000    5.000    0.000    0.000 
#    0.000    0.000    0.000    0.000    0.000    0.000 
#
# Total GULP energy -297465.928171 kJ/mol
# GULP energy per Si atom -12394.413674 kJ/mol
# Density = 1.976527 g / cm^3
# Si number density = 19.810361 Si / 1000 Ang^3
#
#
#
# Elastic Constant Matrix: (Units=GPa)
#
#
# Indices 1 2 3 4 5 6 
#
# 1 59.5669 45.8475 55.2604 0.0000 0.0000 0.0000
# 2 45.8475 129.6601 64.9917 0.0000 0.0000 0.0000
# 3 55.2604 64.9917 139.3406 0.0000 0.0000 0.0000
# 4 0.0000 0.0000 0.0000 0.8877 0.0000 0.0000
# 5 0.0000 0.0000 0.0000 0.0000 19.8264 0.0000
# 6 0.0000 0.0000 0.0000 0.0000 0.0000 26.8704
#
#
#
# Elastic Compliance Matrix: (Units=1/GPa)
#
#
# Indices 1 2 3 4 5 6 
#
# 1 0.029766 -0.006014 -0.008999 0.000000 0.000000 0.000000
# 2 -0.006014 0.011281 -0.002877 0.000000 0.000000 0.000000
# 3 -0.008999 -0.002877 0.012087 0.000000 0.000000 0.000000
# 4 0.000000 0.000000 0.000000 1.126541 0.000000 0.000000
# 5 0.000000 0.000000 0.000000 0.000000 0.050438 0.000000
# 6 0.000000 0.000000 0.000000 0.000000 0.000000 0.037216
#
#
# Mechanical properties :
#
#
# Convention : Reuss Voigt Hill
#
# Bulk Modulus (GPa) = 57.62478 73.41854 65.52166
# Shear Modulus (GPa) = 3.82002 20.34809 12.08406
#
# Velocity S-wave (km/s) = 1.39014 3.20839 2.47247
# Velocity P-wave (km/s) = 5.63276 7.13205 6.42628
#
# Compressibility (1/GPa) = 0.01735365
#
# Stress axis : x y z
#
# Youngs Moduli (GPa) = 33.59579 88.64521 82.73064
#
# Poissons Ratio (x) = 0.53312 0.74453
# Poissons Ratio (y) = 0.20205 0.23798
# Poissons Ratio (z) = 0.30234 0.25500
#
# Static dielectric constant tensor:
#      x y z
#    x 3.296720 0.000000 0.000000 
#    y 0.000000 3.457150 0.000000 
#    z 0.000000 0.000000 3.919790 
# 
# 
# High freq. dielectric constant tensor:
#      x y z
#    x 1.739110 0.000000 0.000000 
#    y 0.000000 1.758930 0.000000 
#    z 0.000000 0.000000 1.782150 
# 
# From -- ./inp_files/17880.got.cif
#   From: 2010.03.12/outbox.cif.g09.slc.cpg/sg35_9_cif.got.tgz:17880.got - 2010.04.14 02:02:04.
