data_PCOD8172054
_publ_section_title
;
Structure prediction by ZEFSAII (Michael W. Deem and Ramdas Pophale) SiO2 
 PCOD8172054
Probable space group: P N N 2
;
_chemical_formula_sum "Si O2"
_cell_formula_units_Z 32
_cell_length_a 15.028618
_cell_length_b 9.079041
_cell_length_c 11.499794
_cell_angle_alpha 90.000000
_cell_angle_beta 90.000000
_cell_angle_gamma 90.000000
_cell_volume 1569.094441
_symmetry_space_group_name_H-M "P N N 2"
_symmetry_group_IT_number 34
_symmetry_cell_setting 'orthorhombic'
loop_
_space_group_symop_operation_xyz
x,y,z
-x,-y,z
1/2-x,1/2+y,1/2+z
1/2+x,1/2-y,1/2+z
loop_
_atom_site_type_symbol
_atom_site_label
_atom_site_fract_x
_atom_site_fract_y
_atom_site_fract_z
Si Si1 0.230742 0.886311 0.376400
Si Si2 0.033581 0.224541 0.135577
Si Si3 0.414409 0.585238 0.987924
Si Si4 0.574507 0.109337 0.863571
Si Si5 0.073443 0.376770 0.899585
Si Si6 0.920925 0.900449 0.761067
Si Si7 0.644190 0.559066 0.637267
Si Si8 0.753498 0.946494 0.914233
O O1 0.330373 0.950880 0.383432
O O2 0.202725 0.876844 0.241862
O O3 0.225620 0.724035 0.435206
O O4 0.172634 0.002114 0.445816
O O5 0.041443 0.347902 0.234525
O O6 0.931154 0.181065 0.108575
O O7 0.093146 0.087734 0.178543
O O8 0.075573 0.282743 0.017145
O O9 0.500000 0.500000 0.937419
O O10 0.412360 0.581891 0.125229
O O11 0.418691 0.751572 0.946771
O O12 0.500000 0.000000 0.916130
O O13 0.670104 0.032494 0.861319
O O14 0.055921 0.267918 0.791903
O O15 0.000000 0.500000 0.902991
O O16 0.829665 0.953637 0.817843
O O17 0.000000 0.000000 0.812300
O O18 0.710612 0.525686 0.530710
#
# Coordination Sequence:
#
# PCOD8172054 Si02
#       8
#     4   4   4   4   4   4   4   4
#     4  11  24  44  67  99 139 173 228 276 340 409
#     4  11  22  44  72  97 131 178 232 282 336 398
#     4  11  24  43  66  92 133 179 213 275 343 408
#     4  12  26  43  66 104 133 176 226 282 336 407
#     4  11  25  44  65 100 133 171 222 286 333 399
#     4  10  23  44  65  93 130 175 219 272 339 413
#     4  11  22  43  74  96 133 184 226 280 340 402
#     4  11  25  41  70  99 137 172 229 281 335 404
#
# _framework density 20.393927999999999
#
# number of rings (size 3 to 8) (size 9 to 14) (size 15 to 20)
#    0.000    1.000    3.750    3.375    5.250    2.500 
#    4.500    0.000    0.000    0.000    0.000    0.000 
#    0.000    0.000    0.000    0.000    0.000    0.000 
#
# Total GULP energy -396915.734409 kJ/mol
# GULP energy per Si atom -12403.616700 kJ/mol
# Density = 2.034751 g / cm^3
# Si number density = 20.393928 Si / 1000 Ang^3
#
#
#
# Elastic Constant Matrix: (Units=GPa)
#
#
# Indices 1 2 3 4 5 6 
#
# 1 132.1203 72.0922 33.4435 0.0000 0.0000 0.0000
# 2 72.0922 110.9761 28.3986 0.0000 0.0000 0.0000
# 3 33.4435 28.3986 76.2822 0.0000 0.0000 0.0000
# 4 0.0000 0.0000 0.0000 30.6996 0.0000 0.0000
# 5 0.0000 0.0000 0.0000 0.0000 22.3691 0.0000
# 6 0.0000 0.0000 0.0000 0.0000 0.0000 44.9111
#
#
#
# Elastic Compliance Matrix: (Units=1/GPa)
#
#
# Indices 1 2 3 4 5 6 
#
# 1 0.012191 -0.007241 -0.002649 0.000000 0.000000 0.000000
# 2 -0.007241 0.014261 -0.002134 0.000000 0.000000 0.000000
# 3 -0.002649 -0.002134 0.015065 0.000000 0.000000 0.000000
# 4 0.000000 0.000000 0.000000 0.032574 0.000000 0.000000
# 5 0.000000 0.000000 0.000000 0.000000 0.044705 0.000000
# 6 0.000000 0.000000 0.000000 0.000000 0.000000 0.022266
#
#
# Mechanical properties :
#
#
# Convention : Reuss Voigt Hill
#
# Bulk Modulus (GPa) = 57.24832 65.24969 61.24901
# Shear Modulus (GPa) = 29.25113 31.95892 30.60502
#
# Velocity S-wave (km/s) = 3.79133 3.96293 3.87808
# Velocity P-wave (km/s) = 6.87734 7.28038 7.08173
#
# Compressibility (1/GPa) = 0.01746776
#
# Stress axis : x y z
#
# Youngs Moduli (GPa) = 82.02981 70.11947 66.37862
#
# Poissons Ratio (x) = 0.50777 0.17582
# Poissons Ratio (y) = 0.59402 0.14168
# Poissons Ratio (z) = 0.21727 0.14967
#
# Static dielectric constant tensor:
#      x y z
#    x 3.968970 0.000000 0.000000 
#    y 0.000000 4.079710 0.000000 
#    z 0.000000 0.000000 3.629780 
# 
# 
# High freq. dielectric constant tensor:
#      x y z
#    x 1.813650 0.000000 0.000000 
#    y 0.000000 1.801060 0.000000 
#    z 0.000000 0.000000 1.799240 
# 
# From -- ./inp_files/5659.got.cif
#   From: 2010.03.12/outbox.cif.g09.slc.cpg/sg34_3_cif.got.tgz:5659.got - 2010.04.14 01:56:33.
