data_PCOD8172868
_publ_section_title
;
Structure prediction by ZEFSAII (Michael W. Deem and Ramdas Pophale) SiO2 
 PCOD8172868
Probable space group: C M M 2
;
_chemical_formula_sum "Si O2"
_cell_formula_units_Z 64
_cell_length_a 9.059163
_cell_length_b 28.329334
_cell_length_c 15.334105
_cell_angle_alpha 90.000000
_cell_angle_beta 90.000000
_cell_angle_gamma 90.000000
_cell_volume 3935.345541
_symmetry_space_group_name_H-M "C M M 2"
_symmetry_group_IT_number 35
_symmetry_cell_setting 'orthorhombic'
loop_
_space_group_symop_operation_xyz
x,y,z
-x,-y,z
-x,y,z
x,-y,z
1/2+x,1/2+y,z
1/2-x,1/2-y,z
1/2-x,1/2+y,z
1/2+x,1/2-y,z
loop_
_atom_site_type_symbol
_atom_site_label
_atom_site_fract_x
_atom_site_fract_y
_atom_site_fract_z
Si Si1 0.171490 0.054988 0.885060
Si Si2 0.325397 0.396668 0.407413
Si Si3 0.327786 0.703056 0.478329
Si Si4 0.172046 0.445036 0.248433
Si Si5 0.337400 0.555867 0.079057
Si Si6 0.825832 0.202377 0.679160
Si Si7 0.673754 0.111267 0.736574
Si Si8 0.169757 0.554732 0.564988
O O1 0.278410 0.082942 0.821463
O O2 0.000000 0.064408 0.862805
O O3 0.208851 0.000000 0.875450
O O4 0.208600 0.073630 0.982820
O O5 0.500000 0.401405 0.403876
O O6 0.276681 0.342453 0.423291
O O7 0.258453 0.413268 0.316735
O O8 0.269113 0.429806 0.484515
O O9 0.500000 0.711925 0.469853
O O10 0.250000 0.750000 0.441193
O O11 0.282479 0.693771 0.578377
O O12 0.211621 0.500000 0.263572
O O13 0.220347 0.428031 0.151989
O O14 0.000000 0.435858 0.259619
O O15 0.500000 0.575600 0.103903
O O16 0.345873 0.500000 0.074208
O O17 0.750000 0.250000 0.713259
O O18 0.760242 0.160409 0.736628
O O19 0.000000 0.205612 0.693016
O O20 0.500000 0.120625 0.739469
O O21 0.720122 0.082033 0.651205
O O22 0.196373 0.500000 0.583535
O O23 0.000000 0.565270 0.541273
#
# Coordination Sequence:
#
# PCOD8172868 Si02
#       8
#     8   8   8   8   8   8   8   8
#     4   9  18  32  50  72  99 131 166 204 245 289
#     4  11  21  33  48  70  95 125 163 200 239 287
#     4   9  19  33  50  70  92 119 157 201 245 287
#     4  10  20  32  47  70  99 130 163 199 240 286
#     4   8  15  30  50  70  93 124 162 203 245 285
#     4  10  19  34  52  71  95 123 162 207 250 293
#     4  11  21  32  48  71  99 132 166 201 244 291
#     4  10  21  34  45  62  94 133 168 199 232 275
#
# _framework density 16.262867
#
# number of rings (size 3 to 8) (size 9 to 14) (size 15 to 20)
#    0.000    2.250    1.250    3.000    0.000    5.750 
#    0.000    1.250    0.000    0.000    0.000    0.875 
#    0.000    4.000    0.000    0.000    0.000    0.000 
#
# Total GULP energy -396831.464850 kJ/mol
# GULP energy per Si atom -12400.983277 kJ/mol
# Density = 1.622585 g / cm^3
# Si number density = 16.262867 Si / 1000 Ang^3
#
#
#
# Elastic Constant Matrix: (Units=GPa)
#
#
# Indices 1 2 3 4 5 6 
#
# 1 68.0429 42.2762 37.2415 0.0000 0.0000 0.0000
# 2 42.2762 87.0275 37.9457 0.0000 0.0000 0.0000
# 3 37.2415 37.9457 88.6695 0.0000 0.0000 0.0000
# 4 0.0000 0.0000 0.0000 7.1617 0.0000 0.0000
# 5 0.0000 0.0000 0.0000 0.0000 29.5013 0.0000
# 6 0.0000 0.0000 0.0000 0.0000 0.0000 28.0876
#
#
#
# Elastic Compliance Matrix: (Units=1/GPa)
#
#
# Indices 1 2 3 4 5 6 
#
# 1 0.023474 -0.008734 -0.006121 0.000000 0.000000 0.000000
# 2 -0.008734 0.017376 -0.003768 0.000000 0.000000 0.000000
# 3 -0.006121 -0.003768 0.015461 0.000000 0.000000 0.000000
# 4 0.000000 0.000000 0.000000 0.139632 0.000000 0.000000
# 5 0.000000 0.000000 0.000000 0.000000 0.033897 0.000000
# 6 0.000000 0.000000 0.000000 0.000000 0.000000 0.035603
#
#
# Mechanical properties :
#
#
# Convention : Reuss Voigt Hill
#
# Bulk Modulus (GPa) = 52.45250 53.18518 52.81884
# Shear Modulus (GPa) = 16.17895 21.36856 18.77375
#
# Velocity S-wave (km/s) = 3.15753 3.62877 3.40132
# Velocity P-wave (km/s) = 6.75398 7.09449 6.92633
#
# Compressibility (1/GPa) = 0.01906487
#
# Stress axis : x y z
#
# Youngs Moduli (GPa) = 42.60121 57.54983 64.67804
#
# Poissons Ratio (x) = 0.50264 0.39591
# Poissons Ratio (y) = 0.37208 0.24369
# Poissons Ratio (z) = 0.26077 0.21684
#
# Static dielectric constant tensor:
#      x y z
#    x 3.129290 0.000000 0.000000 
#    y 0.000000 2.999050 0.000000 
#    z 0.000000 0.000000 3.082280 
# 
# 
# High freq. dielectric constant tensor:
#      x y z
#    x 1.634180 0.000000 0.000000 
#    y 0.000000 1.607590 0.000000 
#    z 0.000000 0.000000 1.613310 
# 
# From -- ./inp_files/15971.got.cif
#   From: 2010.03.12/outbox.cif.g09.slc.cpg/sg35_8_cif.got.tgz:15971.got - 2010.04.14 02:02:04.
