data_PCOD8172981
_publ_section_title
;
Structure prediction by ZEFSAII (Michael W. Deem and Ramdas Pophale) SiO2 
 PCOD8172981
Probable space group: C M M 2
;
_chemical_formula_sum "Si O2"
_cell_formula_units_Z 64
_cell_length_a 9.469013
_cell_length_b 30.107783
_cell_length_c 15.044433
_cell_angle_alpha 90.000000
_cell_angle_beta 90.000000
_cell_angle_gamma 90.000000
_cell_volume 4289.032277
_symmetry_space_group_name_H-M "C M M 2"
_symmetry_group_IT_number 35
_symmetry_cell_setting 'orthorhombic'
loop_
_space_group_symop_operation_xyz
x,y,z
-x,-y,z
-x,y,z
x,-y,z
1/2+x,1/2+y,z
1/2-x,1/2-y,z
1/2-x,1/2+y,z
1/2+x,1/2-y,z
loop_
_atom_site_type_symbol
_atom_site_label
_atom_site_fract_x
_atom_site_fract_y
_atom_site_fract_z
Si Si1 0.659371 0.447192 0.421760
Si Si2 0.664632 0.052330 0.592354
Si Si3 0.165149 0.550898 0.061950
Si Si4 0.835309 0.887424 0.932218
Si Si5 0.344316 0.289413 0.722118
Si Si6 0.834729 0.110989 0.725657
Si Si7 0.155982 0.789094 0.933109
Si Si8 0.842684 0.447104 0.260108
O O1 0.500000 0.428163 0.429854
O O2 0.655371 0.500000 0.418453
O O3 0.753786 0.431244 0.504414
O O4 0.731276 0.428303 0.331809
O O5 0.500000 0.065073 0.583961
O O6 0.735053 0.076595 0.675480
O O7 0.683485 0.000000 0.606918
O O8 0.211408 0.500000 0.051333
O O9 0.202862 0.568146 0.161241
O O10 0.000000 0.556570 0.043797
O O11 0.249484 0.578268 0.989986
O O12 0.806149 0.897213 0.829252
O O13 0.783567 0.837669 0.957496
O O14 0.000000 0.892386 0.953387
O O15 0.500000 0.283010 0.681916
O O16 0.250000 0.250000 0.680222
O O17 0.289255 0.338825 0.697982
O O18 0.350429 0.284740 0.827545
O O19 0.000000 0.102982 0.703392
O O20 0.250000 0.750000 0.975442
O O21 0.000000 0.783351 0.973199
O O22 0.846984 0.500000 0.262952
O O23 0.000000 0.429207 0.282840
#
# Coordination Sequence:
#
# PCOD8172981 Si02
#       8
#     8   8   8   8   8   8   8   8
#     4   9  16  26  42  62  80 100 129 166 208 251
#     4  10  20  31  42  58  81 110 143 176 207 240
#     4   9  18  30  42  58  82 112 144 175 205 239
#     4   9  18  30  42  58  82 111 142 175 208 242
#     4   8  14  25  41  59  78 100 128 165 208 249
#     4   9  18  31  43  57  81 112 143 174 207 242
#     4   8  14  25  40  58  78 100 129 166 208 249
#     4   8  14  26  42  58  78 103 130 165 208 246
#
# _framework density 14.921780999999999
#
# number of rings (size 3 to 8) (size 9 to 14) (size 15 to 20)
#    0.000    3.250    0.000    3.000    0.000    5.000 
#    0.000    6.250    0.000    0.000    0.000    0.000 
#    0.000    1.000    0.000    5.000    0.000    5.125 
#
# Total GULP energy -396591.876316 kJ/mol
# GULP energy per Si atom -12393.496135 kJ/mol
# Density = 1.488782 g / cm^3
# Si number density = 14.921781 Si / 1000 Ang^3
#
#
#
# Elastic Constant Matrix: (Units=GPa)
#
#
# Indices 1 2 3 4 5 6 
#
# 1 97.6319 49.8465 56.7152 0.0000 0.0000 0.0000
# 2 49.8465 64.8535 42.3045 0.0000 0.0000 0.0000
# 3 56.7152 42.3045 73.0458 0.0000 0.0000 0.0000
# 4 0.0000 0.0000 0.0000 -0.6569 0.0000 0.0000
# 5 0.0000 0.0000 0.0000 0.0000 26.3948 0.0000
# 6 0.0000 0.0000 0.0000 0.0000 0.0000 26.5347
#
#
#
# Elastic Compliance Matrix: (Units=1/GPa)
#
#
# Indices 1 2 3 4 5 6 
#
# 1 0.021536 -0.009073 -0.011467 0.000000 0.000000 0.000000
# 2 -0.009073 0.028603 -0.009521 0.000000 0.000000 0.000000
# 3 -0.011467 -0.009521 0.028108 0.000000 0.000000 0.000000
# 4 0.000000 0.000000 0.000000 -1.522214 0.000000 0.000000
# 5 0.000000 0.000000 0.000000 0.000000 0.037886 0.000000
# 6 0.000000 0.000000 0.000000 0.000000 0.000000 0.037686
#
#
# Mechanical properties :
#
#
# Convention : Reuss Voigt Hill
#
# Bulk Modulus (GPa) = 55.17154 59.25153 57.21153
# Shear Modulus (GPa) = -3.83956 16.23218 6.19631
#
# Velocity S-wave (km/s) = -1.60584 3.30179 2.03999
# Velocity P-wave (km/s) = 5.79791 7.37089 6.63121
#
# Compressibility (1/GPa) = 0.01812529
#
# Stress axis : x y z
#
# Youngs Moduli (GPa) = 46.43452 34.96076 35.57767
#
# Poissons Ratio (x) = 0.31718 0.40796
# Poissons Ratio (y) = 0.42128 0.33875
# Poissons Ratio (z) = 0.53245 0.33288
#
# Static dielectric constant tensor:
#      x y z
#    x 3.087660 0.000000 0.000000 
#    y 0.000000 2.751060 0.000000 
#    z 0.000000 0.000000 2.727350 
# 
# 
# High freq. dielectric constant tensor:
#      x y z
#    x 1.578700 0.000000 0.000000 
#    y 0.000000 1.542320 0.000000 
#    z 0.000000 0.000000 1.544330 
# 
# From -- ./inp_files/16133.got.cif
#   From: 2010.03.12/outbox.cif.g09.slc.cpg/sg35_9_cif.got.tgz:16133.got - 2010.04.14 02:02:04.
