data_PCOD8172397
_publ_section_title
;
Structure prediction by ZEFSAII (Michael W. Deem and Ramdas Pophale) SiO2 
 PCOD8172397
Probable space group: C M M 2
;
_chemical_formula_sum "Si O2"
_cell_formula_units_Z 64
_cell_length_a 8.601415
_cell_length_b 29.253365
_cell_length_c 12.288247
_cell_angle_alpha 90.000000
_cell_angle_beta 90.000000
_cell_angle_gamma 90.000000
_cell_volume 3091.972796
_symmetry_space_group_name_H-M "C M M 2"
_symmetry_group_IT_number 35
_symmetry_cell_setting 'orthorhombic'
loop_
_space_group_symop_operation_xyz
x,y,z
-x,-y,z
-x,y,z
x,-y,z
1/2+x,1/2+y,z
1/2-x,1/2-y,z
1/2-x,1/2+y,z
1/2+x,1/2-y,z
loop_
_atom_site_type_symbol
_atom_site_label
_atom_site_fract_x
_atom_site_fract_y
_atom_site_fract_z
Si Si1 0.319785 0.050147 0.445890
Si Si2 0.820268 0.667326 0.296385
Si Si3 0.682448 0.642164 0.519516
Si Si4 0.819216 0.923244 0.228274
Si Si5 0.819047 0.358503 0.926337
Si Si6 0.181444 0.794647 0.096275
Si Si7 0.820313 0.949312 0.986557
Si Si8 0.316623 0.800824 0.716919
O O1 0.500000 0.061496 0.423225
O O2 0.252419 0.090609 0.521817
O O3 0.228356 0.046224 0.331664
O O4 0.301714 0.000000 0.502498
O O5 0.720554 0.667256 0.406460
O O6 0.789981 0.620960 0.230053
O O7 0.762156 0.706548 0.215137
O O8 0.000000 0.673701 0.325837
O O9 0.500000 0.638335 0.536427
O O10 0.753384 0.673793 0.611682
O O11 0.000000 0.908967 0.239017
O O12 0.786754 0.949219 0.115902
O O13 0.780742 0.412486 0.919204
O O14 0.764929 0.331921 0.818682
O O15 0.000000 0.350878 0.948168
O O16 0.721557 0.339567 0.027823
O O17 0.250000 0.750000 0.034152
O O18 0.000000 0.791039 0.111173
O O19 0.000000 0.938494 0.963857
O O20 0.775947 0.000000 0.944090
O O21 0.500000 0.796877 0.707871
O O22 0.250000 0.750000 0.728566
#
# Coordination Sequence:
#
# PCOD8172397 Si02
#       8
#     8   8   8   8   8   8   8   8
#     4  10  20  34  55  86 125 168 210 254 304 360
#     4  11  21  36  58  87 125 164 202 248 304 364
#     4  11  23  40  64  92 123 161 205 253 310 366
#     4  10  18  31  53  83 120 166 209 251 299 356
#     4  11  24  42  65  92 123 161 204 255 310 366
#     4  12  24  39  60  89 124 162 203 249 305 370
#     4  10  21  36  57  87 125 168 210 254 304 361
#     4  11  25  46  70  95 120 153 204 258 312 371
#
# _framework density 20.698757000000001
#
# number of rings (size 3 to 8) (size 9 to 14) (size 15 to 20)
#    0.000    1.250    1.250    7.125    0.000    5.750 
#    0.000    3.125    0.000    0.750    0.000    0.000 
#    0.000    0.000    0.000    0.000    0.000    0.000 
#
# Total GULP energy -396785.477540 kJ/mol
# GULP energy per Si atom -12399.546173 kJ/mol
# Density = 2.065165 g / cm^3
# Si number density = 20.698757 Si / 1000 Ang^3
#
#
#
# Elastic Constant Matrix: (Units=GPa)
#
#
# Indices 1 2 3 4 5 6 
#
# 1 95.0095 44.3546 31.9416 0.0000 0.0000 0.0000
# 2 44.3546 140.9211 53.8676 0.0000 0.0000 0.0000
# 3 31.9416 53.8676 86.8043 0.0000 0.0000 0.0000
# 4 0.0000 0.0000 0.0000 26.1752 0.0000 0.0000
# 5 0.0000 0.0000 0.0000 0.0000 21.6545 0.0000
# 6 0.0000 0.0000 0.0000 0.0000 0.0000 33.8269
#
#
#
# Elastic Compliance Matrix: (Units=1/GPa)
#
#
# Indices 1 2 3 4 5 6 
#
# 1 0.012877 -0.002939 -0.002915 0.000000 0.000000 0.000000
# 2 -0.002939 0.009974 -0.005108 0.000000 0.000000 0.000000
# 3 -0.002915 -0.005108 0.015762 0.000000 0.000000 0.000000
# 4 0.000000 0.000000 0.000000 0.038204 0.000000 0.000000
# 5 0.000000 0.000000 0.000000 0.000000 0.046180 0.000000
# 6 0.000000 0.000000 0.000000 0.000000 0.000000 0.029562
#
#
# Mechanical properties :
#
#
# Convention : Reuss Voigt Hill
#
# Bulk Modulus (GPa) = 59.91466 64.78472 62.34969
# Shear Modulus (GPa) = 27.77071 29.16940 28.47006
#
# Velocity S-wave (km/s) = 3.66684 3.75805 3.71273
# Velocity P-wave (km/s) = 6.85102 7.08501 6.96900
#
# Compressibility (1/GPa) = 0.01669041
#
# Stress axis : x y z
#
# Youngs Moduli (GPa) = 77.65684 100.26377 63.44195
#
# Poissons Ratio (x) = 0.29467 0.18491
# Poissons Ratio (y) = 0.22823 0.32405
# Poissons Ratio (z) = 0.22634 0.51213
#
# Static dielectric constant tensor:
#      x y z
#    x 3.784090 0.000000 0.000000 
#    y 0.000000 3.983260 0.000000 
#    z 0.000000 0.000000 3.631190 
# 
# 
# High freq. dielectric constant tensor:
#      x y z
#    x 1.819270 0.000000 0.000000 
#    y 0.000000 1.822750 0.000000 
#    z 0.000000 0.000000 1.785720 
# 
# From -- ./inp_files/12019.got.cif
#   From: 2010.03.12/outbox.cif.g09.slc.cpg/sg35_7_cif.got.tgz:12019.got - 2010.04.14 02:02:04.
