data_PCOD8172013
_publ_section_title
;
Structure prediction by ZEFSAII (Michael W. Deem and Ramdas Pophale) SiO2 
 PCOD8172013
Probable space group: P N N 2
;
_chemical_formula_sum "Si O2"
_cell_formula_units_Z 32
_cell_length_a 8.353432
_cell_length_b 11.245092
_cell_length_c 16.263675
_cell_angle_alpha 90.000000
_cell_angle_beta 90.000000
_cell_angle_gamma 90.000000
_cell_volume 1527.730122
_symmetry_space_group_name_H-M "P N N 2"
_symmetry_group_IT_number 34
_symmetry_cell_setting 'orthorhombic'
loop_
_space_group_symop_operation_xyz
x,y,z
-x,-y,z
1/2-x,1/2+y,1/2+z
1/2+x,1/2-y,1/2+z
loop_
_atom_site_type_symbol
_atom_site_label
_atom_site_fract_x
_atom_site_fract_y
_atom_site_fract_z
Si Si1 0.686555 0.496688 0.477040
Si Si2 0.318967 0.233768 0.051866
Si Si3 0.714441 0.118407 0.412802
Si Si4 0.684359 0.235301 0.724213
Si Si5 0.104987 0.601597 0.842392
Si Si6 0.612514 0.114525 0.113386
Si Si7 0.312577 0.502233 0.287899
Si Si8 0.816485 0.238763 0.254941
O O1 0.500000 0.500000 0.495352
O O2 0.763164 0.367825 0.489215
O O3 0.765268 0.589344 0.539605
O O4 0.724377 0.529354 0.382722
O O5 0.213379 0.223604 0.132398
O O6 0.503567 0.222218 0.078968
O O7 0.284979 0.356012 0.003172
O O8 0.528977 0.167214 0.400025
O O9 0.820333 0.182850 0.344856
O O10 0.724835 0.974599 0.400912
O O11 0.801178 0.308834 0.784683
O O12 0.721188 0.096631 0.734692
O O13 0.500580 0.265039 0.732449
O O14 0.000000 0.500000 0.791431
O O15 0.708345 0.158282 0.193895
O O16 0.500000 0.000000 0.132573
O O17 0.500000 0.500000 0.269342
O O18 0.247662 0.627800 0.257266
#
# Coordination Sequence:
#
# PCOD8172013 Si02
#       8
#     4   4   4   4   4   4   4   4
#     4  10  22  38  67  98 128 167 223 276 331 389
#     4  11  22  41  65  95 131 176 217 278 326 395
#     4   9  21  41  69  90 130 173 219 265 334 394
#     4  12  26  41  70  99 136 170 228 276 336 392
#     4   8  22  43  69  93 128 175 223 264 339 398
#     4  10  24  40  67  96 138 173 226 276 332 389
#     4  11  24  44  70  95 133 181 217 267 344 410
#     4  12  24  43  67 100 136 174 225 278 329 404
#
# _framework density 20.946107999999999
#
# number of rings (size 3 to 8) (size 9 to 14) (size 15 to 20)
#    0.750    0.750    1.250    3.375    8.750    1.500 
#    4.500    0.000    5.500    0.000    0.000    0.000 
#    0.000    0.000    0.000    0.000    0.000    0.000 
#
# Total GULP energy -396559.411772 kJ/mol
# GULP energy per Si atom -12392.481618 kJ/mol
# Density = 2.089843 g / cm^3
# Si number density = 20.946108 Si / 1000 Ang^3
#
#
#
# Elastic Constant Matrix: (Units=GPa)
#
#
# Indices 1 2 3 4 5 6 
#
# 1 122.8267 37.8746 51.1218 0.0000 0.0000 0.0000
# 2 37.8746 65.9985 34.7995 0.0000 0.0000 0.0000
# 3 51.1218 34.7995 75.5022 0.0000 0.0000 0.0000
# 4 0.0000 0.0000 0.0000 33.5855 0.0000 0.0000
# 5 0.0000 0.0000 0.0000 0.0000 32.7375 0.0000
# 6 0.0000 0.0000 0.0000 0.0000 0.0000 29.6338
#
#
#
# Elastic Compliance Matrix: (Units=1/GPa)
#
#
# Indices 1 2 3 4 5 6 
#
# 1 0.011889 -0.003406 -0.006480 0.000000 0.000000 0.000000
# 2 -0.003406 0.020992 -0.007369 0.000000 0.000000 0.000000
# 3 -0.006480 -0.007369 0.021029 0.000000 0.000000 0.000000
# 4 0.000000 0.000000 0.000000 0.029775 0.000000 0.000000
# 5 0.000000 0.000000 0.000000 0.000000 0.030546 0.000000
# 6 0.000000 0.000000 0.000000 0.000000 0.000000 0.033745
#
#
# Mechanical properties :
#
#
# Convention : Reuss Voigt Hill
#
# Bulk Modulus (GPa) = 51.54837 56.87991 54.21414
# Shear Modulus (GPa) = 26.46167 28.56013 27.51090
#
# Velocity S-wave (km/s) = 3.55818 3.69657 3.62804
# Velocity P-wave (km/s) = 6.44549 6.74046 6.59462
#
# Compressibility (1/GPa) = 0.01939926
#
# Stress axis : x y z
#
# Youngs Moduli (GPa) = 84.11256 47.63704 47.55387
#
# Poissons Ratio (x) = 0.16225 0.30815
# Poissons Ratio (y) = 0.28648 0.35044
# Poissons Ratio (z) = 0.54505 0.35105
#
# Static dielectric constant tensor:
#      x y z
#    x 3.849980 0.000000 0.000000 
#    y 0.000000 3.800650 0.000000 
#    z 0.000000 0.000000 3.733730 
# 
# 
# High freq. dielectric constant tensor:
#      x y z
#    x 1.826760 0.000000 0.000000 
#    y 0.000000 1.814460 0.000000 
#    z 0.000000 0.000000 1.817560 
# 
# From -- ./inp_files/6558.got.cif
#   From: 2010.03.12/outbox.cif.g09.slc.cpg/sg34_4_cif.got.tgz:6558.got - 2010.04.14 01:56:33.
