data_PCOD8172099
_publ_section_title
;
Structure prediction by ZEFSAII (Michael W. Deem and Ramdas Pophale) SiO2 
 PCOD8172099
Probable space group: P N N 2
;
_chemical_formula_sum "Si O2"
_cell_formula_units_Z 32
_cell_length_a 13.261932
_cell_length_b 8.150207
_cell_length_c 12.370679
_cell_angle_alpha 90.000000
_cell_angle_beta 90.000000
_cell_angle_gamma 90.000000
_cell_volume 1337.115655
_symmetry_space_group_name_H-M "P N N 2"
_symmetry_group_IT_number 34
_symmetry_cell_setting 'orthorhombic'
loop_
_space_group_symop_operation_xyz
x,y,z
-x,-y,z
1/2-x,1/2+y,1/2+z
1/2+x,1/2-y,1/2+z
loop_
_atom_site_type_symbol
_atom_site_label
_atom_site_fract_x
_atom_site_fract_y
_atom_site_fract_z
Si Si1 0.750054 0.070512 0.242600
Si Si2 0.459478 0.176822 0.989352
Si Si3 0.264462 0.155595 0.886511
Si Si4 0.064727 0.648336 0.730466
Si Si5 0.616202 0.022075 0.716003
Si Si6 0.713628 0.814834 0.550053
Si Si7 0.124016 0.164522 0.359089
Si Si8 0.591299 0.606171 0.411139
O O1 0.704499 0.187804 0.338539
O O2 0.754465 0.170193 0.131804
O O3 0.679682 0.913082 0.224695
O O4 0.858140 0.001618 0.288905
O O5 0.336904 0.193686 0.988521
O O6 0.514799 0.317310 0.917030
O O7 0.500000 0.000000 0.945523
O O8 0.486554 0.193800 0.115586
O O9 0.352758 0.120644 0.798653
O O10 0.191498 0.004105 0.905271
O O11 0.060071 0.817648 0.796278
O O12 0.000000 0.500000 0.782888
O O13 0.686407 0.987008 0.609414
O O14 0.500000 0.000000 0.684109
O O15 0.643051 0.194307 0.770277
O O16 0.796878 0.834771 0.457935
O O17 0.610572 0.754064 0.493527
O O18 0.500000 0.500000 0.457640
#
# Coordination Sequence:
#
# PCOD8172099 Si02
#       8
#     4   4   4   4   4   4   4   4
#     4  11  25  42  72 102 144 187 245 302 362 451
#     4  11  21  42  79 102 138 188 245 308 369 425
#     4  11  21  45  69 100 139 193 241 301 368 428
#     4  11  23  43  69 106 139 187 243 301 372 443
#     4  11  22  43  76 101 139 195 247 295 368 449
#     4  11  25  46  68 109 146 189 238 302 373 444
#     4  12  22  49  74 107 144 188 249 312 359 442
#     4  12  25  46  67  98 152 195 234 303 378 451
#
# _framework density 23.932110000000002
#
# number of rings (size 3 to 8) (size 9 to 14) (size 15 to 20)
#    0.000    0.750    5.000    3.000    0.000    3.000 
#   13.500    0.000    0.000    0.000    0.000    0.000 
#    0.000    0.000    0.000    0.000    0.000    0.000 
#
# Total GULP energy -396571.786438 kJ/mol
# GULP energy per Si atom -12392.868326 kJ/mol
# Density = 2.387764 g / cm^3
# Si number density = 23.932110 Si / 1000 Ang^3
#
#
#
# Elastic Constant Matrix: (Units=GPa)
#
#
# Indices 1 2 3 4 5 6 
#
# 1 106.0747 17.3563 30.1092 0.0000 0.0000 0.0000
# 2 17.3563 64.4721 34.6977 0.0000 0.0000 0.0000
# 3 30.1092 34.6977 91.0048 0.0000 0.0000 0.0000
# 4 0.0000 0.0000 0.0000 33.5666 0.0000 0.0000
# 5 0.0000 0.0000 0.0000 0.0000 31.0648 0.0000
# 6 0.0000 0.0000 0.0000 0.0000 0.0000 37.3923
#
#
#
# Elastic Compliance Matrix: (Units=1/GPa)
#
#
# Indices 1 2 3 4 5 6 
#
# 1 0.010478 -0.001202 -0.003009 0.000000 0.000000 0.000000
# 2 -0.001202 0.019653 -0.007096 0.000000 0.000000 0.000000
# 3 -0.003009 -0.007096 0.014689 0.000000 0.000000 0.000000
# 4 0.000000 0.000000 0.000000 0.029792 0.000000 0.000000
# 5 0.000000 0.000000 0.000000 0.000000 0.032191 0.000000
# 6 0.000000 0.000000 0.000000 0.000000 0.000000 0.026743
#
#
# Mechanical properties :
#
#
# Convention : Reuss Voigt Hill
#
# Bulk Modulus (GPa) = 45.02773 47.31978 46.17376
# Shear Modulus (GPa) = 30.56989 32.36396 31.46692
#
# Velocity S-wave (km/s) = 3.57789 3.68138 3.63001
# Velocity P-wave (km/s) = 5.99367 6.15512 6.07493
#
# Compressibility (1/GPa) = 0.02220854
#
# Stress axis : x y z
#
# Youngs Moduli (GPa) = 95.43906 50.88352 68.07752
#
# Poissons Ratio (x) = 0.06114 0.20481
# Poissons Ratio (y) = 0.11468 0.48304
# Poissons Ratio (z) = 0.28713 0.36104
#
# Static dielectric constant tensor:
#      x y z
#    x 4.189670 0.000000 0.000000 
#    y 0.000000 4.269280 0.000000 
#    z 0.000000 0.000000 4.462440 
# 
# 
# High freq. dielectric constant tensor:
#      x y z
#    x 1.941350 0.000000 0.000000 
#    y 0.000000 1.942660 0.000000 
#    z 0.000000 0.000000 1.950450 
# 
# From -- ./inp_files/5680.got.cif
#   From: 2010.03.12/outbox.cif.g09.slc.cpg/sg34_3_cif.got.tgz:5680.got - 2010.04.14 01:56:33.
