data_PCOD8172696
_publ_section_title
;
Structure prediction by ZEFSAII (Michael W. Deem and Ramdas Pophale) SiO2 
 PCOD8172696
Probable space group: C M M 2
;
_chemical_formula_sum "Si O2"
_cell_formula_units_Z 64
_cell_length_a 9.690222
_cell_length_b 26.312480
_cell_length_c 14.184644
_cell_angle_alpha 90.000000
_cell_angle_beta 90.000000
_cell_angle_gamma 90.000000
_cell_volume 3616.712193
_symmetry_space_group_name_H-M "C M M 2"
_symmetry_group_IT_number 35
_symmetry_cell_setting 'orthorhombic'
loop_
_space_group_symop_operation_xyz
x,y,z
-x,-y,z
-x,y,z
x,-y,z
1/2+x,1/2+y,z
1/2-x,1/2-y,z
1/2-x,1/2+y,z
1/2+x,1/2-y,z
loop_
_atom_site_type_symbol
_atom_site_label
_atom_site_fract_x
_atom_site_fract_y
_atom_site_fract_z
Si Si1 0.837577 0.058878 0.536090
Si Si2 0.343052 0.896192 0.161668
Si Si3 0.341323 0.798181 0.041377
Si Si4 0.648926 0.058135 0.875156
Si Si5 0.350657 0.558339 0.024889
Si Si6 0.841982 0.608019 0.691780
Si Si7 0.341482 0.202226 0.825700
Si Si8 0.155197 0.442083 0.357369
O O1 0.764839 0.097902 0.607924
O O2 0.769581 0.070203 0.435272
O O3 0.000000 0.071104 0.531466
O O4 0.811663 0.000000 0.564761
O O5 0.500000 0.910392 0.133559
O O6 0.303245 0.841647 0.117636
O O7 0.237823 0.937177 0.119542
O O8 0.324105 0.900717 0.274167
O O9 0.500000 0.782210 0.052386
O O10 0.250000 0.750000 0.069231
O O11 0.310106 0.815558 0.933386
O O12 0.500000 0.085692 0.894659
O O13 0.680535 0.061596 0.764458
O O14 0.636782 0.000000 0.905228
O O15 0.766004 0.084565 0.938972
O O16 0.500000 0.585601 0.034092
O O17 0.376243 0.500000 0.001867
O O18 0.804081 0.658165 0.751425
O O19 0.000000 0.609821 0.653615
O O20 0.500000 0.218476 0.815433
O O21 0.250000 0.250000 0.796802
O O22 0.174167 0.500000 0.319768
O O23 0.000000 0.436141 0.399384
#
# Coordination Sequence:
#
# PCOD8172696 Si02
#       8
#     8   8   8   8   8   8   8   8
#     4  10  21  35  51  74 104 134 163 202 253 303
#     4  10  19  32  52  74  96 127 168 209 246 290
#     4   9  18  33  52  75 103 132 164 203 247 295
#     4   9  17  29  45  65  92 127 163 198 237 285
#     4  10  20  30  41  64  99 133 162 196 240 290
#     4  10  19  32  52  74  95 125 167 209 247 292
#     4   9  18  32  50  73 101 132 165 203 247 294
#     4   9  18  33  53  75  98 128 168 210 249 293
#
# _framework density 17.695629
#
# number of rings (size 3 to 8) (size 9 to 14) (size 15 to 20)
#    0.000    2.500    0.000    2.250    0.000    6.500 
#    0.000    5.000    0.000    0.750    0.000    1.750 
#    0.000    0.000    0.000    0.000    0.000    0.000 
#
# Total GULP energy -396562.207521 kJ/mol
# GULP energy per Si atom -12392.568985 kJ/mol
# Density = 1.765535 g / cm^3
# Si number density = 17.695629 Si / 1000 Ang^3
#
#
#
# Elastic Constant Matrix: (Units=GPa)
#
#
# Indices 1 2 3 4 5 6 
#
# 1 126.2625 47.9888 70.9389 0.0000 0.0000 0.0000
# 2 47.9888 72.2822 48.8870 0.0000 0.0000 0.0000
# 3 70.9389 48.8870 108.7832 0.0000 0.0000 0.0000
# 4 0.0000 0.0000 0.0000 28.9653 0.0000 0.0000
# 5 0.0000 0.0000 0.0000 0.0000 17.4578 0.0000
# 6 0.0000 0.0000 0.0000 0.0000 0.0000 23.9328
#
#
#
# Elastic Compliance Matrix: (Units=1/GPa)
#
#
# Indices 1 2 3 4 5 6 
#
# 1 0.013361 -0.004278 -0.006790 0.000000 0.000000 0.000000
# 2 -0.004278 0.021245 -0.006758 0.000000 0.000000 0.000000
# 3 -0.006790 -0.006758 0.016658 0.000000 0.000000 0.000000
# 4 0.000000 0.000000 0.000000 0.034524 0.000000 0.000000
# 5 0.000000 0.000000 0.000000 0.000000 0.057281 0.000000
# 6 0.000000 0.000000 0.000000 0.000000 0.000000 0.041784
#
#
# Mechanical properties :
#
#
# Convention : Reuss Voigt Hill
#
# Bulk Modulus (GPa) = 64.05491 71.43969 67.74730
# Shear Modulus (GPa) = 22.15238 23.37207 22.76222
#
# Velocity S-wave (km/s) = 3.54200 3.63820 3.59042
# Velocity P-wave (km/s) = 7.28041 7.62284 7.45359
#
# Compressibility (1/GPa) = 0.01561161
#
# Stress axis : x y z
#
# Youngs Moduli (GPa) = 74.84450 47.06882 60.03207
#
# Poissons Ratio (x) = 0.20136 0.40764
# Poissons Ratio (y) = 0.32018 0.40570
# Poissons Ratio (z) = 0.50823 0.31809
#
# Static dielectric constant tensor:
#      x y z
#    x 3.588290 0.000000 0.000000 
#    y 0.000000 3.068300 0.000000 
#    z 0.000000 0.000000 3.122980 
# 
# 
# High freq. dielectric constant tensor:
#      x y z
#    x 1.693550 0.000000 0.000000 
#    y 0.000000 1.659310 0.000000 
#    z 0.000000 0.000000 1.667520 
# 
# From -- ./inp_files/16249.got.cif
#   From: 2010.03.12/outbox.cif.g09.slc.cpg/sg35_9_cif.got.tgz:16249.got - 2010.04.14 02:02:04.
