data_PCOD8172091
_publ_section_title
;
Structure prediction by ZEFSAII (Michael W. Deem and Ramdas Pophale) SiO2 
 PCOD8172091
Probable space group: P N N 2
;
_chemical_formula_sum "Si O2"
_cell_formula_units_Z 32
_cell_length_a 15.474357
_cell_length_b 15.226101
_cell_length_c 6.162705
_cell_angle_alpha 90.000000
_cell_angle_beta 90.000000
_cell_angle_gamma 90.000000
_cell_volume 1452.020331
_symmetry_space_group_name_H-M "P N N 2"
_symmetry_group_IT_number 34
_symmetry_cell_setting 'orthorhombic'
loop_
_space_group_symop_operation_xyz
x,y,z
-x,-y,z
1/2-x,1/2+y,1/2+z
1/2+x,1/2-y,1/2+z
loop_
_atom_site_type_symbol
_atom_site_label
_atom_site_fract_x
_atom_site_fract_y
_atom_site_fract_z
Si Si1 0.058052 0.250406 0.170130
Si Si2 0.189100 0.955458 0.669184
Si Si3 0.078269 0.815261 0.862025
Si Si4 0.190829 0.517112 0.559432
Si Si5 0.912413 0.319195 0.482435
Si Si6 0.688893 0.386523 0.874214
Si Si7 0.824209 0.634231 0.880316
Si Si8 0.716986 0.758844 0.652003
O O1 0.118775 0.186812 0.310780
O O2 0.992733 0.302560 0.324640
O O3 0.104725 0.331218 0.048739
O O4 0.010104 0.185233 0.000264
O O5 0.100141 0.908020 0.747338
O O6 0.235405 0.889251 0.503081
O O7 0.152357 0.040532 0.541312
O O8 0.263897 0.975846 0.846868
O O9 0.071882 0.731080 0.706392
O O10 0.157788 0.809367 0.026181
O O11 0.106457 0.577064 0.512257
O O12 0.270705 0.571018 0.661121
O O13 0.149198 0.448025 0.730224
O O14 0.824229 0.284874 0.379408
O O15 0.768229 0.342437 0.001081
O O16 0.807293 0.713214 0.711450
#
# Coordination Sequence:
#
# PCOD8172091 Si02
#       8
#     4   4   4   4   4   4   4   4
#     4  11  28  42  68 101 146 188 228 277 368 430
#     4  11  23  43  75 102 133 174 241 294 337 405
#     4  11  23  44  68  99 137 187 222 287 352 419
#     4  11  23  43  75 102 133 174 241 294 337 405
#     4  11  23  44  68  99 137 187 222 287 352 419
#     4  11  24  42  72 104 129 181 239 290 336 415
#     4  11  24  42  72 104 129 181 239 290 336 415
#     4  11  20  40  76  93 126 178 246 269 332 422
#
# _framework density 22.038260999999999
#
# number of rings (size 3 to 8) (size 9 to 14) (size 15 to 20)
#    0.000    1.000    5.000    1.500    1.750    0.000 
#    0.000    7.500    0.000    0.000    0.000    0.000 
#    0.000    0.000    0.000    0.000    0.000    0.000 
#
# Total GULP energy -396622.822712 kJ/mol
# GULP energy per Si atom -12394.463210 kJ/mol
# Density = 2.198810 g / cm^3
# Si number density = 22.038261 Si / 1000 Ang^3
#
#
#
# Elastic Constant Matrix: (Units=GPa)
#
#
# Indices 1 2 3 4 5 6 
#
# 1 84.3106 48.7542 34.8102 0.0000 0.0000 0.0000
# 2 48.7542 122.0280 45.6062 0.0000 0.0000 0.0000
# 3 34.8102 45.6062 99.3359 0.0000 0.0000 0.0000
# 4 0.0000 0.0000 0.0000 40.5369 0.0000 0.0000
# 5 0.0000 0.0000 0.0000 0.0000 11.8754 0.0000
# 6 0.0000 0.0000 0.0000 0.0000 0.0000 30.0457
#
#
#
# Elastic Compliance Matrix: (Units=1/GPa)
#
#
# Indices 1 2 3 4 5 6 
#
# 1 0.016263 -0.005272 -0.003279 0.000000 0.000000 0.000000
# 2 -0.005272 0.011602 -0.003479 0.000000 0.000000 0.000000
# 3 -0.003279 -0.003479 0.012813 0.000000 0.000000 0.000000
# 4 0.000000 0.000000 0.000000 0.024669 0.000000 0.000000
# 5 0.000000 0.000000 0.000000 0.000000 0.084208 0.000000
# 6 0.000000 0.000000 0.000000 0.000000 0.000000 0.033283
#
#
# Mechanical properties :
#
#
# Convention : Reuss Voigt Hill
#
# Bulk Modulus (GPa) = 60.17459 62.66841 61.42150
# Shear Modulus (GPa) = 23.53648 28.25851 25.89750
#
# Velocity S-wave (km/s) = 3.27155 3.58473 3.43171
# Velocity P-wave (km/s) = 6.45248 6.75512 6.60554
#
# Compressibility (1/GPa) = 0.01661831
#
# Stress axis : x y z
#
# Youngs Moduli (GPa) = 61.48749 86.19573 78.04645
#
# Poissons Ratio (x) = 0.45447 0.25588
# Poissons Ratio (y) = 0.32419 0.27150
# Poissons Ratio (z) = 0.20159 0.29985
#
# Static dielectric constant tensor:
#      x y z
#    x 3.652780 0.000000 0.000000 
#    y 0.000000 4.165000 0.000000 
#    z 0.000000 0.000000 4.238940 
# 
# 
# High freq. dielectric constant tensor:
#      x y z
#    x 1.841280 0.000000 0.000000 
#    y 0.000000 1.872040 0.000000 
#    z 0.000000 0.000000 1.891090 
# 
# From -- ./inp_files/1500.got.cif
#   From: 2010.03.12/outbox.cif.g09.slc.cpg/sg34_1_cif.got.tgz:1500.got - 2010.04.14 01:56:33.
