data_PCOD8172157
_publ_section_title
;
Structure prediction by ZEFSAII (Michael W. Deem and Ramdas Pophale) SiO2 
 PCOD8172157
Probable space group: C M M 2
;
_chemical_formula_sum "Si O2"
_cell_formula_units_Z 56
_cell_length_a 8.593847
_cell_length_b 19.203981
_cell_length_c 18.276026
_cell_angle_alpha 90.000000
_cell_angle_beta 90.000000
_cell_angle_gamma 90.000000
_cell_volume 3016.203589
_symmetry_space_group_name_H-M "C M M 2"
_symmetry_group_IT_number 35
_symmetry_cell_setting 'orthorhombic'
loop_
_space_group_symop_operation_xyz
x,y,z
-x,-y,z
-x,y,z
x,-y,z
1/2+x,1/2+y,z
1/2-x,1/2-y,z
1/2-x,1/2+y,z
1/2+x,1/2-y,z
loop_
_atom_site_type_symbol
_atom_site_label
_atom_site_fract_x
_atom_site_fract_y
_atom_site_fract_z
Si Si1 0.181885 0.825985 0.160870
Si Si2 0.315806 0.827633 0.601811
Si Si3 0.816048 0.672471 0.308724
Si Si4 0.315958 0.672087 0.455212
Si Si5 0.680186 0.420086 0.885912
Si Si6 0.315993 0.326619 0.750360
Si Si7 0.820596 0.580969 0.038647
O O1 0.250000 0.750000 0.143775
O O2 0.260354 0.862279 0.232673
O O3 0.212706 0.875546 0.092588
O O4 0.000000 0.818381 0.175154
O O5 0.500000 0.827760 0.598636
O O6 0.250000 0.750000 0.603034
O O7 0.248726 0.865797 0.528764
O O8 0.255626 0.862481 0.677006
O O9 0.750000 0.750000 0.305059
O O10 0.745163 0.634244 0.380958
O O11 0.000000 0.671957 0.314854
O O12 0.500000 0.672751 0.456579
O O13 0.250000 0.750000 0.453995
O O14 0.500000 0.407129 0.904318
O O15 0.711632 0.500000 0.865074
O O16 0.736155 0.374034 0.817935
O O17 0.780402 0.397223 0.955895
O O18 0.500000 0.322732 0.741345
O O19 0.250000 0.250000 0.764150
O O20 0.782532 0.500000 0.050618
O O21 0.000000 0.598192 0.054255
#
# Coordination Sequence:
#
# PCOD8172157 Si02
#       7
#     8   8   8   8   8   8   8
#     4  11  21  34  52  75 104 135 168 207 252 299
#     4  10  17  26  40  61  91 125 160 197 239 286
#     4  10  17  27  42  64  95 128 163 201 244 291
#     4  10  16  24  38  59  89 125 163 198 238 286
#     4   9  19  36  55  73  95 127 166 204 243 291
#     4  10  19  31  48  71  99 128 159 199 245 292
#     4  10  21  37  56  77 101 130 166 207 250 298
#
# _framework density 18.566386000000001
#
# number of rings (size 3 to 8) (size 9 to 14) (size 15 to 20)
#    0.000    2.000    0.000    9.429    0.000    2.571 
#    0.000    1.429    0.000    0.000    0.000    1.000 
#    0.000    5.714    0.000    0.000    0.000    0.000 
#
# Total GULP energy -347101.078817 kJ/mol
# GULP energy per Si atom -12396.467101 kJ/mol
# Density = 1.852413 g / cm^3
# Si number density = 18.566386 Si / 1000 Ang^3
#
#
#
# Elastic Constant Matrix: (Units=GPa)
#
#
# Indices 1 2 3 4 5 6 
#
# 1 147.4254 22.7580 61.8441 0.0000 0.0000 0.0000
# 2 22.7580 35.4336 48.5597 0.0000 0.0000 0.0000
# 3 61.8441 48.5597 171.3892 0.0000 0.0000 0.0000
# 4 0.0000 0.0000 0.0000 -1.0964 0.0000 0.0000
# 5 0.0000 0.0000 0.0000 0.0000 38.7579 0.0000
# 6 0.0000 0.0000 0.0000 0.0000 0.0000 16.8090
#
#
#
# Elastic Compliance Matrix: (Units=1/GPa)
#
#
# Indices 1 2 3 4 5 6 
#
# 1 0.008075 -0.001950 -0.002361 0.000000 0.000000 0.000000
# 2 -0.001950 0.046607 -0.012501 0.000000 0.000000 0.000000
# 3 -0.002361 -0.012501 0.010229 0.000000 0.000000 0.000000
# 4 0.000000 0.000000 0.000000 -0.912040 0.000000 0.000000
# 5 0.000000 0.000000 0.000000 0.000000 0.025801 0.000000
# 6 0.000000 0.000000 0.000000 0.000000 0.000000 0.059492
#
#
# Mechanical properties :
#
#
# Convention : Reuss Voigt Hill
#
# Bulk Modulus (GPa) = 31.96467 68.95241 50.45854
# Shear Modulus (GPa) = -6.96589 25.63319 9.33365
#
# Velocity S-wave (km/s) = -1.93908 3.71971 2.24457
# Velocity P-wave (km/s) = 3.49863 7.46105 5.82699
#
# Compressibility (1/GPa) = 0.03128454
#
# Stress axis : x y z
#
# Youngs Moduli (GPa) = 123.84482 21.45606 97.76488
#
# Poissons Ratio (x) = 0.04185 0.23083
# Poissons Ratio (y) = 0.24155 1.22219
# Poissons Ratio (z) = 0.29240 0.26823
#
# Static dielectric constant tensor:
#      x y z
#    x 3.478780 0.000000 0.000000 
#    y 0.000000 2.829700 0.000000 
#    z 0.000000 0.000000 4.632230 
# 
# 
# High freq. dielectric constant tensor:
#      x y z
#    x 1.739090 0.000000 0.000000 
#    y 0.000000 1.646870 0.000000 
#    z 0.000000 0.000000 1.752880 
# 
# From -- ./inp_files/18195.got.cif
#   From: 2010.03.12/outbox.cif.g09.slc.cpg/sg35_10_cif.got.tgz:18195.got - 2010.04.14 02:02:04.
