data_PCOD8172416
_publ_section_title
;
Structure prediction by ZEFSAII (Michael W. Deem and Ramdas Pophale) SiO2 
 PCOD8172416
Probable space group: C M M 2
;
_chemical_formula_sum "Si O2"
_cell_formula_units_Z 36
_cell_length_a 9.643841
_cell_length_b 22.932873
_cell_length_c 9.003241
_cell_angle_alpha 90.000000
_cell_angle_beta 90.000000
_cell_angle_gamma 90.000000
_cell_volume 1991.165611
_symmetry_space_group_name_H-M "C M M 2"
_symmetry_group_IT_number 35
_symmetry_cell_setting 'orthorhombic'
loop_
_space_group_symop_operation_xyz
x,y,z
-x,-y,z
-x,y,z
x,-y,z
1/2+x,1/2+y,z
1/2-x,1/2-y,z
1/2-x,1/2+y,z
1/2+x,1/2-y,z
loop_
_atom_site_type_symbol
_atom_site_label
_atom_site_fract_x
_atom_site_fract_y
_atom_site_fract_z
Si Si1 0.664004 0.307437 0.132040
Si Si2 0.340203 0.066261 0.637664
Si Si3 0.154744 0.845784 0.802201
Si Si4 0.154450 0.349400 0.377427
Si Si5 0.750000 0.750000 0.584936
O O1 0.500000 0.298455 0.158834
O O2 0.750000 0.250000 0.169553
O O3 0.727136 0.352997 0.250798
O O4 0.698782 0.326448 0.966209
O O5 0.500000 0.070061 0.685019
O O6 0.255944 0.102057 0.759770
O O7 0.316906 0.093415 0.475470
O O8 0.286833 0.000000 0.634442
O O9 0.156882 0.790688 0.691128
O O10 0.000000 0.871093 0.802991
O O11 0.157959 0.291649 0.481030
O O12 0.000000 0.351833 0.307056
#
# Coordination Sequence:
#
# PCOD8172416 Si02
#       5
#     8   8   8   8   4
#     4  11  22  35  52  78 114 148 178 215 266 326
#     4   9  20  39  60  81 106 140 184 230 273 319
#     4  10  21  35  54  81 111 144 181 223 270 323
#     4  10  20  33  54  80 109 143 179 222 268 321
#     4  10  18  32  52  80 108 142 176 222 268 324
#
# _framework density 18.079863
#
# number of rings (size 3 to 8) (size 9 to 14) (size 15 to 20)
#    0.000    2.000    2.222    1.333    0.000    6.667 
#    0.000    1.111    0.000    4.000    0.000    0.000 
#    0.000    0.000    0.000    0.000    0.000    0.000 
#
# Total GULP energy -223167.317279 kJ/mol
# GULP energy per Si atom -12398.184293 kJ/mol
# Density = 1.803871 g / cm^3
# Si number density = 18.079863 Si / 1000 Ang^3
#
#
#
# Elastic Constant Matrix: (Units=GPa)
#
#
# Indices 1 2 3 4 5 6 
#
# 1 92.9010 28.5982 46.6343 0.0000 0.0000 0.0000
# 2 28.5982 91.4773 25.1192 0.0000 0.0000 0.0000
# 3 46.6343 25.1192 101.6686 0.0000 0.0000 0.0000
# 4 0.0000 0.0000 0.0000 16.0449 0.0000 0.0000
# 5 0.0000 0.0000 0.0000 0.0000 33.4108 0.0000
# 6 0.0000 0.0000 0.0000 0.0000 0.0000 22.9619
#
#
#
# Elastic Compliance Matrix: (Units=1/GPa)
#
#
# Indices 1 2 3 4 5 6 
#
# 1 0.014686 -0.002941 -0.006010 0.000000 0.000000 0.000000
# 2 -0.002941 0.012316 -0.001694 0.000000 0.000000 0.000000
# 3 -0.006010 -0.001694 0.013011 0.000000 0.000000 0.000000
# 4 0.000000 0.000000 0.000000 0.062325 0.000000 0.000000
# 5 0.000000 0.000000 0.000000 0.000000 0.029930 0.000000
# 6 0.000000 0.000000 0.000000 0.000000 0.000000 0.043550
#
#
# Mechanical properties :
#
#
# Convention : Reuss Voigt Hill
#
# Bulk Modulus (GPa) = 53.40739 54.08336 53.74537
# Shear Modulus (GPa) = 24.58812 26.86323 25.72567
#
# Velocity S-wave (km/s) = 3.69178 3.85880 3.77621
# Velocity P-wave (km/s) = 6.91203 7.05920 6.98600
#
# Compressibility (1/GPa) = 0.01872400
#
# Stress axis : x y z
#
# Youngs Moduli (GPa) = 68.09072 81.19341 76.85789
#
# Poissons Ratio (x) = 0.23879 0.46190
# Poissons Ratio (y) = 0.20026 0.13019
# Poissons Ratio (z) = 0.40921 0.13754
#
# Static dielectric constant tensor:
#      x y z
#    x 3.325770 0.000000 0.000000 
#    y 0.000000 3.277010 0.000000 
#    z 0.000000 0.000000 3.365160 
# 
# 
# High freq. dielectric constant tensor:
#      x y z
#    x 1.705200 0.000000 0.000000 
#    y 0.000000 1.679730 0.000000 
#    z 0.000000 0.000000 1.704150 
# 
# From -- ./inp_files/4837.got.cif
#   From: 2010.03.12/outbox.cif.g09.slc.cpg/sg35_3_cif.got.tgz:4837.got - 2010.04.14 02:02:04.
