data_PCOD8172469
_publ_section_title
;
Structure prediction by ZEFSAII (Michael W. Deem and Ramdas Pophale) SiO2 
 PCOD8172469
Probable space group: C M M 2
;
_chemical_formula_sum "Si O2"
_cell_formula_units_Z 56
_cell_length_a 8.998754
_cell_length_b 21.651609
_cell_length_c 14.775605
_cell_angle_alpha 90.000000
_cell_angle_beta 90.000000
_cell_angle_gamma 90.000000
_cell_volume 2878.841985
_symmetry_space_group_name_H-M "C M M 2"
_symmetry_group_IT_number 35
_symmetry_cell_setting 'orthorhombic'
loop_
_space_group_symop_operation_xyz
x,y,z
-x,-y,z
-x,y,z
x,-y,z
1/2+x,1/2+y,z
1/2-x,1/2-y,z
1/2-x,1/2+y,z
1/2+x,1/2-y,z
loop_
_atom_site_type_symbol
_atom_site_label
_atom_site_fract_x
_atom_site_fract_y
_atom_site_fract_z
Si Si1 0.676069 0.927546 0.046240
Si Si2 0.674837 0.500000 0.540204
Si Si3 0.174963 0.391043 0.435894
Si Si4 0.324707 0.931913 0.247263
Si Si5 0.323276 0.314987 0.938020
Si Si6 0.830108 0.500000 0.729310
Si Si7 0.667838 0.190635 0.592574
Si Si8 0.169066 0.631796 0.776098
O O1 0.500000 0.918272 0.033278
O O2 0.731035 0.910849 0.148545
O O3 0.716774 0.000000 0.024760
O O4 0.760182 0.876631 0.986419
O O5 0.500000 0.500000 0.538617
O O6 0.733239 0.557926 0.486413
O O7 0.723274 0.500000 0.643957
O O8 0.222506 0.386148 0.329705
O O9 0.216245 0.329217 0.491080
O O10 0.000000 0.406406 0.444531
O O11 0.500000 0.936103 0.240510
O O12 0.261463 0.000000 0.270797
O O13 0.500000 0.310708 0.951082
O O14 0.250000 0.250000 0.972273
O O15 0.280972 0.325125 0.832750
O O16 0.801792 0.440859 0.794204
O O17 0.000000 0.500000 0.693382
O O18 0.500000 0.210724 0.589520
O O19 0.750000 0.250000 0.627073
O O20 0.696714 0.138488 0.668301
O O21 0.000000 0.650328 0.802548
#
# Coordination Sequence:
#
# PCOD8172469 Si02
#       8
#     8   4   8   8   8   4   8   8
#     4   9  19  38  64  94 122 151 191 244 302 362
#     4  12  22  30  48  83 118 147 180 231 284 318
#     4  10  18  34  57  79 109 153 195 228 269 338
#     4   8  14  28  58  89 110 142 190 234 276 337
#     4  12  26  43  63  87 117 157 200 246 297 354
#     4  10  20  38  60  83 114 151 190 231 284 352
#     4  10  21  35  54  77 107 149 192 233 279 329
#     4  10  21  38  61  87 112 148 192 238 292 347
#
# _framework density 19.452266999999999
#
# number of rings (size 3 to 8) (size 9 to 14) (size 15 to 20)
#    0.000    2.000    2.143    3.214    1.000    3.143 
#    0.000    1.429    0.000    1.714    0.000    0.000 
#    0.000    0.000    0.000    0.000    0.000    0.000 
#
# Total GULP energy -346893.997385 kJ/mol
# GULP energy per Si atom -12389.071335 kJ/mol
# Density = 1.940799 g / cm^3
# Si number density = 19.452267 Si / 1000 Ang^3
#
#
#
# Elastic Constant Matrix: (Units=GPa)
#
#
# Indices 1 2 3 4 5 6 
#
# 1 70.4721 45.6866 31.0297 0.0000 0.0000 0.0000
# 2 45.6866 112.3893 38.7798 0.0000 0.0000 0.0000
# 3 31.0297 38.7798 95.3206 0.0000 0.0000 0.0000
# 4 0.0000 0.0000 0.0000 25.1665 0.0000 0.0000
# 5 0.0000 0.0000 0.0000 0.0000 16.5515 0.0000
# 6 0.0000 0.0000 0.0000 0.0000 0.0000 24.4662
#
#
#
# Elastic Compliance Matrix: (Units=1/GPa)
#
#
# Indices 1 2 3 4 5 6 
#
# 1 0.020385 -0.006976 -0.003798 0.000000 0.000000 0.000000
# 2 -0.006976 0.012738 -0.002911 0.000000 0.000000 0.000000
# 3 -0.003798 -0.002911 0.012912 0.000000 0.000000 0.000000
# 4 0.000000 0.000000 0.000000 0.039735 0.000000 0.000000
# 5 0.000000 0.000000 0.000000 0.000000 0.060418 0.000000
# 6 0.000000 0.000000 0.000000 0.000000 0.000000 0.040873
#
#
# Mechanical properties :
#
#
# Convention : Reuss Voigt Hill
#
# Bulk Modulus (GPa) = 53.57887 56.57490 55.07689
# Shear Modulus (GPa) = 22.66014 24.08255 23.37134
#
# Velocity S-wave (km/s) = 3.41678 3.52239 3.46999
# Velocity P-wave (km/s) = 6.57034 6.75944 6.66556
#
# Compressibility (1/GPa) = 0.01866407
#
# Stress axis : x y z
#
# Youngs Moduli (GPa) = 49.05637 78.50532 77.44958
#
# Poissons Ratio (x) = 0.54766 0.29413
# Poissons Ratio (y) = 0.34222 0.22548
# Poissons Ratio (z) = 0.18630 0.22856
#
# Static dielectric constant tensor:
#      x y z
#    x 3.284760 0.000000 0.000000 
#    y 0.000000 3.341180 0.000000 
#    z 0.000000 0.000000 3.860980 
# 
# 
# High freq. dielectric constant tensor:
#      x y z
#    x 1.727790 0.000000 0.000000 
#    y 0.000000 1.749510 0.000000 
#    z 0.000000 0.000000 1.763640 
# 
# From -- ./inp_files/15703.got.cif
#   From: 2010.03.12/outbox.cif.g09.slc.cpg/sg35_8_cif.got.tgz:15703.got - 2010.04.14 02:02:04.
