data_PCOD8172223
_publ_section_title
;
Structure prediction by ZEFSAII (Michael W. Deem and Ramdas Pophale) SiO2 
 PCOD8172223
Probable space group: C M M 2
;
_chemical_formula_sum "Si O2"
_cell_formula_units_Z 64
_cell_length_a 8.828944
_cell_length_b 28.516164
_cell_length_c 15.652737
_cell_angle_alpha 90.000000
_cell_angle_beta 90.000000
_cell_angle_gamma 90.000000
_cell_volume 3940.852264
_symmetry_space_group_name_H-M "C M M 2"
_symmetry_group_IT_number 35
_symmetry_cell_setting 'orthorhombic'
loop_
_space_group_symop_operation_xyz
x,y,z
-x,-y,z
-x,y,z
x,-y,z
1/2+x,1/2+y,z
1/2-x,1/2-y,z
1/2-x,1/2+y,z
1/2+x,1/2-y,z
loop_
_atom_site_type_symbol
_atom_site_label
_atom_site_fract_x
_atom_site_fract_y
_atom_site_fract_z
Si Si1 0.680242 0.201121 0.895000
Si Si2 0.180091 0.052670 0.987484
Si Si3 0.819660 0.052316 0.665498
Si Si4 0.832133 0.055670 0.479504
Si Si5 0.177826 0.553010 0.309269
Si Si6 0.675748 0.394923 0.155060
Si Si7 0.677223 0.297482 0.077412
Si Si8 0.819643 0.888198 0.825377
O O1 0.500000 0.204051 0.896717
O O2 0.750000 0.250000 0.862789
O O3 0.736665 0.161641 0.829496
O O4 0.742469 0.188970 0.989006
O O5 0.237209 0.080104 0.904268
O O6 0.000000 0.052225 0.988114
O O7 0.245432 0.000000 0.985104
O O8 0.241650 0.078147 0.072416
O O9 0.767675 0.071997 0.572222
O O10 0.761915 0.087195 0.738778
O O11 0.000000 0.049461 0.666868
O O12 0.754123 0.000000 0.682578
O O13 0.725738 0.072558 0.402268
O O14 0.000000 0.076422 0.463451
O O15 0.840303 0.000000 0.483009
O O16 0.241096 0.500000 0.294597
O O17 0.239507 0.588159 0.238778
O O18 0.000000 0.552868 0.304128
O O19 0.500000 0.406669 0.166145
O O20 0.703105 0.339299 0.144564
O O21 0.500000 0.289754 0.058559
O O22 0.750000 0.250000 0.115935
O O23 0.000000 0.881153 0.827272
#
# Coordination Sequence:
#
# PCOD8172223 Si02
#       8
#     8   8   8   8   8   8   8   8
#     4  11  21  33  49  67  90 121 157 197 239 278
#     4   9  16  26  42  64  92 126 159 186 215 260
#     4   8  14  25  46  74  98 123 158 196 229 267
#     4   8  14  27  46  67  91 121 158 196 232 272
#     4  10  20  31  44  66  95 126 159 196 238 276
#     4  10  19  31  47  67  92 123 160 192 226 275
#     4  10  19  33  51  71  91 117 153 195 239 280
#     4  10  17  29  47  70  97 123 156 194 231 274
#
# _framework density 16.240141999999999
#
# number of rings (size 3 to 8) (size 9 to 14) (size 15 to 20)
#    0.000    2.500    1.250    4.125    0.000    3.750 
#    0.000    0.625    0.000    2.250    0.000    0.875 
#    0.000    4.000    0.000    0.000    0.000    0.000 
#
# Total GULP energy -396707.151060 kJ/mol
# GULP energy per Si atom -12397.098471 kJ/mol
# Density = 1.620318 g / cm^3
# Si number density = 16.240142 Si / 1000 Ang^3
#
#
#
# Elastic Constant Matrix: (Units=GPa)
#
#
# Indices 1 2 3 4 5 6 
#
# 1 62.6413 38.0920 37.0871 0.0000 0.0000 0.0000
# 2 38.0920 103.3134 63.8894 0.0000 0.0000 0.0000
# 3 37.0871 63.8894 136.1625 0.0000 0.0000 0.0000
# 4 0.0000 0.0000 0.0000 14.1309 0.0000 0.0000
# 5 0.0000 0.0000 0.0000 0.0000 12.4255 0.0000
# 6 0.0000 0.0000 0.0000 0.0000 0.0000 21.4901
#
#
#
# Elastic Compliance Matrix: (Units=1/GPa)
#
#
# Indices 1 2 3 4 5 6 
#
# 1 0.021412 -0.006041 -0.002998 0.000000 0.000000 0.000000
# 2 -0.006041 0.015340 -0.005552 0.000000 0.000000 0.000000
# 3 -0.002998 -0.005552 0.010766 0.000000 0.000000 0.000000
# 4 0.000000 0.000000 0.000000 0.070767 0.000000 0.000000
# 5 0.000000 0.000000 0.000000 0.000000 0.080480 0.000000
# 6 0.000000 0.000000 0.000000 0.000000 0.000000 0.046533
#
#
# Mechanical properties :
#
#
# Convention : Reuss Voigt Hill
#
# Bulk Modulus (GPa) = 54.53677 64.47268 59.50472
# Shear Modulus (GPa) = 17.81944 20.47921 19.14932
#
# Velocity S-wave (km/s) = 3.31607 3.55494 3.43758
# Velocity P-wave (km/s) = 6.95098 7.52568 7.24403
#
# Compressibility (1/GPa) = 0.01833625
#
# Stress axis : x y z
#
# Youngs Moduli (GPa) = 46.70238 65.18782 92.88564
#
# Poissons Ratio (x) = 0.39380 0.27843
# Poissons Ratio (y) = 0.28213 0.51574
# Poissons Ratio (z) = 0.13999 0.36195
#
# Static dielectric constant tensor:
#      x y z
#    x 2.860460 0.000000 0.000000 
#    y 0.000000 3.088240 0.000000 
#    z 0.000000 0.000000 3.202230 
# 
# 
# High freq. dielectric constant tensor:
#      x y z
#    x 1.604950 0.000000 0.000000 
#    y 0.000000 1.608150 0.000000 
#    z 0.000000 0.000000 1.615280 
# 
# From -- ./inp_files/16227.got.cif
#   From: 2010.03.12/outbox.cif.g09.slc.cpg/sg35_9_cif.got.tgz:16227.got - 2010.04.14 02:02:04.
