data_PCOD8172313
_publ_section_title
;
Structure prediction by ZEFSAII (Michael W. Deem and Ramdas Pophale) SiO2 
 PCOD8172313
Probable space group: C M M 2
;
_chemical_formula_sum "Si O2"
_cell_formula_units_Z 64
_cell_length_a 28.466318
_cell_length_b 8.966638
_cell_length_c 15.529415
_cell_angle_alpha 90.000000
_cell_angle_beta 90.000000
_cell_angle_gamma 90.000000
_cell_volume 3963.839210
_symmetry_space_group_name_H-M "C M M 2"
_symmetry_group_IT_number 35
_symmetry_cell_setting 'orthorhombic'
loop_
_space_group_symop_operation_xyz
x,y,z
-x,-y,z
-x,y,z
x,-y,z
1/2+x,1/2+y,z
1/2-x,1/2-y,z
1/2-x,1/2+y,z
1/2+x,1/2-y,z
loop_
_atom_site_type_symbol
_atom_site_label
_atom_site_fract_x
_atom_site_fract_y
_atom_site_fract_z
Si Si1 0.947015 0.675815 0.475140
Si Si2 0.610982 0.822680 0.639019
Si Si3 0.944247 0.164571 0.307305
Si Si4 0.701437 0.675342 0.901938
Si Si5 0.945536 0.824661 0.116003
Si Si6 0.947535 0.322985 0.802684
Si Si7 0.110718 0.676822 0.966562
Si Si8 0.201561 0.824929 0.702961
O O1 0.948084 0.500000 0.474553
O O2 0.914091 0.733231 0.552007
O O3 0.925776 0.729451 0.383717
O O4 0.000000 0.737824 0.489258
O O5 0.579310 0.765771 0.718245
O O6 0.661291 0.744427 0.643443
O O7 0.617727 0.000000 0.641441
O O8 0.928741 0.219900 0.212564
O O9 0.000000 0.159153 0.307102
O O10 0.923791 0.000000 0.324737
O O11 0.704622 0.500000 0.918155
O O12 0.750000 0.750000 0.930783
O O13 0.661203 0.745545 0.961122
O O14 0.690614 0.713295 0.802394
O O15 0.000000 0.783438 0.101258
O O16 0.937484 0.000000 0.099531
O O17 0.914085 0.725272 0.054002
O O18 0.950010 0.500000 0.802287
O O19 0.920839 0.265290 0.887206
O O20 0.000000 0.255222 0.802686
O O21 0.117338 0.500000 0.964459
O O22 0.250000 0.750000 0.673892
O O23 0.205131 0.000000 0.687025
#
# Coordination Sequence:
#
# PCOD8172313 Si02
#       8
#     8   8   8   8   8   8   8   8
#     4   9  17  28  45  70  97 126 160 197 235 276
#     4  10  18  30  47  67  95 128 160 193 234 279
#     4   8  15  29  47  65  89 124 161 198 241 282
#     4  10  20  34  51  69  92 121 158 201 245 285
#     4   9  18  32  48  67  95 130 164 199 241 285
#     4   9  17  28  42  62  92 129 163 190 220 266
#     4  11  20  30  47  71  97 126 162 198 236 281
#     4  10  20  33  50  69  91 119 157 200 242 281
#
# _framework density 16.145962999999998
#
# number of rings (size 3 to 8) (size 9 to 14) (size 15 to 20)
#    0.000    2.500    1.250    2.625    0.000    4.250 
#    0.000    1.250    0.000    1.875    0.000    0.875 
#    0.000    2.000    0.000    0.000    0.000    0.000 
#
# Total GULP energy -396783.888570 kJ/mol
# GULP energy per Si atom -12399.496518 kJ/mol
# Density = 1.610921 g / cm^3
# Si number density = 16.145963 Si / 1000 Ang^3
#
#
#
# Elastic Constant Matrix: (Units=GPa)
#
#
# Indices 1 2 3 4 5 6 
#
# 1 110.1831 40.4313 56.6111 0.0000 0.0000 0.0000
# 2 40.4313 51.1823 35.4377 0.0000 0.0000 0.0000
# 3 56.6111 35.4377 118.2108 0.0000 0.0000 0.0000
# 4 0.0000 0.0000 0.0000 24.8420 0.0000 0.0000
# 5 0.0000 0.0000 0.0000 0.0000 11.7289 0.0000
# 6 0.0000 0.0000 0.0000 0.0000 0.0000 24.4649
#
#
#
# Elastic Compliance Matrix: (Units=1/GPa)
#
#
# Indices 1 2 3 4 5 6 
#
# 1 0.014388 -0.008322 -0.004396 0.000000 0.000000 0.000000
# 2 -0.008322 0.029470 -0.004849 0.000000 0.000000 0.000000
# 3 -0.004396 -0.004849 0.012018 0.000000 0.000000 0.000000
# 4 0.000000 0.000000 0.000000 0.040254 0.000000 0.000000
# 5 0.000000 0.000000 0.000000 0.000000 0.085259 0.000000
# 6 0.000000 0.000000 0.000000 0.000000 0.000000 0.040875
#
#
# Mechanical properties :
#
#
# Convention : Reuss Voigt Hill
#
# Bulk Modulus (GPa) = 48.21121 60.50404 54.35762
# Shear Modulus (GPa) = 18.91705 22.01358 20.46532
#
# Velocity S-wave (km/s) = 3.42662 3.69645 3.56409
# Velocity P-wave (km/s) = 6.75130 7.46812 7.11874
#
# Compressibility (1/GPa) = 0.02074206
#
# Stress axis : x y z
#
# Youngs Moduli (GPa) = 69.50203 33.93331 83.20789
#
# Poissons Ratio (x) = 0.28241 0.36574
# Poissons Ratio (y) = 0.57843 0.40347
# Poissons Ratio (z) = 0.30550 0.16454
#
# Static dielectric constant tensor:
#      x y z
#    x 2.973980 0.000000 0.000000 
#    y 0.000000 2.935620 0.000000 
#    z 0.000000 0.000000 3.120120 
# 
# 
# High freq. dielectric constant tensor:
#      x y z
#    x 1.603870 0.000000 0.000000 
#    y 0.000000 1.613750 0.000000 
#    z 0.000000 0.000000 1.610710 
# 
# From -- ./inp_files/16145.got.cif
#   From: 2010.03.12/outbox.cif.g09.slc.cpg/sg35_9_cif.got.tgz:16145.got - 2010.04.14 02:02:04.
