data_PCOD8172458
_publ_section_title
;
Structure prediction by ZEFSAII (Michael W. Deem and Ramdas Pophale) SiO2 
 PCOD8172458
Probable space group: C M M 2
;
_chemical_formula_sum "Si O2"
_cell_formula_units_Z 64
_cell_length_a 9.047642
_cell_length_b 30.848033
_cell_length_c 11.818801
_cell_angle_alpha 90.000000
_cell_angle_beta 90.000000
_cell_angle_gamma 90.000000
_cell_volume 3298.650512
_symmetry_space_group_name_H-M "C M M 2"
_symmetry_group_IT_number 35
_symmetry_cell_setting 'orthorhombic'
loop_
_space_group_symop_operation_xyz
x,y,z
-x,-y,z
-x,y,z
x,-y,z
1/2+x,1/2+y,z
1/2-x,1/2-y,z
1/2-x,1/2+y,z
1/2+x,1/2-y,z
loop_
_atom_site_type_symbol
_atom_site_label
_atom_site_fract_x
_atom_site_fract_y
_atom_site_fract_z
Si Si1 0.175222 0.547840 0.303570
Si Si2 0.175179 0.124405 0.909620
Si Si3 0.830431 0.792711 0.773599
Si Si4 0.173287 0.292870 0.304795
Si Si5 0.330598 0.950670 0.779932
Si Si6 0.829251 0.176420 0.526541
Si Si7 0.826337 0.625591 0.148373
Si Si8 0.170992 0.587082 0.538691
O O1 0.238883 0.500000 0.274411
O O2 0.232808 0.582660 0.212494
O O3 0.226531 0.560872 0.429224
O O4 0.000000 0.546983 0.300230
O O5 0.234639 0.164493 0.834337
O O6 0.229151 0.079658 0.855953
O O7 0.000000 0.123253 0.913526
O O8 0.237152 0.130513 0.034215
O O9 0.750000 0.750000 0.820266
O O10 0.807758 0.795704 0.639470
O O11 0.000000 0.787808 0.807110
O O12 0.250000 0.250000 0.253326
O O13 0.234156 0.301106 0.429842
O O14 0.211366 0.333321 0.225863
O O15 0.000000 0.284677 0.313767
O O16 0.500000 0.941248 0.812605
O O17 0.305772 0.943288 0.646812
O O18 0.287453 0.000000 0.807858
O O19 0.772818 0.128590 0.553223
O O20 0.000000 0.174421 0.489616
O O21 0.000000 0.622588 0.122517
O O22 0.000000 0.601606 0.524688
#
# Coordination Sequence:
#
# PCOD8172458 Si02
#       8
#     8   8   8   8   8   8   8   8
#     4   9  17  33  59  88 117 148 185 234 289 342
#     4  11  24  42  60  83 117 156 199 247 299 348
#     4  10  23  40  59  85 116 151 191 238 292 350
#     4  11  23  40  61  89 121 154 195 240 293 350
#     4  10  21  37  61  92 121 154 198 242 289 352
#     4  11  21  36  59  88 122 156 191 235 292 355
#     4  10  22  40  60  85 115 152 199 246 290 342
#     4  10  18  33  59  90 120 152 190 237 293 349
#
# _framework density 19.401873999999999
#
# number of rings (size 3 to 8) (size 9 to 14) (size 15 to 20)
#    0.000    1.750    2.500    1.875    0.000    6.750 
#    0.000    3.750    0.000    1.875    0.000    0.000 
#    0.000    0.000    0.000    0.000    0.000    0.000 
#
# Total GULP energy -396895.556659 kJ/mol
# GULP energy per Si atom -12402.986146 kJ/mol
# Density = 1.935771 g / cm^3
# Si number density = 19.401874 Si / 1000 Ang^3
#
#
#
# Elastic Constant Matrix: (Units=GPa)
#
#
# Indices 1 2 3 4 5 6 
#
# 1 66.6301 56.8215 49.5407 0.0000 0.0000 0.0000
# 2 56.8215 155.2774 46.6995 0.0000 0.0000 0.0000
# 3 49.5407 46.6995 100.5232 0.0000 0.0000 0.0000
# 4 0.0000 0.0000 0.0000 11.4073 0.0000 0.0000
# 5 0.0000 0.0000 0.0000 0.0000 27.7960 0.0000
# 6 0.0000 0.0000 0.0000 0.0000 0.0000 30.3984
#
#
#
# Elastic Compliance Matrix: (Units=1/GPa)
#
#
# Indices 1 2 3 4 5 6 
#
# 1 0.029709 -0.007519 -0.011149 0.000000 0.000000 0.000000
# 2 -0.007519 0.009389 -0.000656 0.000000 0.000000 0.000000
# 3 -0.011149 -0.000656 0.015747 0.000000 0.000000 0.000000
# 4 0.000000 0.000000 0.000000 0.087663 0.000000 0.000000
# 5 0.000000 0.000000 0.000000 0.000000 0.035976 0.000000
# 6 0.000000 0.000000 0.000000 0.000000 0.000000 0.032896
#
#
# Mechanical properties :
#
#
# Convention : Reuss Voigt Hill
#
# Bulk Modulus (GPa) = 61.73589 69.83935 65.78762
# Shear Modulus (GPa) = 19.57493 25.21161 22.39327
#
# Velocity S-wave (km/s) = 3.17980 3.60869 3.40101
# Velocity P-wave (km/s) = 6.73573 7.31012 7.02880
#
# Compressibility (1/GPa) = 0.01619803
#
# Stress axis : x y z
#
# Youngs Moduli (GPa) = 33.65930 106.50948 63.50316
#
# Poissons Ratio (x) = 0.80082 0.70798
# Poissons Ratio (y) = 0.25308 0.04167
# Poissons Ratio (z) = 0.37526 0.06990
#
# Static dielectric constant tensor:
#      x y z
#    x 3.393960 0.000000 0.000000 
#    y 0.000000 3.853400 0.000000 
#    z 0.000000 0.000000 3.522940 
# 
# 
# High freq. dielectric constant tensor:
#      x y z
#    x 1.737970 0.000000 0.000000 
#    y 0.000000 1.770650 0.000000 
#    z 0.000000 0.000000 1.754820 
# 
# From -- ./inp_files/11890.got.cif
#   From: 2010.03.12/outbox.cif.g09.slc.cpg/sg35_6_cif.got.tgz:11890.got - 2010.04.14 02:02:04.
