data_PCOD8172232
_publ_section_title
;
Structure prediction by ZEFSAII (Michael W. Deem and Ramdas Pophale) SiO2 
 PCOD8172232
Probable space group: C M M 2
;
_chemical_formula_sum "Si O2"
_cell_formula_units_Z 64
_cell_length_a 31.204961
_cell_length_b 8.725756
_cell_length_c 12.002236
_cell_angle_alpha 90.000000
_cell_angle_beta 90.000000
_cell_angle_gamma 90.000000
_cell_volume 3268.051342
_symmetry_space_group_name_H-M "C M M 2"
_symmetry_group_IT_number 35
_symmetry_cell_setting 'orthorhombic'
loop_
_space_group_symop_operation_xyz
x,y,z
-x,-y,z
-x,y,z
x,-y,z
1/2+x,1/2+y,z
1/2-x,1/2-y,z
1/2-x,1/2+y,z
1/2+x,1/2-y,z
loop_
_atom_site_type_symbol
_atom_site_label
_atom_site_fract_x
_atom_site_fract_y
_atom_site_fract_z
Si Si1 0.626022 0.817396 0.750000
Si Si2 0.546922 0.819196 0.610867
Si Si3 0.452850 0.819129 0.141919
Si Si4 0.323163 0.678482 0.383916
Si Si5 0.293933 0.819425 0.607790
Si Si6 0.627220 0.182483 0.003010
Si Si7 0.414720 0.178946 0.376552
Si Si8 0.205220 0.819594 0.139047
O O1 0.583098 0.749429 0.692427
O O2 0.667005 0.754529 0.682211
O O3 0.625397 0.000000 0.744686
O O4 0.627996 0.758552 0.876265
O O5 0.500000 0.750655 0.640883
O O6 0.556933 0.779098 0.483157
O O7 0.546014 0.000000 0.627087
O O8 0.500000 0.750804 0.112418
O O9 0.416454 0.753265 0.059388
O O10 0.441991 0.775559 0.268673
O O11 0.454372 0.000000 0.128186
O O12 0.317318 0.500000 0.409569
O O13 0.299671 0.773798 0.479455
O O14 0.372862 0.718098 0.379143
O O15 0.301732 0.725831 0.267457
O O16 0.250000 0.750000 0.655731
O O17 0.291425 0.000000 0.616847
O O18 0.667847 0.248963 0.065441
O O19 0.629191 0.000000 0.010673
O O20 0.401314 0.000000 0.375992
O O21 0.250000 0.750000 0.097433
O O22 0.205437 0.000000 0.121232
#
# Coordination Sequence:
#
# PCOD8172232 Si02
#       8
#     8   8   8   8   8   8   8   8
#     4   9  19  34  53  81 113 146 187 232 273 318
#     4   9  16  28  51  83 115 145 180 226 278 328
#     4   9  17  29  51  85 117 146 185 231 277 326
#     4  11  22  36  57  85 113 144 181 224 277 337
#     4  11  22  38  58  82 113 145 182 226 277 331
#     4  10  20  36  58  82 113 150 190 234 276 320
#     4  10  17  30  54  82 112 148 184 227 280 331
#     4  11  24  40  59  83 112 143 182 228 280 338
#
# _framework density 19.583535999999999
#
# number of rings (size 3 to 8) (size 9 to 14) (size 15 to 20)
#    0.000    2.000    2.500    1.875    0.000    5.000 
#    0.000    5.000    0.000    2.625    0.000    0.000 
#    0.000    0.000    0.000    0.000    0.000    0.000 
#
# Total GULP energy -396810.105391 kJ/mol
# GULP energy per Si atom -12400.315793 kJ/mol
# Density = 1.953896 g / cm^3
# Si number density = 19.583536 Si / 1000 Ang^3
#
#
#
# Elastic Constant Matrix: (Units=GPa)
#
#
# Indices 1 2 3 4 5 6 
#
# 1 197.8592 26.9616 81.7239 0.0000 0.0000 0.0000
# 2 26.9616 29.1206 28.2378 0.0000 0.0000 0.0000
# 3 81.7239 28.2378 146.9902 0.0000 0.0000 0.0000
# 4 0.0000 0.0000 0.0000 9.5813 0.0000 0.0000
# 5 0.0000 0.0000 0.0000 0.0000 1.9274 0.0000
# 6 0.0000 0.0000 0.0000 0.0000 0.0000 24.5828
#
#
#
# Elastic Compliance Matrix: (Units=1/GPa)
#
#
# Indices 1 2 3 4 5 6 
#
# 1 0.006799 -0.003232 -0.003160 0.000000 0.000000 0.000000
# 2 -0.003232 0.043737 -0.006606 0.000000 0.000000 0.000000
# 3 -0.003160 -0.006606 0.009829 0.000000 0.000000 0.000000
# 4 0.000000 0.000000 0.000000 0.104370 0.000000 0.000000
# 5 0.000000 0.000000 0.000000 0.000000 0.518835 0.000000
# 6 0.000000 0.000000 0.000000 0.000000 0.000000 0.040679
#
#
# Mechanical properties :
#
#
# Convention : Reuss Voigt Hill
#
# Bulk Modulus (GPa) = 29.09328 71.97963 50.53645
# Shear Modulus (GPa) = 6.56427 23.02140 14.79284
#
# Velocity S-wave (km/s) = 1.83281 3.43235 2.75138
# Velocity P-wave (km/s) = 4.40082 7.24865 5.99626
#
# Compressibility (1/GPa) = 0.03437220
#
# Stress axis : x y z
#
# Youngs Moduli (GPa) = 147.06976 22.86379 101.74167
#
# Poissons Ratio (x) = 0.07389 0.32146
# Poissons Ratio (y) = 0.47527 0.67206
# Poissons Ratio (z) = 0.46468 0.15103
#
# Static dielectric constant tensor:
#      x y z
#    x 3.964030 0.000000 0.000000 
#    y 0.000000 3.144860 0.000000 
#    z 0.000000 0.000000 3.712100 
# 
# 
# High freq. dielectric constant tensor:
#      x y z
#    x 1.782940 0.000000 0.000000 
#    y 0.000000 1.717730 0.000000 
#    z 0.000000 0.000000 1.763460 
# 
# From -- ./inp_files/11916.got.cif
#   From: 2010.03.12/outbox.cif.g09.slc.cpg/sg35_6_cif.got.tgz:11916.got - 2010.04.14 02:02:04.
