data_PCOD8172595
_publ_section_title
;
Structure prediction by ZEFSAII (Michael W. Deem and Ramdas Pophale) SiO2 
 PCOD8172595
Probable space group: C M M 2
;
_chemical_formula_sum "Si O2"
_cell_formula_units_Z 48
_cell_length_a 15.551093
_cell_length_b 9.286183
_cell_length_c 18.451691
_cell_angle_alpha 90.000000
_cell_angle_beta 90.000000
_cell_angle_gamma 90.000000
_cell_volume 2664.614149
_symmetry_space_group_name_H-M "C M M 2"
_symmetry_group_IT_number 35
_symmetry_cell_setting 'orthorhombic'
loop_
_space_group_symop_operation_xyz
x,y,z
-x,-y,z
-x,y,z
x,-y,z
1/2+x,1/2+y,z
1/2-x,1/2-y,z
1/2-x,1/2+y,z
1/2+x,1/2-y,z
loop_
_atom_site_type_symbol
_atom_site_label
_atom_site_fract_x
_atom_site_fract_y
_atom_site_fract_z
Si Si1 0.904284 0.159389 0.125000
Si Si2 0.000000 0.329315 0.840689
Si Si3 0.000000 0.671488 0.499450
Si Si4 0.334770 0.831962 0.753593
Si Si5 0.500000 0.829248 0.336222
Si Si6 0.165140 0.668226 0.585973
Si Si7 0.000000 0.164543 0.987874
Si Si8 0.666471 0.829683 0.248546
O O1 0.846688 0.278654 0.165099
O O2 0.000000 0.161421 0.159807
O O3 0.863334 0.000000 0.136411
O O4 0.915032 0.191722 0.038497
O O5 0.084461 0.272903 0.799172
O O6 0.000000 0.273581 0.922181
O O7 0.000000 0.500000 0.842005
O O8 0.000000 0.732197 0.417796
O O9 0.084785 0.728530 0.540306
O O10 0.000000 0.500000 0.501228
O O11 0.250000 0.750000 0.780800
O O12 0.354062 0.798492 0.669816
O O13 0.319560 0.000000 0.766767
O O14 0.585934 0.775979 0.296050
O O15 0.500000 0.000000 0.336994
O O16 0.179914 0.500000 0.572418
O O17 0.250000 0.750000 0.558925
O O18 0.000000 0.000000 0.959671
O O19 0.750000 0.750000 0.280924
O O20 0.679350 0.000000 0.250531
#
# Coordination Sequence:
#
# PCOD8172595 Si02
#       8
#     8   4   4   8   4   8   4   8
#     4   8  16  33  55  75  99 129 163 206 251 294
#     4  10  19  31  50  73 101 134 170 204 244 298
#     4   9  17  31  52  74  98 135 170 200 248 305
#     4   9  18  32  49  73 100 129 167 211 250 292
#     4   9  19  34  50  73 106 135 166 206 248 301
#     4   9  17  31  52  73  97 129 168 210 251 293
#     4   8  17  32  52  76 103 132 162 202 254 298
#     4  11  21  34  54  79 103 133 172 211 251 300
#
# _framework density 18.013866
#
# number of rings (size 3 to 8) (size 9 to 14) (size 15 to 20)
#    0.500    2.333    0.833    1.000    0.000    4.000 
#    0.000    1.250    0.000    9.000    0.000    0.000 
#    0.000    0.000    0.000    0.000    0.000    0.000 
#
# Total GULP energy -297463.997572 kJ/mol
# GULP energy per Si atom -12394.333232 kJ/mol
# Density = 1.797287 g / cm^3
# Si number density = 18.013866 Si / 1000 Ang^3
#
#
#
# Elastic Constant Matrix: (Units=GPa)
#
#
# Indices 1 2 3 4 5 6 
#
# 1 152.9337 47.7467 72.1799 0.0000 0.0000 0.0000
# 2 47.7467 50.9752 33.6696 0.0000 0.0000 0.0000
# 3 72.1799 33.6696 99.4698 0.0000 0.0000 0.0000
# 4 0.0000 0.0000 0.0000 18.6371 0.0000 0.0000
# 5 0.0000 0.0000 0.0000 0.0000 13.5386 0.0000
# 6 0.0000 0.0000 0.0000 0.0000 0.0000 30.7272
#
#
#
# Elastic Compliance Matrix: (Units=1/GPa)
#
#
# Indices 1 2 3 4 5 6 
#
# 1 0.011518 -0.006785 -0.006061 0.000000 0.000000 0.000000
# 2 -0.006785 0.029263 -0.004982 0.000000 0.000000 0.000000
# 3 -0.006061 -0.004982 0.016138 0.000000 0.000000 0.000000
# 4 0.000000 0.000000 0.000000 0.053656 0.000000 0.000000
# 5 0.000000 0.000000 0.000000 0.000000 0.073863 0.000000
# 6 0.000000 0.000000 0.000000 0.000000 0.000000 0.032544
#
#
# Mechanical properties :
#
#
# Convention : Reuss Voigt Hill
#
# Bulk Modulus (GPa) = 47.03024 67.84121 57.43573
# Shear Modulus (GPa) = 19.25109 22.56610 20.90860
#
# Velocity S-wave (km/s) = 3.27262 3.54320 3.41059
# Velocity P-wave (km/s) = 6.35960 7.38115 6.88933
#
# Compressibility (1/GPa) = 0.02126291
#
# Stress axis : x y z
#
# Youngs Moduli (GPa) = 86.82276 34.17277 61.96583
#
# Poissons Ratio (x) = 0.23185 0.37559
# Poissons Ratio (y) = 0.58907 0.30871
# Poissons Ratio (z) = 0.52625 0.17025
#
# Static dielectric constant tensor:
#      x y z
#    x 3.405580 0.000000 0.000000 
#    y 0.000000 3.055570 0.000000 
#    z 0.000000 0.000000 3.244700 
# 
# 
# High freq. dielectric constant tensor:
#      x y z
#    x 1.696850 0.000000 0.000000 
#    y 0.000000 1.676900 0.000000 
#    z 0.000000 0.000000 1.686550 
# 
# From -- ./inp_files/17141.got.cif
#   From: 2010.03.12/outbox.cif.g09.slc.cpg/sg35_9_cif.got.tgz:17141.got - 2010.04.14 02:02:04.
