data_PCOD8172607
_publ_section_title
;
Structure prediction by ZEFSAII (Michael W. Deem and Ramdas Pophale) SiO2 
 PCOD8172607
Probable space group: C M M 2
;
_chemical_formula_sum "Si O2"
_cell_formula_units_Z 40
_cell_length_a 16.639316
_cell_length_b 16.671032
_cell_length_c 7.666514
_cell_angle_alpha 90.000000
_cell_angle_beta 90.000000
_cell_angle_gamma 90.000000
_cell_volume 2126.649351
_symmetry_space_group_name_H-M "C M M 2"
_symmetry_group_IT_number 35
_symmetry_cell_setting 'orthorhombic'
loop_
_space_group_symop_operation_xyz
x,y,z
-x,-y,z
-x,y,z
x,-y,z
1/2+x,1/2+y,z
1/2-x,1/2-y,z
1/2-x,1/2+y,z
1/2+x,1/2-y,z
loop_
_atom_site_type_symbol
_atom_site_label
_atom_site_fract_x
_atom_site_fract_y
_atom_site_fract_z
Si Si1 0.729779 0.908311 0.152870
Si Si2 0.589563 0.092922 0.654527
Si Si3 0.411200 0.183572 0.004485
Si Si4 0.815295 0.180562 0.864447
Si Si5 0.751210 0.340715 0.505269
O O1 0.773253 0.895496 0.340156
O O2 0.701321 0.000000 0.135339
O O3 0.653880 0.846629 0.146323
O O4 0.793963 0.889633 0.000333
O O5 0.500000 0.111203 0.579684
O O6 0.593298 0.116318 0.856137
O O7 0.656341 0.142376 0.553219
O O8 0.610991 0.000000 0.637116
O O9 0.500000 0.185688 0.089463
O O10 0.396336 0.273146 0.922571
O O11 0.750000 0.250000 0.870503
O O12 0.811428 0.144506 0.666956
O O13 0.750000 0.250000 0.440696
#
# Coordination Sequence:
#
# PCOD8172607 Si02
#       5
#     8   8   8   8   8
#     4  11  22  33  53  82 110 141 178 222 273 325
#     4  10  19  31  50  78 111 140 167 211 272 327
#     4  10  19  35  56  79 108 142 180 222 272 330
#     4   9  18  36  53  75 104 141 183 225 263 316
#     4  11  19  34  54  74 108 148 185 220 258 321
#
# _framework density 18.80893
#
# number of rings (size 3 to 8) (size 9 to 14) (size 15 to 20)
#    0.000    1.800    6.000    3.000    0.000    2.800 
#    0.000    0.000    0.000    0.600    0.000    0.000 
#    0.000    2.400    0.000    0.000    0.000    0.000 
#
# Total GULP energy -247840.013546 kJ/mol
# GULP energy per Si atom -12392.000677 kJ/mol
# Density = 1.876612 g / cm^3
# Si number density = 18.808930 Si / 1000 Ang^3
#
#
#
# Elastic Constant Matrix: (Units=GPa)
#
#
# Indices 1 2 3 4 5 6 
#
# 1 52.8710 49.2340 13.4359 0.0000 0.0000 0.0000
# 2 49.2340 81.3010 37.6202 0.0000 0.0000 0.0000
# 3 13.4359 37.6202 106.1822 0.0000 0.0000 0.0000
# 4 0.0000 0.0000 0.0000 13.8270 0.0000 0.0000
# 5 0.0000 0.0000 0.0000 0.0000 14.8045 0.0000
# 6 0.0000 0.0000 0.0000 0.0000 0.0000 23.4703
#
#
#
# Elastic Compliance Matrix: (Units=1/GPa)
#
#
# Indices 1 2 3 4 5 6 
#
# 1 0.045306 -0.029643 0.004770 0.000000 0.000000 0.000000
# 2 -0.029643 0.034107 -0.008333 0.000000 0.000000 0.000000
# 3 0.004770 -0.008333 0.011767 0.000000 0.000000 0.000000
# 4 0.000000 0.000000 0.000000 0.072322 0.000000 0.000000
# 5 0.000000 0.000000 0.000000 0.000000 0.067547 0.000000
# 6 0.000000 0.000000 0.000000 0.000000 0.000000 0.042607
#
#
# Mechanical properties :
#
#
# Convention : Reuss Voigt Hill
#
# Bulk Modulus (GPa) = 40.37737 48.99270 44.68504
# Shear Modulus (GPa) = 14.35439 19.75796 17.05617
#
# Velocity S-wave (km/s) = 2.76555 3.24459 3.01460
# Velocity P-wave (km/s) = 5.63129 6.33566 5.99383
#
# Compressibility (1/GPa) = 0.02476635
#
# Stress axis : x y z
#
# Youngs Moduli (GPa) = 22.07215 29.31923 84.98571
#
# Poissons Ratio (x) = 0.86912 -0.40536
# Poissons Ratio (y) = 0.65429 0.70821
# Poissons Ratio (z) = -0.10528 0.24432
#
# Static dielectric constant tensor:
#      x y z
#    x 3.568860 0.000000 0.000000 
#    y 0.000000 3.475100 0.000000 
#    z 0.000000 0.000000 3.652150 
# 
# 
# High freq. dielectric constant tensor:
#      x y z
#    x 1.691300 0.000000 0.000000 
#    y 0.000000 1.719370 0.000000 
#    z 0.000000 0.000000 1.732770 
# 
# From -- ./inp_files/7143.got.cif
#   From: 2010.03.12/outbox.cif.g09.slc.cpg/sg35_4_cif.got.tgz:7143.got - 2010.04.14 02:02:04.
