data_PCOD8172207
_publ_section_title
;
Structure prediction by ZEFSAII (Michael W. Deem and Ramdas Pophale) SiO2 
 PCOD8172207
Probable space group: C M M 2
;
_chemical_formula_sum "Si O2"
_cell_formula_units_Z 40
_cell_length_a 8.698616
_cell_length_b 30.175464
_cell_length_c 7.602586
_cell_angle_alpha 90.000000
_cell_angle_beta 90.000000
_cell_angle_gamma 90.000000
_cell_volume 1995.563068
_symmetry_space_group_name_H-M "C M M 2"
_symmetry_group_IT_number 35
_symmetry_cell_setting 'orthorhombic'
loop_
_space_group_symop_operation_xyz
x,y,z
-x,-y,z
-x,y,z
x,-y,z
1/2+x,1/2+y,z
1/2-x,1/2-y,z
1/2-x,1/2+y,z
1/2+x,1/2-y,z
loop_
_atom_site_type_symbol
_atom_site_label
_atom_site_fract_x
_atom_site_fract_y
_atom_site_fract_z
Si Si1 0.820947 0.707914 0.633140
Si Si2 0.680449 0.705715 0.250516
Si Si3 0.816737 0.549730 0.952091
Si Si4 0.678961 0.110594 0.646713
Si Si5 0.817613 0.384883 0.252122
O O1 0.750000 0.750000 0.742589
O O2 0.725532 0.706368 0.454085
O O3 0.794973 0.660315 0.726032
O O4 0.000000 0.715583 0.592412
O O5 0.500000 0.705906 0.222945
O O6 0.750000 0.750000 0.157856
O O7 0.749708 0.660461 0.169683
O O8 0.749850 0.500000 0.954582
O O9 0.746957 0.575402 0.782038
O O10 0.000000 0.549230 0.942323
O O11 0.764399 0.574472 0.129783
O O12 0.500000 0.100232 0.632853
O O13 0.747846 0.105939 0.449422
O O14 0.000000 0.379168 0.256498
#
# Coordination Sequence:
#
# PCOD8172207 Si02
#       5
#     8   8   8   8   8
#     4   9  15  25  43  68  98 129 159 194 235 280
#     4  10  17  27  46  71  99 130 162 195 234 282
#     4   9  17  29  47  71  96 123 159 204 248 285
#     4   8  15  27  43  66  96 125 153 191 238 282
#     4   9  17  30  48  71  99 128 159 197 239 283
#
# _framework density 20.044468999999999
#
# number of rings (size 3 to 8) (size 9 to 14) (size 15 to 20)
#    0.000    3.000    0.000    4.800    0.000    0.800 
#    0.000    5.000    0.000    9.000    0.000    0.000 
#    0.000    0.000    0.000    0.000    0.000    0.000 
#
# Total GULP energy -247771.326056 kJ/mol
# GULP energy per Si atom -12388.566303 kJ/mol
# Density = 1.999885 g / cm^3
# Si number density = 20.044469 Si / 1000 Ang^3
#
#
#
# Elastic Constant Matrix: (Units=GPa)
#
#
# Indices 1 2 3 4 5 6 
#
# 1 52.9300 35.3394 18.0210 0.0000 0.0000 0.0000
# 2 35.3394 216.8330 79.4669 0.0000 0.0000 0.0000
# 3 18.0210 79.4669 88.0660 0.0000 0.0000 0.0000
# 4 0.0000 0.0000 0.0000 16.4262 0.0000 0.0000
# 5 0.0000 0.0000 0.0000 0.0000 6.0062 0.0000
# 6 0.0000 0.0000 0.0000 0.0000 0.0000 23.6032
#
#
#
# Elastic Compliance Matrix: (Units=1/GPa)
#
#
# Indices 1 2 3 4 5 6 
#
# 1 0.021398 -0.002813 -0.001840 0.000000 0.000000 0.000000
# 2 -0.002813 0.007260 -0.005976 0.000000 0.000000 0.000000
# 3 -0.001840 -0.005976 0.017124 0.000000 0.000000 0.000000
# 4 0.000000 0.000000 0.000000 0.060879 0.000000 0.000000
# 5 0.000000 0.000000 0.000000 0.000000 0.166493 0.000000
# 6 0.000000 0.000000 0.000000 0.000000 0.000000 0.042367
#
#
# Mechanical properties :
#
#
# Convention : Reuss Voigt Hill
#
# Bulk Modulus (GPa) = 40.77679 69.27595 55.02637
# Shear Modulus (GPa) = 14.49469 24.20723 19.35096
#
# Velocity S-wave (km/s) = 2.69202 3.47893 3.11046
# Velocity P-wave (km/s) = 5.48178 7.12555 6.35702
#
# Compressibility (1/GPa) = 0.02452376
#
# Stress axis : x y z
#
# Youngs Moduli (GPa) = 46.73440 137.73423 58.39749
#
# Poissons Ratio (x) = 0.38743 0.10747
# Poissons Ratio (y) = 0.13146 0.34897
# Poissons Ratio (z) = 0.08601 0.82308
#
# Static dielectric constant tensor:
#      x y z
#    x 3.230440 0.000000 0.000000 
#    y 0.000000 4.483210 0.000000 
#    z 0.000000 0.000000 3.498210 
# 
# 
# High freq. dielectric constant tensor:
#      x y z
#    x 1.733170 0.000000 0.000000 
#    y 0.000000 1.798780 0.000000 
#    z 0.000000 0.000000 1.751370 
# 
# From -- ./inp_files/4963.got.cif
#   From: 2010.03.12/outbox.cif.g09.slc.cpg/sg35_3_cif.got.tgz:4963.got - 2010.04.14 02:02:04.
