data_PCOD8172015
_publ_section_title
;
Structure prediction by ZEFSAII (Michael W. Deem and Ramdas Pophale) SiO2 
 PCOD8172015
Probable space group: P N N 2
;
_chemical_formula_sum "Si O2"
_cell_formula_units_Z 30
_cell_length_a 14.756335
_cell_length_b 8.913025
_cell_length_c 10.231453
_cell_angle_alpha 90.000000
_cell_angle_beta 90.000000
_cell_angle_gamma 90.000000
_cell_volume 1345.677355
_symmetry_space_group_name_H-M "P N N 2"
_symmetry_group_IT_number 34
_symmetry_cell_setting 'orthorhombic'
loop_
_space_group_symop_operation_xyz
x,y,z
-x,-y,z
1/2-x,1/2+y,1/2+z
1/2+x,1/2-y,1/2+z
loop_
_atom_site_type_symbol
_atom_site_label
_atom_site_fract_x
_atom_site_fract_y
_atom_site_fract_z
Si Si1 0.500000 0.500000 0.702540
Si Si2 0.900319 0.000078 0.452038
Si Si3 0.734544 0.041926 0.017255
Si Si4 0.595072 0.749671 0.555718
Si Si5 0.963553 0.336708 0.777847
Si Si6 0.701962 0.732052 0.103801
Si Si7 0.638610 0.276997 0.164031
Si Si8 0.703321 0.965789 0.738251
O O1 0.589658 0.476240 0.795171
O O2 0.515899 0.647058 0.616312
O O3 0.850209 0.157954 0.479650
O O4 0.850685 0.863038 0.524116
O O5 0.000000 0.000000 0.516941
O O6 0.677078 0.025508 0.882263
O O7 0.823254 0.144754 0.004555
O O8 0.668663 0.108022 0.129480
O O9 0.761329 0.874225 0.060556
O O10 0.551955 0.834700 0.433110
O O11 0.625098 0.872346 0.664049
O O12 0.871327 0.285706 0.709720
O O13 0.000000 0.500000 0.736644
O O14 0.041466 0.219391 0.733708
O O15 0.773284 0.612682 0.155810
O O16 0.708484 0.360129 0.260286
#
# Coordination Sequence:
#
# PCOD8172015 Si02
#       8
#     2   4   4   4   4   4   4   4
#     4  10  22  42  66  92 132 170 220 272 328 400
#     4   9  19  37  63  95 121 164 215 269 319 385
#     4  11  23  42  67  95 127 177 220 268 333 406
#     4  11  26  44  63 100 134 175 222 272 345 397
#     4  12  23  42  67 102 135 170 227 285 330 404
#     4  11  21  41  70  94 127 175 220 271 334 390
#     4  10  22  39  69  96 129 173 224 276 330 400
#     4  10  24  43  64  97 135 172 224 274 333 407
#
# _framework density 22.293606
#
# number of rings (size 3 to 8) (size 9 to 14) (size 15 to 20)
#    0.400    1.067    4.000    0.800    1.867    2.133 
#    4.800    0.000    0.000    0.000    0.000    0.000 
#    0.000    0.000    0.000    0.000    0.000    0.000 
#
# Total GULP energy -371841.292198 kJ/mol
# GULP energy per Si atom -12394.709740 kJ/mol
# Density = 2.224287 g / cm^3
# Si number density = 22.293606 Si / 1000 Ang^3
#
#
#
# Elastic Constant Matrix: (Units=GPa)
#
#
# Indices 1 2 3 4 5 6 
#
# 1 40.1507 17.9309 10.3514 0.0000 0.0000 0.0000
# 2 17.9309 113.1673 16.7190 0.0000 0.0000 0.0000
# 3 10.3514 16.7190 81.0580 0.0000 0.0000 0.0000
# 4 0.0000 0.0000 0.0000 28.4315 0.0000 0.0000
# 5 0.0000 0.0000 0.0000 0.0000 23.3914 0.0000
# 6 0.0000 0.0000 0.0000 0.0000 0.0000 34.2769
#
#
#
# Elastic Compliance Matrix: (Units=1/GPa)
#
#
# Indices 1 2 3 4 5 6 
#
# 1 0.027356 -0.003938 -0.002681 0.000000 0.000000 0.000000
# 2 -0.003938 0.009681 -0.001494 0.000000 0.000000 0.000000
# 3 -0.002681 -0.001494 0.012987 0.000000 0.000000 0.000000
# 4 0.000000 0.000000 0.000000 0.035172 0.000000 0.000000
# 5 0.000000 0.000000 0.000000 0.000000 0.042751 0.000000
# 6 0.000000 0.000000 0.000000 0.000000 0.000000 0.029174
#
#
# Mechanical properties :
#
#
# Convention : Reuss Voigt Hill
#
# Bulk Modulus (GPa) = 29.58760 36.04206 32.81483
# Shear Modulus (GPa) = 27.08341 29.84493 28.46417
#
# Velocity S-wave (km/s) = 3.48925 3.66282 3.57709
# Velocity P-wave (km/s) = 5.43450 5.83870 5.64022
#
# Compressibility (1/GPa) = 0.03379794
#
# Stress axis : x y z
#
# Youngs Moduli (GPa) = 36.55475 103.29301 76.99785
#
# Poissons Ratio (x) = 0.40681 0.20644
# Poissons Ratio (y) = 0.14397 0.11503
# Poissons Ratio (z) = 0.09801 0.15431
#
# Static dielectric constant tensor:
#      x y z
#    x 3.714890 0.000000 0.000000 
#    y 0.000000 4.055980 0.000000 
#    z 0.000000 0.000000 3.871220 
# 
# 
# High freq. dielectric constant tensor:
#      x y z
#    x 1.854010 0.000000 0.000000 
#    y 0.000000 1.889220 0.000000 
#    z 0.000000 0.000000 1.874330 
# 
# From -- ./inp_files/5656.got.cif
#   From: 2010.03.12/outbox.cif.g09.slc.cpg/sg34_3_cif.got.tgz:5656.got - 2010.04.14 01:56:33.
