data_PCOD8172734
_publ_section_title
;
Structure prediction by ZEFSAII (Michael W. Deem and Ramdas Pophale) SiO2 
 PCOD8172734
Probable space group: C M M 2
;
_chemical_formula_sum "Si O2"
_cell_formula_units_Z 64
_cell_length_a 32.436326
_cell_length_b 9.302331
_cell_length_c 11.291954
_cell_angle_alpha 90.000000
_cell_angle_beta 90.000000
_cell_angle_gamma 90.000000
_cell_volume 3407.160135
_symmetry_space_group_name_H-M "C M M 2"
_symmetry_group_IT_number 35
_symmetry_cell_setting 'orthorhombic'
loop_
_space_group_symop_operation_xyz
x,y,z
-x,-y,z
-x,y,z
x,-y,z
1/2+x,1/2+y,z
1/2-x,1/2-y,z
1/2-x,1/2+y,z
1/2+x,1/2-y,z
loop_
_atom_site_type_symbol
_atom_site_label
_atom_site_fract_x
_atom_site_fract_y
_atom_site_fract_z
Si Si1 0.894413 0.338721 0.412500
Si Si2 0.046615 0.845805 0.288931
Si Si3 0.678307 0.663443 0.305158
Si Si4 0.287421 0.338234 0.555846
Si Si5 0.293521 0.326444 0.044145
Si Si6 0.127246 0.331652 0.926219
Si Si7 0.452823 0.668886 0.017748
Si Si8 0.356970 0.840776 0.656361
O O1 0.891653 0.500000 0.368582
O O2 0.938019 0.272912 0.380023
O O3 0.861147 0.259135 0.330780
O O4 0.891240 0.325030 0.554101
O O5 0.051669 0.793967 0.155039
O O6 0.000000 0.868589 0.322359
O O7 0.069453 0.000000 0.306137
O O8 0.663101 0.500000 0.297696
O O9 0.709400 0.685200 0.414708
O O10 0.700386 0.707768 0.183257
O O11 0.279468 0.500000 0.590489
O O12 0.250000 0.250000 0.607389
O O13 0.325946 0.286594 0.630353
O O14 0.291599 0.500000 0.020238
O O15 0.250000 0.250000 0.005621
O O16 0.332742 0.255743 0.975486
O O17 0.130251 0.500000 0.965212
O O18 0.124686 0.318559 0.785004
O O19 0.083230 0.263764 0.960130
O O20 0.500000 0.708848 0.975818
O O21 0.445025 0.500000 0.992843
O O22 0.336430 0.000000 0.644919
#
# Coordination Sequence:
#
# PCOD8172734 Si02
#       8
#     8   8   8   8   8   8   8   8
#     4  10  19  32  53  78 103 134 172 215 262 311
#     4   9  18  33  53  78 109 140 166 200 254 318
#     4   9  19  34  52  76 106 138 170 210 264 323
#     4  10  19  32  53  78 102 132 171 215 263 314
#     4  11  23  38  56  80 112 147 183 224 272 326
#     4  11  23  39  58  79 107 145 188 231 273 318
#     4   9  19  37  60  85 113 144 178 219 270 326
#     4   9  21  39  53  70 101 139 177 217 261 310
#
# _framework density 18.783971000000001
#
# number of rings (size 3 to 8) (size 9 to 14) (size 15 to 20)
#    0.000    2.250    0.000    3.375    0.000    7.500 
#    0.000    1.875    0.000    3.750    0.000    0.000 
#    0.000    0.000    0.000    0.000    0.000    0.000 
#
# Total GULP energy -396469.703514 kJ/mol
# GULP energy per Si atom -12389.678235 kJ/mol
# Density = 1.874122 g / cm^3
# Si number density = 18.783971 Si / 1000 Ang^3
#
#
#
# Elastic Constant Matrix: (Units=GPa)
#
#
# Indices 1 2 3 4 5 6 
#
# 1 107.7482 77.8046 59.2620 0.0000 0.0000 0.0000
# 2 77.8046 113.9561 53.3331 0.0000 0.0000 0.0000
# 3 59.2620 53.3331 70.8853 0.0000 0.0000 0.0000
# 4 0.0000 0.0000 0.0000 49.4656 0.0000 0.0000
# 5 0.0000 0.0000 0.0000 0.0000 -1.0580 0.0000
# 6 0.0000 0.0000 0.0000 0.0000 0.0000 37.6992
#
#
#
# Elastic Compliance Matrix: (Units=1/GPa)
#
#
# Indices 1 2 3 4 5 6 
#
# 1 0.023117 -0.010400 -0.011501 0.000000 0.000000 0.000000
# 2 -0.010400 0.018224 -0.005017 0.000000 0.000000 0.000000
# 3 -0.011501 -0.005017 0.027497 0.000000 0.000000 0.000000
# 4 0.000000 0.000000 0.000000 0.020216 0.000000 0.000000
# 5 0.000000 0.000000 0.000000 0.000000 -0.945142 0.000000
# 6 0.000000 0.000000 0.000000 0.000000 0.000000 0.026526
#
#
# Mechanical properties :
#
#
# Convention : Reuss Voigt Hill
#
# Bulk Modulus (GPa) = 66.65934 74.82102 70.74018
# Shear Modulus (GPa) = -6.48739 24.03401 8.77331
#
# Velocity S-wave (km/s) = -1.86042 3.58088 2.16351
# Velocity P-wave (km/s) = 5.56323 7.55088 6.63194
#
# Compressibility (1/GPa) = 0.01500165
#
# Stress axis : x y z
#
# Youngs Moduli (GPa) = 43.25895 54.87227 36.36796
#
# Poissons Ratio (x) = 0.57070 0.41826
# Poissons Ratio (y) = 0.44991 0.18244
# Poissons Ratio (z) = 0.49752 0.27527
#
# Static dielectric constant tensor:
#      x y z
#    x 3.422540 0.000000 0.000000 
#    y 0.000000 3.738060 0.000000 
#    z 0.000000 0.000000 3.411510 
# 
# 
# High freq. dielectric constant tensor:
#      x y z
#    x 1.724300 0.000000 0.000000 
#    y 0.000000 1.742390 0.000000 
#    z 0.000000 0.000000 1.719580 
# 
# From -- ./inp_files/14606.got.cif
#   From: 2010.03.12/outbox.cif.g09.slc.cpg/sg35_8_cif.got.tgz:14606.got - 2010.04.14 02:02:04.
