data_PCOD8172551
_publ_section_title
;
Structure prediction by ZEFSAII (Michael W. Deem and Ramdas Pophale) SiO2 
 PCOD8172551
Probable space group: C M M 2
;
_chemical_formula_sum "Si O2"
_cell_formula_units_Z 64
_cell_length_a 28.442919
_cell_length_b 8.763198
_cell_length_c 15.745181
_cell_angle_alpha 90.000000
_cell_angle_beta 90.000000
_cell_angle_gamma 90.000000
_cell_volume 3924.501021
_symmetry_space_group_name_H-M "C M M 2"
_symmetry_group_IT_number 35
_symmetry_cell_setting 'orthorhombic'
loop_
_space_group_symop_operation_xyz
x,y,z
-x,-y,z
-x,y,z
x,-y,z
1/2+x,1/2+y,z
1/2-x,1/2-y,z
1/2-x,1/2+y,z
1/2+x,1/2-y,z
loop_
_atom_site_type_symbol
_atom_site_label
_atom_site_fract_x
_atom_site_fract_y
_atom_site_fract_z
Si Si1 0.799142 0.680925 0.469400
Si Si2 0.202022 0.820959 0.651827
Si Si3 0.053969 0.320111 0.887184
Si Si4 0.444084 0.176472 0.254674
Si Si5 0.051568 0.680362 0.070898
Si Si6 0.105527 0.177720 0.731901
Si Si7 0.389384 0.320533 0.405187
Si Si8 0.447242 0.318218 0.566828
O O1 0.795570 0.500000 0.471855
O O2 0.750000 0.750000 0.436813
O O3 0.811340 0.743813 0.562792
O O4 0.839537 0.734165 0.404501
O O5 0.250000 0.750000 0.689259
O O6 0.160827 0.788595 0.719299
O O7 0.208566 0.000000 0.634924
O O8 0.054989 0.500000 0.877068
O O9 0.088806 0.251236 0.818675
O O10 0.000000 0.262364 0.875218
O O11 0.074843 0.270542 0.980653
O O12 0.500000 0.203860 0.259978
O O13 0.424170 0.226121 0.160544
O O14 0.417653 0.284483 0.320095
O O15 0.432323 0.000000 0.274055
O O16 0.046058 0.500000 0.071587
O O17 0.000000 0.754730 0.070549
O O18 0.076981 0.246468 0.651998
O O19 0.095259 0.000000 0.737824
O O20 0.380385 0.500000 0.411807
O O21 0.419400 0.258264 0.484856
O O22 0.500000 0.253313 0.562628
O O23 0.446961 0.500000 0.567254
#
# Coordination Sequence:
#
# PCOD8172551 Si02
#       8
#     8   8   8   8   8   8   8   8
#     4  11  21  34  52  71  92 120 156 199 243 283
#     4  10  19  33  50  69  91 120 156 197 241 284
#     4   9  17  29  46  69  95 124 160 198 234 275
#     4   9  17  30  48  70  96 127 163 199 236 282
#     4   7  12  26  46  65  90 124 157 193 238 282
#     4  10  19  31  46  65  93 126 158 189 232 283
#     4  11  20  32  47  68  97 128 162 196 234 281
#     4   9  17  29  43  59  88 130 163 183 216 270
#
# _framework density 16.307804999999998
#
# number of rings (size 3 to 8) (size 9 to 14) (size 15 to 20)
#    0.000    2.500    1.250    4.875    0.000    2.500 
#    0.000    0.625    0.000    4.500    0.000    0.875 
#    0.000    2.000    0.000    0.000    0.000    0.000 
#
# Total GULP energy -396562.482844 kJ/mol
# GULP energy per Si atom -12392.577589 kJ/mol
# Density = 1.627069 g / cm^3
# Si number density = 16.307805 Si / 1000 Ang^3
#
#
#
# Elastic Constant Matrix: (Units=GPa)
#
#
# Indices 1 2 3 4 5 6 
#
# 1 93.9604 36.0364 55.1531 0.0000 0.0000 0.0000
# 2 36.0364 61.3423 30.7642 0.0000 0.0000 0.0000
# 3 55.1531 30.7642 130.0259 0.0000 0.0000 0.0000
# 4 0.0000 0.0000 0.0000 21.3761 0.0000 0.0000
# 5 0.0000 0.0000 0.0000 0.0000 11.0488 0.0000
# 6 0.0000 0.0000 0.0000 0.0000 0.0000 23.4509
#
#
#
# Elastic Compliance Matrix: (Units=1/GPa)
#
#
# Indices 1 2 3 4 5 6 
#
# 1 0.016449 -0.006994 -0.005323 0.000000 0.000000 0.000000
# 2 -0.006994 0.021471 -0.002113 0.000000 0.000000 0.000000
# 3 -0.005323 -0.002113 0.010448 0.000000 0.000000 0.000000
# 4 0.000000 0.000000 0.000000 0.046781 0.000000 0.000000
# 5 0.000000 0.000000 0.000000 0.000000 0.090508 0.000000
# 6 0.000000 0.000000 0.000000 0.000000 0.000000 0.042642
#
#
# Mechanical properties :
#
#
# Convention : Reuss Voigt Hill
#
# Bulk Modulus (GPa) = 51.25938 58.80402 55.03170
# Shear Modulus (GPa) = 18.96364 22.06682 20.51523
#
# Velocity S-wave (km/s) = 3.41377 3.68250 3.55068
# Velocity P-wave (km/s) = 6.85850 7.36330 7.11538
#
# Compressibility (1/GPa) = 0.01950862
#
# Stress axis : x y z
#
# Youngs Moduli (GPa) = 60.79223 46.57533 95.70796
#
# Poissons Ratio (x) = 0.32575 0.50941
# Poissons Ratio (y) = 0.42519 0.20226
# Poissons Ratio (z) = 0.32357 0.09843
#
# Static dielectric constant tensor:
#      x y z
#    x 3.059410 0.000000 0.000000 
#    y 0.000000 2.868020 0.000000 
#    z 0.000000 0.000000 3.282650 
# 
# 
# High freq. dielectric constant tensor:
#      x y z
#    x 1.608930 0.000000 0.000000 
#    y 0.000000 1.612540 0.000000 
#    z 0.000000 0.000000 1.621030 
# 
# From -- ./inp_files/17730.got.cif
#   From: 2010.03.12/outbox.cif.g09.slc.cpg/sg35_9_cif.got.tgz:17730.got - 2010.04.14 02:02:04.
