data_PCOD8172008
_publ_section_title
;
Structure prediction by ZEFSAII (Michael W. Deem and Ramdas Pophale) SiO2 
 PCOD8172008
Probable space group: P N N 2
;
_chemical_formula_sum "Si O2"
_cell_formula_units_Z 24
_cell_length_a 11.005873
_cell_length_b 5.975588
_cell_length_c 18.131947
_cell_angle_alpha 90.000000
_cell_angle_beta 90.000000
_cell_angle_gamma 90.000000
_cell_volume 1192.475828
_symmetry_space_group_name_H-M "P N N 2"
_symmetry_group_IT_number 34
_symmetry_cell_setting 'orthorhombic'
loop_
_space_group_symop_operation_xyz
x,y,z
-x,-y,z
1/2-x,1/2+y,1/2+z
1/2+x,1/2-y,1/2+z
loop_
_atom_site_type_symbol
_atom_site_label
_atom_site_fract_x
_atom_site_fract_y
_atom_site_fract_z
Si Si1 0.000000 0.500000 0.984771
Si Si2 0.376440 0.377998 0.571593
Si Si3 0.192926 0.176926 0.938768
Si Si4 0.686160 0.656473 0.310722
Si Si5 0.858452 0.035666 0.348450
Si Si6 0.270672 0.740910 0.213711
Si Si7 0.500000 0.000000 0.256446
O O1 0.918002 0.652568 0.933750
O O2 0.909512 0.352409 0.033181
O O3 0.500000 0.500000 0.599508
O O4 0.301659 0.545615 0.516915
O O5 0.290954 0.295279 0.636645
O O6 0.314577 0.319884 0.920125
O O7 0.153378 0.017608 0.873165
O O8 0.710886 0.524188 0.232811
O O9 0.572555 0.822088 0.305492
O O10 0.803325 0.788208 0.340777
O O11 0.820529 0.168982 0.275694
O O12 0.000000 0.000000 0.356084
O O13 0.400546 0.865510 0.208679
#
# Coordination Sequence:
#
# PCOD8172008 Si02
#       7
#     2   4   4   4   4   4   2
#     4  10  22  37  60  88 117 150 190 238 291 346
#     4  10  22  39  59  86 119 156 195 239 294 352
#     4  10  22  38  60  88 118 152 193 241 292 350
#     4  10  22  38  61  88 116 151 195 244 293 345
#     4  10  22  39  60  87 117 151 195 244 294 345
#     4  10  22  38  59  86 118 153 193 241 292 350
#     4  10  22  39  60  86 115 150 194 242 291 342
#
# _framework density 20.126197000000001
#
# number of rings (size 3 to 8) (size 9 to 14) (size 15 to 20)
#    0.000    2.000    0.000    2.000    0.000   29.333 
#    0.000    3.333    0.000    0.000    0.000    0.000 
#    0.000    0.000    0.000    0.000    0.000    0.000 
#
# Total GULP energy -297442.470639 kJ/mol
# GULP energy per Si atom -12393.436277 kJ/mol
# Density = 2.008039 g / cm^3
# Si number density = 20.126197 Si / 1000 Ang^3
#
#
#
# Elastic Constant Matrix: (Units=GPa)
#
#
# Indices 1 2 3 4 5 6 
#
# 1 168.4290 79.7179 75.2373 0.0000 0.0000 0.0000
# 2 79.7179 155.1287 59.0834 0.0000 0.0000 0.0000
# 3 75.2373 59.0834 93.8198 0.0000 0.0000 0.0000
# 4 0.0000 0.0000 0.0000 20.3358 0.0000 0.0000
# 5 0.0000 0.0000 0.0000 0.0000 25.9828 0.0000
# 6 0.0000 0.0000 0.0000 0.0000 0.0000 25.8004
#
#
#
# Elastic Compliance Matrix: (Units=1/GPa)
#
#
# Indices 1 2 3 4 5 6 
#
# 1 0.010078 -0.002764 -0.006341 0.000000 0.000000 0.000000
# 2 -0.002764 0.009238 -0.003601 0.000000 0.000000 0.000000
# 3 -0.006341 -0.003601 0.018012 0.000000 0.000000 0.000000
# 4 0.000000 0.000000 0.000000 0.049174 0.000000 0.000000
# 5 0.000000 0.000000 0.000000 0.000000 0.038487 0.000000
# 6 0.000000 0.000000 0.000000 0.000000 0.000000 0.038759
#
#
# Mechanical properties :
#
#
# Convention : Reuss Voigt Hill
#
# Bulk Modulus (GPa) = 83.92681 93.93942 88.93311
# Shear Modulus (GPa) = 25.88881 27.97974 26.93428
#
# Velocity S-wave (km/s) = 3.59043 3.73260 3.66221
# Velocity P-wave (km/s) = 7.67978 8.08412 7.88454
#
# Compressibility (1/GPa) = 0.01191514
#
# Stress axis : x y z
#
# Youngs Moduli (GPa) = 99.22595 108.24688 55.51779
#
# Poissons Ratio (x) = 0.29916 0.35207
# Poissons Ratio (y) = 0.27423 0.19995
# Poissons Ratio (z) = 0.62924 0.38985
#
# Static dielectric constant tensor:
#      x y z
#    x 3.625360 0.000000 0.000000 
#    y 0.000000 5.324340 0.000000 
#    z 0.000000 0.000000 3.538970 
# 
# 
# High freq. dielectric constant tensor:
#      x y z
#    x 1.779650 0.000000 0.000000 
#    y 0.000000 1.814220 0.000000 
#    z 0.000000 0.000000 1.764660 
# 
# From -- ./inp_files/7201.got.cif
#   From: 2010.03.12/outbox.cif.g09.slc.cpg/sg34_4_cif.got.tgz:7201.got - 2010.04.14 01:56:33.
