data_PCOD8172688
_publ_section_title
;
Structure prediction by ZEFSAII (Michael W. Deem and Ramdas Pophale) SiO2 
 PCOD8172688
Probable space group: C M M 2
;
_chemical_formula_sum "Si O2"
_cell_formula_units_Z 64
_cell_length_a 8.900355
_cell_length_b 28.493613
_cell_length_c 12.918040
_cell_angle_alpha 90.000000
_cell_angle_beta 90.000000
_cell_angle_gamma 90.000000
_cell_volume 3276.057198
_symmetry_space_group_name_H-M "C M M 2"
_symmetry_group_IT_number 35
_symmetry_cell_setting 'orthorhombic'
loop_
_space_group_symop_operation_xyz
x,y,z
-x,-y,z
-x,y,z
x,-y,z
1/2+x,1/2+y,z
1/2-x,1/2-y,z
1/2-x,1/2+y,z
1/2+x,1/2-y,z
loop_
_atom_site_type_symbol
_atom_site_label
_atom_site_fract_x
_atom_site_fract_y
_atom_site_fract_z
Si Si1 0.164655 0.444585 0.490650
Si Si2 0.827294 0.144350 0.797851
Si Si3 0.178813 0.699227 0.383664
Si Si4 0.175788 0.947856 0.694825
Si Si5 0.675163 0.299847 0.589381
Si Si6 0.677869 0.146344 0.179486
Si Si7 0.177681 0.699212 0.978264
Si Si8 0.179344 0.551653 0.263804
O O1 0.148250 0.500000 0.497903
O O2 0.264143 0.427121 0.586323
O O3 0.237403 0.432831 0.378316
O O4 0.000000 0.420848 0.499996
O O5 0.785481 0.089005 0.786342
O O6 0.798708 0.167367 0.687090
O O7 0.717602 0.167137 0.880822
O O8 0.000000 0.151256 0.832928
O O9 0.250000 0.750000 0.371734
O O10 0.244268 0.676306 0.489307
O O11 0.234615 0.669980 0.284941
O O12 0.000000 0.702136 0.389570
O O13 0.000000 0.950817 0.679549
O O14 0.240460 0.000000 0.722255
O O15 0.500000 0.292256 0.565110
O O16 0.750000 0.250000 0.614198
O O17 0.500000 0.148786 0.172499
O O18 0.731047 0.091536 0.181721
O O19 0.744515 0.173458 0.080303
O O20 0.250000 0.750000 0.966502
O O21 0.000000 0.705539 0.983876
O O22 0.242070 0.500000 0.231202
O O23 0.000000 0.549302 0.270703
#
# Coordination Sequence:
#
# PCOD8172688 Si02
#       8
#     8   8   8   8   8   8   8   8
#     4   8  14  25  45  74 105 139 179 220 258 303
#     4  10  22  38  56  79 108 142 184 226 270 324
#     4  10  19  32  51  75 106 138 169 210 261 320
#     4   9  18  33  52  75 108 148 183 218 266 321
#     4  10  20  34  51  74 105 136 170 215 266 322
#     4   9  19  33  51  78 107 138 178 218 263 319
#     4  11  23  40  61  82 106 137 180 231 279 328
#     4   8  14  27  48  75 109 144 176 214 262 314
#
# _framework density 19.535678000000001
#
# number of rings (size 3 to 8) (size 9 to 14) (size 15 to 20)
#    0.000    2.625    0.000    3.375    1.750    2.500 
#    0.000    2.500    0.000    2.250    0.000    0.000 
#    0.000    0.000    0.000    0.000    0.000    0.000 
#
# Total GULP energy -396584.416346 kJ/mol
# GULP energy per Si atom -12393.263011 kJ/mol
# Density = 1.949121 g / cm^3
# Si number density = 19.535678 Si / 1000 Ang^3
#
#
#
# Elastic Constant Matrix: (Units=GPa)
#
#
# Indices 1 2 3 4 5 6 
#
# 1 54.7392 31.5648 34.6624 0.0000 0.0000 0.0000
# 2 31.5648 107.5430 65.4643 0.0000 0.0000 0.0000
# 3 34.6624 65.4643 105.3318 0.0000 0.0000 0.0000
# 4 0.0000 0.0000 0.0000 28.9692 0.0000 0.0000
# 5 0.0000 0.0000 0.0000 0.0000 20.4971 0.0000
# 6 0.0000 0.0000 0.0000 0.0000 0.0000 10.1063
#
#
#
# Elastic Compliance Matrix: (Units=1/GPa)
#
#
# Indices 1 2 3 4 5 6 
#
# 1 0.023906 -0.003584 -0.005640 0.000000 0.000000 0.000000
# 2 -0.003584 0.015495 -0.008451 0.000000 0.000000 0.000000
# 3 -0.005640 -0.008451 0.016602 0.000000 0.000000 0.000000
# 4 0.000000 0.000000 0.000000 0.034519 0.000000 0.000000
# 5 0.000000 0.000000 0.000000 0.000000 0.048787 0.000000
# 6 0.000000 0.000000 0.000000 0.000000 0.000000 0.098948
#
#
# Mechanical properties :
#
#
# Convention : Reuss Voigt Hill
#
# Bulk Modulus (GPa) = 48.41555 58.99968 53.70761
# Shear Modulus (GPa) = 17.82592 20.97603 19.40098
#
# Velocity S-wave (km/s) = 3.02401 3.28034 3.15478
# Velocity P-wave (km/s) = 6.08521 6.67937 6.38920
#
# Compressibility (1/GPa) = 0.02065452
#
# Stress axis : x y z
#
# Youngs Moduli (GPa) = 41.83024 64.53874 60.23403
#
# Poissons Ratio (x) = 0.23128 0.33971
# Poissons Ratio (y) = 0.14990 0.50902
# Poissons Ratio (z) = 0.23591 0.54540
#
# Static dielectric constant tensor:
#      x y z
#    x 3.385740 0.000000 0.000000 
#    y 0.000000 3.912250 0.000000 
#    z 0.000000 0.000000 3.669060 
# 
# 
# High freq. dielectric constant tensor:
#      x y z
#    x 1.731670 0.000000 0.000000 
#    y 0.000000 1.773190 0.000000 
#    z 0.000000 0.000000 1.747780 
# 
# From -- ./inp_files/11913.got.cif
#   From: 2010.03.12/outbox.cif.g09.slc.cpg/sg35_6_cif.got.tgz:11913.got - 2010.04.14 02:02:04.
