data_PCOD8172509
_publ_section_title
;
Structure prediction by ZEFSAII (Michael W. Deem and Ramdas Pophale) SiO2 
 PCOD8172509
Probable space group: C M M 2
;
_chemical_formula_sum "Si O2"
_cell_formula_units_Z 64
_cell_length_a 8.883325
_cell_length_b 28.844050
_cell_length_c 15.688514
_cell_angle_alpha 90.000000
_cell_angle_beta 90.000000
_cell_angle_gamma 90.000000
_cell_volume 4019.884736
_symmetry_space_group_name_H-M "C M M 2"
_symmetry_group_IT_number 35
_symmetry_cell_setting 'orthorhombic'
loop_
_space_group_symop_operation_xyz
x,y,z
-x,-y,z
-x,y,z
x,-y,z
1/2+x,1/2+y,z
1/2-x,1/2-y,z
1/2-x,1/2+y,z
1/2+x,1/2-y,z
loop_
_atom_site_type_symbol
_atom_site_label
_atom_site_fract_x
_atom_site_fract_y
_atom_site_fract_z
Si Si1 0.321761 0.550684 0.226810
Si Si2 0.323758 0.700184 0.995509
Si Si3 0.322335 0.800442 0.642709
Si Si4 0.177976 0.200003 0.320676
Si Si5 0.323699 0.299963 0.808616
Si Si6 0.674030 0.852999 0.473625
Si Si7 0.820976 0.144700 0.155603
Si Si8 0.327838 0.051124 0.404373
O O1 0.500000 0.550670 0.225506
O O2 0.260118 0.500000 0.196980
O O3 0.260483 0.591790 0.165742
O O4 0.273991 0.561477 0.322892
O O5 0.500000 0.707980 0.008757
O O6 0.250000 0.750000 0.006910
O O7 0.292495 0.677462 0.901823
O O8 0.257784 0.665415 0.066965
O O9 0.500000 0.794706 0.651371
O O10 0.250000 0.750000 0.627867
O O11 0.256559 0.825321 0.728629
O O12 0.276168 0.833624 0.565083
O O13 0.250000 0.250000 0.327779
O O14 0.224943 0.169886 0.401470
O O15 0.237321 0.175560 0.234489
O O16 0.000000 0.205222 0.320269
O O17 0.500000 0.296156 0.789848
O O18 0.250000 0.250000 0.812281
O O19 0.500000 0.840956 0.455235
O O20 0.702065 0.908684 0.474028
O O21 0.000000 0.144630 0.155018
O O22 0.500000 0.052819 0.373289
O O23 0.290356 0.000000 0.443231
#
# Coordination Sequence:
#
# PCOD8172509 Si02
#       8
#     8   8   8   8   8   8   8   8
#     4   9  16  28  46  65  85 111 145 182 218 256
#     4   9  17  29  44  62  87 114 143 176 212 254
#     4  10  19  30  44  62  86 114 143 178 214 255
#     4  11  21  31  43  60  87 122 152 179 210 248
#     4   9  16  27  44  63  82 109 141 178 218 254
#     4  10  20  32  45  64  88 116 148 179 216 260
#     4   9  17  29  43  63  88 115 145 177 213 252
#     4   9  17  30  47  65  86 111 142 183 224 258
#
# _framework density 15.920854
#
# number of rings (size 3 to 8) (size 9 to 14) (size 15 to 20)
#    0.000    2.500    1.250    2.625    0.000    2.500 
#    0.000    1.250    0.000    0.000    0.000    0.875 
#    0.000    1.000    0.000    0.000    0.000    0.000 
#
# Total GULP energy -396540.724070 kJ/mol
# GULP energy per Si atom -12391.897627 kJ/mol
# Density = 1.588462 g / cm^3
# Si number density = 15.920854 Si / 1000 Ang^3
#
#
#
# Elastic Constant Matrix: (Units=GPa)
#
#
# Indices 1 2 3 4 5 6 
#
# 1 40.1415 23.1947 31.8795 0.0000 0.0000 0.0000
# 2 23.1947 114.0261 67.5234 0.0000 0.0000 0.0000
# 3 31.8795 67.5234 138.9194 0.0000 0.0000 0.0000
# 4 0.0000 0.0000 0.0000 12.4816 0.0000 0.0000
# 5 0.0000 0.0000 0.0000 0.0000 19.2993 0.0000
# 6 0.0000 0.0000 0.0000 0.0000 0.0000 9.8386
#
#
#
# Elastic Compliance Matrix: (Units=1/GPa)
#
#
# Indices 1 2 3 4 5 6 
#
# 1 0.031157 -0.002954 -0.005714 0.000000 0.000000 0.000000
# 2 -0.002954 0.012595 -0.005444 0.000000 0.000000 0.000000
# 3 -0.005714 -0.005444 0.011156 0.000000 0.000000 0.000000
# 4 0.000000 0.000000 0.000000 0.080118 0.000000 0.000000
# 5 0.000000 0.000000 0.000000 0.000000 0.051815 0.000000
# 6 0.000000 0.000000 0.000000 0.000000 0.000000 0.101640
#
#
# Mechanical properties :
#
#
# Convention : Reuss Voigt Hill
#
# Bulk Modulus (GPa) = 37.47685 59.80913 48.64299
# Shear Modulus (GPa) = 15.35634 19.68988 17.52311
#
# Velocity S-wave (km/s) = 3.10908 3.52054 3.32119
# Velocity P-wave (km/s) = 6.03979 7.36028 6.73249
#
# Compressibility (1/GPa) = 0.02668314
#
# Stress axis : x y z
#
# Youngs Moduli (GPa) = 32.09579 79.39971 89.64016
#
# Poissons Ratio (x) = 0.23455 0.51221
# Poissons Ratio (y) = 0.09481 0.48798
# Poissons Ratio (z) = 0.18340 0.43224
#
# Static dielectric constant tensor:
#      x y z
#    x 2.993120 0.000000 0.000000 
#    y 0.000000 3.235590 0.000000 
#    z 0.000000 0.000000 3.464790 
# 
# 
# High freq. dielectric constant tensor:
#      x y z
#    x 1.608330 0.000000 0.000000 
#    y 0.000000 1.594330 0.000000 
#    z 0.000000 0.000000 1.603280 
# 
# From -- ./inp_files/16219.got.cif
#   From: 2010.03.12/outbox.cif.g09.slc.cpg/sg35_9_cif.got.tgz:16219.got - 2010.04.14 02:02:04.
