data_PCOD8172984
_publ_section_title
;
Structure prediction by ZEFSAII (Michael W. Deem and Ramdas Pophale) SiO2 
 PCOD8172984
Probable space group: C M M 2
;
_chemical_formula_sum "Si O2"
_cell_formula_units_Z 64
_cell_length_a 9.104054
_cell_length_b 30.122048
_cell_length_c 14.978218
_cell_angle_alpha 90.000000
_cell_angle_beta 90.000000
_cell_angle_gamma 90.000000
_cell_volume 4107.517936
_symmetry_space_group_name_H-M "C M M 2"
_symmetry_group_IT_number 35
_symmetry_cell_setting 'orthorhombic'
loop_
_space_group_symop_operation_xyz
x,y,z
-x,-y,z
-x,y,z
x,-y,z
1/2+x,1/2+y,z
1/2-x,1/2-y,z
1/2-x,1/2+y,z
1/2+x,1/2-y,z
loop_
_atom_site_type_symbol
_atom_site_label
_atom_site_fract_x
_atom_site_fract_y
_atom_site_fract_z
Si Si1 0.829807 0.380302 0.508280
Si Si2 0.670495 0.447785 0.843187
Si Si3 0.835826 0.447194 0.019382
Si Si4 0.171380 0.618286 0.717194
Si Si5 0.329186 0.551666 0.387050
Si Si6 0.833522 0.793238 0.719826
Si Si7 0.663127 0.552798 0.187962
Si Si8 0.834567 0.792813 0.507240
O O1 0.801190 0.387895 0.612514
O O2 0.770691 0.423054 0.457439
O O3 0.745770 0.336900 0.472617
O O4 0.000000 0.373405 0.487614
O O5 0.500000 0.434982 0.840020
O O6 0.695074 0.500000 0.830314
O O7 0.756249 0.424052 0.763630
O O8 0.735394 0.431160 0.937480
O O9 0.837664 0.500000 0.023384
O O10 0.771169 0.427907 0.112193
O O11 0.000000 0.428351 0.006760
O O12 0.248198 0.663065 0.753070
O O13 0.000000 0.620919 0.740550
O O14 0.500000 0.562019 0.404545
O O15 0.296380 0.500000 0.400435
O O16 0.284317 0.567029 0.286865
O O17 0.750000 0.750000 0.758128
O O18 0.833698 0.791505 0.613565
O O19 0.000000 0.794003 0.756691
O O20 0.500000 0.571484 0.169302
O O21 0.657884 0.500000 0.183464
O O22 0.750000 0.750000 0.468778
O O23 0.000000 0.792488 0.469962
#
# Coordination Sequence:
#
# PCOD8172984 Si02
#       8
#     8   8   8   8   8   8   8   8
#     4  10  20  31  43  61  86 116 149 183 218 256
#     4  10  20  32  45  61  83 114 150 184 217 256
#     4   9  16  26  42  63  84 106 134 172 218 262
#     4  10  20  32  44  60  85 116 149 184 219 255
#     4   9  18  31  45  61  84 116 151 184 217 254
#     4   9  16  27  44  64  84 107 137 174 217 261
#     4   8  14  26  43  61  81 106 137 174 216 259
#     4   9  16  27  44  63  83 107 137 175 218 261
#
# _framework density 15.581186000000001
#
# number of rings (size 3 to 8) (size 9 to 14) (size 15 to 20)
#    0.000    2.750    0.000    3.000    0.000    8.000 
#    0.000    3.750    0.000    0.000    0.000    0.000 
#    0.000    1.000    0.000    5.500    0.000    6.125 
#
# Total GULP energy -396757.208942 kJ/mol
# GULP energy per Si atom -12398.662779 kJ/mol
# Density = 1.554572 g / cm^3
# Si number density = 15.581186 Si / 1000 Ang^3
#
#
#
# Elastic Constant Matrix: (Units=GPa)
#
#
# Indices 1 2 3 4 5 6 
#
# 1 133.7298 52.7787 52.4748 0.0000 0.0000 0.0000
# 2 52.7787 64.5532 37.3585 0.0000 0.0000 0.0000
# 3 52.4748 37.3585 57.7610 0.0000 0.0000 0.0000
# 4 0.0000 0.0000 0.0000 0.8843 0.0000 0.0000
# 5 0.0000 0.0000 0.0000 0.0000 24.6368 0.0000
# 6 0.0000 0.0000 0.0000 0.0000 0.0000 28.7669
#
#
#
# Elastic Compliance Matrix: (Units=1/GPa)
#
#
# Indices 1 2 3 4 5 6 
#
# 1 0.012942 -0.006036 -0.007853 0.000000 0.000000 0.000000
# 2 -0.006036 0.027574 -0.012350 0.000000 0.000000 0.000000
# 3 -0.007853 -0.012350 0.032435 0.000000 0.000000 0.000000
# 4 0.000000 0.000000 0.000000 1.130882 0.000000 0.000000
# 5 0.000000 0.000000 0.000000 0.000000 0.040590 0.000000
# 6 0.000000 0.000000 0.000000 0.000000 0.000000 0.034762
#
#
# Mechanical properties :
#
#
# Convention : Reuss Voigt Hill
#
# Bulk Modulus (GPa) = 48.84930 60.14088 54.49509
# Shear Modulus (GPa) = 3.73556 18.41972 11.07764
#
# Velocity S-wave (km/s) = 1.55006 3.44201 2.66928
# Velocity P-wave (km/s) = 5.88414 7.38097 6.67465
#
# Compressibility (1/GPa) = 0.02047112
#
# Stress axis : x y z
#
# Youngs Moduli (GPa) = 77.27046 36.26637 30.83098
#
# Poissons Ratio (x) = 0.21891 0.24212
# Poissons Ratio (y) = 0.46643 0.38077
# Poissons Ratio (z) = 0.60681 0.44790
#
# Static dielectric constant tensor:
#      x y z
#    x 3.198470 0.000000 0.000000 
#    y 0.000000 2.789370 0.000000 
#    z 0.000000 0.000000 2.812020 
# 
# 
# High freq. dielectric constant tensor:
#      x y z
#    x 1.616000 0.000000 0.000000 
#    y 0.000000 1.568960 0.000000 
#    z 0.000000 0.000000 1.566500 
# 
# From -- ./inp_files/16195.got.cif
#   From: 2010.03.12/outbox.cif.g09.slc.cpg/sg35_9_cif.got.tgz:16195.got - 2010.04.14 02:02:04.
