data_PCOD8172393
_publ_section_title
;
Structure prediction by ZEFSAII (Michael W. Deem and Ramdas Pophale) SiO2 
 PCOD8172393
Probable space group: C M M 2
;
_chemical_formula_sum "Si O2"
_cell_formula_units_Z 48
_cell_length_a 8.707045
_cell_length_b 18.152746
_cell_length_c 15.527896
_cell_angle_alpha 90.000000
_cell_angle_beta 90.000000
_cell_angle_gamma 90.000000
_cell_volume 2454.289184
_symmetry_space_group_name_H-M "C M M 2"
_symmetry_group_IT_number 35
_symmetry_cell_setting 'orthorhombic'
loop_
_space_group_symop_operation_xyz
x,y,z
-x,-y,z
-x,y,z
x,-y,z
1/2+x,1/2+y,z
1/2-x,1/2-y,z
1/2-x,1/2+y,z
1/2+x,1/2-y,z
loop_
_atom_site_type_symbol
_atom_site_label
_atom_site_fract_x
_atom_site_fract_y
_atom_site_fract_z
Si Si1 0.317608 0.831517 0.492910
Si Si2 0.319267 0.330485 0.319401
Si Si3 0.321315 0.584711 0.837460
Si Si4 0.180286 0.169950 0.665572
Si Si5 0.821962 0.413882 0.164140
Si Si6 0.320002 0.830173 0.993969
O O1 0.500000 0.832314 0.491214
O O2 0.250000 0.750000 0.494018
O O3 0.252663 0.868297 0.405517
O O4 0.255526 0.868658 0.580811
O O5 0.500000 0.322272 0.331134
O O6 0.250000 0.250000 0.301128
O O7 0.281654 0.384001 0.241064
O O8 0.500000 0.594603 0.858177
O O9 0.270928 0.500000 0.838857
O O10 0.280272 0.616782 0.744271
O O11 0.226218 0.628082 0.907969
O O12 0.250000 0.250000 0.684944
O O13 0.000000 0.179036 0.650337
O O14 0.793044 0.500000 0.153759
O O15 0.000000 0.395947 0.182935
O O16 0.763846 0.376012 0.076566
O O17 0.500000 0.821278 0.994579
O O18 0.250000 0.750000 0.997036
#
# Coordination Sequence:
#
# PCOD8172393 Si02
#       6
#     8   8   8   8   8   8
#     4  10  18  31  53  80 110 144 184 232 282 328
#     4  11  21  35  57  84 113 147 189 233 278 329
#     4  10  22  39  58  82 114 150 186 229 280 331
#     4  10  19  33  54  80 110 144 185 232 279 330
#     4  10  22  40  59  82 114 148 183 227 279 332
#     4  11  23  39  61  87 113 145 185 230 277 328
#
# _framework density 19.557597999999999
#
# number of rings (size 3 to 8) (size 9 to 14) (size 15 to 20)
#    0.000    1.667    0.000    7.500    0.000    6.667 
#    0.000    0.833    0.000    3.000    0.000    0.000 
#    0.000    0.000    0.000    0.000    0.000    0.000 
#
# Total GULP energy -297638.149934 kJ/mol
# GULP energy per Si atom -12401.589581 kJ/mol
# Density = 1.951308 g / cm^3
# Si number density = 19.557598 Si / 1000 Ang^3
#
#
#
# Elastic Constant Matrix: (Units=GPa)
#
#
# Indices 1 2 3 4 5 6 
#
# 1 120.3244 44.6938 77.6381 0.0000 0.0000 0.0000
# 2 44.6938 106.5095 65.9584 0.0000 0.0000 0.0000
# 3 77.6381 65.9584 169.4197 0.0000 0.0000 0.0000
# 4 0.0000 0.0000 0.0000 -0.6265 0.0000 0.0000
# 5 0.0000 0.0000 0.0000 0.0000 60.8086 0.0000
# 6 0.0000 0.0000 0.0000 0.0000 0.0000 0.8318
#
#
#
# Elastic Compliance Matrix: (Units=1/GPa)
#
#
# Indices 1 2 3 4 5 6 
#
# 1 0.012172 -0.002179 -0.004730 0.000000 0.000000 0.000000
# 2 -0.002179 0.012761 -0.003970 0.000000 0.000000 0.000000
# 3 -0.004730 -0.003970 0.009615 0.000000 0.000000 0.000000
# 4 0.000000 0.000000 0.000000 -1.596153 0.000000 0.000000
# 5 0.000000 0.000000 0.000000 0.000000 0.016445 0.000000
# 6 0.000000 0.000000 0.000000 0.000000 0.000000 1.202276
#
#
# Mechanical properties :
#
#
# Convention : Reuss Voigt Hill
#
# Bulk Modulus (GPa) = 78.17150 85.87047 82.02099
# Shear Modulus (GPa) = -15.77973 26.06700 5.14363
#
# Velocity S-wave (km/s) = -2.84356 3.65476 1.62348
# Velocity P-wave (km/s) = 5.41069 7.86203 6.74859
#
# Compressibility (1/GPa) = 0.01279239
#
# Stress axis : x y z
#
# Youngs Moduli (GPa) = 82.15654 78.36070 103.99886
#
# Poissons Ratio (x) = 0.17072 0.49188
# Poissons Ratio (y) = 0.17899 0.41287
# Poissons Ratio (z) = 0.38857 0.31109
#
# Static dielectric constant tensor:
#      x y z
#    x 3.698990 0.000000 0.000000 
#    y 0.000000 3.384480 0.000000 
#    z 0.000000 0.000000 4.230350 
# 
# 
# High freq. dielectric constant tensor:
#      x y z
#    x 1.770780 0.000000 0.000000 
#    y 0.000000 1.738790 0.000000 
#    z 0.000000 0.000000 1.787460 
# 
# From -- ./inp_files/15167.got.cif
#   From: 2010.03.12/outbox.cif.g09.slc.cpg/sg35_8_cif.got.tgz:15167.got - 2010.04.14 02:02:04.
