data_PCOD8172022
_publ_section_title
;
Structure prediction by ZEFSAII (Michael W. Deem and Ramdas Pophale) SiO2 
 PCOD8172022
Probable space group: P N N 2
;
_chemical_formula_sum "Si O2"
_cell_formula_units_Z 32
_cell_length_a 12.932431
_cell_length_b 18.341295
_cell_length_c 6.830686
_cell_angle_alpha 90.000000
_cell_angle_beta 90.000000
_cell_angle_gamma 90.000000
_cell_volume 1620.221861
_symmetry_space_group_name_H-M "P N N 2"
_symmetry_group_IT_number 34
_symmetry_cell_setting 'orthorhombic'
loop_
_space_group_symop_operation_xyz
x,y,z
-x,-y,z
1/2-x,1/2+y,1/2+z
1/2+x,1/2-y,1/2+z
loop_
_atom_site_type_symbol
_atom_site_label
_atom_site_fract_x
_atom_site_fract_y
_atom_site_fract_z
Si Si1 0.791587 0.084224 0.460350
Si Si2 0.884228 0.583425 0.662115
Si Si3 0.617882 0.298935 0.697281
Si Si4 0.246561 0.335066 0.350842
Si Si5 0.617882 0.701065 0.697280
Si Si6 0.115772 0.583425 0.662115
Si Si7 0.253439 0.164934 0.850842
Si Si8 0.291587 0.584224 0.960350
O O1 0.680164 0.095747 0.359599
O O2 0.782515 0.110344 0.682177
O O3 0.875671 0.131210 0.340838
O O4 0.826684 1.000000 0.455836
O O5 0.841746 0.629388 0.482349
O O6 0.880743 0.500000 0.594813
O O7 1.000000 0.609673 0.709161
O O8 0.699663 0.238885 0.766559
O O9 0.500000 0.270407 0.695958
O O10 0.650379 0.320077 0.476982
O O11 0.624329 0.368789 0.840839
O O12 0.349621 0.320077 0.476982
O O13 0.699663 0.761115 0.766559
O O14 0.158253 0.629389 0.482349
O O15 0.180164 0.595747 0.859599
O O16 0.217486 0.110344 0.682178
#
# Coordination Sequence:
#
# PCOD8172022 Si02
#       8
#     4   4   4   4   4   4   4   4
#     4  10  22  41  62  87 126 166 206 257 309 374
#     4   9  19  35  59  91 123 156 197 249 309 371
#     4  11  24  41  63  91 124 162 207 260 314 368
#     4  11  21  41  60  92 121 159 208 258 310 369
#     4  11  24  41  63  91 124 162 207 260 314 368
#     4   9  19  35  59  91 123 156 197 249 309 371
#     4  11  21  41  60  92 121 159 208 258 310 369
#     4  10  22  41  62  87 126 166 206 257 309 374
#
# _framework density 19.750381000000001
#
# number of rings (size 3 to 8) (size 9 to 14) (size 15 to 20)
#    0.000    1.750    2.500    1.500    0.000    4.500 
#    0.000    2.500    0.000    0.000    0.000    0.000 
#    0.000    0.000    0.000    0.000    0.000    0.000 
#
# Total GULP energy -396902.291483 kJ/mol
# GULP energy per Si atom -12403.196609 kJ/mol
# Density = 1.970543 g / cm^3
# Si number density = 19.750381 Si / 1000 Ang^3
#
#
#
# Elastic Constant Matrix: (Units=GPa)
#
#
# Indices 1 2 3 4 5 6 
#
# 1 73.8891 2.2660 13.7542 0.0000 0.0000 0.0000
# 2 2.2660 79.8583 30.8142 0.0000 0.0000 0.0000
# 3 13.7542 30.8142 117.2201 0.0000 0.0000 0.0000
# 4 0.0000 0.0000 0.0000 43.5884 0.0000 0.0000
# 5 0.0000 0.0000 0.0000 0.0000 10.9771 0.0000
# 6 0.0000 0.0000 0.0000 0.0000 0.0000 23.7519
#
#
#
# Elastic Compliance Matrix: (Units=1/GPa)
#
#
# Indices 1 2 3 4 5 6 
#
# 1 0.013841 0.000260 -0.001692 0.000000 0.000000 0.000000
# 2 0.000260 0.013941 -0.003695 0.000000 0.000000 0.000000
# 3 -0.001692 -0.003695 0.009701 0.000000 0.000000 0.000000
# 4 0.000000 0.000000 0.000000 0.022942 0.000000 0.000000
# 5 0.000000 0.000000 0.000000 0.000000 0.091099 0.000000
# 6 0.000000 0.000000 0.000000 0.000000 0.000000 0.042102
#
#
# Mechanical properties :
#
#
# Convention : Reuss Voigt Hill
#
# Bulk Modulus (GPa) = 36.72727 40.51515 38.62121
# Shear Modulus (GPa) = 23.47906 30.60568 27.04237
#
# Velocity S-wave (km/s) = 3.45162 3.94080 3.70429
# Velocity P-wave (km/s) = 5.87546 6.42376 6.15572
#
# Compressibility (1/GPa) = 0.02722772
#
# Stress axis : x y z
#
# Youngs Moduli (GPa) = 72.24989 71.73281 103.08310
#
# Poissons Ratio (x) = -0.01867 0.17446
# Poissons Ratio (y) = -0.01881 0.38091
# Poissons Ratio (z) = 0.12228 0.26507
#
# Static dielectric constant tensor:
#      x y z
#    x 3.455650 0.000000 0.000000 
#    y 0.000000 3.724820 0.000000 
#    z 0.000000 0.000000 3.651870 
# 
# 
# High freq. dielectric constant tensor:
#      x y z
#    x 1.757070 0.000000 0.000000 
#    y 0.000000 1.781290 0.000000 
#    z 0.000000 0.000000 1.777700 
# 
# From -- ./inp_files/1045.got.cif
#   From: 2010.03.12/outbox.cif.g09.slc.cpg/sg34_1_cif.got.tgz:1045.got - 2010.04.14 01:56:33.
