data_PCOD8172371
_publ_section_title
;
Structure prediction by ZEFSAII (Michael W. Deem and Ramdas Pophale) SiO2 
 PCOD8172371
Probable space group: C M M 2
;
_chemical_formula_sum "Si O2"
_cell_formula_units_Z 64
_cell_length_a 8.778736
_cell_length_b 18.918628
_cell_length_c 20.976524
_cell_angle_alpha 90.000000
_cell_angle_beta 90.000000
_cell_angle_gamma 90.000000
_cell_volume 3483.815522
_symmetry_space_group_name_H-M "C M M 2"
_symmetry_group_IT_number 35
_symmetry_cell_setting 'orthorhombic'
loop_
_space_group_symop_operation_xyz
x,y,z
-x,-y,z
-x,y,z
x,-y,z
1/2+x,1/2+y,z
1/2-x,1/2-y,z
1/2-x,1/2+y,z
1/2+x,1/2-y,z
loop_
_atom_site_type_symbol
_atom_site_label
_atom_site_fract_x
_atom_site_fract_y
_atom_site_fract_z
Si Si1 0.325114 0.083210 0.707570
Si Si2 0.179381 0.079413 0.189000
Si Si3 0.819987 0.826974 0.815482
Si Si4 0.327787 0.916106 0.315562
Si Si5 0.330604 0.583969 0.579244
Si Si6 0.827841 0.584180 0.454402
Si Si7 0.818057 0.328131 0.943394
Si Si8 0.818291 0.827405 0.071271
O O1 0.500000 0.104401 0.719435
O O2 0.215911 0.122414 0.756750
O O3 0.278772 0.108141 0.636652
O O4 0.298991 0.000000 0.715891
O O5 0.231850 0.114213 0.256119
O O6 0.239254 0.126173 0.130560
O O7 0.000000 0.077630 0.188830
O O8 0.245375 0.000000 0.181009
O O9 0.750000 0.750000 0.802229
O O10 0.744522 0.863599 0.878422
O O11 0.000000 0.819750 0.825044
O O12 0.500000 0.889861 0.307085
O O13 0.265121 0.890093 0.384879
O O14 0.318443 0.000000 0.314411
O O15 0.500000 0.613215 0.591824
O O16 0.331557 0.500000 0.574686
O O17 0.271634 0.616141 0.512117
O O18 0.824357 0.500000 0.456964
O O19 0.000000 0.610985 0.463295
O O20 0.750000 0.250000 0.942681
O O21 0.000000 0.328515 0.944592
O O22 0.750837 0.364338 0.007358
O O23 0.750000 0.750000 0.080830
O O24 0.000000 0.823358 0.065895
#
# Coordination Sequence:
#
# PCOD8172371 Si02
#       8
#     8   8   8   8   8   8   8   8
#     4  10  20  34  51  72 101 134 165 200 244 291
#     4   9  18  31  46  66  94 125 154 188 233 281
#     4  11  21  35  55  77 101 128 162 201 241 287
#     4   8  14  24  39  60  87 119 154 191 231 276
#     4   9  16  25  39  62  91 123 159 197 237 281
#     4   8  13  22  36  56  84 118 154 191 232 277
#     4  10  18  31  51  73  96 122 156 197 239 280
#     4  10  19  32  50  71  94 121 155 194 234 278
#
# _framework density 18.370663
#
# number of rings (size 3 to 8) (size 9 to 14) (size 15 to 20)
#    0.000    2.625    0.000    5.625    0.000    3.750 
#    0.000    3.125    0.000    2.250    0.000    0.875 
#    0.000    4.000    0.000    0.000    0.000    0.000 
#
# Total GULP energy -396579.913880 kJ/mol
# GULP energy per Si atom -12393.122309 kJ/mol
# Density = 1.832885 g / cm^3
# Si number density = 18.370663 Si / 1000 Ang^3
#
#
#
# Elastic Constant Matrix: (Units=GPa)
#
#
# Indices 1 2 3 4 5 6 
#
# 1 100.1949 19.8419 53.1232 0.0000 0.0000 0.0000
# 2 19.8419 27.1779 36.7159 0.0000 0.0000 0.0000
# 3 53.1232 36.7159 178.3578 0.0000 0.0000 0.0000
# 4 0.0000 0.0000 0.0000 -0.0462 0.0000 0.0000
# 5 0.0000 0.0000 0.0000 0.0000 38.8187 0.0000
# 6 0.0000 0.0000 0.0000 0.0000 0.0000 16.0192
#
#
#
# Elastic Compliance Matrix: (Units=1/GPa)
#
#
# Indices 1 2 3 4 5 6 
#
# 1 0.012449 -0.005651 -0.002545 0.000000 0.000000 0.000000
# 2 -0.005651 0.053534 -0.009337 0.000000 0.000000 0.000000
# 3 -0.002545 -0.009337 0.008287 0.000000 0.000000 0.000000
# 4 0.000000 0.000000 0.000000-21.642274 0.000000 0.000000
# 5 0.000000 0.000000 0.000000 0.000000 0.025761 0.000000
# 6 0.000000 0.000000 0.000000 0.000000 0.000000 0.062425
#
#
# Mechanical properties :
#
#
# Convention : Reuss Voigt Hill
#
# Bulk Modulus (GPa) = 25.50739 58.34364 41.92552
# Shear Modulus (GPa) = -0.23330 24.02831 11.89751
#
# Velocity S-wave (km/s) = -0.35675 3.62051 2.54763
# Velocity P-wave (km/s) = 3.70747 7.02179 5.61475
#
# Compressibility (1/GPa) = 0.03920432
#
# Stress axis : x y z
#
# Youngs Moduli (GPa) = 80.32939 18.67959 120.67527
#
# Poissons Ratio (x) = 0.10556 0.30706
# Poissons Ratio (y) = 0.45394 1.12677
# Poissons Ratio (z) = 0.20440 0.17442
#
# Static dielectric constant tensor:
#      x y z
#    x 3.435960 0.000000 0.000000 
#    y 0.000000 2.839750 0.000000 
#    z 0.000000 0.000000 4.190130 
# 
# 
# High freq. dielectric constant tensor:
#      x y z
#    x 1.718130 0.000000 0.000000 
#    y 0.000000 1.638760 0.000000 
#    z 0.000000 0.000000 1.740770 
# 
# From -- ./inp_files/18514.got.cif
#   From: 2010.03.12/outbox.cif.g09.slc.cpg/sg35_10_cif.got.tgz:18514.got - 2010.04.14 02:02:04.
