data_PCOD8172869
_publ_section_title
;
Structure prediction by ZEFSAII (Michael W. Deem and Ramdas Pophale) SiO2 
 PCOD8172869
Probable space group: C M M 2
;
_chemical_formula_sum "Si O2"
_cell_formula_units_Z 64
_cell_length_a 28.224646
_cell_length_b 9.040808
_cell_length_c 15.329865
_cell_angle_alpha 90.000000
_cell_angle_beta 90.000000
_cell_angle_gamma 90.000000
_cell_volume 3911.776922
_symmetry_space_group_name_H-M "C M M 2"
_symmetry_group_IT_number 35
_symmetry_cell_setting 'orthorhombic'
loop_
_space_group_symop_operation_xyz
x,y,z
-x,-y,z
-x,y,z
x,-y,z
1/2+x,1/2+y,z
1/2-x,1/2-y,z
1/2-x,1/2+y,z
1/2+x,1/2-y,z
loop_
_atom_site_type_symbol
_atom_site_label
_atom_site_fract_x
_atom_site_fract_y
_atom_site_fract_z
Si Si1 0.054219 0.674377 0.076090
Si Si2 0.445272 0.169925 0.388628
Si Si3 0.297209 0.327277 0.308316
Si Si4 0.556159 0.163459 0.881732
Si Si5 0.396195 0.325033 0.232559
Si Si6 0.890226 0.325281 0.561497
Si Si7 0.297938 0.674558 0.509512
Si Si8 0.556209 0.331871 0.713744
O O1 0.058410 0.500000 0.092069
O O2 0.089317 0.759669 0.139888
O O3 0.000000 0.725398 0.092376
O O4 0.071353 0.716410 0.978382
O O5 0.500000 0.194439 0.410659
O O6 0.431702 0.268537 0.306440
O O7 0.416261 0.222381 0.472765
O O8 0.434396 0.000000 0.365345
O O9 0.288939 0.500000 0.299108
O O10 0.250000 0.250000 0.271396
O O11 0.342536 0.273484 0.253236
O O12 0.306274 0.282722 0.408595
O O13 0.500000 0.152504 0.880532
O O14 0.574275 0.278165 0.808878
O O15 0.577172 0.000000 0.862041
O O16 0.399907 0.500000 0.229908
O O17 0.882499 0.500000 0.566563
O O18 0.840216 0.242211 0.566372
O O19 0.921858 0.274512 0.641922
O O20 0.295163 0.500000 0.524174
O O21 0.250000 0.750000 0.543734
O O22 0.500000 0.318358 0.706839
O O23 0.573154 0.500000 0.699887
#
# Coordination Sequence:
#
# PCOD8172869 Si02
#       8
#     8   8   8   8   8   8   8   8
#     4   9  18  32  49  70  97 130 166 200 235 282
#     4  10  21  34  46  63  92 131 170 200 228 274
#     4   9  19  33  49  68  92 121 158 201 245 287
#     4   8  15  30  50  69  92 124 162 203 242 282
#     4  11  21  32  46  70  98 126 159 199 244 288
#     4  11  21  33  50  71  96 130 168 203 243 289
#     4  10  19  34  52  71  96 124 161 206 250 293
#     4  10  20  32  48  72 101 131 163 202 247 292
#
# _framework density 16.360851
#
# number of rings (size 3 to 8) (size 9 to 14) (size 15 to 20)
#    0.000    2.250    1.250    3.000    0.000    5.750 
#    0.000    1.250    0.000    0.000    0.000    0.875 
#    0.000    4.000    0.000    0.000    0.000    0.000 
#
# Total GULP energy -396838.781072 kJ/mol
# GULP energy per Si atom -12401.211908 kJ/mol
# Density = 1.632361 g / cm^3
# Si number density = 16.360851 Si / 1000 Ang^3
#
#
#
# Elastic Constant Matrix: (Units=GPa)
#
#
# Indices 1 2 3 4 5 6 
#
# 1 70.3063 35.4967 29.0835 0.0000 0.0000 0.0000
# 2 35.4967 68.4665 38.1496 0.0000 0.0000 0.0000
# 3 29.0835 38.1496 88.9436 0.0000 0.0000 0.0000
# 4 0.0000 0.0000 0.0000 26.4371 0.0000 0.0000
# 5 0.0000 0.0000 0.0000 0.0000 10.7906 0.0000
# 6 0.0000 0.0000 0.0000 0.0000 0.0000 28.3562
#
#
#
# Elastic Compliance Matrix: (Units=1/GPa)
#
#
# Indices 1 2 3 4 5 6 
#
# 1 0.019754 -0.008728 -0.002715 0.000000 0.000000 0.000000
# 2 -0.008728 0.023049 -0.007032 0.000000 0.000000 0.000000
# 3 -0.002715 -0.007032 0.015147 0.000000 0.000000 0.000000
# 4 0.000000 0.000000 0.000000 0.037826 0.000000 0.000000
# 5 0.000000 0.000000 0.000000 0.000000 0.092673 0.000000
# 6 0.000000 0.000000 0.000000 0.000000 0.000000 0.035266
#
#
# Mechanical properties :
#
#
# Convention : Reuss Voigt Hill
#
# Bulk Modulus (GPa) = 47.62317 48.13067 47.87692
# Shear Modulus (GPa) = 18.68002 21.44921 20.06462
#
# Velocity S-wave (km/s) = 3.38265 3.62471 3.50577
# Velocity P-wave (km/s) = 6.66540 6.85566 6.76120
#
# Compressibility (1/GPa) = 0.02099818
#
# Stress axis : x y z
#
# Youngs Moduli (GPa) = 50.62379 43.38536 66.01848
#
# Poissons Ratio (x) = 0.37868 0.17927
# Poissons Ratio (y) = 0.44186 0.46426
# Poissons Ratio (z) = 0.13747 0.30510
#
# Static dielectric constant tensor:
#      x y z
#    x 2.994900 0.000000 0.000000 
#    y 0.000000 3.151670 0.000000 
#    z 0.000000 0.000000 3.121280 
# 
# 
# High freq. dielectric constant tensor:
#      x y z
#    x 1.610280 0.000000 0.000000 
#    y 0.000000 1.637220 0.000000 
#    z 0.000000 0.000000 1.617030 
# 
# From -- ./inp_files/16200.got.cif
#   From: 2010.03.12/outbox.cif.g09.slc.cpg/sg35_9_cif.got.tgz:16200.got - 2010.04.14 02:02:04.
