data_PCOD8172995
_publ_section_title
;
Structure prediction by ZEFSAII (Michael W. Deem and Ramdas Pophale) SiO2 
 PCOD8172995
Probable space group: C M M 2
;
_chemical_formula_sum "Si O2"
_cell_formula_units_Z 64
_cell_length_a 9.040210
_cell_length_b 26.766094
_cell_length_c 14.534960
_cell_angle_alpha 90.000000
_cell_angle_beta 90.000000
_cell_angle_gamma 90.000000
_cell_volume 3517.040414
_symmetry_space_group_name_H-M "C M M 2"
_symmetry_group_IT_number 35
_symmetry_cell_setting 'orthorhombic'
loop_
_space_group_symop_operation_xyz
x,y,z
-x,-y,z
-x,y,z
x,-y,z
1/2+x,1/2+y,z
1/2-x,1/2-y,z
1/2-x,1/2+y,z
1/2+x,1/2-y,z
loop_
_atom_site_type_symbol
_atom_site_label
_atom_site_fract_x
_atom_site_fract_y
_atom_site_fract_z
Si Si1 0.673675 0.057792 0.597440
Si Si2 0.325759 0.886255 0.216067
Si Si3 0.174076 0.801537 0.097543
Si Si4 0.662266 0.057281 0.909338
Si Si5 0.337763 0.557578 0.076785
Si Si6 0.674818 0.606203 0.759498
Si Si7 0.173055 0.198600 0.886769
Si Si8 0.174627 0.555200 0.389652
O O1 0.500000 0.066045 0.613502
O O2 0.763154 0.099196 0.656513
O O3 0.720760 0.070108 0.492791
O O4 0.715261 0.000000 0.620584
O O5 0.500000 0.875880 0.207792
O O6 0.234506 0.841129 0.171568
O O7 0.276510 0.935356 0.159927
O O8 0.275768 0.900218 0.320363
O O9 0.250000 0.750000 0.124499
O O10 0.000000 0.795695 0.110474
O O11 0.215272 0.816366 0.992027
O O12 0.500000 0.083150 0.905047
O O13 0.747997 0.060801 0.813381
O O14 0.639614 0.000000 0.935083
O O15 0.764256 0.083270 0.987059
O O16 0.500000 0.583300 0.092498
O O17 0.364548 0.500000 0.059548
O O18 0.500000 0.600409 0.759121
O O19 0.724877 0.656762 0.812727
O O20 0.250000 0.250000 0.857596
O O21 0.000000 0.207441 0.878439
O O22 0.241793 0.500000 0.365085
O O23 0.000000 0.549953 0.383208
#
# Coordination Sequence:
#
# PCOD8172995 Si02
#       8
#     8   8   8   8   8   8   8   8
#     4   9  18  34  54  75 101 136 177 215 251 297
#     4  11  20  31  52  78 101 131 172 213 257 310
#     4  10  20  36  55  76 104 136 171 212 259 309
#     4  10  20  32  46  67  96 132 172 206 239 292
#     4  10  20  32  45  66 100 137 168 203 250 301
#     4  11  21  32  49  75 104 131 162 205 259 311
#     4   9  20  36  53  73  99 131 166 205 249 300
#     4   8  16  32  53  76 103 135 173 217 257 295
#
# _framework density 18.197118
#
# number of rings (size 3 to 8) (size 9 to 14) (size 15 to 20)
#    0.000    2.250    0.000    4.125    0.000    6.250 
#    0.000    1.250    0.000    2.250    0.000    1.750 
#    0.000    0.000    0.000    0.000    0.000    0.000 
#
# Total GULP energy -396502.834391 kJ/mol
# GULP energy per Si atom -12390.713575 kJ/mol
# Density = 1.815570 g / cm^3
# Si number density = 18.197118 Si / 1000 Ang^3
#
#
#
# Elastic Constant Matrix: (Units=GPa)
#
#
# Indices 1 2 3 4 5 6 
#
# 1 84.0680 42.8055 48.1089 0.0000 0.0000 0.0000
# 2 42.8055 89.7579 61.1925 0.0000 0.0000 0.0000
# 3 48.1089 61.1925 134.1489 0.0000 0.0000 0.0000
# 4 0.0000 0.0000 0.0000 28.1973 0.0000 0.0000
# 5 0.0000 0.0000 0.0000 0.0000 25.1670 0.0000
# 6 0.0000 0.0000 0.0000 0.0000 0.0000 26.6924
#
#
#
# Elastic Compliance Matrix: (Units=1/GPa)
#
#
# Indices 1 2 3 4 5 6 
#
# 1 0.016728 -0.005643 -0.003425 0.000000 0.000000 0.000000
# 2 -0.005643 0.018073 -0.006220 0.000000 0.000000 0.000000
# 3 -0.003425 -0.006220 0.011520 0.000000 0.000000 0.000000
# 4 0.000000 0.000000 0.000000 0.035464 0.000000 0.000000
# 5 0.000000 0.000000 0.000000 0.000000 0.039735 0.000000
# 6 0.000000 0.000000 0.000000 0.000000 0.000000 0.037464
#
#
# Mechanical properties :
#
#
# Convention : Reuss Voigt Hill
#
# Bulk Modulus (GPa) = 63.51275 68.02095 65.76685
# Shear Modulus (GPa) = 25.66616 26.40254 26.03435
#
# Velocity S-wave (km/s) = 3.75967 3.81322 3.78654
# Velocity P-wave (km/s) = 7.33657 7.53981 7.43889
#
# Compressibility (1/GPa) = 0.01574487
#
# Stress axis : x y z
#
# Youngs Moduli (GPa) = 59.77872 55.33179 86.80354
#
# Poissons Ratio (x) = 0.31221 0.29733
# Poissons Ratio (y) = 0.33730 0.53996
# Poissons Ratio (z) = 0.20476 0.34419
#
# Static dielectric constant tensor:
#      x y z
#    x 3.510240 0.000000 0.000000 
#    y 0.000000 3.258080 0.000000 
#    z 0.000000 0.000000 3.498600 
# 
# 
# High freq. dielectric constant tensor:
#      x y z
#    x 1.706600 0.000000 0.000000 
#    y 0.000000 1.685960 0.000000 
#    z 0.000000 0.000000 1.695760 
# 
# From -- ./inp_files/16251.got.cif
#   From: 2010.03.12/outbox.cif.g09.slc.cpg/sg35_9_cif.got.tgz:16251.got - 2010.04.14 02:02:04.
