data_PCOD8172812
_publ_section_title
;
Structure prediction by ZEFSAII (Michael W. Deem and Ramdas Pophale) SiO2 
 PCOD8172812
Probable space group: C M M 2
;
_chemical_formula_sum "Si O2"
_cell_formula_units_Z 64
_cell_length_a 16.808671
_cell_length_b 18.052762
_cell_length_c 11.489956
_cell_angle_alpha 90.000000
_cell_angle_beta 90.000000
_cell_angle_gamma 90.000000
_cell_volume 3486.545996
_symmetry_space_group_name_H-M "C M M 2"
_symmetry_group_IT_number 35
_symmetry_cell_setting 'orthorhombic'
loop_
_space_group_symop_operation_xyz
x,y,z
-x,-y,z
-x,y,z
x,-y,z
1/2+x,1/2+y,z
1/2-x,1/2-y,z
1/2-x,1/2+y,z
1/2+x,1/2-y,z
loop_
_atom_site_type_symbol
_atom_site_label
_atom_site_fract_x
_atom_site_fract_y
_atom_site_fract_z
Si Si1 0.594215 0.782354 0.025280
Si Si2 0.410910 0.650296 0.421981
Si Si3 0.088740 0.302382 0.552795
Si Si4 0.310887 0.686771 0.205447
Si Si5 0.177813 0.586262 0.132739
Si Si6 0.408459 0.916270 0.375860
Si Si7 0.405243 0.581362 0.657059
Si Si8 0.095250 0.226659 0.777089
O O1 0.500000 0.782060 0.028688
O O2 0.624989 0.726023 0.122779
O O3 0.624601 0.866515 0.042458
O O4 0.627219 0.753441 0.901190
O O5 0.500000 0.625201 0.385259
O O6 0.413302 0.733416 0.467029
O O7 0.353477 0.645455 0.311574
O O8 0.376402 0.598473 0.525231
O O9 0.131099 0.368299 0.480543
O O10 0.130052 0.281383 0.675943
O O11 0.000000 0.329769 0.581710
O O12 0.250000 0.750000 0.250164
O O13 0.265780 0.621831 0.134479
O O14 0.179984 0.500000 0.094555
O O15 0.140702 0.596872 0.259714
O O16 0.500000 0.892336 0.350996
O O17 0.403520 0.000000 0.418051
O O18 0.500000 0.584310 0.655142
O O19 0.374019 0.500000 0.694816
O O20 0.374200 0.643023 0.748922
O O21 0.000000 0.227951 0.771324
#
# Coordination Sequence:
#
# PCOD8172812 Si02
#       8
#     8   8   8   8   8   8   8   8
#     4  10  19  33  54  76  97 126 171 217 248 284
#     4   9  16  27  47  73  96 121 156 197 241 290
#     4   8  13  24  43  69  99 122 146 193 251 296
#     4  10  20  32  48  70  98 134 169 204 249 295
#     4  10  21  35  50  70 100 136 168 203 251 302
#     4   9  16  27  47  73  97 124 160 200 244 296
#     4   8  14  26  46  72  99 123 149 189 243 298
#     4   8  15  27  45  71  98 123 156 200 247 291
#
# _framework density 18.356276999999999
#
# number of rings (size 3 to 8) (size 9 to 14) (size 15 to 20)
#    0.000    3.000    0.000    3.750    0.000    2.250 
#    0.000    1.250    0.000   22.125    0.000    0.000 
#    0.000    0.000    0.000    0.000    0.000    0.000 
#
# Total GULP energy -396556.624217 kJ/mol
# GULP energy per Si atom -12392.394507 kJ/mol
# Density = 1.831450 g / cm^3
# Si number density = 18.356277 Si / 1000 Ang^3
#
#
#
# Elastic Constant Matrix: (Units=GPa)
#
#
# Indices 1 2 3 4 5 6 
#
# 1 47.3389 23.2563 21.2349 0.0000 0.0000 0.0000
# 2 23.2563 131.5606 59.0711 0.0000 0.0000 0.0000
# 3 21.2349 59.0711 95.5731 0.0000 0.0000 0.0000
# 4 0.0000 0.0000 0.0000 25.6603 0.0000 0.0000
# 5 0.0000 0.0000 0.0000 0.0000 3.7769 0.0000
# 6 0.0000 0.0000 0.0000 0.0000 0.0000 16.0643
#
#
#
# Elastic Compliance Matrix: (Units=1/GPa)
#
#
# Indices 1 2 3 4 5 6 
#
# 1 0.024073 -0.002566 -0.003763 0.000000 0.000000 0.000000
# 2 -0.002566 0.010794 -0.006102 0.000000 0.000000 0.000000
# 3 -0.003763 -0.006102 0.015070 0.000000 0.000000 0.000000
# 4 0.000000 0.000000 0.000000 0.038971 0.000000 0.000000
# 5 0.000000 0.000000 0.000000 0.000000 0.264769 0.000000
# 6 0.000000 0.000000 0.000000 0.000000 0.000000 0.062250
#
#
# Mechanical properties :
#
#
# Convention : Reuss Voigt Hill
#
# Bulk Modulus (GPa) = 39.87704 53.51080 46.69392
# Shear Modulus (GPa) = 11.13225 20.49432 15.81328
#
# Velocity S-wave (km/s) = 2.46530 3.34499 2.93826
# Velocity P-wave (km/s) = 5.46578 6.64328 6.08309
#
# Compressibility (1/GPa) = 0.02507709
#
# Stress axis : x y z
#
# Youngs Moduli (GPa) = 41.54088 92.64186 66.35527
#
# Poissons Ratio (x) = 0.23771 0.24967
# Poissons Ratio (y) = 0.10659 0.40487
# Poissons Ratio (z) = 0.15630 0.56526
#
# Static dielectric constant tensor:
#      x y z
#    x 3.112790 0.000000 0.000000 
#    y 0.000000 3.563730 0.000000 
#    z 0.000000 0.000000 3.415880 
# 
# 
# High freq. dielectric constant tensor:
#      x y z
#    x 1.677760 0.000000 0.000000 
#    y 0.000000 1.710110 0.000000 
#    z 0.000000 0.000000 1.699380 
# 
# From -- ./inp_files/13242.got.cif
#   From: 2010.03.12/outbox.cif.g09.slc.cpg/sg35_7_cif.got.tgz:13242.got - 2010.04.14 02:02:04.
