data_PCOD8172587
_publ_section_title
;
Structure prediction by ZEFSAII (Michael W. Deem and Ramdas Pophale) SiO2 
 PCOD8172587
Probable space group: C M M 2
;
_chemical_formula_sum "Si O2"
_cell_formula_units_Z 64
_cell_length_a 8.832972
_cell_length_b 29.831259
_cell_length_c 12.489261
_cell_angle_alpha 90.000000
_cell_angle_beta 90.000000
_cell_angle_gamma 90.000000
_cell_volume 3290.903731
_symmetry_space_group_name_H-M "C M M 2"
_symmetry_group_IT_number 35
_symmetry_cell_setting 'orthorhombic'
loop_
_space_group_symop_operation_xyz
x,y,z
-x,-y,z
-x,y,z
x,-y,z
1/2+x,1/2+y,z
1/2-x,1/2-y,z
1/2-x,1/2+y,z
1/2+x,1/2-y,z
loop_
_atom_site_type_symbol
_atom_site_label
_atom_site_fract_x
_atom_site_fract_y
_atom_site_fract_z
Si Si1 0.679114 0.794855 0.880280
Si Si2 0.178360 0.795199 0.342446
Si Si3 0.175671 0.613317 0.404932
Si Si4 0.820081 0.388397 0.795049
Si Si5 0.329279 0.099017 0.168051
Si Si6 0.680250 0.051766 0.597458
Si Si7 0.174820 0.816066 0.102221
Si Si8 0.825407 0.547277 0.971000
O O1 0.500000 0.791917 0.876862
O O2 0.750000 0.750000 0.828487
O O3 0.738282 0.837060 0.808453
O O4 0.726928 0.796776 0.005084
O O5 0.250000 0.750000 0.392883
O O6 0.241154 0.838612 0.405730
O O7 0.223772 0.795192 0.216711
O O8 0.000000 0.794717 0.358322
O O9 0.204316 0.588777 0.291629
O O10 0.238784 0.577843 0.491635
O O11 0.000000 0.623265 0.426876
O O12 0.757952 0.416789 0.694077
O O13 0.754587 0.413049 0.900661
O O14 0.000000 0.386749 0.790106
O O15 0.500000 0.119116 0.155568
O O16 0.206968 0.131559 0.115235
O O17 0.311887 0.054123 0.098712
O O18 0.500000 0.049342 0.599462
O O19 0.742541 0.000000 0.602657
O O20 0.000000 0.807429 0.076040
O O21 0.745623 0.500000 0.943389
O O22 0.000000 0.544373 0.936838
#
# Coordination Sequence:
#
# PCOD8172587 Si02
#       8
#     8   8   8   8   8   8   8   8
#     4  11  21  33  50  74 104 138 176 214 260 311
#     4  10  20  33  51  76 106 141 179 214 255 310
#     4   9  18  31  50  76 108 139 170 215 264 307
#     4   9  17  30  48  72 104 137 170 214 261 308
#     4   9  16  28  45  71 107 142 170 206 255 307
#     4   9  17  31  53  80 106 134 174 222 267 308
#     4  10  19  31  49  74 104 141 177 212 253 304
#     4   9  15  24  43  72 101 131 167 207 255 308
#
# _framework density 19.447545999999999
#
# number of rings (size 3 to 8) (size 9 to 14) (size 15 to 20)
#    0.000    2.500    1.250    1.875    0.000    4.500 
#    0.000    3.125    0.000    3.750    0.000    3.500 
#    0.000    0.000    0.000    0.000    0.000    0.000 
#
# Total GULP energy -396447.091399 kJ/mol
# GULP energy per Si atom -12388.971606 kJ/mol
# Density = 1.940328 g / cm^3
# Si number density = 19.447546 Si / 1000 Ang^3
#
#
#
# Elastic Constant Matrix: (Units=GPa)
#
#
# Indices 1 2 3 4 5 6 
#
# 1 37.6320 32.2456 17.2542 0.0000 0.0000 0.0000
# 2 32.2456 184.0405 77.6847 0.0000 0.0000 0.0000
# 3 17.2542 77.6847 109.2147 0.0000 0.0000 0.0000
# 4 0.0000 0.0000 0.0000 19.4186 0.0000 0.0000
# 5 0.0000 0.0000 0.0000 0.0000 11.9750 0.0000
# 6 0.0000 0.0000 0.0000 0.0000 0.0000 20.7942
#
#
#
# Elastic Compliance Matrix: (Units=1/GPa)
#
#
# Indices 1 2 3 4 5 6 
#
# 1 0.031438 -0.004876 -0.001499 0.000000 0.000000 0.000000
# 2 -0.004876 0.008521 -0.005291 0.000000 0.000000 0.000000
# 3 -0.001499 -0.005291 0.013156 0.000000 0.000000 0.000000
# 4 0.000000 0.000000 0.000000 0.051497 0.000000 0.000000
# 5 0.000000 0.000000 0.000000 0.000000 0.083507 0.000000
# 6 0.000000 0.000000 0.000000 0.000000 0.000000 0.048090
#
#
# Mechanical properties :
#
#
# Convention : Reuss Voigt Hill
#
# Bulk Modulus (GPa) = 33.57352 65.02846 49.30099
# Shear Modulus (GPa) = 18.55500 24.01774 21.28637
#
# Velocity S-wave (km/s) = 3.09221 3.51807 3.31199
# Velocity P-wave (km/s) = 5.48180 7.07198 6.32705
#
# Compressibility (1/GPa) = 0.02978538
#
# Stress axis : x y z
#
# Youngs Moduli (GPa) = 31.80856 117.35515 76.00848
#
# Poissons Ratio (x) = 0.57218 0.11391
# Poissons Ratio (y) = 0.15509 0.40215
# Poissons Ratio (z) = 0.04767 0.62091
#
# Static dielectric constant tensor:
#      x y z
#    x 3.124410 0.000000 0.000000 
#    y 0.000000 3.832430 0.000000 
#    z 0.000000 0.000000 3.563490 
# 
# 
# High freq. dielectric constant tensor:
#      x y z
#    x 1.708770 0.000000 0.000000 
#    y 0.000000 1.767430 0.000000 
#    z 0.000000 0.000000 1.741560 
# 
# From -- ./inp_files/16248.got.cif
#   From: 2010.03.12/outbox.cif.g09.slc.cpg/sg35_9_cif.got.tgz:16248.got - 2010.04.14 02:02:04.
