data_PCOD8172684
_publ_section_title
;
Structure prediction by ZEFSAII (Michael W. Deem and Ramdas Pophale) SiO2 
 PCOD8172684
Probable space group: C M M 2
;
_chemical_formula_sum "Si O2"
_cell_formula_units_Z 48
_cell_length_a 8.623516
_cell_length_b 18.799933
_cell_length_c 15.498999
_cell_angle_alpha 90.000000
_cell_angle_beta 90.000000
_cell_angle_gamma 90.000000
_cell_volume 2512.721323
_symmetry_space_group_name_H-M "C M M 2"
_symmetry_group_IT_number 35
_symmetry_cell_setting 'orthorhombic'
loop_
_space_group_symop_operation_xyz
x,y,z
-x,-y,z
-x,y,z
x,-y,z
1/2+x,1/2+y,z
1/2-x,1/2-y,z
1/2-x,1/2+y,z
1/2+x,1/2-y,z
loop_
_atom_site_type_symbol
_atom_site_label
_atom_site_fract_x
_atom_site_fract_y
_atom_site_fract_z
Si Si1 0.815552 0.827172 0.685590
Si Si2 0.818961 0.917150 0.355499
Si Si3 0.317729 0.827182 0.505394
Si Si4 0.184160 0.920811 0.841344
Si Si5 0.682983 0.328044 0.188903
Si Si6 0.184394 0.080145 0.031825
O O1 0.750000 0.750000 0.702074
O O2 0.753661 0.856757 0.594601
O O3 0.747535 0.873313 0.764494
O O4 0.000000 0.826654 0.683412
O O5 0.720714 0.884915 0.433324
O O6 0.767327 0.876981 0.268923
O O7 0.000000 0.905652 0.374698
O O8 0.778389 0.000000 0.344983
O O9 0.500000 0.818455 0.516086
O O10 0.250000 0.750000 0.480322
O O11 0.000000 0.920810 0.836661
O O12 0.248622 0.000000 0.827428
O O13 0.236660 0.893389 0.936336
O O14 0.500000 0.321530 0.182642
O O15 0.750000 0.250000 0.200831
O O16 0.751991 0.365324 0.102728
O O17 0.000000 0.078304 0.038483
O O18 0.246826 0.000000 0.048939
#
# Coordination Sequence:
#
# PCOD8172684 Si02
#       6
#     8   8   8   8   8   8
#     4  10  19  32  51  75 103 135 170 209 255 305
#     4  10  21  37  56  78 104 135 172 213 258 309
#     4  11  22  37  56  77 103 136 174 215 261 310
#     4   8  15  28  48  74 101 131 169 211 252 295
#     4  10  20  33  52  78 105 135 169 207 252 301
#     4   8  14  28  50  74 100 131 170 212 249 292
#
# _framework density 19.102793999999999
#
# number of rings (size 3 to 8) (size 9 to 14) (size 15 to 20)
#    0.000    2.500    0.000    5.000    0.000    5.667 
#    0.000    1.667    0.000    4.000    0.000    4.667 
#    0.000    0.000    0.000    0.000    0.000    0.000 
#
# Total GULP energy -297537.687935 kJ/mol
# GULP energy per Si atom -12397.403664 kJ/mol
# Density = 1.905932 g / cm^3
# Si number density = 19.102794 Si / 1000 Ang^3
#
#
#
# Elastic Constant Matrix: (Units=GPa)
#
#
# Indices 1 2 3 4 5 6 
#
# 1 53.0221 29.1494 38.5477 0.0000 0.0000 0.0000
# 2 29.1494 117.7018 95.8446 0.0000 0.0000 0.0000
# 3 38.5477 95.8446 181.7577 0.0000 0.0000 0.0000
# 4 0.0000 0.0000 0.0000 46.9568 0.0000 0.0000
# 5 0.0000 0.0000 0.0000 0.0000 7.2356 0.0000
# 6 0.0000 0.0000 0.0000 0.0000 0.0000 22.0188
#
#
#
# Elastic Compliance Matrix: (Units=1/GPa)
#
#
# Indices 1 2 3 4 5 6 
#
# 1 0.022890 -0.003007 -0.003269 0.000000 0.000000 0.000000
# 2 -0.003007 0.015285 -0.007422 0.000000 0.000000 0.000000
# 3 -0.003269 -0.007422 0.010109 0.000000 0.000000 0.000000
# 4 0.000000 0.000000 0.000000 0.021296 0.000000 0.000000
# 5 0.000000 0.000000 0.000000 0.000000 0.138205 0.000000
# 6 0.000000 0.000000 0.000000 0.000000 0.000000 0.045416
#
#
# Mechanical properties :
#
#
# Convention : Reuss Voigt Hill
#
# Bulk Modulus (GPa) = 47.87595 75.50722 61.69158
# Shear Modulus (GPa) = 17.38776 27.83825 22.61301
#
# Velocity S-wave (km/s) = 3.02026 3.82158 3.44431
# Velocity P-wave (km/s) = 6.10568 7.68669 6.94135
#
# Compressibility (1/GPa) = 0.02088732
#
# Stress axis : x y z
#
# Youngs Moduli (GPa) = 43.68788 65.42541 98.92192
#
# Poissons Ratio (x) = 0.19672 0.32337
# Poissons Ratio (y) = 0.13136 0.73422
# Poissons Ratio (z) = 0.14281 0.48560
#
# Static dielectric constant tensor:
#      x y z
#    x 3.138880 0.000000 0.000000 
#    y 0.000000 1.355230 0.000000 
#    z 0.000000 0.000000 3.946990 
# 
# 
# High freq. dielectric constant tensor:
#      x y z
#    x 1.707770 0.000000 0.000000 
#    y 0.000000 1.740630 0.000000 
#    z 0.000000 0.000000 1.762210 
# 
# From -- ./inp_files/15149.got.cif
#   From: 2010.03.12/outbox.cif.g09.slc.cpg/sg35_8_cif.got.tgz:15149.got - 2010.04.14 02:02:04.
