data_PCOD8172103
_publ_section_title
;
Structure prediction by ZEFSAII (Michael W. Deem and Ramdas Pophale) SiO2 
 PCOD8172103
Probable space group: P N N 2
;
_chemical_formula_sum "Si O2"
_cell_formula_units_Z 32
_cell_length_a 8.180851
_cell_length_b 11.488318
_cell_length_c 16.455410
_cell_angle_alpha 90.000000
_cell_angle_beta 90.000000
_cell_angle_gamma 90.000000
_cell_volume 1546.548837
_symmetry_space_group_name_H-M "P N N 2"
_symmetry_group_IT_number 34
_symmetry_cell_setting 'orthorhombic'
loop_
_space_group_symop_operation_xyz
x,y,z
-x,-y,z
1/2-x,1/2+y,1/2+z
1/2+x,1/2-y,1/2+z
loop_
_atom_site_type_symbol
_atom_site_label
_atom_site_fract_x
_atom_site_fract_y
_atom_site_fract_z
Si Si1 0.174008 0.060868 0.147650
Si Si2 0.690082 0.630442 0.408792
Si Si3 0.827694 0.657633 0.583665
Si Si4 0.815486 0.265824 0.531983
Si Si5 0.812946 0.864753 0.875953
Si Si6 0.317426 0.764398 0.756069
Si Si7 0.327707 0.157807 0.702072
Si Si8 0.327159 0.436968 0.142514
O O1 0.174924 0.158749 0.076885
O O2 0.202272 0.127304 0.233935
O O3 0.313896 0.965236 0.131149
O O4 0.000000 0.000000 0.146490
O O5 0.722947 0.656855 0.501797
O O6 0.739428 0.497886 0.390214
O O7 0.502377 0.656366 0.391475
O O8 0.801718 0.715362 0.352586
O O9 0.752075 0.755965 0.638852
O O10 0.013872 0.682903 0.563060
O O11 0.793076 0.281558 0.435576
O O12 0.799182 0.129093 0.556122
O O13 0.774530 0.830534 0.784512
O O14 0.486117 0.812166 0.719759
O O15 0.172802 0.838095 0.712647
O O16 0.315186 0.029605 0.662034
O O17 0.500000 0.500000 0.144020
#
# Coordination Sequence:
#
# PCOD8172103 Si02
#       8
#     4   4   4   4   4   4   4   4
#     4  11  22  41  65 100 134 172 219 274 335 393
#     4  11  24  42  66  97 133 170 219 279 330 386
#     4  12  24  41  70  99 131 175 219 271 332 398
#     4  11  24  40  69  99 135 174 222 274 340 395
#     4  11  24  42  66  97 133 170 219 279 330 386
#     4  11  24  40  69  99 135 174 222 274 340 395
#     4  12  24  41  70  99 131 175 219 271 332 398
#     4  11  22  41  65 100 134 172 219 274 335 393
#
# _framework density 20.691230999999998
#
# number of rings (size 3 to 8) (size 9 to 14) (size 15 to 20)
#    0.000    0.750    5.000    3.000    3.500    1.000 
#    0.000    1.250    0.000    1.500    0.000    0.000 
#    0.000    0.000    0.000    0.000    0.000    0.000 
#
# Total GULP energy -396840.624407 kJ/mol
# GULP energy per Si atom -12401.269513 kJ/mol
# Density = 2.064414 g / cm^3
# Si number density = 20.691231 Si / 1000 Ang^3
#
#
#
# Elastic Constant Matrix: (Units=GPa)
#
#
# Indices 1 2 3 4 5 6 
#
# 1 74.1806 41.6812 37.5883 0.0000 0.0000 0.0000
# 2 41.6812 96.9954 33.5600 0.0000 0.0000 0.0000
# 3 37.5883 33.5600 81.0499 0.0000 0.0000 0.0000
# 4 0.0000 0.0000 0.0000 40.6138 0.0000 0.0000
# 5 0.0000 0.0000 0.0000 0.0000 33.1131 0.0000
# 6 0.0000 0.0000 0.0000 0.0000 0.0000 36.0230
#
#
#
# Elastic Compliance Matrix: (Units=1/GPa)
#
#
# Indices 1 2 3 4 5 6 
#
# 1 0.020602 -0.006475 -0.006873 0.000000 0.000000 0.000000
# 2 -0.006475 0.014069 -0.002823 0.000000 0.000000 0.000000
# 3 -0.006873 -0.002823 0.016694 0.000000 0.000000 0.000000
# 4 0.000000 0.000000 0.000000 0.024622 0.000000 0.000000
# 5 0.000000 0.000000 0.000000 0.000000 0.030200 0.000000
# 6 0.000000 0.000000 0.000000 0.000000 0.000000 0.027760
#
#
# Mechanical properties :
#
#
# Convention : Reuss Voigt Hill
#
# Bulk Modulus (GPa) = 52.56714 53.09830 52.83272
# Shear Modulus (GPa) = 28.96385 31.24308 30.10346
#
# Velocity S-wave (km/s) = 3.74547 3.89005 3.81844
# Velocity P-wave (km/s) = 6.64570 6.77455 6.71044
#
# Compressibility (1/GPa) = 0.01902329
#
# Stress axis : x y z
#
# Youngs Moduli (GPa) = 48.54002 71.07952 59.90023
#
# Poissons Ratio (x) = 0.46023 0.41171
# Poissons Ratio (y) = 0.31429 0.16907
# Poissons Ratio (z) = 0.33363 0.20063
#
# Static dielectric constant tensor:
#      x y z
#    x 3.865380 0.000000 0.000000 
#    y 0.000000 4.086710 0.000000 
#    z 0.000000 0.000000 4.003230 
# 
# 
# High freq. dielectric constant tensor:
#      x y z
#    x 1.820830 0.000000 0.000000 
#    y 0.000000 1.803440 0.000000 
#    z 0.000000 0.000000 1.803910 
# 
# From -- ./inp_files/3339.got.cif
#   From: 2010.03.12/outbox.cif.g09.slc.cpg/sg34_2_cif.got.tgz:3339.got - 2010.04.14 01:56:33.
