data_PCOD8172069
_publ_section_title
;
Structure prediction by ZEFSAII (Michael W. Deem and Ramdas Pophale) SiO2 
 PCOD8172069
Probable space group: P N N 2
;
_chemical_formula_sum "Si O2"
_cell_formula_units_Z 20
_cell_length_a 8.871752
_cell_length_b 10.396796
_cell_length_c 9.504486
_cell_angle_alpha 90.000000
_cell_angle_beta 90.000000
_cell_angle_gamma 90.000000
_cell_volume 876.672838
_symmetry_space_group_name_H-M "P N N 2"
_symmetry_group_IT_number 34
_symmetry_cell_setting 'orthorhombic'
loop_
_space_group_symop_operation_xyz
x,y,z
-x,-y,z
1/2-x,1/2+y,1/2+z
1/2+x,1/2-y,1/2+z
loop_
_atom_site_type_symbol
_atom_site_label
_atom_site_fract_x
_atom_site_fract_y
_atom_site_fract_z
Si Si1 0.668452 0.541719 0.661290
Si Si2 0.298282 0.221699 0.173860
Si Si3 0.314115 0.215906 0.863651
Si Si4 0.911899 0.868265 0.649417
Si Si5 0.144393 0.321761 0.428547
O O1 0.500000 0.500000 0.616783
O O2 0.759843 0.421906 0.725709
O O3 0.657766 0.653849 0.776597
O O4 0.762448 0.577592 0.521952
O O5 0.476231 0.250113 0.189445
O O6 0.214838 0.322024 0.274091
O O7 0.237664 0.247985 0.014387
O O8 0.210727 0.118607 0.773407
O O9 0.468788 0.142008 0.903939
O O10 0.839728 0.820355 0.502161
O O11 0.000000 0.000000 0.624450
#
# Coordination Sequence:
#
# PCOD8172069 Si02
#       5
#     4   4   4   4   4
#     4  11  24  47  76 102 152 196 236 311 378 442
#     4  11  25  40  74 106 135 195 244 293 365 441
#     4  10  24  44  70 104 143 185 247 297 370 432
#     4  10  25  45  69 100 145 192 238 303 367 434
#     4  10  24  44  72 106 140 185 249 295 364 445
#
# _framework density 22.813528000000002
#
# number of rings (size 3 to 8) (size 9 to 14) (size 15 to 20)
#    0.000    1.600    2.000    0.000   11.200    7.200 
#    0.000    0.000    8.800    0.000    0.000    0.000 
#    0.000    0.000    0.000    0.000    0.000    0.000 
#
# Total GULP energy -247918.531735 kJ/mol
# GULP energy per Si atom -12395.926587 kJ/mol
# Density = 2.276160 g / cm^3
# Si number density = 22.813528 Si / 1000 Ang^3
#
#
#
# Elastic Constant Matrix: (Units=GPa)
#
#
# Indices 1 2 3 4 5 6 
#
# 1 98.7054 37.5018 44.3289 0.0000 0.0000 0.0000
# 2 37.5018 75.6508 -7.6589 0.0000 0.0000 0.0000
# 3 44.3289 -7.6589 114.9960 0.0000 0.0000 0.0000
# 4 0.0000 0.0000 0.0000 22.4388 0.0000 0.0000
# 5 0.0000 0.0000 0.0000 0.0000 41.8694 0.0000
# 6 0.0000 0.0000 0.0000 0.0000 0.0000 41.5049
#
#
#
# Elastic Compliance Matrix: (Units=1/GPa)
#
#
# Indices 1 2 3 4 5 6 
#
# 1 0.016712 -0.008997 -0.007041 0.000000 0.000000 0.000000
# 2 -0.008997 0.018152 0.004677 0.000000 0.000000 0.000000
# 3 -0.007041 0.004677 0.011722 0.000000 0.000000 0.000000
# 4 0.000000 0.000000 0.000000 0.044566 0.000000 0.000000
# 5 0.000000 0.000000 0.000000 0.000000 0.023884 0.000000
# 6 0.000000 0.000000 0.000000 0.000000 0.000000 0.024094
#
#
# Mechanical properties :
#
#
# Convention : Reuss Voigt Hill
#
# Bulk Modulus (GPa) = 41.90556 48.63286 45.26921
# Shear Modulus (GPa) = 29.44538 35.50800 32.47669
#
# Velocity S-wave (km/s) = 3.59653 3.94946 3.77712
# Velocity P-wave (km/s) = 5.97120 6.49319 6.23766
#
# Compressibility (1/GPa) = 0.02386318
#
# Stress axis : x y z
#
# Youngs Moduli (GPa) = 59.83782 55.08941 85.31125
#
# Poissons Ratio (x) = 0.49566 0.60071
# Poissons Ratio (y) = 0.53838 -0.39902
# Poissons Ratio (z) = 0.42134 -0.25767
#
# Static dielectric constant tensor:
#      x y z
#    x 4.222180 0.000000 0.000000 
#    y 0.000000 3.936520 0.000000 
#    z 0.000000 0.000000 4.334940 
# 
# 
# High freq. dielectric constant tensor:
#      x y z
#    x 1.898390 0.000000 0.000000 
#    y 0.000000 1.892430 0.000000 
#    z 0.000000 0.000000 1.911870 
# 
# From -- ./inp_files/2456.got.cif
#   From: 2010.03.12/outbox.cif.g09.slc.cpg/sg34_2_cif.got.tgz:2456.got - 2010.04.14 01:56:33.
