data_PCOD8172950
_publ_section_title
;
Structure prediction by ZEFSAII (Michael W. Deem and Ramdas Pophale) SiO2 
 PCOD8172950
Probable space group: C M M 2
;
_chemical_formula_sum "Si O2"
_cell_formula_units_Z 48
_cell_length_a 15.904573
_cell_length_b 8.779193
_cell_length_c 16.871962
_cell_angle_alpha 90.000000
_cell_angle_beta 90.000000
_cell_angle_gamma 90.000000
_cell_volume 2355.820513
_symmetry_space_group_name_H-M "C M M 2"
_symmetry_group_IT_number 35
_symmetry_cell_setting 'orthorhombic'
loop_
_space_group_symop_operation_xyz
x,y,z
-x,-y,z
-x,y,z
x,-y,z
1/2+x,1/2+y,z
1/2-x,1/2-y,z
1/2-x,1/2+y,z
1/2+x,1/2-y,z
loop_
_atom_site_type_symbol
_atom_site_label
_atom_site_fract_x
_atom_site_fract_y
_atom_site_fract_z
Si Si1 0.500000 0.820303 0.009970
Si Si2 0.904389 0.673532 0.597463
Si Si3 0.837488 0.820795 0.744417
Si Si4 0.662589 0.821766 0.431668
Si Si5 0.837022 0.680344 0.102196
Si Si6 0.500000 0.819567 0.827271
Si Si7 0.906500 0.680961 0.267404
O O1 0.584563 0.755002 0.051162
O O2 0.500000 0.000000 0.022205
O O3 0.500000 0.772467 0.918929
O O4 0.873675 0.500000 0.610761
O O5 0.846961 0.783370 0.650878
O O6 0.899318 0.716456 0.504592
O O7 0.000000 0.692939 0.625617
O O8 0.750000 0.750000 0.776287
O O9 0.915521 0.747799 0.790265
O O10 0.836295 0.000000 0.758516
O O11 0.750000 0.750000 0.455513
O O12 0.628697 0.749398 0.349627
O O13 0.673662 0.000000 0.419743
O O14 0.831676 0.500000 0.094277
O O15 0.750000 0.750000 0.069875
O O16 0.849259 0.732388 0.193596
O O17 0.500000 0.000000 0.814265
O O18 0.910092 0.500000 0.272899
O O19 0.000000 0.745436 0.253875
#
# Coordination Sequence:
#
# PCOD8172950 Si02
#       7
#     4   8   8   8   8   4   8
#     4   9  20  39  63  88 117 154 192 233 291 359
#     4  10  20  36  58  83 116 156 200 249 299 351
#     4  12  25  42  65  93 123 160 203 247 302 365
#     4  10  20  32  49  78 112 151 198 244 289 341
#     4  10  19  35  59  87 117 154 196 239 288 345
#     4  11  23  43  67  92 123 156 196 251 307 365
#     4   9  16  30  54  79 108 150 199 241 281 341
#
# _framework density 20.375067000000001
#
# number of rings (size 3 to 8) (size 9 to 14) (size 15 to 20)
#    0.000    1.833    1.667    3.250    0.000    4.667 
#    0.000    3.750    0.000    2.500    0.000    0.000 
#    0.000    0.000    0.000    0.000    0.000    0.000 
#
# Total GULP energy -297593.509700 kJ/mol
# GULP energy per Si atom -12399.729571 kJ/mol
# Density = 2.032869 g / cm^3
# Si number density = 20.375067 Si / 1000 Ang^3
#
#
#
# Elastic Constant Matrix: (Units=GPa)
#
#
# Indices 1 2 3 4 5 6 
#
# 1 162.6518 44.1458 60.6561 0.0000 0.0000 0.0000
# 2 44.1458 64.7681 41.3024 0.0000 0.0000 0.0000
# 3 60.6561 41.3024 127.1670 0.0000 0.0000 0.0000
# 4 0.0000 0.0000 0.0000 15.9886 0.0000 0.0000
# 5 0.0000 0.0000 0.0000 0.0000 6.4587 0.0000
# 6 0.0000 0.0000 0.0000 0.0000 0.0000 31.0113
#
#
#
# Elastic Compliance Matrix: (Units=1/GPa)
#
#
# Indices 1 2 3 4 5 6 
#
# 1 0.008191 -0.003899 -0.002641 0.000000 0.000000 0.000000
# 2 -0.003899 0.021329 -0.005068 0.000000 0.000000 0.000000
# 3 -0.002641 -0.005068 0.010769 0.000000 0.000000 0.000000
# 4 0.000000 0.000000 0.000000 0.062545 0.000000 0.000000
# 5 0.000000 0.000000 0.000000 0.000000 0.154830 0.000000
# 6 0.000000 0.000000 0.000000 0.000000 0.000000 0.032246
#
#
# Mechanical properties :
#
#
# Convention : Reuss Voigt Hill
#
# Bulk Modulus (GPa) = 58.56694 71.86614 65.21654
# Shear Modulus (GPa) = 15.68303 24.59057 20.13680
#
# Velocity S-wave (km/s) = 2.77739 3.47781 3.14714
# Velocity P-wave (km/s) = 6.25236 7.17461 6.72930
#
# Compressibility (1/GPa) = 0.01707448
#
# Stress axis : x y z
#
# Youngs Moduli (GPa) = 122.08361 46.88469 92.85843
#
# Poissons Ratio (x) = 0.18281 0.24520
# Poissons Ratio (y) = 0.47602 0.47057
# Poissons Ratio (z) = 0.32237 0.23759
#
# Static dielectric constant tensor:
#      x y z
#    x 3.960340 0.000000 0.000000 
#    y 0.000000 3.296090 0.000000 
#    z 0.000000 0.000000 3.878130 
# 
# 
# High freq. dielectric constant tensor:
#      x y z
#    x 1.809690 0.000000 0.000000 
#    y 0.000000 1.756590 0.000000 
#    z 0.000000 0.000000 1.802600 
# 
# From -- ./inp_files/17834.got.cif
#   From: 2010.03.12/outbox.cif.g09.slc.cpg/sg35_9_cif.got.tgz:17834.got - 2010.04.14 02:02:04.
