data_PCOD8172169
_publ_section_title
;
Structure prediction by ZEFSAII (Michael W. Deem and Ramdas Pophale) SiO2 
 PCOD8172169
Probable space group: C M M 2
;
_chemical_formula_sum "Si O2"
_cell_formula_units_Z 52
_cell_length_a 21.857773
_cell_length_b 13.002022
_cell_length_c 12.469471
_cell_angle_alpha 90.000000
_cell_angle_beta 90.000000
_cell_angle_gamma 90.000000
_cell_volume 3543.764371
_symmetry_space_group_name_H-M "C M M 2"
_symmetry_group_IT_number 35
_symmetry_cell_setting 'orthorhombic'
loop_
_space_group_symop_operation_xyz
x,y,z
-x,-y,z
-x,y,z
x,-y,z
1/2+x,1/2+y,z
1/2-x,1/2-y,z
1/2-x,1/2+y,z
1/2+x,1/2-y,z
loop_
_atom_site_type_symbol
_atom_site_label
_atom_site_fract_x
_atom_site_fract_y
_atom_site_fract_z
Si Si1 0.223379 0.882919 0.549590
Si Si2 0.351275 0.882322 0.858031
Si Si3 0.932530 0.378167 0.050688
Si Si4 0.651961 0.202080 0.477312
Si Si5 0.429748 0.120583 0.292838
Si Si6 0.069125 0.383865 0.652735
Si Si7 0.750000 0.250000 0.747587
O O1 0.291408 0.874961 0.499678
O O2 0.176430 0.819279 0.475138
O O3 0.220849 0.836747 0.670136
O O4 0.201985 0.000000 0.553039
O O5 0.404916 0.879308 0.771650
O O6 0.298029 0.804480 0.825612
O O7 0.326476 0.000000 0.869431
O O8 0.380577 0.839473 0.968625
O O9 0.936683 0.500000 0.043003
O O10 0.914725 0.345582 0.171373
O O11 0.000000 0.333012 0.022340
O O12 0.618256 0.180996 0.366028
O O13 0.605038 0.191663 0.574866
O O14 0.500000 0.148838 0.322462
O O15 0.419483 0.000000 0.309738
O O16 0.073380 0.500000 0.606771
O O17 0.000000 0.344983 0.657560
#
# Coordination Sequence:
#
# PCOD8172169 Si02
#       7
#     8   8   8   8   8   8   4
#     4  10  19  31  44  60  88 120 148 177 216 260
#     4  10  17  28  43  64  91 115 145 177 213 260
#     4   8  15  27  43  65  92 118 138 167 219 268
#     4  10  18  28  44  66  87 113 146 176 215 261
#     4   9  16  27  45  68  93 117 140 173 220 267
#     4  10  17  24  40  66  90 109 134 177 223 260
#     4  10  18  28  44  64  84 120 150 176 214 252
#
# _framework density 14.673662999999999
#
# number of rings (size 3 to 8) (size 9 to 14) (size 15 to 20)
#    0.000    2.615    3.077    3.692    0.000    3.077 
#    0.000    1.538    0.000    1.846    0.000    1.077 
#    0.000    2.462    0.000    0.000    0.000    0.000 
#
# Total GULP energy -322272.308557 kJ/mol
# GULP energy per Si atom -12395.088791 kJ/mol
# Density = 1.464026 g / cm^3
# Si number density = 14.673663 Si / 1000 Ang^3
#
#
#
# Elastic Constant Matrix: (Units=GPa)
#
#
# Indices 1 2 3 4 5 6 
#
# 1 105.7606 43.8499 59.3049 0.0000 0.0000 0.0000
# 2 43.8499 75.9835 35.0955 0.0000 0.0000 0.0000
# 3 59.3049 35.0955 104.4359 0.0000 0.0000 0.0000
# 4 0.0000 0.0000 0.0000 14.3846 0.0000 0.0000
# 5 0.0000 0.0000 0.0000 0.0000 30.6072 0.0000
# 6 0.0000 0.0000 0.0000 0.0000 0.0000 21.5083
#
#
#
# Elastic Compliance Matrix: (Units=1/GPa)
#
#
# Indices 1 2 3 4 5 6 
#
# 1 0.015830 -0.005899 -0.007007 0.000000 0.000000 0.000000
# 2 -0.005899 0.017777 -0.002624 0.000000 0.000000 0.000000
# 3 -0.007007 -0.002624 0.014436 0.000000 0.000000 0.000000
# 4 0.000000 0.000000 0.000000 0.069519 0.000000 0.000000
# 5 0.000000 0.000000 0.000000 0.000000 0.032672 0.000000
# 6 0.000000 0.000000 0.000000 0.000000 0.000000 0.046494
#
#
# Mechanical properties :
#
#
# Convention : Reuss Voigt Hill
#
# Bulk Modulus (GPa) = 58.88233 62.52007 60.70120
# Shear Modulus (GPa) = 21.41790 23.16201 22.28996
#
# Velocity S-wave (km/s) = 3.82464 3.97731 3.90172
# Velocity P-wave (km/s) = 7.72779 7.98696 7.85845
#
# Compressibility (1/GPa) = 0.01698302
#
# Stress axis : x y z
#
# Youngs Moduli (GPa) = 63.16973 56.25180 69.27109
#
# Poissons Ratio (x) = 0.33184 0.48538
# Poissons Ratio (y) = 0.37265 0.18177
# Poissons Ratio (z) = 0.44263 0.14761
#
# Static dielectric constant tensor:
#      x y z
#    x 2.957630 0.000000 0.000000 
#    y 0.000000 2.585470 0.000000 
#    z 0.000000 0.000000 2.945900 
# 
# 
# High freq. dielectric constant tensor:
#      x y z
#    x 1.560440 0.000000 0.000000 
#    y 0.000000 1.520550 0.000000 
#    z 0.000000 0.000000 1.561520 
# 
# From -- ./inp_files/13311.got.cif
#   From: 2010.03.12/outbox.cif.g09.slc.cpg/sg35_7_cif.got.tgz:13311.got - 2010.04.14 02:02:04.
