data_PCOD8172168
_publ_section_title
;
Structure prediction by ZEFSAII (Michael W. Deem and Ramdas Pophale) SiO2 
 PCOD8172168
Probable space group: C M M 2
;
_chemical_formula_sum "Si O2"
_cell_formula_units_Z 64
_cell_length_a 18.517591
_cell_length_b 26.492287
_cell_length_c 9.156485
_cell_angle_alpha 90.000000
_cell_angle_beta 90.000000
_cell_angle_gamma 90.000000
_cell_volume 4491.927386
_symmetry_space_group_name_H-M "C M M 2"
_symmetry_group_IT_number 35
_symmetry_cell_setting 'orthorhombic'
loop_
_space_group_symop_operation_xyz
x,y,z
-x,-y,z
-x,y,z
x,-y,z
1/2+x,1/2+y,z
1/2-x,1/2-y,z
1/2-x,1/2+y,z
1/2+x,1/2-y,z
loop_
_atom_site_type_symbol
_atom_site_label
_atom_site_fract_x
_atom_site_fract_y
_atom_site_fract_z
Si Si1 0.917646 0.741882 0.435740
Si Si2 0.336624 0.847209 0.933817
Si Si3 0.288194 0.303851 0.768097
Si Si4 0.919246 0.555639 0.933597
Si Si5 0.419246 0.944361 0.280256
Si Si6 0.288194 0.303851 0.445755
Si Si7 0.663376 0.847209 0.280036
Si Si8 0.082354 0.258118 0.778112
O O1 0.870751 0.792159 0.396001
O O2 0.890758 0.694111 0.344593
O O3 0.908048 0.729127 0.606926
O O4 0.000000 0.753719 0.394255
O O5 0.254122 0.840415 0.878921
O O6 0.363914 0.901802 0.877615
O O7 0.390758 0.805889 0.869260
O O8 0.337530 0.842309 0.106926
O O9 0.250000 0.250000 0.764329
O O10 0.286473 0.328670 0.606926
O O11 0.370751 0.292159 0.817852
O O12 0.893966 0.500000 0.879115
O O13 0.000000 0.567083 0.874086
O O14 0.921333 0.556509 0.106926
O O15 0.500000 0.932917 0.339766
O O16 0.363914 0.901802 0.336238
O O17 0.393966 0.000000 0.334738
O O18 0.250000 0.250000 0.449524
O O19 0.245878 0.340415 0.334931
O O20 0.000000 0.246281 0.819598
#
# Coordination Sequence:
#
# PCOD8172168 Si02
#       8
#     8   8   8   8   8   8   8   8
#     4   9  17  28  40  53  72 100 129 152 178 217
#     4  10  17  24  38  58  76  96 124 155 185 214
#     4   8  15  27  39  51  71  99 125 148 179 220
#     4   8  14  24  36  51  73  99 125 152 180 211
#     4   8  14  24  36  51  73  99 125 152 180 211
#     4   8  15  27  39  51  71  99 125 148 179 220
#     4  10  17  24  38  58  76  96 124 155 185 214
#     4   9  17  28  40  53  72 100 129 152 178 217
#
# _framework density 14.247782000000001
#
# number of rings (size 3 to 8) (size 9 to 14) (size 15 to 20)
#    0.000    3.250    0.000    3.750    0.000    6.000 
#    0.000    0.000    0.000    3.000    0.000    8.750 
#    0.000    1.000    0.000   12.500    0.000    0.000 
#
# Total GULP energy -396492.597720 kJ/mol
# GULP energy per Si atom -12390.393679 kJ/mol
# Density = 1.421535 g / cm^3
# Si number density = 14.247782 Si / 1000 Ang^3
#
#
#
# Elastic Constant Matrix: (Units=GPa)
#
#
# Indices 1 2 3 4 5 6 
#
# 1 120.4152 62.6284 37.0185 0.0000 0.0000 0.0000
# 2 62.6284 88.4905 34.2764 0.0000 0.0000 0.0000
# 3 37.0185 34.2764 46.2815 0.0000 0.0000 0.0000
# 4 0.0000 0.0000 0.0000 0.2906 0.0000 0.0000
# 5 0.0000 0.0000 0.0000 0.0000 20.2711 0.0000
# 6 0.0000 0.0000 0.0000 0.0000 0.0000 24.6744
#
#
#
# Elastic Compliance Matrix: (Units=1/GPa)
#
#
# Indices 1 2 3 4 5 6 
#
# 1 0.014053 -0.007842 -0.005433 0.000000 0.000000 0.000000
# 2 -0.007842 0.020222 -0.008704 0.000000 0.000000 0.000000
# 3 -0.005433 -0.008704 0.032399 0.000000 0.000000 0.000000
# 4 0.000000 0.000000 0.000000 3.440932 0.000000 0.000000
# 5 0.000000 0.000000 0.000000 0.000000 0.049331 0.000000
# 6 0.000000 0.000000 0.000000 0.000000 0.000000 0.040528
#
#
# Mechanical properties :
#
#
# Convention : Reuss Voigt Hill
#
# Bulk Modulus (GPa) = 44.02128 58.11486 51.06807
# Shear Modulus (GPa) = 1.37024 17.13150 9.25087
#
# Velocity S-wave (km/s) = 0.98174 3.47132 2.55087
# Velocity P-wave (km/s) = 5.67883 7.54613 6.67807
#
# Compressibility (1/GPa) = 0.02271628
#
# Stress axis : x y z
#
# Youngs Moduli (GPa) = 71.15762 49.45071 30.86502
#
# Poissons Ratio (x) = 0.38778 0.16769
# Poissons Ratio (y) = 0.55799 0.26866
# Poissons Ratio (z) = 0.38660 0.43044
#
# Static dielectric constant tensor:
#      x y z
#    x 3.195350 0.000000 0.000000 
#    y 0.000000 2.796350 0.000000 
#    z 0.000000 0.000000 2.654810 
# 
# 
# High freq. dielectric constant tensor:
#      x y z
#    x 1.540080 0.000000 0.000000 
#    y 0.000000 1.510200 0.000000 
#    z 0.000000 0.000000 1.530900 
# 
# From -- ./inp_files/8865.got.cif
#   From: 2010.03.12/outbox.cif.g09.slc.cpg/sg35_5_cif.got.tgz:8865.got - 2010.04.14 02:02:04.
