data_PCOD8172476
_publ_section_title
;
Structure prediction by ZEFSAII (Michael W. Deem and Ramdas Pophale) SiO2 
 PCOD8172476
Probable space group: C M M 2
;
_chemical_formula_sum "Si O2"
_cell_formula_units_Z 64
_cell_length_a 8.928064
_cell_length_b 30.825409
_cell_length_c 11.853965
_cell_angle_alpha 90.000000
_cell_angle_beta 90.000000
_cell_angle_gamma 90.000000
_cell_volume 3262.344221
_symmetry_space_group_name_H-M "C M M 2"
_symmetry_group_IT_number 35
_symmetry_cell_setting 'orthorhombic'
loop_
_space_group_symop_operation_xyz
x,y,z
-x,-y,z
-x,y,z
x,-y,z
1/2+x,1/2+y,z
1/2-x,1/2-y,z
1/2-x,1/2+y,z
1/2+x,1/2-y,z
loop_
_atom_site_type_symbol
_atom_site_label
_atom_site_fract_x
_atom_site_fract_y
_atom_site_fract_z
Si Si1 0.175605 0.076349 0.953900
Si Si2 0.673246 0.047876 0.175415
Si Si3 0.325873 0.873304 0.584181
Si Si4 0.677800 0.705562 0.711576
Si Si5 0.674434 0.128497 0.321112
Si Si6 0.822474 0.826454 0.951412
Si Si7 0.327096 0.549229 0.706746
Si Si8 0.177355 0.794245 0.191478
O O1 0.243218 0.124935 0.950191
O O2 0.216463 0.052391 0.838077
O O3 0.000000 0.077867 0.974591
O O4 0.245198 0.050070 0.056149
O O5 0.500000 0.055466 0.151318
O O6 0.731306 0.084008 0.263034
O O7 0.703128 0.000000 0.227405
O O8 0.500000 0.865446 0.609900
O O9 0.230877 0.834278 0.635897
O O10 0.292011 0.875410 0.452377
O O11 0.277100 0.919270 0.634925
O O12 0.500000 0.708829 0.703187
O O13 0.750000 0.750000 0.665736
O O14 0.734297 0.698488 0.840166
O O15 0.500000 0.137331 0.296975
O O16 0.771487 0.167482 0.272529
O O17 0.000000 0.828819 0.949827
O O18 0.764672 0.802528 0.063773
O O19 0.500000 0.563061 0.690031
O O20 0.299395 0.500000 0.666085
O O21 0.250000 0.750000 0.236237
O O22 0.000000 0.790390 0.196791
#
# Coordination Sequence:
#
# PCOD8172476 Si02
#       8
#     8   8   8   8   8   8   8   8
#     4  10  18  35  60  87 118 153 189 229 285 347
#     4  10  21  37  58  86 118 151 189 237 291 342
#     4  11  24  41  61  85 114 154 202 247 292 341
#     4  11  22  40  63  89 121 154 191 237 291 349
#     4  10  23  42  60  81 113 154 198 242 289 339
#     4   9  18  34  59  88 118 151 185 229 286 346
#     4  10  21  38  61  88 120 157 193 236 293 349
#     4  11  22  38  61  89 118 150 189 234 286 344
#
# _framework density 19.617795999999998
#
# number of rings (size 3 to 8) (size 9 to 14) (size 15 to 20)
#    0.000    1.750    2.500    1.875    0.000    3.500 
#    0.000    3.125    0.000    0.000    0.000    0.000 
#    0.000    0.000    0.000    0.000    0.000    0.000 
#
# Total GULP energy -396889.650748 kJ/mol
# GULP energy per Si atom -12402.801586 kJ/mol
# Density = 1.957314 g / cm^3
# Si number density = 19.617796 Si / 1000 Ang^3
#
#
#
# Elastic Constant Matrix: (Units=GPa)
#
#
# Indices 1 2 3 4 5 6 
#
# 1 66.2806 49.6372 47.6081 0.0000 0.0000 0.0000
# 2 49.6372 152.1769 55.7191 0.0000 0.0000 0.0000
# 3 47.6081 55.7191 113.5994 0.0000 0.0000 0.0000
# 4 0.0000 0.0000 0.0000 3.7614 0.0000 0.0000
# 5 0.0000 0.0000 0.0000 0.0000 28.0596 0.0000
# 6 0.0000 0.0000 0.0000 0.0000 0.0000 32.0132
#
#
#
# Elastic Compliance Matrix: (Units=1/GPa)
#
#
# Indices 1 2 3 4 5 6 
#
# 1 0.024513 -0.005161 -0.007742 0.000000 0.000000 0.000000
# 2 -0.005161 0.009096 -0.002299 0.000000 0.000000 0.000000
# 3 -0.007742 -0.002299 0.013175 0.000000 0.000000 0.000000
# 4 0.000000 0.000000 0.000000 0.265856 0.000000 0.000000
# 5 0.000000 0.000000 0.000000 0.000000 0.035638 0.000000
# 6 0.000000 0.000000 0.000000 0.000000 0.000000 0.031237
#
#
# Mechanical properties :
#
#
# Convention : Reuss Voigt Hill
#
# Bulk Modulus (GPa) = 61.04511 70.88731 65.96621
# Shear Modulus (GPa) = 12.03718 24.70635 18.37176
#
# Velocity S-wave (km/s) = 2.47975 3.55263 3.06352
# Velocity P-wave (km/s) = 6.27564 7.28292 6.79796
#
# Compressibility (1/GPa) = 0.01638133
#
# Stress axis : x y z
#
# Youngs Moduli (GPa) = 40.79424 109.93320 75.90237
#
# Poissons Ratio (x) = 0.56738 0.58762
# Poissons Ratio (y) = 0.21055 0.17448
# Poissons Ratio (z) = 0.31582 0.25270
#
# Static dielectric constant tensor:
#      x y z
#    x 3.408670 0.000000 0.000000 
#    y 0.000000 3.712290 0.000000 
#    z 0.000000 0.000000 3.578320 
# 
# 
# High freq. dielectric constant tensor:
#      x y z
#    x 1.750620 0.000000 0.000000 
#    y 0.000000 1.781100 0.000000 
#    z 0.000000 0.000000 1.760420 
# 
# From -- ./inp_files/11832.got.cif
#   From: 2010.03.12/outbox.cif.g09.slc.cpg/sg35_6_cif.got.tgz:11832.got - 2010.04.14 02:02:04.
