data_PCOD8172909
_publ_section_title
;
Structure prediction by ZEFSAII (Michael W. Deem and Ramdas Pophale) SiO2 
 PCOD8172909
Probable space group: C M M 2
;
_chemical_formula_sum "Si O2"
_cell_formula_units_Z 64
_cell_length_a 8.697647
_cell_length_b 30.989424
_cell_length_c 11.878376
_cell_angle_alpha 90.000000
_cell_angle_beta 90.000000
_cell_angle_gamma 90.000000
_cell_volume 3201.638915
_symmetry_space_group_name_H-M "C M M 2"
_symmetry_group_IT_number 35
_symmetry_cell_setting 'orthorhombic'
loop_
_space_group_symop_operation_xyz
x,y,z
-x,-y,z
-x,y,z
x,-y,z
1/2+x,1/2+y,z
1/2-x,1/2-y,z
1/2-x,1/2+y,z
1/2+x,1/2-y,z
loop_
_atom_site_type_symbol
_atom_site_label
_atom_site_fract_x
_atom_site_fract_y
_atom_site_fract_z
Si Si1 0.680070 0.625439 0.004260
Si Si2 0.819360 0.206818 0.850122
Si Si3 0.823098 0.951639 0.847445
Si Si4 0.818343 0.794574 0.388173
Si Si5 0.682220 0.177490 0.621492
Si Si6 0.319107 0.871473 0.245932
Si Si7 0.681572 0.079755 0.624305
Si Si8 0.817268 0.452437 0.386447
O O1 0.500000 0.623486 0.034606
O O2 0.780660 0.629068 0.115230
O O3 0.720736 0.666454 0.928303
O O4 0.736651 0.582433 0.939561
O O5 0.750000 0.250000 0.907938
O O6 0.734734 0.202892 0.731163
O O7 0.000000 0.211115 0.830972
O O8 0.734498 0.947686 0.730596
O O9 0.000000 0.941714 0.821609
O O10 0.798016 0.000000 0.895045
O O11 0.750000 0.750000 0.339672
O O12 0.759102 0.800887 0.514169
O O13 0.766679 0.832917 0.307454
O O14 0.000000 0.791757 0.387992
O O15 0.500000 0.179952 0.607144
O O16 0.742507 0.128549 0.632701
O O17 0.500000 0.865724 0.265381
O O18 0.259309 0.916836 0.297556
O O19 0.500000 0.079357 0.621144
O O20 0.748221 0.058671 0.510355
O O21 0.756553 0.500000 0.350689
O O22 0.000000 0.452251 0.390456
#
# Coordination Sequence:
#
# PCOD8172909 Si02
#       8
#     8   8   8   8   8   8   8   8
#     4  10  23  42  60  83 117 160 205 251 304 355
#     4  11  23  40  62  88 120 157 197 244 298 359
#     4  10  21  38  60  87 122 160 200 248 300 356
#     4  12  25  42  65  91 123 160 199 245 300 361
#     4  11  21  37  62  93 125 157 197 243 298 358
#     4  11  23  41  63  89 120 158 205 255 303 353
#     4  10  19  34  60  89 122 157 195 243 298 359
#     4   9  18  35  59  88 122 157 194 242 298 353
#
# _framework density 19.989763
#
# number of rings (size 3 to 8) (size 9 to 14) (size 15 to 20)
#    0.000    1.500    2.500    3.000    0.000    3.750 
#    0.000    1.250    0.000    1.875    0.000    0.000 
#    0.000    0.000    0.000    0.000    0.000    0.000 
#
# Total GULP energy -396910.238353 kJ/mol
# GULP energy per Si atom -12403.444949 kJ/mol
# Density = 1.994427 g / cm^3
# Si number density = 19.989763 Si / 1000 Ang^3
#
#
#
# Elastic Constant Matrix: (Units=GPa)
#
#
# Indices 1 2 3 4 5 6 
#
# 1 72.0414 45.3486 34.3966 0.0000 0.0000 0.0000
# 2 45.3486 173.9644 58.4980 0.0000 0.0000 0.0000
# 3 34.3966 58.4980 118.9847 0.0000 0.0000 0.0000
# 4 0.0000 0.0000 0.0000 14.7871 0.0000 0.0000
# 5 0.0000 0.0000 0.0000 0.0000 31.5846 0.0000
# 6 0.0000 0.0000 0.0000 0.0000 0.0000 25.1053
#
#
#
# Elastic Compliance Matrix: (Units=1/GPa)
#
#
# Indices 1 2 3 4 5 6 
#
# 1 0.017690 -0.003465 -0.003411 0.000000 0.000000 0.000000
# 2 -0.003465 0.007565 -0.002718 0.000000 0.000000 0.000000
# 3 -0.003411 -0.002718 0.010727 0.000000 0.000000 0.000000
# 4 0.000000 0.000000 0.000000 0.067627 0.000000 0.000000
# 5 0.000000 0.000000 0.000000 0.000000 0.031661 0.000000
# 6 0.000000 0.000000 0.000000 0.000000 0.000000 0.039832
#
#
# Mechanical properties :
#
#
# Convention : Reuss Voigt Hill
#
# Bulk Modulus (GPa) = 59.53795 71.27521 65.40658
# Shear Modulus (GPa) = 25.01414 29.41189 27.21301
#
# Velocity S-wave (km/s) = 3.54128 3.83998 3.69365
# Velocity P-wave (km/s) = 6.82420 7.44270 7.14015
#
# Compressibility (1/GPa) = 0.01679601
#
# Stress axis : x y z
#
# Youngs Moduli (GPa) = 56.52843 132.18124 93.22587
#
# Poissons Ratio (x) = 0.45795 0.31796
# Poissons Ratio (y) = 0.19585 0.25338
# Poissons Ratio (z) = 0.19280 0.35926
#
# Static dielectric constant tensor:
#      x y z
#    x 3.467260 0.000000 0.000000 
#    y 0.000000 4.084390 0.000000 
#    z 0.000000 0.000000 3.546300 
# 
# 
# High freq. dielectric constant tensor:
#      x y z
#    x 1.766900 0.000000 0.000000 
#    y 0.000000 1.803170 0.000000 
#    z 0.000000 0.000000 1.773950 
# 
# From -- ./inp_files/11957.got.cif
#   From: 2010.03.12/outbox.cif.g09.slc.cpg/sg35_6_cif.got.tgz:11957.got - 2010.04.14 02:02:04.
