data_PCOD8172816
_publ_section_title
;
Structure prediction by ZEFSAII (Michael W. Deem and Ramdas Pophale) SiO2 
 PCOD8172816
Probable space group: C M M 2
;
_chemical_formula_sum "Si O2"
_cell_formula_units_Z 56
_cell_length_a 19.301690
_cell_length_b 8.675848
_cell_length_c 17.667606
_cell_angle_alpha 90.000000
_cell_angle_beta 90.000000
_cell_angle_gamma 90.000000
_cell_volume 2958.591304
_symmetry_space_group_name_H-M "C M M 2"
_symmetry_group_IT_number 35
_symmetry_cell_setting 'orthorhombic'
loop_
_space_group_symop_operation_xyz
x,y,z
-x,-y,z
-x,y,z
x,-y,z
1/2+x,1/2+y,z
1/2-x,1/2-y,z
1/2-x,1/2+y,z
1/2+x,1/2-y,z
loop_
_atom_site_type_symbol
_atom_site_label
_atom_site_fract_x
_atom_site_fract_y
_atom_site_fract_z
Si Si1 0.918907 0.177148 0.521770
Si Si2 0.581271 0.822187 0.364896
Si Si3 0.323028 0.817793 0.645079
Si Si4 0.323420 0.681292 0.241383
Si Si5 0.824201 0.316997 0.080855
Si Si6 0.677573 0.181684 0.817096
Si Si7 0.922433 0.683244 0.946653
O O1 0.894129 0.270081 0.447922
O O2 0.883460 0.247209 0.595204
O O3 0.000000 0.197180 0.534779
O O4 0.897682 0.000000 0.511023
O O5 0.500000 0.792831 0.354924
O O6 0.619257 0.718235 0.303498
O O7 0.601101 0.000000 0.353223
O O8 0.250000 0.750000 0.617446
O O9 0.338396 0.766466 0.731321
O O10 0.321658 0.000000 0.635923
O O11 0.315492 0.500000 0.230972
O O12 0.250000 0.750000 0.267736
O O13 0.347653 0.754881 0.162351
O O14 0.818766 0.500000 0.083806
O O15 0.750000 0.250000 0.056791
O O16 0.881061 0.259986 0.020577
O O17 0.750000 0.250000 0.845829
O O18 0.616400 0.243593 0.871221
O O19 0.684130 0.000000 0.823138
O O20 0.925811 0.500000 0.945770
O O21 0.000000 0.753017 0.948207
#
# Coordination Sequence:
#
# PCOD8172816 Si02
#       7
#     8   8   8   8   8   8   8
#     4  10  21  37  56  79 109 143 178 218 266 318
#     4  10  21  38  59  82 109 141 178 218 263 318
#     4  10  20  34  54  80 108 140 180 224 269 317
#     4  11  22  37  57  81 110 141 178 222 267 316
#     4  10  19  33  54  77 103 138 177 217 264 316
#     4   9  18  33  54  77 103 137 175 217 263 313
#     4   9  18  32  51  77 106 136 174 218 262 310
#
# _framework density 18.927925999999999
#
# number of rings (size 3 to 8) (size 9 to 14) (size 15 to 20)
#    0.000    2.143    0.000    4.286    0.000    4.000 
#    0.000    6.429    0.000    3.429    0.000    0.000 
#    0.000    0.000    0.000    0.000    0.000    0.000 
#
# Total GULP energy -347280.050588 kJ/mol
# GULP energy per Si atom -12402.858950 kJ/mol
# Density = 1.888485 g / cm^3
# Si number density = 18.927926 Si / 1000 Ang^3
#
#
#
# Elastic Constant Matrix: (Units=GPa)
#
#
# Indices 1 2 3 4 5 6 
#
# 1 106.7042 33.9659 77.8905 0.0000 0.0000 0.0000
# 2 33.9659 73.1249 32.3439 0.0000 0.0000 0.0000
# 3 77.8905 32.3439 123.5099 0.0000 0.0000 0.0000
# 4 0.0000 0.0000 0.0000 24.9049 0.0000 0.0000
# 5 0.0000 0.0000 0.0000 0.0000 41.7964 0.0000
# 6 0.0000 0.0000 0.0000 0.0000 0.0000 29.8570
#
#
#
# Elastic Compliance Matrix: (Units=1/GPa)
#
#
# Indices 1 2 3 4 5 6 
#
# 1 0.018270 -0.003834 -0.010518 0.000000 0.000000 0.000000
# 2 -0.003834 0.016271 -0.001843 0.000000 0.000000 0.000000
# 3 -0.010518 -0.001843 0.015212 0.000000 0.000000 0.000000
# 4 0.000000 0.000000 0.000000 0.040153 0.000000 0.000000
# 5 0.000000 0.000000 0.000000 0.000000 0.023926 0.000000
# 6 0.000000 0.000000 0.000000 0.000000 0.000000 0.033493
#
#
# Mechanical properties :
#
#
# Convention : Reuss Voigt Hill
#
# Bulk Modulus (GPa) = 57.59201 65.74884 61.67043
# Shear Modulus (GPa) = 26.95399 29.92091 28.43745
#
# Velocity S-wave (km/s) = 3.77773 3.98022 3.88029
# Velocity P-wave (km/s) = 7.03714 7.47895 7.26141
#
# Compressibility (1/GPa) = 0.01736352
#
# Stress axis : x y z
#
# Youngs Moduli (GPa) = 54.73580 61.45770 65.73776
#
# Poissons Ratio (x) = 0.23563 0.69140
# Poissons Ratio (y) = 0.20986 0.12116
# Poissons Ratio (z) = 0.57568 0.11327
#
# Static dielectric constant tensor:
#      x y z
#    x 3.537010 0.000000 0.000000 
#    y 0.000000 3.429330 0.000000 
#    z 0.000000 0.000000 3.622340 
# 
# 
# High freq. dielectric constant tensor:
#      x y z
#    x 1.732550 0.000000 0.000000 
#    y 0.000000 1.733270 0.000000 
#    z 0.000000 0.000000 1.745610 
# 
# From -- ./inp_files/15595.got.cif
#   From: 2010.03.12/outbox.cif.g09.slc.cpg/sg35_8_cif.got.tgz:15595.got - 2010.04.14 02:02:04.
