data_PCOD8172970
_publ_section_title
;
Structure prediction by ZEFSAII (Michael W. Deem and Ramdas Pophale) SiO2 
 PCOD8172970
Probable space group: C M M 2
;
_chemical_formula_sum "Si O2"
_cell_formula_units_Z 48
_cell_length_a 8.850953
_cell_length_b 14.908653
_cell_length_c 18.907249
_cell_angle_alpha 90.000000
_cell_angle_beta 90.000000
_cell_angle_gamma 90.000000
_cell_volume 2494.920922
_symmetry_space_group_name_H-M "C M M 2"
_symmetry_group_IT_number 35
_symmetry_cell_setting 'orthorhombic'
loop_
_space_group_symop_operation_xyz
x,y,z
-x,-y,z
-x,y,z
x,-y,z
1/2+x,1/2+y,z
1/2-x,1/2-y,z
1/2-x,1/2+y,z
1/2+x,1/2-y,z
loop_
_atom_site_type_symbol
_atom_site_label
_atom_site_fract_x
_atom_site_fract_y
_atom_site_fract_z
Si Si1 0.174762 0.500000 0.232540
Si Si2 0.828561 0.894302 0.858448
Si Si3 0.178279 0.340658 0.998499
Si Si4 0.320392 0.000000 0.449573
Si Si5 0.178546 0.842067 0.703492
Si Si6 0.821591 0.000000 0.602264
Si Si7 0.823754 0.651534 0.344889
Si Si8 0.677935 0.500000 0.083822
O O1 0.209939 0.408809 0.275749
O O2 0.285431 0.500000 0.166330
O O3 0.000000 0.500000 0.208556
O O4 0.763792 0.867415 0.781806
O O5 0.000000 0.858990 0.869628
O O6 0.825289 0.000000 0.866647
O O7 0.719032 0.851202 0.916023
O O8 0.250000 0.250000 0.028012
O O9 0.250675 0.415093 0.046901
O O10 0.000000 0.341106 0.007712
O O11 0.262889 0.908648 0.410866
O O12 0.500000 0.000000 0.446352
O O13 0.262398 0.000000 0.528542
O O14 0.250000 0.750000 0.677778
O O15 0.000000 0.835938 0.704623
O O16 0.232579 0.914570 0.646790
O O17 0.000000 0.000000 0.589396
O O18 0.750000 0.750000 0.340983
O O19 0.000000 0.669150 0.353200
O O20 0.500000 0.500000 0.071401
#
# Coordination Sequence:
#
# PCOD8172970 Si02
#       8
#     4   8   8   4   8   4   8   4
#     4   9  20  40  61  85 119 156 188 229 282 338
#     4  10  19  36  61  83 111 150 192 244 300 351
#     4  12  25  41  61  87 117 154 199 246 296 353
#     4   9  20  38  57  83 117 152 186 227 280 334
#     4  10  21  37  56  80 110 149 192 238 291 345
#     4  10  21  38  56  78 112 152 191 232 284 340
#     4   9  19  37  62  88 117 150 187 229 277 333
#     4  12  25  42  62  88 122 158 195 240 290 346
#
# _framework density 19.239087000000001
#
# number of rings (size 3 to 8) (size 9 to 14) (size 15 to 20)
#    0.000    1.833    1.667    3.750    0.000    5.333 
#    0.000    6.667    0.000    0.000    0.000    0.000 
#    0.000    0.000    0.000    0.000    0.000    0.000 
#
# Total GULP energy -297595.670558 kJ/mol
# GULP energy per Si atom -12399.819607 kJ/mol
# Density = 1.919530 g / cm^3
# Si number density = 19.239087 Si / 1000 Ang^3
#
#
#
# Elastic Constant Matrix: (Units=GPa)
#
#
# Indices 1 2 3 4 5 6 
#
# 1 92.7949 58.9391 47.8754 0.0000 0.0000 0.0000
# 2 58.9391 174.0907 65.7334 0.0000 0.0000 0.0000
# 3 47.8754 65.7334 122.9932 0.0000 0.0000 0.0000
# 4 0.0000 0.0000 0.0000 43.6443 0.0000 0.0000
# 5 0.0000 0.0000 0.0000 0.0000 35.9387 0.0000
# 6 0.0000 0.0000 0.0000 0.0000 0.0000 35.1493
#
#
#
# Elastic Compliance Matrix: (Units=1/GPa)
#
#
# Indices 1 2 3 4 5 6 
#
# 1 0.015116 -0.003628 -0.003945 0.000000 0.000000 0.000000
# 2 -0.003628 0.008067 -0.002899 0.000000 0.000000 0.000000
# 3 -0.003945 -0.002899 0.011216 0.000000 0.000000 0.000000
# 4 0.000000 0.000000 0.000000 0.022912 0.000000 0.000000
# 5 0.000000 0.000000 0.000000 0.000000 0.027825 0.000000
# 6 0.000000 0.000000 0.000000 0.000000 0.000000 0.028450
#
#
# Mechanical properties :
#
#
# Convention : Reuss Voigt Hill
#
# Bulk Modulus (GPa) = 74.32550 81.66384 77.99467
# Shear Modulus (GPa) = 35.96708 37.43518 36.70113
#
# Velocity S-wave (km/s) = 4.32844 4.41589 4.37239
# Velocity P-wave (km/s) = 7.98104 8.27884 8.13130
#
# Compressibility (1/GPa) = 0.01345433
#
# Stress axis : x y z
#
# Youngs Moduli (GPa) = 66.15426 123.95991 89.16157
#
# Poissons Ratio (x) = 0.44974 0.35174
# Poissons Ratio (y) = 0.24001 0.25850
# Poissons Ratio (z) = 0.26098 0.35939
#
# Static dielectric constant tensor:
#      x y z
#    x 3.419020 0.000000 0.000000 
#    y 0.000000 3.674420 0.000000 
#    z 0.000000 0.000000 3.571450 
# 
# 
# High freq. dielectric constant tensor:
#      x y z
#    x 1.739280 0.000000 0.000000 
#    y 0.000000 1.765060 0.000000 
#    z 0.000000 0.000000 1.748860 
# 
# From -- ./inp_files/17965.got.cif
#   From: 2010.03.12/outbox.cif.g09.slc.cpg/sg35_9_cif.got.tgz:17965.got - 2010.04.14 02:02:04.
