data_PCOD8172768
_publ_section_title
;
Structure prediction by ZEFSAII (Michael W. Deem and Ramdas Pophale) SiO2 
 PCOD8172768
Probable space group: C M M 2
;
_chemical_formula_sum "Si O2"
_cell_formula_units_Z 56
_cell_length_a 13.894234
_cell_length_b 14.345777
_cell_length_c 13.319183
_cell_angle_alpha 90.000000
_cell_angle_beta 90.000000
_cell_angle_gamma 90.000000
_cell_volume 2654.827272
_symmetry_space_group_name_H-M "C M M 2"
_symmetry_group_IT_number 35
_symmetry_cell_setting 'orthorhombic'
loop_
_space_group_symop_operation_xyz
x,y,z
-x,-y,z
-x,y,z
x,-y,z
1/2+x,1/2+y,z
1/2-x,1/2-y,z
1/2-x,1/2+y,z
1/2+x,1/2-y,z
loop_
_atom_site_type_symbol
_atom_site_label
_atom_site_fract_x
_atom_site_fract_y
_atom_site_fract_z
Si Si1 0.719673 0.894220 0.485430
Si Si2 0.268207 0.859226 0.707445
Si Si3 0.395317 0.622884 0.841938
Si Si4 0.735247 0.398586 0.025059
Si Si5 0.390597 0.608660 0.208981
Si Si6 0.111230 0.782182 0.412086
Si Si7 0.894255 0.335979 0.886821
O O1 0.692806 0.899679 0.602918
O O2 0.827894 0.852284 0.482190
O O3 0.649004 0.824747 0.423367
O O4 0.713122 0.000000 0.441204
O O5 0.250000 0.750000 0.696873
O O6 0.167480 0.904716 0.744017
O O7 0.345506 0.888962 0.793091
O O8 0.500000 0.576575 0.830122
O O9 0.405000 0.732347 0.850087
O O10 0.346305 0.585663 0.942132
O O11 0.778584 0.500000 0.051324
O O12 0.683964 0.356838 0.123867
O O13 0.824547 0.336545 0.984902
O O14 0.500000 0.619052 0.169411
O O15 0.372293 0.500000 0.239947
O O16 0.373475 0.679945 0.299911
O O17 0.000000 0.786146 0.445091
O O18 0.000000 0.378371 0.911912
#
# Coordination Sequence:
#
# PCOD8172768 Si02
#       7
#     8   8   8   8   8   8   8
#     4  11  23  40  62  94 127 159 206 262 316 370
#     4   9  17  34  53  82 116 163 202 248 295 358
#     4   9  18  33  54  81 114 154 198 241 285 346
#     4  10  19  32  54  84 119 152 187 241 300 354
#     4   9  18  35  61  90 117 152 202 254 307 369
#     4  10  22  42  65  89 120 163 207 257 315 373
#     4   9  19  35  55  81 116 161 205 236 275 347
#
# _framework density 21.093651000000001
#
# number of rings (size 3 to 8) (size 9 to 14) (size 15 to 20)
#    0.000    2.429    1.429    2.143    0.000    5.714 
#    5.143    0.000    0.000    0.000    0.000    4.000 
#    0.000    0.000    0.000    0.000    0.000    0.000 
#
# Total GULP energy -346891.600324 kJ/mol
# GULP energy per Si atom -12388.985726 kJ/mol
# Density = 2.104564 g / cm^3
# Si number density = 21.093651 Si / 1000 Ang^3
#
#
#
# Elastic Constant Matrix: (Units=GPa)
#
#
# Indices 1 2 3 4 5 6 
#
# 1 163.8322 44.0874 59.3217 0.0000 0.0000 0.0000
# 2 44.0874 99.8970 30.7619 0.0000 0.0000 0.0000
# 3 59.3217 30.7619 113.1858 0.0000 0.0000 0.0000
# 4 0.0000 0.0000 0.0000 -694.8231 0.0000 0.0000
# 5 0.0000 0.0000 0.0000 0.0000 26.0531 0.0000
# 6 0.0000 0.0000 0.0000 0.0000 0.0000 2.9001
#
#
#
# Elastic Compliance Matrix: (Units=1/GPa)
#
#
# Indices 1 2 3 4 5 6 
#
# 1 0.008052 -0.002460 -0.003551 0.000000 0.000000 0.000000
# 2 -0.002460 0.011676 -0.001884 0.000000 0.000000 0.000000
# 3 -0.003551 -0.001884 0.011208 0.000000 0.000000 0.000000
# 4 0.000000 0.000000 0.000000 -0.001439 0.000000 0.000000
# 5 0.000000 0.000000 0.000000 0.000000 0.038383 0.000000
# 6 0.000000 0.000000 0.000000 0.000000 0.000000 0.344814
#
#
# Mechanical properties :
#
#
# Convention : Reuss Voigt Hill
#
# Bulk Modulus (GPa) = 66.02649 71.69524 68.86086
# Shear Modulus (GPa) = 11.53312 -116.99107 -52.72897
#
# Velocity S-wave (km/s) = 2.34082 -7.45541 -5.00518
# Velocity P-wave (km/s) = 6.21896 6.32835 0.82841
#
# Compressibility (1/GPa) = 0.01514544
#
# Stress axis : x y z
#
# Youngs Moduli (GPa) = 124.19774 85.64501 89.21853
#
# Poissons Ratio (x) = 0.21067 0.31685
# Poissons Ratio (y) = 0.30550 0.16810
# Poissons Ratio (z) = 0.44108 0.16137
#
# Static dielectric constant tensor:
#      x y z
#    x 4.291190 0.000000 0.000000 
#    y 0.000000 3.830280 0.000000 
#    z 0.000000 0.000000 3.677720 
# 
# 
# High freq. dielectric constant tensor:
#      x y z
#    x 1.821700 0.000000 0.000000 
#    y 0.000000 1.828060 0.000000 
#    z 0.000000 0.000000 1.807520 
# 
# From -- ./inp_files/12979.got.cif
#   From: 2010.03.12/outbox.cif.g09.slc.cpg/sg35_7_cif.got.tgz:12979.got - 2010.04.14 02:02:04.
