data_PCOD8172332
_publ_section_title
;
Structure prediction by ZEFSAII (Michael W. Deem and Ramdas Pophale) SiO2 
 PCOD8172332
Probable space group: C M M 2
;
_chemical_formula_sum "Si O2"
_cell_formula_units_Z 56
_cell_length_a 21.016017
_cell_length_b 8.895356
_cell_length_c 14.636667
_cell_angle_alpha 90.000000
_cell_angle_beta 90.000000
_cell_angle_gamma 90.000000
_cell_volume 2736.251023
_symmetry_space_group_name_H-M "C M M 2"
_symmetry_group_IT_number 35
_symmetry_cell_setting 'orthorhombic'
loop_
_space_group_symop_operation_xyz
x,y,z
-x,-y,z
-x,y,z
x,-y,z
1/2+x,1/2+y,z
1/2-x,1/2-y,z
1/2-x,1/2+y,z
1/2+x,1/2-y,z
loop_
_atom_site_type_symbol
_atom_site_label
_atom_site_fract_x
_atom_site_fract_y
_atom_site_fract_z
Si Si1 0.314098 0.172427 0.188120
Si Si2 0.571353 0.178095 0.311600
Si Si3 0.374945 0.825699 0.003727
Si Si4 0.685914 0.672468 0.627902
Si Si5 0.428653 0.321895 0.504515
Si Si6 0.500000 0.179192 0.807427
Si Si7 0.000000 0.179275 0.007618
Si Si8 0.374715 0.325719 0.812442
O O1 0.250000 0.250000 0.223182
O O2 0.376645 0.237958 0.238778
O O3 0.319583 0.193321 0.078364
O O4 0.307451 0.000000 0.214484
O O5 0.500000 0.228295 0.280427
O O6 0.589010 0.250083 0.408033
O O7 0.574069 0.000000 0.321373
O O8 0.435564 0.743791 0.051772
O O9 0.391121 0.000000 0.985233
O O10 0.353976 0.750760 0.907904
O O11 0.692496 0.500000 0.601609
O O12 0.750000 0.750000 0.592743
O O13 0.623369 0.738061 0.577282
O O14 0.680543 0.693455 0.737667
O O15 0.500000 0.271601 0.535665
O O16 0.425953 0.500000 0.494837
O O17 0.435688 0.246004 0.764150
O O18 0.500000 0.000000 0.804515
O O19 0.500000 0.246658 0.908352
O O20 0.000000 0.000000 0.006496
O O21 0.390362 0.500000 0.831870
#
# Coordination Sequence:
#
# PCOD8172332 Si02
#       8
#     8   8   8   8   8   4   4   8
#     4  10  23  39  58  83 115 156 192 234 285 340
#     4   9  19  38  63  88 113 145 186 231 285 342
#     4  10  20  35  55  79 111 153 194 236 285 334
#     4  10  23  39  58  83 115 156 192 234 285 340
#     4   9  19  38  63  88 113 145 186 231 285 342
#     4  10  18  30  50  78 107 140 183 236 285 330
#     4  10  18  30  50  78 107 140 183 236 285 330
#     4  10  20  35  55  79 111 153 194 236 285 334
#
# _framework density 20.465959000000002
#
# number of rings (size 3 to 8) (size 9 to 14) (size 15 to 20)
#    0.000    2.286    0.000    3.857    2.000    4.571 
#    0.000    5.714    0.000    0.000    0.000    0.000 
#    0.000    0.000    0.000    0.000    0.000    0.000 
#
# Total GULP energy -347032.040650 kJ/mol
# GULP energy per Si atom -12394.001452 kJ/mol
# Density = 2.041938 g / cm^3
# Si number density = 20.465959 Si / 1000 Ang^3
#
#
#
# Elastic Constant Matrix: (Units=GPa)
#
#
# Indices 1 2 3 4 5 6 
#
# 1 142.3357 46.2254 66.4160 0.0000 0.0000 0.0000
# 2 46.2254 74.0046 37.6309 0.0000 0.0000 0.0000
# 3 66.4160 37.6309 95.6804 0.0000 0.0000 0.0000
# 4 0.0000 0.0000 0.0000 27.4012 0.0000 0.0000
# 5 0.0000 0.0000 0.0000 0.0000 25.2231 0.0000
# 6 0.0000 0.0000 0.0000 0.0000 0.0000 33.0840
#
#
#
# Elastic Compliance Matrix: (Units=1/GPa)
#
#
# Indices 1 2 3 4 5 6 
#
# 1 0.011185 -0.003798 -0.006270 0.000000 0.000000 0.000000
# 2 -0.003798 0.018180 -0.004514 0.000000 0.000000 0.000000
# 3 -0.006270 -0.004514 0.016579 0.000000 0.000000 0.000000
# 4 0.000000 0.000000 0.000000 0.036495 0.000000 0.000000
# 5 0.000000 0.000000 0.000000 0.000000 0.039646 0.000000
# 6 0.000000 0.000000 0.000000 0.000000 0.000000 0.030226
#
#
# Mechanical properties :
#
#
# Convention : Reuss Voigt Hill
#
# Bulk Modulus (GPa) = 59.59415 68.06283 63.82849
# Shear Modulus (GPa) = 26.72810 27.92487 27.32649
#
# Velocity S-wave (km/s) = 3.61775 3.69786 3.65803
# Velocity P-wave (km/s) = 6.82882 7.18060 7.00692
#
# Compressibility (1/GPa) = 0.01678017
#
# Stress axis : x y z
#
# Youngs Moduli (GPa) = 89.40653 55.00445 60.31672
#
# Poissons Ratio (x) = 0.20891 0.37819
# Poissons Ratio (y) = 0.33957 0.27226
# Poissons Ratio (z) = 0.56059 0.24828
#
# Static dielectric constant tensor:
#      x y z
#    x 4.251390 0.000000 0.000000 
#    y 0.000000 3.611810 0.000000 
#    z 0.000000 0.000000 3.568340 
# 
# 
# High freq. dielectric constant tensor:
#      x y z
#    x 1.801710 0.000000 0.000000 
#    y 0.000000 1.793450 0.000000 
#    z 0.000000 0.000000 1.787290 
# 
# From -- ./inp_files/17471.got.cif
#   From: 2010.03.12/outbox.cif.g09.slc.cpg/sg35_9_cif.got.tgz:17471.got - 2010.04.14 02:02:04.
