data_PCOD8172333
_publ_section_title
;
Structure prediction by ZEFSAII (Michael W. Deem and Ramdas Pophale) SiO2 
 PCOD8172333
Probable space group: C M M 2
;
_chemical_formula_sum "Si O2"
_cell_formula_units_Z 64
_cell_length_a 29.306465
_cell_length_b 9.159608
_cell_length_c 12.379282
_cell_angle_alpha 90.000000
_cell_angle_beta 90.000000
_cell_angle_gamma 90.000000
_cell_volume 3323.041616
_symmetry_space_group_name_H-M "C M M 2"
_symmetry_group_IT_number 35
_symmetry_cell_setting 'orthorhombic'
loop_
_space_group_symop_operation_xyz
x,y,z
-x,-y,z
-x,y,z
x,-y,z
1/2+x,1/2+y,z
1/2-x,1/2-y,z
1/2-x,1/2+y,z
1/2+x,1/2-y,z
loop_
_atom_site_type_symbol
_atom_site_label
_atom_site_fract_x
_atom_site_fract_y
_atom_site_fract_z
Si Si1 0.549911 0.835352 0.297560
Si Si2 0.109313 0.828018 0.457477
Si Si3 0.105662 0.666730 0.848073
Si Si4 0.904620 0.663065 0.086709
Si Si5 0.793295 0.327777 0.920513
Si Si6 0.205517 0.829033 0.377176
Si Si7 0.181998 0.828763 0.133567
Si Si8 0.552664 0.673470 0.662517
O O1 0.500000 0.781059 0.332282
O O2 0.586883 0.730703 0.348931
O O3 0.552449 0.829828 0.166932
O O4 0.558553 0.000000 0.338466
O O5 0.162463 0.780703 0.451960
O O6 0.082098 0.765935 0.561109
O O7 0.105132 0.000000 0.454050
O O8 0.101816 0.500000 0.807971
O O9 0.159244 0.711604 0.859728
O O10 0.078496 0.769828 0.767606
O O11 0.080587 0.689824 0.963165
O O12 0.881472 0.500000 0.091769
O O13 0.871003 0.788573 0.127480
O O14 0.785517 0.500000 0.922989
O O15 0.750000 0.250000 0.860841
O O16 0.792718 0.266638 0.042831
O O17 0.250000 0.750000 0.424977
O O18 0.199296 0.783291 0.252219
O O19 0.213112 0.000000 0.386602
O O20 0.188829 0.000000 0.110677
O O21 0.500000 0.729620 0.656354
O O22 0.553274 0.500000 0.665535
#
# Coordination Sequence:
#
# PCOD8172333 Si02
#       8
#     8   8   8   8   8   8   8   8
#     4  10  20  33  53  83 114 145 182 224 277 339
#     4  10  21  40  59  79 110 146 186 231 281 335
#     4   9  20  37  57  82 112 146 185 230 278 331
#     4   9  18  33  52  77 113 151 181 222 277 331
#     4  10  20  34  53  81 115 152 190 227 275 329
#     4  10  21  34  52  79 110 146 185 223 270 328
#     4  10  18  30  50  78 111 150 191 228 266 322
#     4  10  22  40  62  84 106 140 187 237 286 335
#
# _framework density 19.259463
#
# number of rings (size 3 to 8) (size 9 to 14) (size 15 to 20)
#    0.000    2.250    1.250    2.250    0.000    7.000 
#    0.000    1.875    0.000    3.000    0.000    0.000 
#    0.000    0.000    0.000    0.000    0.000    0.000 
#
# Total GULP energy -396605.289053 kJ/mol
# GULP energy per Si atom -12393.915283 kJ/mol
# Density = 1.921563 g / cm^3
# Si number density = 19.259463 Si / 1000 Ang^3
#
#
#
# Elastic Constant Matrix: (Units=GPa)
#
#
# Indices 1 2 3 4 5 6 
#
# 1 140.9869 41.1591 63.7378 0.0000 0.0000 0.0000
# 2 41.1591 36.4455 29.7126 0.0000 0.0000 0.0000
# 3 63.7378 29.7126 95.8751 0.0000 0.0000 0.0000
# 4 0.0000 0.0000 0.0000 25.0309 0.0000 0.0000
# 5 0.0000 0.0000 0.0000 0.0000 23.0016 0.0000
# 6 0.0000 0.0000 0.0000 0.0000 0.0000 30.4588
#
#
#
# Elastic Compliance Matrix: (Units=1/GPa)
#
#
# Indices 1 2 3 4 5 6 
#
# 1 0.012226 -0.009609 -0.005150 0.000000 0.000000 0.000000
# 2 -0.009609 0.044266 -0.007331 0.000000 0.000000 0.000000
# 3 -0.005150 -0.007331 0.016126 0.000000 0.000000 0.000000
# 4 0.000000 0.000000 0.000000 0.039951 0.000000 0.000000
# 5 0.000000 0.000000 0.000000 0.000000 0.043475 0.000000
# 6 0.000000 0.000000 0.000000 0.000000 0.000000 0.032831
#
#
# Mechanical properties :
#
#
# Convention : Reuss Voigt Hill
#
# Bulk Modulus (GPa) = 35.16270 60.28071 47.72171
# Shear Modulus (GPa) = 20.61561 24.94478 22.78020
#
# Velocity S-wave (km/s) = 3.27527 3.60279 3.44292
# Velocity P-wave (km/s) = 5.70966 6.97667 6.37472
#
# Compressibility (1/GPa) = 0.02843923
#
# Stress axis : x y z
#
# Youngs Moduli (GPa) = 81.79057 22.59059 62.01210
#
# Poissons Ratio (x) = 0.21707 0.31937
# Poissons Ratio (y) = 0.78592 0.45458
# Poissons Ratio (z) = 0.42124 0.16560
#
# Static dielectric constant tensor:
#      x y z
#    x 3.745400 0.000000 0.000000 
#    y 0.000000 3.412370 0.000000 
#    z 0.000000 0.000000 3.420770 
# 
# 
# High freq. dielectric constant tensor:
#      x y z
#    x 1.754550 0.000000 0.000000 
#    y 0.000000 1.742870 0.000000 
#    z 0.000000 0.000000 1.729300 
# 
# From -- ./inp_files/11965.got.cif
#   From: 2010.03.12/outbox.cif.g09.slc.cpg/sg35_6_cif.got.tgz:11965.got - 2010.04.14 02:02:04.
