data_PCOD8172897
_publ_section_title
;
Structure prediction by ZEFSAII (Michael W. Deem and Ramdas Pophale) SiO2 
 PCOD8172897
Probable space group: C M M 2
;
_chemical_formula_sum "Si O2"
_cell_formula_units_Z 64
_cell_length_a 15.443514
_cell_length_b 16.774331
_cell_length_c 11.964680
_cell_angle_alpha 90.000000
_cell_angle_beta 90.000000
_cell_angle_gamma 90.000000
_cell_volume 3099.505579
_symmetry_space_group_name_H-M "C M M 2"
_symmetry_group_IT_number 35
_symmetry_cell_setting 'orthorhombic'
loop_
_space_group_symop_operation_xyz
x,y,z
-x,-y,z
-x,y,z
x,-y,z
1/2+x,1/2+y,z
1/2-x,1/2-y,z
1/2-x,1/2+y,z
1/2+x,1/2-y,z
loop_
_atom_site_type_symbol
_atom_site_label
_atom_site_fract_x
_atom_site_fract_y
_atom_site_fract_z
Si Si1 0.190523 0.671452 0.268440
Si Si2 0.755114 0.345220 0.650873
Si Si3 0.095839 0.906556 0.044797
Si Si4 0.858428 0.909380 0.286971
Si Si5 0.254732 0.844176 0.905807
Si Si6 0.092166 0.148940 0.521746
Si Si7 0.100699 0.406798 0.065037
Si Si8 0.595017 0.170758 0.500602
O O1 0.250000 0.750000 0.247270
O O2 0.254522 0.596596 0.283690
O O3 0.127535 0.651555 0.165752
O O4 0.132343 0.678820 0.376955
O O5 0.750000 0.250000 0.638692
O O6 0.758184 0.373496 0.778160
O O7 0.671520 0.387169 0.592837
O O8 0.839713 0.376566 0.583341
O O9 0.105078 0.872651 0.170907
O O10 0.000000 0.885041 0.999214
O O11 0.111239 0.000000 0.052736
O O12 0.166436 0.872602 0.961686
O O13 0.895167 0.858547 0.388899
O O14 0.887688 0.000000 0.304161
O O15 0.250000 0.750000 0.914587
O O16 0.340188 0.881665 0.960472
O O17 0.084942 0.241551 0.550685
O O18 0.000000 0.108230 0.555447
O O19 0.116047 0.500000 0.094281
O O20 0.000000 0.391458 0.035501
O O21 0.500000 0.128780 0.498402
#
# Coordination Sequence:
#
# PCOD8172897 Si02
#       8
#     8   8   8   8   8   8   8   8
#     4  12  20  37  62  91 121 151 192 241 294 349
#     4   9  19  37  56  83 116 149 193 242 294 343
#     4  10  22  40  61  85 118 160 198 237 295 361
#     4  11  21  35  58  86 120 157 188 227 287 354
#     4  11  23  39  62  89 117 151 198 257 302 348
#     4  10  19  34  57  85 118 153 187 231 287 348
#     4  11  25  43  61  84 119 162 202 243 297 358
#     4  10  19  34  59  88 116 149 190 238 289 342
#
# _framework density 20.648454999999998
#
# number of rings (size 3 to 8) (size 9 to 14) (size 15 to 20)
#    0.000    1.500    3.750    2.250    0.000    2.250 
#    0.000    3.750    0.000    0.000    0.000    0.000 
#    0.000    0.000    0.000    0.000    0.000    0.000 
#
# Total GULP energy -396644.319711 kJ/mol
# GULP energy per Si atom -12395.134991 kJ/mol
# Density = 2.060146 g / cm^3
# Si number density = 20.648455 Si / 1000 Ang^3
#
#
#
# Elastic Constant Matrix: (Units=GPa)
#
#
# Indices 1 2 3 4 5 6 
#
# 1 206.2419 36.7410 95.8441 0.0000 0.0000 0.0000
# 2 36.7410 36.9556 33.7215 0.0000 0.0000 0.0000
# 3 95.8441 33.7215 161.5146 0.0000 0.0000 0.0000
# 4 0.0000 0.0000 0.0000 162.8441 0.0000 0.0000
# 5 0.0000 0.0000 0.0000 0.0000 -6.5255 0.0000
# 6 0.0000 0.0000 0.0000 0.0000 0.0000 18.1276
#
#
#
# Elastic Compliance Matrix: (Units=1/GPa)
#
#
# Indices 1 2 3 4 5 6 
#
# 1 0.007142 -0.003994 -0.003404 0.000000 0.000000 0.000000
# 2 -0.003994 0.035662 -0.005075 0.000000 0.000000 0.000000
# 3 -0.003404 -0.005075 0.009271 0.000000 0.000000 0.000000
# 4 0.000000 0.000000 0.000000 0.006141 0.000000 0.000000
# 5 0.000000 0.000000 0.000000 0.000000 -0.153244 0.000000
# 6 0.000000 0.000000 0.000000 0.000000 0.000000 0.055164
#
#
# Mechanical properties :
#
#
# Convention : Reuss Voigt Hill
#
# Bulk Modulus (GPa) = 36.86329 81.92504 59.39416
# Shear Modulus (GPa) = -851.30362 50.78295 -400.26034
#
# Velocity S-wave (km/s) = -20.32682 4.96462 -13.93793
# Velocity P-wave (km/s) = 23.08710 8.52206 15.17216
#
# Compressibility (1/GPa) = 0.02712726
#
# Stress axis : x y z
#
# Youngs Moduli (GPa) = 140.01061 28.04120 107.86109
#
# Poissons Ratio (x) = 0.11201 0.36720
# Poissons Ratio (y) = 0.55926 0.54742
# Poissons Ratio (z) = 0.47664 0.14232
#
# Static dielectric constant tensor:
#      x y z
#    x 4.260250 0.000000 0.000000 
#    y 0.000000 3.294830 0.000000 
#    z 0.000000 0.000000 3.721150 
# 
# 
# High freq. dielectric constant tensor:
#      x y z
#    x 1.828920 0.000000 0.000000 
#    y 0.000000 1.775750 0.000000 
#    z 0.000000 0.000000 1.801440 
# 
# From -- ./inp_files/13219.got.cif
#   From: 2010.03.12/outbox.cif.g09.slc.cpg/sg35_7_cif.got.tgz:13219.got - 2010.04.14 02:02:04.
