data_PCOD8172838
_publ_section_title
;
Structure prediction by ZEFSAII (Michael W. Deem and Ramdas Pophale) SiO2 
 PCOD8172838
Probable space group: C M M 2
;
_chemical_formula_sum "Si O2"
_cell_formula_units_Z 64
_cell_length_a 23.305382
_cell_length_b 14.643577
_cell_length_c 9.098476
_cell_angle_alpha 90.000000
_cell_angle_beta 90.000000
_cell_angle_gamma 90.000000
_cell_volume 3105.074716
_symmetry_space_group_name_H-M "C M M 2"
_symmetry_group_IT_number 35
_symmetry_cell_setting 'orthorhombic'
loop_
_space_group_symop_operation_xyz
x,y,z
-x,-y,z
-x,y,z
x,-y,z
1/2+x,1/2+y,z
1/2-x,1/2-y,z
1/2-x,1/2+y,z
1/2+x,1/2-y,z
loop_
_atom_site_type_symbol
_atom_site_label
_atom_site_fract_x
_atom_site_fract_y
_atom_site_fract_z
Si Si1 0.273508 0.108193 0.373230
Si Si2 0.742301 0.899915 0.050317
Si Si3 0.155149 0.892587 0.509663
Si Si4 0.566799 0.898091 0.155483
Si Si5 0.882307 0.400899 0.554392
Si Si6 0.434393 0.753866 0.394990
Si Si7 0.194085 0.194998 0.799786
Si Si8 0.131423 0.364849 0.876003
O O1 0.276979 0.145576 0.205276
O O2 0.212084 0.142331 0.428928
O O3 0.324684 0.143612 0.479743
O O4 0.276510 0.000000 0.381365
O O5 0.767758 0.000000 0.083308
O O6 0.790704 0.846852 0.959225
O O7 0.686430 0.908812 0.951630
O O8 0.102890 0.835335 0.436958
O O9 0.168524 0.876482 0.682613
O O10 0.141736 0.000000 0.487121
O O11 0.500000 0.902451 0.183853
O O12 0.591231 0.815826 0.258663
O O13 0.593190 0.000000 0.191416
O O14 0.577754 0.874359 0.985119
O O15 0.896932 0.500000 0.483231
O O16 0.932480 0.326830 0.528848
O O17 0.877087 0.419872 0.726570
O O18 0.500000 0.721764 0.368007
O O19 0.250000 0.250000 0.738572
O O20 0.140744 0.259941 0.833750
#
# Coordination Sequence:
#
# PCOD8172838 Si02
#       8
#     8   8   8   8   8   8   8   8
#     4   9  20  35  58  92 122 158 202 245 301 365
#     4  10  19  33  54  84 123 160 200 243 294 366
#     4  11  23  42  65  89 122 164 208 260 315 367
#     4  10  22  41  63  87 120 159 201 254 315 376
#     4  11  21  37  62  91 129 163 196 247 304 370
#     4  11  25  42  62  89 118 159 211 262 311 365
#     4  10  21  36  55  89 126 163 197 244 304 369
#     4  11  21  36  55  88 123 163 198 233 300 368
#
# _framework density 20.611419000000001
#
# number of rings (size 3 to 8) (size 9 to 14) (size 15 to 20)
#    0.000    1.625    1.250    4.125    1.750    3.500 
#    2.250    0.000    0.000    0.000    0.000    0.000 
#    0.000    0.000    0.000    0.000    0.000    0.000 
#
# Total GULP energy -396467.909006 kJ/mol
# GULP energy per Si atom -12389.622156 kJ/mol
# Density = 2.056451 g / cm^3
# Si number density = 20.611419 Si / 1000 Ang^3
#
#
#
# Elastic Constant Matrix: (Units=GPa)
#
#
# Indices 1 2 3 4 5 6 
#
# 1 52.7486 21.7958 26.1279 0.0000 0.0000 0.0000
# 2 21.7958 89.4600 25.8418 0.0000 0.0000 0.0000
# 3 26.1279 25.8418 143.0073 0.0000 0.0000 0.0000
# 4 0.0000 0.0000 0.0000 27.5051 0.0000 0.0000
# 5 0.0000 0.0000 0.0000 0.0000 29.5155 0.0000
# 6 0.0000 0.0000 0.0000 0.0000 0.0000 20.4306
#
#
#
# Elastic Compliance Matrix: (Units=1/GPa)
#
#
# Indices 1 2 3 4 5 6 
#
# 1 0.022453 -0.004522 -0.003285 0.000000 0.000000 0.000000
# 2 -0.004522 0.012704 -0.001470 0.000000 0.000000 0.000000
# 3 -0.003285 -0.001470 0.007858 0.000000 0.000000 0.000000
# 4 0.000000 0.000000 0.000000 0.036357 0.000000 0.000000
# 5 0.000000 0.000000 0.000000 0.000000 0.033880 0.000000
# 6 0.000000 0.000000 0.000000 0.000000 0.000000 0.048946
#
#
# Mechanical properties :
#
#
# Convention : Reuss Voigt Hill
#
# Bulk Modulus (GPa) = 40.87738 48.08300 44.48019
# Shear Modulus (GPa) = 26.46807 29.58695 28.02751
#
# Velocity S-wave (km/s) = 3.58739 3.79286 3.69155
# Velocity P-wave (km/s) = 6.08560 6.52381 6.30851
#
# Compressibility (1/GPa) = 0.02446341
#
# Stress axis : x y z
#
# Youngs Moduli (GPa) = 44.53665 78.71345 127.25175
#
# Poissons Ratio (x) = 0.35590 0.41806
# Poissons Ratio (y) = 0.20137 0.18701
# Poissons Ratio (z) = 0.14631 0.11568
#
# Static dielectric constant tensor:
#      x y z
#    x 3.511940 0.000000 0.000000 
#    y 0.000000 3.745570 0.000000 
#    z 0.000000 0.000000 4.031500 
# 
# 
# High freq. dielectric constant tensor:
#      x y z
#    x 1.773930 0.000000 0.000000 
#    y 0.000000 1.803550 0.000000 
#    z 0.000000 0.000000 1.819340 
# 
# From -- ./inp_files/9891.got.cif
#   From: 2010.03.12/outbox.cif.g09.slc.cpg/sg35_5_cif.got.tgz:9891.got - 2010.04.14 02:02:04.
