data_PCOD8172237
_publ_section_title
;
Structure prediction by ZEFSAII (Michael W. Deem and Ramdas Pophale) SiO2 
 PCOD8172237
Probable space group: C M M 2
;
_chemical_formula_sum "Si O2"
_cell_formula_units_Z 64
_cell_length_a 17.934413
_cell_length_b 17.558254
_cell_length_c 11.181692
_cell_angle_alpha 90.000000
_cell_angle_beta 90.000000
_cell_angle_gamma 90.000000
_cell_volume 3521.081029
_symmetry_space_group_name_H-M "C M M 2"
_symmetry_group_IT_number 35
_symmetry_cell_setting 'orthorhombic'
loop_
_space_group_symop_operation_xyz
x,y,z
-x,-y,z
-x,y,z
x,-y,z
1/2+x,1/2+y,z
1/2-x,1/2-y,z
1/2-x,1/2+y,z
1/2+x,1/2-y,z
loop_
_atom_site_type_symbol
_atom_site_label
_atom_site_fract_x
_atom_site_fract_y
_atom_site_fract_z
Si Si1 0.087012 0.237868 0.030220
Si Si2 0.845399 0.310850 0.250537
Si Si3 0.665898 0.088976 0.665097
Si Si4 0.815509 0.849339 0.336893
Si Si5 0.200358 0.177951 0.600782
Si Si6 0.412525 0.769167 0.759247
Si Si7 0.417792 0.085583 0.426152
Si Si8 0.584959 0.416513 0.153297
O O1 0.136228 0.295980 0.110729
O O2 0.106988 0.150089 0.060824
O O3 0.000000 0.255529 0.051617
O O4 0.110075 0.248983 0.893823
O O5 0.854091 0.232065 0.320557
O O6 0.764964 0.348821 0.271873
O O7 0.907269 0.364770 0.307944
O O8 0.750959 0.118783 0.680931
O O9 0.611490 0.142724 0.742277
O O10 0.643719 0.102334 0.526809
O O11 0.657676 0.000000 0.703126
O O12 0.818213 0.866710 0.478314
O O13 0.864446 0.913285 0.271971
O O14 0.250000 0.250000 0.563389
O O15 0.128654 0.208476 0.672690
O O16 0.500000 0.760138 0.735176
O O17 0.500000 0.101418 0.480590
O O18 0.410446 0.000000 0.381020
O O19 0.500000 0.405991 0.194758
O O20 0.596784 0.500000 0.093366
#
# Coordination Sequence:
#
# PCOD8172237 Si02
#       8
#     8   8   8   8   8   8   8   8
#     4   9  19  36  57  78 103 143 184 223 267 311
#     4  10  17  32  50  76 111 135 172 222 264 319
#     4  10  20  35  54  79 112 146 180 227 283 332
#     4  10  18  30  52  79 105 135 176 214 273 324
#     4  10  18  35  54  78 110 148 183 226 268 322
#     4  10  21  37  58  82 107 145 195 233 268 317
#     4  10  19  30  50  79 107 141 179 217 273 336
#     4   9  19  35  54  78 106 136 175 223 275 330
#
# _framework density 18.176235999999999
#
# number of rings (size 3 to 8) (size 9 to 14) (size 15 to 20)
#    0.000    2.250    2.500    1.500    0.000    2.750 
#   13.500    1.250    0.000    1.875    0.000    0.000 
#    0.000    0.000    0.000    0.000    0.000    0.000 
#
# Total GULP energy -396659.367387 kJ/mol
# GULP energy per Si atom -12395.605231 kJ/mol
# Density = 1.813487 g / cm^3
# Si number density = 18.176236 Si / 1000 Ang^3
#
#
#
# Elastic Constant Matrix: (Units=GPa)
#
#
# Indices 1 2 3 4 5 6 
#
# 1 85.6358 46.8586 49.1757 0.0000 0.0000 0.0000
# 2 46.8586 91.9949 40.9057 0.0000 0.0000 0.0000
# 3 49.1757 40.9057 107.4417 0.0000 0.0000 0.0000
# 4 0.0000 0.0000 0.0000 21.3176 0.0000 0.0000
# 5 0.0000 0.0000 0.0000 0.0000 27.0555 0.0000
# 6 0.0000 0.0000 0.0000 0.0000 0.0000 23.3464
#
#
#
# Elastic Compliance Matrix: (Units=1/GPa)
#
#
# Indices 1 2 3 4 5 6 
#
# 1 0.018950 -0.006977 -0.006017 0.000000 0.000000 0.000000
# 2 -0.006977 0.015654 -0.002767 0.000000 0.000000 0.000000
# 3 -0.006017 -0.002767 0.013115 0.000000 0.000000 0.000000
# 4 0.000000 0.000000 0.000000 0.046909 0.000000 0.000000
# 5 0.000000 0.000000 0.000000 0.000000 0.036961 0.000000
# 6 0.000000 0.000000 0.000000 0.000000 0.000000 0.042833
#
#
# Mechanical properties :
#
#
# Convention : Reuss Voigt Hill
#
# Bulk Modulus (GPa) = 61.73721 62.10583 61.92152
# Shear Modulus (GPa) = 23.65813 24.21940 23.93877
#
# Velocity S-wave (km/s) = 3.61168 3.65427 3.63304
# Velocity P-wave (km/s) = 7.17161 7.21442 7.19304
#
# Compressibility (1/GPa) = 0.01619769
#
# Stress axis : x y z
#
# Youngs Moduli (GPa) = 52.76923 63.88082 76.25016
#
# Poissons Ratio (x) = 0.44570 0.45881
# Poissons Ratio (y) = 0.36817 0.21095
# Poissons Ratio (z) = 0.31752 0.17673
#
# Static dielectric constant tensor:
#      x y z
#    x 3.446950 0.000000 0.000000 
#    y 0.000000 3.375600 0.000000 
#    z 0.000000 0.000000 3.214660 
# 
# 
# High freq. dielectric constant tensor:
#      x y z
#    x 1.707570 0.000000 0.000000 
#    y 0.000000 1.697170 0.000000 
#    z 0.000000 0.000000 1.681820 
# 
# From -- ./inp_files/13659.got.cif
#   From: 2010.03.12/outbox.cif.g09.slc.cpg/sg35_7_cif.got.tgz:13659.got - 2010.04.14 02:02:04.
