data_PCOD8172210
_publ_section_title
;
Structure prediction by ZEFSAII (Michael W. Deem and Ramdas Pophale) SiO2 
 PCOD8172210
Probable space group: C M M 2
;
_chemical_formula_sum "Si O2"
_cell_formula_units_Z 44
_cell_length_a 12.994447
_cell_length_b 21.256593
_cell_length_c 9.873246
_cell_angle_alpha 90.000000
_cell_angle_beta 90.000000
_cell_angle_gamma 90.000000
_cell_volume 2727.165017
_symmetry_space_group_name_H-M "C M M 2"
_symmetry_group_IT_number 35
_symmetry_cell_setting 'orthorhombic'
loop_
_space_group_symop_operation_xyz
x,y,z
-x,-y,z
-x,y,z
x,-y,z
1/2+x,1/2+y,z
1/2-x,1/2-y,z
1/2-x,1/2+y,z
1/2+x,1/2-y,z
loop_
_atom_site_type_symbol
_atom_site_label
_atom_site_fract_x
_atom_site_fract_y
_atom_site_fract_z
Si Si1 0.383436 0.147176 0.894890
Si Si2 0.878702 0.427415 0.628534
Si Si3 0.616765 0.722206 0.295000
Si Si4 0.384404 0.070107 0.154171
Si Si5 0.700748 0.149960 0.378927
Si Si6 0.750000 0.250000 0.042018
O O1 0.500000 0.175439 0.882914
O O2 0.346624 0.115871 0.754959
O O3 0.384449 0.089769 0.998740
O O4 0.301740 0.199468 0.941649
O O5 0.842017 0.500000 0.646085
O O6 0.823125 0.396682 0.500450
O O7 0.000000 0.425790 0.604940
O O8 0.500000 0.699631 0.289479
O O9 0.624699 0.790030 0.368676
O O10 0.681083 0.673170 0.386675
O O11 0.661315 0.723184 0.141525
O O12 0.500000 0.074861 0.214604
O O13 0.308686 0.113834 0.237535
O O14 0.341728 0.000000 0.164021
#
# Coordination Sequence:
#
# PCOD8172210 Si02
#       6
#     8   8   8   8   8   4
#     4  10  19  32  48  74 105 131 162 200 246 297
#     4  10  20  33  50  75 106 133 158 200 252 299
#     4  10  19  32  51  75 101 128 164 213 251 285
#     4  10  17  27  47  72  97 127 163 201 244 293
#     4  10  19  31  50  75  99 130 163 203 248 296
#     4  10  18  30  52  74 100 134 162 204 248 290
#
# _framework density 16.133970999999999
#
# number of rings (size 3 to 8) (size 9 to 14) (size 15 to 20)
#    0.000    2.182    3.636    3.273    0.000    5.091 
#    0.000    0.000    0.000    3.273    0.000    0.000 
#    0.000    0.000    0.000    0.000    0.000    0.000 
#
# Total GULP energy -272684.723912 kJ/mol
# GULP energy per Si atom -12394.760178 kJ/mol
# Density = 1.609725 g / cm^3
# Si number density = 16.133971 Si / 1000 Ang^3
#
#
#
# Elastic Constant Matrix: (Units=GPa)
#
#
# Indices 1 2 3 4 5 6 
#
# 1 83.6728 38.2529 26.7008 0.0000 0.0000 0.0000
# 2 38.2529 91.4479 26.9417 0.0000 0.0000 0.0000
# 3 26.7008 26.9417 79.2748 0.0000 0.0000 0.0000
# 4 0.0000 0.0000 0.0000 28.5311 0.0000 0.0000
# 5 0.0000 0.0000 0.0000 0.0000 18.7118 0.0000
# 6 0.0000 0.0000 0.0000 0.0000 0.0000 21.3836
#
#
#
# Elastic Compliance Matrix: (Units=1/GPa)
#
#
# Indices 1 2 3 4 5 6 
#
# 1 0.015544 -0.005512 -0.003362 0.000000 0.000000 0.000000
# 2 -0.005512 0.014106 -0.002938 0.000000 0.000000 0.000000
# 3 -0.003362 -0.002938 0.014745 0.000000 0.000000 0.000000
# 4 0.000000 0.000000 0.000000 0.035049 0.000000 0.000000
# 5 0.000000 0.000000 0.000000 0.000000 0.053442 0.000000
# 6 0.000000 0.000000 0.000000 0.000000 0.000000 0.046765
#
#
# Mechanical properties :
#
#
# Convention : Reuss Voigt Hill
#
# Bulk Modulus (GPa) = 48.14093 48.68737 48.41415
# Shear Modulus (GPa) = 23.78698 24.55862 24.17280
#
# Velocity S-wave (km/s) = 3.84388 3.90573 3.87493
# Velocity P-wave (km/s) = 7.04298 7.11211 7.07763
#
# Compressibility (1/GPa) = 0.02077235
#
# Stress axis : x y z
#
# Youngs Moduli (GPa) = 64.33357 70.89112 67.81875
#
# Poissons Ratio (x) = 0.39072 0.22803
# Poissons Ratio (y) = 0.35458 0.19923
# Poissons Ratio (z) = 0.21631 0.20825
#
# Static dielectric constant tensor:
#      x y z
#    x 2.917970 0.000000 0.000000 
#    y 0.000000 3.139540 0.000000 
#    z 0.000000 0.000000 3.005860 
# 
# 
# High freq. dielectric constant tensor:
#      x y z
#    x 1.592560 0.000000 0.000000 
#    y 0.000000 1.621350 0.000000 
#    z 0.000000 0.000000 1.620180 
# 
# From -- ./inp_files/7469.got.cif
#   From: 2010.03.12/outbox.cif.g09.slc.cpg/sg35_4_cif.got.tgz:7469.got - 2010.04.14 02:02:04.
