data_PCOD8172550
_publ_section_title
;
Structure prediction by ZEFSAII (Michael W. Deem and Ramdas Pophale) SiO2 
 PCOD8172550
Probable space group: C M M 2
;
_chemical_formula_sum "Si O2"
_cell_formula_units_Z 64
_cell_length_a 28.807979
_cell_length_b 8.848116
_cell_length_c 15.783083
_cell_angle_alpha 90.000000
_cell_angle_beta 90.000000
_cell_angle_gamma 90.000000
_cell_volume 4023.050089
_symmetry_space_group_name_H-M "C M M 2"
_symmetry_group_IT_number 35
_symmetry_cell_setting 'orthorhombic'
loop_
_space_group_symop_operation_xyz
x,y,z
-x,-y,z
-x,y,z
x,-y,z
1/2+x,1/2+y,z
1/2-x,1/2-y,z
1/2-x,1/2+y,z
1/2+x,1/2-y,z
loop_
_atom_site_type_symbol
_atom_site_label
_atom_site_fract_x
_atom_site_fract_y
_atom_site_fract_z
Si Si1 0.800497 0.178511 0.539260
Si Si2 0.644795 0.679571 0.699283
Si Si3 0.800437 0.820333 0.865185
Si Si4 0.448609 0.172352 0.945987
Si Si5 0.550701 0.678805 0.769742
Si Si6 0.800945 0.178816 0.172662
Si Si7 0.353485 0.823911 0.021166
Si Si8 0.701063 0.325201 0.356849
O O1 0.750000 0.250000 0.549804
O O2 0.834198 0.245194 0.611916
O O3 0.823801 0.218139 0.446505
O O4 0.794744 0.000000 0.550918
O O5 0.644213 0.500000 0.697143
O O6 0.675701 0.734650 0.778246
O O7 0.591952 0.741519 0.709692
O O8 0.750000 0.750000 0.869300
O O9 0.829735 0.759576 0.943344
O O10 0.797213 0.000000 0.871301
O O11 0.500000 0.207171 0.984229
O O12 0.438340 0.277208 0.865919
O O13 0.409178 0.201985 0.016479
O O14 0.445881 0.000000 0.913955
O O15 0.500000 0.742880 0.741177
O O16 0.550226 0.500000 0.765937
O O17 0.750000 0.250000 0.160501
O O18 0.822618 0.217002 0.266725
O O19 0.797096 0.000000 0.156706
O O20 0.836941 0.251978 0.108540
O O21 0.340241 0.000000 0.018724
O O22 0.711484 0.500000 0.356888
O O23 0.750000 0.250000 0.359001
#
# Coordination Sequence:
#
# PCOD8172550 Si02
#       8
#     8   8   8   8   8   8   8   8
#     4   9  16  28  44  63  88 115 145 178 213 254
#     4   9  17  28  43  64  88 115 145 178 214 252
#     4  11  21  32  43  59  88 122 153 179 209 249
#     4   9  18  32  48  65  85 109 141 183 225 261
#     4   9  16  28  46  65  85 111 145 182 219 257
#     4  10  19  31  46  65  89 116 148 183 220 261
#     4  11  21  32  46  65  87 115 147 179 218 261
#     4   8  15  27  44  63  83 111 143 179 219 254
#
# _framework density 15.908329
#
# number of rings (size 3 to 8) (size 9 to 14) (size 15 to 20)
#    0.000    2.500    1.250    1.875    0.000    1.000 
#    0.000    1.250    0.000    0.000    0.000    0.875 
#    0.000    3.000    0.000    0.000    0.000    0.000 
#
# Total GULP energy -396434.542441 kJ/mol
# GULP energy per Si atom -12388.579451 kJ/mol
# Density = 1.587212 g / cm^3
# Si number density = 15.908329 Si / 1000 Ang^3
#
#
#
# Elastic Constant Matrix: (Units=GPa)
#
#
# Indices 1 2 3 4 5 6 
#
# 1 114.3376 27.0058 69.2298 0.0000 0.0000 0.0000
# 2 27.0058 37.3351 31.1297 0.0000 0.0000 0.0000
# 3 69.2298 31.1297 144.3023 0.0000 0.0000 0.0000
# 4 0.0000 0.0000 0.0000 1.5006 0.0000 0.0000
# 5 0.0000 0.0000 0.0000 0.0000 10.9492 0.0000
# 6 0.0000 0.0000 0.0000 0.0000 0.0000 9.0449
#
#
#
# Elastic Compliance Matrix: (Units=1/GPa)
#
#
# Indices 1 2 3 4 5 6 
#
# 1 0.013095 -0.005162 -0.005169 0.000000 0.000000 0.000000
# 2 -0.005162 0.034694 -0.005008 0.000000 0.000000 0.000000
# 3 -0.005169 -0.005008 0.010490 0.000000 0.000000 0.000000
# 4 0.000000 0.000000 0.000000 0.666398 0.000000 0.000000
# 5 0.000000 0.000000 0.000000 0.000000 0.091331 0.000000
# 6 0.000000 0.000000 0.000000 0.000000 0.000000 0.110559
#
#
# Mechanical properties :
#
#
# Convention : Reuss Voigt Hill
#
# Bulk Modulus (GPa) = 36.23032 61.18952 48.70992
# Shear Modulus (GPa) = 5.17360 15.53959 10.35660
#
# Velocity S-wave (km/s) = 1.80532 3.12880 2.55427
# Velocity P-wave (km/s) = 5.21243 7.18331 6.27572
#
# Compressibility (1/GPa) = 0.02760119
#
# Stress axis : x y z
#
# Youngs Moduli (GPa) = 76.36546 28.82348 95.32985
#
# Poissons Ratio (x) = 0.14880 0.49273
# Poissons Ratio (y) = 0.39423 0.47738
# Poissons Ratio (z) = 0.39471 0.14434
#
# Static dielectric constant tensor:
#      x y z
#    x 3.215860 0.000000 0.000000 
#    y 0.000000 3.562890 0.000000 
#    z 0.000000 0.000000 3.520490 
# 
# 
# High freq. dielectric constant tensor:
#      x y z
#    x 1.593470 0.000000 0.000000 
#    y 0.000000 1.608930 0.000000 
#    z 0.000000 0.000000 1.605990 
# 
# From -- ./inp_files/16148.got.cif
#   From: 2010.03.12/outbox.cif.g09.slc.cpg/sg35_9_cif.got.tgz:16148.got - 2010.04.14 02:02:04.
