data_PCOD8172494
_publ_section_title
;
Structure prediction by ZEFSAII (Michael W. Deem and Ramdas Pophale) SiO2 
 PCOD8172494
Probable space group: C M M 2
;
_chemical_formula_sum "Si O2"
_cell_formula_units_Z 56
_cell_length_a 9.145091
_cell_length_b 27.233548
_cell_length_c 15.603739
_cell_angle_alpha 90.000000
_cell_angle_beta 90.000000
_cell_angle_gamma 90.000000
_cell_volume 3886.162296
_symmetry_space_group_name_H-M "C M M 2"
_symmetry_group_IT_number 35
_symmetry_cell_setting 'orthorhombic'
loop_
_space_group_symop_operation_xyz
x,y,z
-x,-y,z
-x,y,z
x,-y,z
1/2+x,1/2+y,z
1/2-x,1/2-y,z
1/2-x,1/2+y,z
1/2+x,1/2-y,z
loop_
_atom_site_type_symbol
_atom_site_label
_atom_site_fract_x
_atom_site_fract_y
_atom_site_fract_z
Si Si1 0.670734 0.943233 0.403520
Si Si2 0.336511 0.441457 0.570538
Si Si3 0.829955 0.557324 0.923170
Si Si4 0.334487 0.105586 0.230956
Si Si5 0.661669 0.058297 0.731231
Si Si6 0.173830 0.115897 0.068033
Si Si7 0.166102 0.700539 0.142964
O O1 0.500000 0.935184 0.418265
O O2 0.750123 0.922175 0.487513
O O3 0.728550 0.913001 0.321338
O O4 0.709257 0.000000 0.387733
O O5 0.500000 0.421178 0.564595
O O6 0.331599 0.500000 0.572666
O O7 0.267292 0.419911 0.658054
O O8 0.800015 0.500000 0.937818
O O9 0.786298 0.573130 0.826450
O O10 0.000000 0.569430 0.941453
O O11 0.723699 0.587806 0.983646
O O12 0.500000 0.085255 0.217900
O O13 0.232949 0.086244 0.152338
O O14 0.334760 0.165416 0.227619
O O15 0.500000 0.079474 0.714008
O O16 0.656436 0.000000 0.725229
O O17 0.247262 0.170530 0.068182
O O18 0.000000 0.120189 0.070650
O O19 0.250000 0.750000 0.166241
O O20 0.000000 0.711856 0.113125
#
# Coordination Sequence:
#
# PCOD8172494 Si02
#       7
#     8   8   8   8   8   8   8
#     4   9  16  27  42  57  77 110 146 173 201 241
#     4   9  16  24  35  54  79 105 134 172 212 242
#     4   9  17  29  43  58  81 114 148 179 208 241
#     4   8  17  30  42  59  82 108 139 175 205 241
#     4   8  14  25  40  55  72 102 143 178 206 239
#     4  10  19  29  42  62  86 111 138 171 209 251
#     4   9  17  31  48  64  82 105 135 171 212 251
#
# _framework density 14.410102999999999
#
# number of rings (size 3 to 8) (size 9 to 14) (size 15 to 20)
#    0.857    2.286    0.000    2.571    0.000    3.714 
#    0.000    2.857    0.000    0.000    0.000    0.000 
#    0.000    1.143    0.000    7.714    0.000    5.857 
#
# Total GULP energy -346910.303009 kJ/mol
# GULP energy per Si atom -12389.653679 kJ/mol
# Density = 1.437731 g / cm^3
# Si number density = 14.410103 Si / 1000 Ang^3
#
#
#
# Elastic Constant Matrix: (Units=GPa)
#
#
# Indices 1 2 3 4 5 6 
#
# 1 102.3962 30.0370 64.0700 0.0000 0.0000 0.0000
# 2 30.0370 39.1418 34.1781 0.0000 0.0000 0.0000
# 3 64.0700 34.1781 122.1722 0.0000 0.0000 0.0000
# 4 0.0000 0.0000 0.0000 0.6375 0.0000 0.0000
# 5 0.0000 0.0000 0.0000 0.0000 17.3595 0.0000
# 6 0.0000 0.0000 0.0000 0.0000 0.0000 18.1939
#
#
#
# Elastic Compliance Matrix: (Units=1/GPa)
#
#
# Indices 1 2 3 4 5 6 
#
# 1 0.015665 -0.006415 -0.006421 0.000000 0.000000 0.000000
# 2 -0.006415 0.036433 -0.006828 0.000000 0.000000 0.000000
# 3 -0.006421 -0.006828 0.013462 0.000000 0.000000 0.000000
# 4 0.000000 0.000000 0.000000 1.568538 0.000000 0.000000
# 5 0.000000 0.000000 0.000000 0.000000 0.057605 0.000000
# 6 0.000000 0.000000 0.000000 0.000000 0.000000 0.054964
#
#
# Mechanical properties :
#
#
# Convention : Reuss Voigt Hill
#
# Bulk Modulus (GPa) = 38.11929 57.80894 47.96411
# Shear Modulus (GPa) = 2.78592 16.26652 9.52622
#
# Velocity S-wave (km/s) = 1.39194 3.36345 2.57394
# Velocity P-wave (km/s) = 5.39388 7.43557 6.49545
#
# Compressibility (1/GPa) = 0.02623344
#
# Stress axis : x y z
#
# Youngs Moduli (GPa) = 63.83597 27.44755 74.28053
#
# Poissons Ratio (x) = 0.17607 0.47692
# Poissons Ratio (y) = 0.40950 0.50720
# Poissons Ratio (z) = 0.40986 0.18742
#
# Static dielectric constant tensor:
#      x y z
#    x 2.872690 0.000000 0.000000 
#    y 0.000000 2.387030 0.000000 
#    z 0.000000 0.000000 2.879320 
# 
# 
# High freq. dielectric constant tensor:
#      x y z
#    x 1.557690 0.000000 0.000000 
#    y 0.000000 1.493590 0.000000 
#    z 0.000000 0.000000 1.548320 
# 
# From -- ./inp_files/16112.got.cif
#   From: 2010.03.12/outbox.cif.g09.slc.cpg/sg35_9_cif.got.tgz:16112.got - 2010.04.14 02:02:04.
