data_PCOD8172592
_publ_section_title
;
Structure prediction by ZEFSAII (Michael W. Deem and Ramdas Pophale) SiO2 
 PCOD8172592
Probable space group: C M M 2
;
_chemical_formula_sum "Si O2"
_cell_formula_units_Z 56
_cell_length_a 14.374944
_cell_length_b 22.545430
_cell_length_c 9.095792
_cell_angle_alpha 90.000000
_cell_angle_beta 90.000000
_cell_angle_gamma 90.000000
_cell_volume 2947.848805
_symmetry_space_group_name_H-M "C M M 2"
_symmetry_group_IT_number 35
_symmetry_cell_setting 'orthorhombic'
loop_
_space_group_symop_operation_xyz
x,y,z
-x,-y,z
-x,y,z
x,-y,z
1/2+x,1/2+y,z
1/2-x,1/2-y,z
1/2-x,1/2+y,z
1/2+x,1/2-y,z
loop_
_atom_site_type_symbol
_atom_site_label
_atom_site_fract_x
_atom_site_fract_y
_atom_site_fract_z
Si Si1 0.892255 0.500000 0.561131
Si Si2 0.107975 0.500000 0.910006
Si Si3 0.391937 0.216196 0.911022
Si Si4 0.825237 0.202075 0.362687
Si Si5 0.603361 0.785541 0.590630
Si Si6 0.199600 0.610107 0.067871
Si Si7 0.823624 0.387350 0.400656
Si Si8 0.104045 0.836771 0.069892
O O1 0.887744 0.500000 0.735333
O O2 0.835384 0.444931 0.498754
O O3 0.000000 0.500000 0.507427
O O4 0.000000 0.500000 0.962377
O O5 0.162045 0.558077 0.964660
O O6 0.500000 0.198205 0.923212
O O7 0.346642 0.204792 0.748147
O O8 0.336426 0.174264 0.021313
O O9 0.376321 0.284892 0.952475
O O10 0.750000 0.250000 0.303926
O O11 0.866978 0.224531 0.515013
O O12 0.780182 0.139047 0.407308
O O13 0.898737 0.192470 0.232885
O O14 0.500000 0.776420 0.643447
O O15 0.608858 0.838311 0.472460
O O16 0.156804 0.598073 0.229875
O O17 0.313405 0.613728 0.062524
O O18 0.000000 0.864254 0.043118
#
# Coordination Sequence:
#
# PCOD8172592 Si02
#       8
#     4   4   8   8   8   8   8   8
#     4  11  23  39  57  79 106 136 170 211 259 319
#     4  11  25  41  58  81 108 140 177 215 266 323
#     4  10  20  32  51  81 116 148 179 217 266 320
#     4   9  18  32  51  77 107 141 178 217 264 316
#     4  10  19  31  49  78 111 143 176 214 263 318
#     4  11  22  37  56  80 108 143 182 223 267 316
#     4  10  21  34  51  76 104 136 177 215 259 311
#     4  10  20  35  55  80 108 142 182 224 267 314
#
# _framework density 18.996904000000001
#
# number of rings (size 3 to 8) (size 9 to 14) (size 15 to 20)
#    0.000    1.857    0.000    5.571    0.000   10.857 
#    0.000    0.357    0.000    0.000    0.000    6.500 
#    0.000    0.000    0.000    0.000    0.000    0.000 
#
# Total GULP energy -346957.900158 kJ/mol
# GULP energy per Si atom -12391.353577 kJ/mol
# Density = 1.895367 g / cm^3
# Si number density = 18.996904 Si / 1000 Ang^3
#
#
#
# Elastic Constant Matrix: (Units=GPa)
#
#
# Indices 1 2 3 4 5 6 
#
# 1 92.1148 39.9134 35.0598 0.0000 0.0000 0.0000
# 2 39.9134 85.7664 36.7108 0.0000 0.0000 0.0000
# 3 35.0598 36.7108 109.6283 0.0000 0.0000 0.0000
# 4 0.0000 0.0000 0.0000 -270.8328 0.0000 0.0000
# 5 0.0000 0.0000 0.0000 0.0000 24.0692 0.0000
# 6 0.0000 0.0000 0.0000 0.0000 0.0000 18.3308
#
#
#
# Elastic Compliance Matrix: (Units=1/GPa)
#
#
# Indices 1 2 3 4 5 6 
#
# 1 0.014265 -0.005470 -0.002730 0.000000 0.000000 0.000000
# 2 -0.005470 0.015708 -0.003511 0.000000 0.000000 0.000000
# 3 -0.002730 -0.003511 0.011171 0.000000 0.000000 0.000000
# 4 0.000000 0.000000 0.000000 -0.003692 0.000000 0.000000
# 5 0.000000 0.000000 0.000000 0.000000 0.041547 0.000000
# 6 0.000000 0.000000 0.000000 0.000000 0.000000 0.054553
#
#
# Mechanical properties :
#
#
# Convention : Reuss Voigt Hill
#
# Bulk Modulus (GPa) = 56.42853 56.76417 56.59635
# Shear Modulus (GPa) = 30.69727 -33.96486 -1.63379
#
# Velocity S-wave (km/s) = 4.02420 -4.23296 -0.92839
# Velocity P-wave (km/s) = 7.16664 2.46069 5.35797
#
# Compressibility (1/GPa) = 0.01772153
#
# Stress axis : x y z
#
# Youngs Moduli (GPa) = 70.09953 63.66234 89.52105
#
# Poissons Ratio (x) = 0.34824 0.24443
# Poissons Ratio (y) = 0.38345 0.31428
# Poissons Ratio (z) = 0.19140 0.22350
#
# Static dielectric constant tensor:
#      x y z
#    x 3.535800 0.000000 0.000000 
#    y 0.000000 6.513710 0.000000 
#    z 0.000000 0.000000 3.717710 
# 
# 
# High freq. dielectric constant tensor:
#      x y z
#    x 1.731170 0.000000 0.000000 
#    y 0.000000 1.711190 0.000000 
#    z 0.000000 0.000000 1.757620 
# 
# From -- ./inp_files/7683.got.cif
#   From: 2010.03.12/outbox.cif.g09.slc.cpg/sg35_4_cif.got.tgz:7683.got - 2010.04.14 02:02:04.
