data_PCOD8172695
_publ_section_title
;
Structure prediction by ZEFSAII (Michael W. Deem and Ramdas Pophale) SiO2 
 PCOD8172695
Probable space group: C M M 2
;
_chemical_formula_sum "Si O2"
_cell_formula_units_Z 56
_cell_length_a 8.879705
_cell_length_b 23.397881
_cell_length_c 15.490855
_cell_angle_alpha 90.000000
_cell_angle_beta 90.000000
_cell_angle_gamma 90.000000
_cell_volume 3218.477331
_symmetry_space_group_name_H-M "C M M 2"
_symmetry_group_IT_number 35
_symmetry_cell_setting 'orthorhombic'
loop_
_space_group_symop_operation_xyz
x,y,z
-x,-y,z
-x,y,z
x,-y,z
1/2+x,1/2+y,z
1/2-x,1/2-y,z
1/2-x,1/2+y,z
1/2+x,1/2-y,z
loop_
_atom_site_type_symbol
_atom_site_label
_atom_site_fract_x
_atom_site_fract_y
_atom_site_fract_z
Si Si1 0.823940 0.000000 0.210250
Si Si2 0.821531 0.886275 0.960451
Si Si3 0.823288 0.810726 0.122605
Si Si4 0.323220 0.379641 0.288094
Si Si5 0.677103 0.812709 0.813228
Si Si6 0.177727 0.687741 0.438074
Si Si7 0.328112 0.808855 0.625778
Si Si8 0.178833 0.500000 0.022920
O O1 0.781320 0.054908 0.267428
O O2 0.734034 0.000000 0.121365
O O3 0.000000 0.000000 0.184991
O O4 0.761592 0.856096 0.875105
O O5 0.000000 0.894931 0.954861
O O6 0.773682 0.848886 0.042418
O O7 0.740543 0.946462 0.970022
O O8 0.750000 0.750000 0.111460
O O9 0.764970 0.840623 0.209526
O O10 0.000000 0.802617 0.125676
O O11 0.500000 0.372386 0.302492
O O12 0.238743 0.360091 0.373789
O O13 0.500000 0.807796 0.835941
O O14 0.750000 0.750000 0.822326
O O15 0.699512 0.841343 0.716829
O O16 0.250000 0.750000 0.420786
O O17 0.223468 0.663546 0.534262
O O18 0.000000 0.693925 0.424853
O O19 0.500000 0.793511 0.613830
O O20 0.250000 0.750000 0.640314
O O21 0.000000 0.500000 0.022259
#
# Coordination Sequence:
#
# PCOD8172695 Si02
#       8
#     4   8   8   8   8   8   8   4
#     4  10  20  40  60  73 100 139 180 219 264 314
#     4  11  22  38  56  75 104 143 179 219 263 312
#     4  10  21  34  50  72 103 137 168 204 257 311
#     4  10  20  35  54  75 100 137 176 217 263 310
#     4  10  19  33  53  81 111 141 178 219 266 322
#     4  10  19  32  51  78 109 141 175 215 262 315
#     4   8  16  30  49  73 106 141 173 212 261 313
#     4  12  24  38  58  81 102 133 180 227 266 312
#
# _framework density 17.399533999999999
#
# number of rings (size 3 to 8) (size 9 to 14) (size 15 to 20)
#    0.000    2.000    1.429    2.786    0.000    5.714 
#    0.000    0.000    0.000    0.857    0.000    5.000 
#    0.000    0.000    0.000    0.000    0.000    0.000 
#
# Total GULP energy -347023.308031 kJ/mol
# GULP energy per Si atom -12393.689573 kJ/mol
# Density = 1.735993 g / cm^3
# Si number density = 17.399534 Si / 1000 Ang^3
#
#
#
# Elastic Constant Matrix: (Units=GPa)
#
#
# Indices 1 2 3 4 5 6 
#
# 1 67.2356 48.2608 53.0970 0.0000 0.0000 0.0000
# 2 48.2608 120.0277 65.8117 0.0000 0.0000 0.0000
# 3 53.0970 65.8117 144.6140 0.0000 0.0000 0.0000
# 4 0.0000 0.0000 0.0000 3.9524 0.0000 0.0000
# 5 0.0000 0.0000 0.0000 0.0000 27.8179 0.0000
# 6 0.0000 0.0000 0.0000 0.0000 0.0000 22.3518
#
#
#
# Elastic Compliance Matrix: (Units=1/GPa)
#
#
# Indices 1 2 3 4 5 6 
#
# 1 0.024217 -0.006478 -0.005943 0.000000 0.000000 0.000000
# 2 -0.006478 0.012835 -0.003462 0.000000 0.000000 0.000000
# 3 -0.005943 -0.003462 0.010673 0.000000 0.000000 0.000000
# 4 0.000000 0.000000 0.000000 0.253009 0.000000 0.000000
# 5 0.000000 0.000000 0.000000 0.000000 0.035948 0.000000
# 6 0.000000 0.000000 0.000000 0.000000 0.000000 0.044739
#
#
# Mechanical properties :
#
#
# Convention : Reuss Voigt Hill
#
# Bulk Modulus (GPa) = 62.67122 74.02403 68.34763
# Shear Modulus (GPa) = 11.94725 21.80497 16.87611
#
# Velocity S-wave (km/s) = 2.62323 3.54389 3.11773
# Velocity P-wave (km/s) = 6.72846 7.70594 7.23373
#
# Compressibility (1/GPa) = 0.01595629
#
# Stress axis : x y z
#
# Youngs Moduli (GPa) = 41.29398 77.91465 93.69691
#
# Poissons Ratio (x) = 0.50476 0.55687
# Poissons Ratio (y) = 0.26752 0.32440
# Poissons Ratio (z) = 0.24542 0.26976
#
# Static dielectric constant tensor:
#      x y z
#    x 3.259590 0.000000 0.000000 
#    y 0.000000 3.154750 0.000000 
#    z 0.000000 0.000000 3.680790 
# 
# 
# High freq. dielectric constant tensor:
#      x y z
#    x 1.679590 0.000000 0.000000 
#    y 0.000000 1.648090 0.000000 
#    z 0.000000 0.000000 1.687820 
# 
# From -- ./inp_files/15716.got.cif
#   From: 2010.03.12/outbox.cif.g09.slc.cpg/sg35_8_cif.got.tgz:15716.got - 2010.04.14 02:02:04.
