data_PCOD8172899
_publ_section_title
;
Structure prediction by ZEFSAII (Michael W. Deem and Ramdas Pophale) SiO2 
 PCOD8172899
Probable space group: C M M 2
;
_chemical_formula_sum "Si O2"
_cell_formula_units_Z 40
_cell_length_a 28.697334
_cell_length_b 8.783316
_cell_length_c 7.708196
_cell_angle_alpha 90.000000
_cell_angle_beta 90.000000
_cell_angle_gamma 90.000000
_cell_volume 1942.910563
_symmetry_space_group_name_H-M "C M M 2"
_symmetry_group_IT_number 35
_symmetry_cell_setting 'orthorhombic'
loop_
_space_group_symop_operation_xyz
x,y,z
-x,-y,z
-x,y,z
x,-y,z
1/2+x,1/2+y,z
1/2-x,1/2-y,z
1/2-x,1/2+y,z
1/2+x,1/2-y,z
loop_
_atom_site_type_symbol
_atom_site_label
_atom_site_fract_x
_atom_site_fract_y
_atom_site_fract_z
Si Si1 0.603807 0.672663 0.140510
Si Si2 0.111415 0.823842 0.755008
Si Si3 0.296053 0.676277 0.266393
Si Si4 0.554017 0.823628 0.452295
Si Si5 0.202511 0.679567 0.638924
O O1 0.592500 0.500000 0.198604
O O2 0.659496 0.700250 0.143937
O O3 0.577002 0.785500 0.267719
O O4 0.587449 0.702040 0.942905
O O5 0.075890 0.772663 0.607273
O O6 0.158916 0.728309 0.754862
O O7 0.123873 0.000000 0.725350
O O8 0.286093 0.500000 0.304616
O O9 0.250000 0.750000 0.177976
O O10 0.306752 0.759884 0.446177
O O11 0.500000 0.782288 0.440736
O O12 0.562646 0.000000 0.492229
O O13 0.207148 0.500000 0.636891
O O14 0.250000 0.750000 0.716788
#
# Coordination Sequence:
#
# PCOD8172899 Si02
#       5
#     8   8   8   8   8
#     4  10  23  41  64  92 124 162 206 253 304 365
#     4  11  23  41  64  93 126 163 207 253 305 367
#     4  10  19  34  57  87 122 162 204 250 298 357
#     4  11  25  44  66  92 122 158 202 256 316 372
#     4  11  21  35  58  89 124 167 209 251 302 358
#
# _framework density 20.587668000000001
#
# number of rings (size 3 to 8) (size 9 to 14) (size 15 to 20)
#    0.000    1.400    2.000    4.800    0.000    5.600 
#    0.000    6.000    0.000    0.000    0.000    0.000 
#    0.000    0.000    0.000    0.000    0.000    0.000 
#
# Total GULP energy -248062.568169 kJ/mol
# GULP energy per Si atom -12403.128408 kJ/mol
# Density = 2.054081 g / cm^3
# Si number density = 20.587668 Si / 1000 Ang^3
#
#
#
# Elastic Constant Matrix: (Units=GPa)
#
#
# Indices 1 2 3 4 5 6 
#
# 1 103.3949 47.8762 43.2222 0.0000 0.0000 0.0000
# 2 47.8762 134.3049 42.0874 0.0000 0.0000 0.0000
# 3 43.2222 42.0874 101.8781 0.0000 0.0000 0.0000
# 4 0.0000 0.0000 0.0000 22.7709 0.0000 0.0000
# 5 0.0000 0.0000 0.0000 0.0000 14.8658 0.0000
# 6 0.0000 0.0000 0.0000 0.0000 0.0000 34.1476
#
#
#
# Elastic Compliance Matrix: (Units=1/GPa)
#
#
# Indices 1 2 3 4 5 6 
#
# 1 0.012928 -0.003320 -0.004114 0.000000 0.000000 0.000000
# 2 -0.003320 0.009405 -0.002477 0.000000 0.000000 0.000000
# 3 -0.004114 -0.002477 0.012584 0.000000 0.000000 0.000000
# 4 0.000000 0.000000 0.000000 0.043916 0.000000 0.000000
# 5 0.000000 0.000000 0.000000 0.000000 0.067269 0.000000
# 6 0.000000 0.000000 0.000000 0.000000 0.000000 0.029285
#
#
# Mechanical properties :
#
#
# Convention : Reuss Voigt Hill
#
# Bulk Modulus (GPa) = 66.23669 67.32772 66.78221
# Shear Modulus (GPa) = 24.97007 28.11634 26.54320
#
# Velocity S-wave (km/s) = 3.48640 3.69953 3.59455
# Velocity P-wave (km/s) = 6.96057 7.14301 7.05238
#
# Compressibility (1/GPa) = 0.01509737
#
# Stress axis : x y z
#
# Youngs Moduli (GPa) = 77.34952 106.32253 79.46480
#
# Poissons Ratio (x) = 0.35294 0.32688
# Poissons Ratio (y) = 0.25676 0.19685
# Poissons Ratio (z) = 0.31818 0.26338
#
# Static dielectric constant tensor:
#      x y z
#    x 3.495930 0.000000 0.000000 
#    y 0.000000 3.831410 0.000000 
#    z 0.000000 0.000000 3.576040 
# 
# 
# High freq. dielectric constant tensor:
#      x y z
#    x 1.804980 0.000000 0.000000 
#    y 0.000000 1.815660 0.000000 
#    z 0.000000 0.000000 1.798490 
# 
# From -- ./inp_files/10045.got.cif
#   From: 2010.03.12/outbox.cif.g09.slc.cpg/sg35_6_cif.got.tgz:10045.got - 2010.04.14 02:02:04.
