data_PCOD8172586
_publ_section_title
;
Structure prediction by ZEFSAII (Michael W. Deem and Ramdas Pophale) SiO2 
 PCOD8172586
Probable space group: C M M 2
;
_chemical_formula_sum "Si O2"
_cell_formula_units_Z 64
_cell_length_a 8.804915
_cell_length_b 18.545953
_cell_length_c 20.615177
_cell_angle_alpha 90.000000
_cell_angle_beta 90.000000
_cell_angle_gamma 90.000000
_cell_volume 3366.366455
_symmetry_space_group_name_H-M "C M M 2"
_symmetry_group_IT_number 35
_symmetry_cell_setting 'orthorhombic'
loop_
_space_group_symop_operation_xyz
x,y,z
-x,-y,z
-x,y,z
x,-y,z
1/2+x,1/2+y,z
1/2-x,1/2-y,z
1/2-x,1/2+y,z
1/2+x,1/2-y,z
loop_
_atom_site_type_symbol
_atom_site_label
_atom_site_fract_x
_atom_site_fract_y
_atom_site_fract_z
Si Si1 0.819946 0.327763 0.589460
Si Si2 0.680422 0.918872 0.095247
Si Si3 0.822975 0.083260 0.331315
Si Si4 0.180514 0.419348 0.708591
Si Si5 0.319452 0.828168 0.972195
Si Si6 0.319610 0.919184 0.852229
Si Si7 0.679631 0.828479 0.217916
Si Si8 0.825680 0.583185 0.465140
O O1 0.750000 0.250000 0.584431
O O2 0.753193 0.366275 0.653908
O O3 0.767539 0.371910 0.526519
O O4 0.000000 0.322758 0.593085
O O5 0.500000 0.922223 0.095965
O O6 0.740814 0.876529 0.158237
O O7 0.747625 0.000000 0.095715
O O8 0.737932 0.877731 0.031310
O O9 0.727813 0.133604 0.284128
O O10 0.778187 0.104554 0.404316
O O11 0.000000 0.097967 0.321072
O O12 0.780466 0.000000 0.317718
O O13 0.242351 0.500000 0.695720
O O14 0.232651 0.393331 0.780431
O O15 0.000000 0.420519 0.704671
O O16 0.500000 0.821714 0.971814
O O17 0.250000 0.750000 0.980651
O O18 0.256086 0.864000 0.905907
O O19 0.500000 0.921156 0.856368
O O20 0.257812 0.000000 0.866005
O O21 0.500000 0.820873 0.216266
O O22 0.750000 0.750000 0.212267
O O23 0.806283 0.500000 0.483867
O O24 0.000000 0.600930 0.447748
#
# Coordination Sequence:
#
# PCOD8172586 Si02
#       8
#     8   8   8   8   8   8   8   8
#     4  10  20  32  48  72 101 131 163 204 253 301
#     4   9  18  33  54  77  99 129 172 216 252 292
#     4  10  21  37  57  81 107 134 167 209 255 304
#     4   8  14  27  48  72  96 125 167 213 248 284
#     4  10  19  31  49  74 104 134 165 204 250 299
#     4   8  14  26  47  73  97 126 168 212 247 284
#     4  11  22  36  55  78 106 138 171 209 255 306
#     4   9  18  34  55  75  96 129 173 213 248 292
#
# _framework density 19.011596999999998
#
# number of rings (size 3 to 8) (size 9 to 14) (size 15 to 20)
#    0.000    2.625    0.000    3.000    0.000    5.750 
#    0.000    1.875    0.000    4.125    0.000    1.750 
#    0.000    0.000    0.000    0.000    0.000    0.000 
#
# Total GULP energy -396774.930331 kJ/mol
# GULP energy per Si atom -12399.216573 kJ/mol
# Density = 1.896833 g / cm^3
# Si number density = 19.011597 Si / 1000 Ang^3
#
#
#
# Elastic Constant Matrix: (Units=GPa)
#
#
# Indices 1 2 3 4 5 6 
#
# 1 30.5273 30.0024 28.9797 0.0000 0.0000 0.0000
# 2 30.0024 153.4465 101.8295 0.0000 0.0000 0.0000
# 3 28.9797 101.8295 163.7033 0.0000 0.0000 0.0000
# 4 0.0000 0.0000 0.0000 15.6901 0.0000 0.0000
# 5 0.0000 0.0000 0.0000 0.0000 12.2374 0.0000
# 6 0.0000 0.0000 0.0000 0.0000 0.0000 27.1849
#
#
#
# Elastic Compliance Matrix: (Units=1/GPa)
#
#
# Indices 1 2 3 4 5 6 
#
# 1 0.042007 -0.005583 -0.003963 0.000000 0.000000 0.000000
# 2 -0.005583 0.011840 -0.006377 0.000000 0.000000 0.000000
# 3 -0.003963 -0.006377 0.010777 0.000000 0.000000 0.000000
# 4 0.000000 0.000000 0.000000 0.063734 0.000000 0.000000
# 5 0.000000 0.000000 0.000000 0.000000 0.081717 0.000000
# 6 0.000000 0.000000 0.000000 0.000000 0.000000 0.036785
#
#
# Mechanical properties :
#
#
# Convention : Reuss Voigt Hill
#
# Bulk Modulus (GPa) = 30.50857 74.36671 52.43764
# Shear Modulus (GPa) = 17.26322 23.48018 20.37170
#
# Velocity S-wave (km/s) = 3.01663 3.51813 3.27699
# Velocity P-wave (km/s) = 5.31184 7.46354 6.47766
#
# Compressibility (1/GPa) = 0.03277767
#
# Stress axis : x y z
#
# Youngs Moduli (GPa) = 23.80537 84.45751 92.79218
#
# Poissons Ratio (x) = 0.47155 0.36777
# Poissons Ratio (y) = 0.13291 0.59171
# Poissons Ratio (z) = 0.09435 0.53856
#
# Static dielectric constant tensor:
#      x y z
#    x 3.044840 0.000000 0.000000 
#    y 0.000000 3.620460 0.000000 
#    z 0.000000 0.000000 3.806260 
# 
# 
# High freq. dielectric constant tensor:
#      x y z
#    x 1.694620 0.000000 0.000000 
#    y 0.000000 1.742600 0.000000 
#    z 0.000000 0.000000 1.757370 
# 
# From -- ./inp_files/18371.got.cif
#   From: 2010.03.12/outbox.cif.g09.slc.cpg/sg35_10_cif.got.tgz:18371.got - 2010.04.14 02:02:04.
