data_PCOD8172955
_publ_section_title
;
Structure prediction by ZEFSAII (Michael W. Deem and Ramdas Pophale) SiO2 
 PCOD8172955
Probable space group: C M M 2
;
_chemical_formula_sum "Si O2"
_cell_formula_units_Z 64
_cell_length_a 16.582228
_cell_length_b 19.134230
_cell_length_c 9.883177
_cell_angle_alpha 90.000000
_cell_angle_beta 90.000000
_cell_angle_gamma 90.000000
_cell_volume 3135.815089
_symmetry_space_group_name_H-M "C M M 2"
_symmetry_group_IT_number 35
_symmetry_cell_setting 'orthorhombic'
loop_
_space_group_symop_operation_xyz
x,y,z
-x,-y,z
-x,y,z
x,-y,z
1/2+x,1/2+y,z
1/2-x,1/2-y,z
1/2-x,1/2+y,z
1/2+x,1/2-y,z
loop_
_atom_site_type_symbol
_atom_site_label
_atom_site_fract_x
_atom_site_fract_y
_atom_site_fract_z
Si Si1 0.593422 0.075636 0.398130
Si Si2 0.821515 0.419311 0.135531
Si Si3 0.696504 0.318133 0.262659
Si Si4 0.909221 0.812972 0.004581
Si Si5 0.904124 0.920928 0.784898
Si Si6 0.404046 0.666206 0.528130
Si Si7 0.404421 0.817958 0.609696
Si Si8 0.408939 0.841048 0.904593
O O1 0.500000 0.074580 0.431706
O O2 0.604215 0.090345 0.239164
O O3 0.635020 0.135164 0.489994
O O4 0.631938 0.000000 0.434181
O O5 0.801821 0.500000 0.103885
O O6 0.746066 0.384360 0.209586
O O7 0.845333 0.380802 0.997884
O O8 0.750000 0.250000 0.298230
O O9 0.637388 0.297336 0.141824
O O10 0.644712 0.345178 0.389674
O O11 0.000000 0.834463 0.043632
O O12 0.869934 0.873393 0.908802
O O13 0.907992 0.741858 0.920898
O O14 0.878097 0.892337 0.637376
O O15 0.000000 0.917450 0.792715
O O16 0.871762 0.000000 0.801978
O O17 0.500000 0.664482 0.497817
O O18 0.374197 0.739281 0.591668
O O19 0.500000 0.816829 0.599341
O O20 0.378693 0.852948 0.751294
O O21 0.500000 0.870024 0.927865
#
# Coordination Sequence:
#
# PCOD8172955 Si02
#       8
#     8   8   8   8   8   8   8   8
#     4   9  18  34  56  82 114 154 196 238 287 342
#     4  11  24  40  56  81 122 165 200 238 288 348
#     4  12  24  39  58  85 119 161 200 243 290 346
#     4  10  20  38  63  90 115 147 195 246 296 351
#     4   9  18  36  63  91 117 146 187 246 309 358
#     4  10  20  37  61  89 116 148 195 247 297 352
#     4   9  17  31  57  90 117 142 186 247 298 345
#     4  10  19  35  61  90 118 151 193 242 294 349
#
# _framework density 20.409365999999999
#
# number of rings (size 3 to 8) (size 9 to 14) (size 15 to 20)
#    0.000    2.000    2.500    1.500    0.000    2.250 
#    0.000    4.375    0.000    3.750    0.000    0.000 
#    0.000    0.000    0.000    0.000    0.000    0.000 
#
# Total GULP energy -396689.837020 kJ/mol
# GULP energy per Si atom -12396.557407 kJ/mol
# Density = 2.036291 g / cm^3
# Si number density = 20.409366 Si / 1000 Ang^3
#
#
#
# Elastic Constant Matrix: (Units=GPa)
#
#
# Indices 1 2 3 4 5 6 
#
# 1 41.0123 20.0985 20.5077 0.0000 0.0000 0.0000
# 2 20.0985 111.9732 34.6423 0.0000 0.0000 0.0000
# 3 20.5077 34.6423 104.6130 0.0000 0.0000 0.0000
# 4 0.0000 0.0000 0.0000 35.8419 0.0000 0.0000
# 5 0.0000 0.0000 0.0000 0.0000 19.9387 0.0000
# 6 0.0000 0.0000 0.0000 0.0000 0.0000 21.7989
#
#
#
# Elastic Compliance Matrix: (Units=1/GPa)
#
#
# Indices 1 2 3 4 5 6 
#
# 1 0.028385 -0.003758 -0.004320 0.000000 0.000000 0.000000
# 2 -0.003758 0.010448 -0.002723 0.000000 0.000000 0.000000
# 3 -0.004320 -0.002723 0.011308 0.000000 0.000000 0.000000
# 4 0.000000 0.000000 0.000000 0.027900 0.000000 0.000000
# 5 0.000000 0.000000 0.000000 0.000000 0.050154 0.000000
# 6 0.000000 0.000000 0.000000 0.000000 0.000000 0.045874
#
#
# Mechanical properties :
#
#
# Convention : Reuss Voigt Hill
#
# Bulk Modulus (GPa) = 35.04126 45.34394 40.19260
# Shear Modulus (GPa) = 24.36846 27.67256 26.02051
#
# Velocity S-wave (km/s) = 3.45916 3.68622 3.57449
# Velocity P-wave (km/s) = 5.75854 6.35477 6.06399
#
# Compressibility (1/GPa) = 0.02853778
#
# Stress axis : x y z
#
# Youngs Moduli (GPa) = 35.23000 95.71437 88.43631
#
# Poissons Ratio (x) = 0.35974 0.38203
# Poissons Ratio (y) = 0.13241 0.24081
# Poissons Ratio (z) = 0.15219 0.26063
#
# Static dielectric constant tensor:
#      x y z
#    x 3.436130 0.000000 0.000000 
#    y 0.000000 3.877590 0.000000 
#    z 0.000000 0.000000 3.862790 
# 
# 
# High freq. dielectric constant tensor:
#      x y z
#    x 1.764810 0.000000 0.000000 
#    y 0.000000 1.797630 0.000000 
#    z 0.000000 0.000000 1.808640 
# 
# From -- ./inp_files/8765.got.cif
#   From: 2010.03.12/outbox.cif.g09.slc.cpg/sg35_5_cif.got.tgz:8765.got - 2010.04.14 02:02:04.
