data_PCOD8172219
_publ_section_title
;
Structure prediction by ZEFSAII (Michael W. Deem and Ramdas Pophale) SiO2 
 PCOD8172219
Probable space group: C M M 2
;
_chemical_formula_sum "Si O2"
_cell_formula_units_Z 40
_cell_length_a 29.898557
_cell_length_b 8.643764
_cell_length_c 7.356682
_cell_angle_alpha 90.000000
_cell_angle_beta 90.000000
_cell_angle_gamma 90.000000
_cell_volume 1901.231989
_symmetry_space_group_name_H-M "C M M 2"
_symmetry_group_IT_number 35
_symmetry_cell_setting 'orthorhombic'
loop_
_space_group_symop_operation_xyz
x,y,z
-x,-y,z
-x,y,z
x,-y,z
1/2+x,1/2+y,z
1/2-x,1/2-y,z
1/2-x,1/2+y,z
1/2+x,1/2-y,z
loop_
_atom_site_type_symbol
_atom_site_label
_atom_site_fract_x
_atom_site_fract_y
_atom_site_fract_z
Si Si1 0.614703 0.818973 0.773560
Si Si2 0.551458 0.321300 0.489882
Si Si3 0.794730 0.817282 0.766551
Si Si4 0.116191 0.180236 0.167603
Si Si5 0.794208 0.316971 0.170524
O O1 0.572652 0.783486 0.646619
O O2 0.659194 0.745320 0.678972
O O3 0.622329 0.000000 0.794321
O O4 0.604726 0.749888 0.971647
O O5 0.500000 0.274415 0.470413
O O6 0.557492 0.500000 0.545406
O O7 0.574098 0.287430 0.296157
O O8 0.750000 0.750000 0.668474
O O9 0.793318 0.000000 0.755501
O O10 0.795369 0.758115 0.972026
O O11 0.159535 0.261725 0.262583
O O12 0.126665 0.000000 0.144761
O O13 0.791410 0.500000 0.159740
O O14 0.750000 0.250000 0.273145
#
# Coordination Sequence:
#
# PCOD8172219 Si02
#       5
#     8   8   8   8   8
#     4  11  22  37  59  88 121 155 191 234 287 346
#     4  10  23  43  64  85 111 147 193 244 295 346
#     4  10  17  29  51  80 115 153 193 234 278 333
#     4  10  20  37  61  87 116 152 194 238 285 341
#     4  10  17  28  49  79 115 152 190 231 278 335
#
# _framework density 21.038988
#
# number of rings (size 3 to 8) (size 9 to 14) (size 15 to 20)
#    0.000    1.800    0.000    9.600    0.000    2.800 
#    0.000    3.000    0.000    4.800    0.000    0.000 
#    0.000    0.000    0.000    0.000    0.000    0.000 
#
# Total GULP energy -247967.038959 kJ/mol
# GULP energy per Si atom -12398.351948 kJ/mol
# Density = 2.099110 g / cm^3
# Si number density = 21.038988 Si / 1000 Ang^3
#
#
#
# Elastic Constant Matrix: (Units=GPa)
#
#
# Indices 1 2 3 4 5 6 
#
# 1 192.9469 86.1061 49.8636 0.0000 0.0000 0.0000
# 2 86.1061 242.4751 38.3820 0.0000 0.0000 0.0000
# 3 49.8636 38.3820 67.5721 0.0000 0.0000 0.0000
# 4 0.0000 0.0000 0.0000 1.1653 0.0000 0.0000
# 5 0.0000 0.0000 0.0000 0.0000 -161.3932 0.0000
# 6 0.0000 0.0000 0.0000 0.0000 0.0000 35.4078
#
#
#
# Elastic Compliance Matrix: (Units=1/GPa)
#
#
# Indices 1 2 3 4 5 6 
#
# 1 0.007091 -0.001857 -0.004178 0.000000 0.000000 0.000000
# 2 -0.001857 0.005018 -0.001480 0.000000 0.000000 0.000000
# 3 -0.004178 -0.001480 0.018723 0.000000 0.000000 0.000000
# 4 0.000000 0.000000 0.000000 0.858113 0.000000 0.000000
# 5 0.000000 0.000000 0.000000 0.000000 -0.006196 0.000000
# 6 0.000000 0.000000 0.000000 0.000000 0.000000 0.028242
#
#
# Mechanical properties :
#
#
# Convention : Reuss Voigt Hill
#
# Bulk Modulus (GPa) = 63.28317 94.63305 78.95811
# Shear Modulus (GPa) = 5.36891 -3.05453 1.15719
#
# Velocity S-wave (km/s) = 1.59920 -1.20623 0.74244
# Velocity P-wave (km/s) = 5.79260 6.56791 6.19240
#
# Compressibility (1/GPa) = 0.01580199
#
# Stress axis : x y z
#
# Youngs Moduli (GPa) = 141.02064 199.29126 53.41075
#
# Poissons Ratio (x) = 0.37004 0.22316
# Poissons Ratio (y) = 0.26185 0.07905
# Poissons Ratio (z) = 0.58920 0.29495
#
# Static dielectric constant tensor:
#      x y z
#    x 4.728480 0.000000 0.000000 
#    y 0.000000 3.807770 0.000000 
#    z 0.000000 0.000000 3.397680 
# 
# 
# High freq. dielectric constant tensor:
#      x y z
#    x 1.838510 0.000000 0.000000 
#    y 0.000000 1.833690 0.000000 
#    z 0.000000 0.000000 1.795820 
# 
# From -- ./inp_files/5116.got.cif
#   From: 2010.03.12/outbox.cif.g09.slc.cpg/sg35_3_cif.got.tgz:5116.got - 2010.04.14 02:02:04.
