data_PCOD8172965
_publ_section_title
;
Structure prediction by ZEFSAII (Michael W. Deem and Ramdas Pophale) SiO2 
 PCOD8172965
Probable space group: C M M 2
;
_chemical_formula_sum "Si O2"
_cell_formula_units_Z 64
_cell_length_a 15.062563
_cell_length_b 21.571627
_cell_length_c 9.837455
_cell_angle_alpha 90.000000
_cell_angle_beta 90.000000
_cell_angle_gamma 90.000000
_cell_volume 3196.425137
_symmetry_space_group_name_H-M "C M M 2"
_symmetry_group_IT_number 35
_symmetry_cell_setting 'orthorhombic'
loop_
_space_group_symop_operation_xyz
x,y,z
-x,-y,z
-x,y,z
x,-y,z
1/2+x,1/2+y,z
1/2-x,1/2-y,z
1/2-x,1/2+y,z
1/2+x,1/2-y,z
loop_
_atom_site_type_symbol
_atom_site_label
_atom_site_fract_x
_atom_site_fract_y
_atom_site_fract_z
Si Si1 0.728942 0.570988 0.817450
Si Si2 0.899171 0.350270 0.798605
Si Si3 0.598746 0.746613 0.008876
Si Si4 0.599317 0.776822 0.529121
Si Si5 0.191115 0.874674 0.092594
Si Si6 0.893586 0.140390 0.603992
Si Si7 0.396983 0.431920 0.339611
Si Si8 0.822473 0.697513 0.249106
O O1 0.721949 0.500000 0.768898
O O2 0.830854 0.593021 0.804299
O O3 0.659481 0.611990 0.731006
O O4 0.704979 0.573920 0.977252
O O5 0.898425 0.327177 0.645422
O O6 0.000000 0.371071 0.838833
O O7 0.865330 0.295153 0.896970
O O8 0.500000 0.724798 0.968465
O O9 0.662751 0.687486 0.012454
O O10 0.595259 0.780968 0.155297
O O11 0.500000 0.762742 0.478351
O O12 0.638334 0.711449 0.582948
O O13 0.651524 0.808937 0.405579
O O14 0.116208 0.896296 0.197941
O O15 0.280241 0.864965 0.184122
O O16 0.860034 0.106001 0.467986
O O17 0.000000 0.135126 0.630806
O O18 0.500000 0.439795 0.362761
O O19 0.351451 0.500000 0.335322
O O20 0.750000 0.750000 0.234838
#
# Coordination Sequence:
#
# PCOD8172965 Si02
#       8
#     8   8   8   8   8   8   8   8
#     4  12  26  42  62  86 121 169 214 259 303 355
#     4  10  23  41  62  88 116 155 203 255 315 369
#     4  10  19  36  59  85 120 154 188 242 307 366
#     4  10  21  37  60  91 122 152 189 245 314 376
#     4  11  22  36  56  91 122 157 205 251 304 367
#     4  10  22  40  63  94 128 162 202 247 307 377
#     4  10  21  38  57  81 122 171 210 246 292 360
#     4  10  20  32  53  89 121 152 183 236 300 369
#
# _framework density 20.022366999999999
#
# number of rings (size 3 to 8) (size 9 to 14) (size 15 to 20)
#    0.000    1.625    1.250    3.750    3.500    5.000 
#    0.000    0.000    0.000    0.000    0.000    0.000 
#    0.000    0.000    0.000    0.000    0.000    0.000 
#
# Total GULP energy -396706.153528 kJ/mol
# GULP energy per Si atom -12397.067298 kJ/mol
# Density = 1.997680 g / cm^3
# Si number density = 20.022367 Si / 1000 Ang^3
#
#
#
# Elastic Constant Matrix: (Units=GPa)
#
#
# Indices 1 2 3 4 5 6 
#
# 1 65.9732 23.6405 33.0661 0.0000 0.0000 0.0000
# 2 23.6405 59.9374 30.2546 0.0000 0.0000 0.0000
# 3 33.0661 30.2546 122.7622 0.0000 0.0000 0.0000
# 4 0.0000 0.0000 0.0000 27.6854 0.0000 0.0000
# 5 0.0000 0.0000 0.0000 0.0000 32.1890 0.0000
# 6 0.0000 0.0000 0.0000 0.0000 0.0000 18.2976
#
#
#
# Elastic Compliance Matrix: (Units=1/GPa)
#
#
# Indices 1 2 3 4 5 6 
#
# 1 0.019050 -0.005623 -0.003745 0.000000 0.000000 0.000000
# 2 -0.005623 0.020714 -0.003590 0.000000 0.000000 0.000000
# 3 -0.003745 -0.003590 0.010039 0.000000 0.000000 0.000000
# 4 0.000000 0.000000 0.000000 0.036120 0.000000 0.000000
# 5 0.000000 0.000000 0.000000 0.000000 0.031067 0.000000
# 6 0.000000 0.000000 0.000000 0.000000 0.000000 0.054652
#
#
# Mechanical properties :
#
#
# Convention : Reuss Voigt Hill
#
# Bulk Modulus (GPa) = 41.86563 46.95502 44.41032
# Shear Modulus (GPa) = 24.32833 26.41517 25.37175
#
# Velocity S-wave (km/s) = 3.48955 3.63613 3.56360
# Velocity P-wave (km/s) = 6.09842 6.41333 6.25786
#
# Compressibility (1/GPa) = 0.02388594
#
# Stress axis : x y z
#
# Youngs Moduli (GPa) = 52.49406 48.27585 99.60678
#
# Poissons Ratio (x) = 0.27146 0.37305
# Poissons Ratio (y) = 0.29518 0.35763
# Poissons Ratio (z) = 0.19660 0.17333
#
# Static dielectric constant tensor:
#      x y z
#    x 3.811660 0.000000 0.000000 
#    y 0.000000 3.537940 0.000000 
#    z 0.000000 0.000000 3.802120 
# 
# 
# High freq. dielectric constant tensor:
#      x y z
#    x 1.773030 0.000000 0.000000 
#    y 0.000000 1.754760 0.000000 
#    z 0.000000 0.000000 1.798130 
# 
# From -- ./inp_files/7860.got.cif
#   From: 2010.03.12/outbox.cif.g09.slc.cpg/sg35_4_cif.got.tgz:7860.got - 2010.04.14 02:02:04.
