data_PCOD8172009
_publ_section_title
;
Structure prediction by ZEFSAII (Michael W. Deem and Ramdas Pophale) SiO2 
 PCOD8172009
Probable space group: P N N 2
;
_chemical_formula_sum "Si O2"
_cell_formula_units_Z 26
_cell_length_a 10.136906
_cell_length_b 22.994973
_cell_length_c 5.096359
_cell_angle_alpha 90.000000
_cell_angle_beta 90.000000
_cell_angle_gamma 90.000000
_cell_volume 1187.950477
_symmetry_space_group_name_H-M "P N N 2"
_symmetry_group_IT_number 34
_symmetry_cell_setting 'orthorhombic'
loop_
_space_group_symop_operation_xyz
x,y,z
-x,-y,z
1/2-x,1/2+y,1/2+z
1/2+x,1/2-y,1/2+z
loop_
_atom_site_type_symbol
_atom_site_label
_atom_site_fract_x
_atom_site_fract_y
_atom_site_fract_z
Si Si1 0.719210 0.262694 0.285250
Si Si2 0.057949 0.658938 0.194519
Si Si3 0.110460 0.173451 0.291699
Si Si4 0.500000 0.000000 0.998453
Si Si5 0.655507 0.899756 0.193750
Si Si6 0.809990 0.137106 0.287203
Si Si7 0.814754 0.596528 0.287760
O O1 0.875242 0.277732 0.230171
O O2 0.660189 0.285151 0.558471
O O3 0.713958 0.193171 0.291260
O O4 0.630621 0.290831 0.058649
O O5 0.144885 0.619293 0.390522
O O6 0.905236 0.655333 0.280180
O O7 0.064117 0.637285 0.892844
O O8 0.194345 0.112617 0.287457
O O9 0.960442 0.155407 0.276968
O O10 0.397889 0.034027 0.192135
O O11 0.585794 0.041871 0.808944
O O12 0.777290 0.095042 0.531714
O O13 0.781742 0.098492 0.033466
#
# Coordination Sequence:
#
# PCOD8172009 Si02
#       7
#     4   4   4   2   4   4   4
#     4  10  22  37  63  85 126 175 201 244 316 377
#     4   9  19  37  58  90 120 157 207 255 299 376
#     4  10  22  43  58  92 131 168 207 256 315 385
#     4  10  22  44  70  92 120 166 220 282 324 360
#     4   9  19  37  66  88 118 159 209 261 316 364
#     4  12  25  38  61  94 132 164 210 257 312 392
#     4  11  24  40  62  96 125 162 218 272 309 373
#
# _framework density 21.886431999999999
#
# number of rings (size 3 to 8) (size 9 to 14) (size 15 to 20)
#    0.000    1.846    0.000    3.692    4.308    5.538 
#    0.000    0.769    0.000    3.692    0.000    0.000 
#    0.000    0.000    0.000    0.000    0.000    0.000 
#
# Total GULP energy -322174.845535 kJ/mol
# GULP energy per Si atom -12391.340213 kJ/mol
# Density = 2.183662 g / cm^3
# Si number density = 21.886432 Si / 1000 Ang^3
#
#
#
# Elastic Constant Matrix: (Units=GPa)
#
#
# Indices 1 2 3 4 5 6 
#
# 1 99.8575 28.9356 29.5431 0.0000 0.0000 0.0000
# 2 28.9356 89.0453 33.5732 0.0000 0.0000 0.0000
# 3 29.5431 33.5732 131.3708 0.0000 0.0000 0.0000
# 4 0.0000 0.0000 0.0000 18.1573 0.0000 0.0000
# 5 0.0000 0.0000 0.0000 0.0000 25.2754 0.0000
# 6 0.0000 0.0000 0.0000 0.0000 0.0000 21.1213
#
#
#
# Elastic Compliance Matrix: (Units=1/GPa)
#
#
# Indices 1 2 3 4 5 6 
#
# 1 0.011425 -0.003036 -0.001793 0.000000 0.000000 0.000000
# 2 -0.003036 0.013235 -0.002699 0.000000 0.000000 0.000000
# 3 -0.001793 -0.002699 0.008705 0.000000 0.000000 0.000000
# 4 0.000000 0.000000 0.000000 0.055074 0.000000 0.000000
# 5 0.000000 0.000000 0.000000 0.000000 0.039564 0.000000
# 6 0.000000 0.000000 0.000000 0.000000 0.000000 0.047346
#
#
# Mechanical properties :
#
#
# Convention : Reuss Voigt Hill
#
# Bulk Modulus (GPa) = 54.62557 56.04192 55.33375
# Shear Modulus (GPa) = 25.44416 28.12558 26.78487
#
# Velocity S-wave (km/s) = 3.41332 3.58868 3.50210
# Velocity P-wave (km/s) = 6.36767 6.54468 6.45678
#
# Compressibility (1/GPa) = 0.01830645
#
# Stress axis : x y z
#
# Youngs Moduli (GPa) = 87.52997 75.55891 114.87418
#
# Poissons Ratio (x) = 0.22943 0.20600
# Poissons Ratio (y) = 0.26577 0.31010
# Poissons Ratio (z) = 0.15696 0.20397
#
# Static dielectric constant tensor:
#      x y z
#    x 3.959530 0.000000 0.000000 
#    y 0.000000 3.900920 0.000000 
#    z 0.000000 0.000000 4.113650 
# 
# 
# High freq. dielectric constant tensor:
#      x y z
#    x 1.855600 0.000000 0.000000 
#    y 0.000000 1.831920 0.000000 
#    z 0.000000 0.000000 1.879350 
# 
# From -- ./inp_files/512.got.cif
#   From: 2010.03.12/outbox.cif.g09.slc.cpg/sg34_1_cif.got.tgz:512.got - 2010.04.14 01:56:33.
