data_PCOD8172121
_publ_section_title
;
Structure prediction by ZEFSAII (Michael W. Deem and Ramdas Pophale) SiO2 
 PCOD8172121
Probable space group: P N N 2
;
_chemical_formula_sum "Si O2"
_cell_formula_units_Z 28
_cell_length_a 8.045292
_cell_length_b 23.903367
_cell_length_c 6.368754
_cell_angle_alpha 90.000000
_cell_angle_beta 90.000000
_cell_angle_gamma 90.000000
_cell_volume 1224.772326
_symmetry_space_group_name_H-M "P N N 2"
_symmetry_group_IT_number 34
_symmetry_cell_setting 'orthorhombic'
loop_
_space_group_symop_operation_xyz
x,y,z
-x,-y,z
1/2-x,1/2+y,1/2+z
1/2+x,1/2-y,1/2+z
loop_
_atom_site_type_symbol
_atom_site_label
_atom_site_fract_x
_atom_site_fract_y
_atom_site_fract_z
Si Si1 0.324607 0.304949 0.868570
Si Si2 0.543533 0.213218 0.064266
Si Si3 0.891873 0.387544 0.820374
Si Si4 0.500000 0.500000 0.056963
Si Si5 0.091496 0.360734 0.186091
Si Si6 0.516924 0.406596 0.723840
Si Si7 0.500000 0.000000 0.169816
Si Si8 0.722661 0.539091 0.395547
O O1 0.449914 0.343308 0.735914
O O2 0.206831 0.270650 0.703661
O O3 0.422584 0.266047 0.033722
O O4 0.218929 0.349533 0.998677
O O5 0.451097 0.162592 0.174578
O O6 0.588179 0.194519 0.828617
O O7 0.713654 0.401912 0.728327
O O8 0.006339 0.443127 0.804031
O O9 0.912504 0.371069 0.068259
O O10 0.663730 0.500505 0.202845
O O11 0.475620 0.444129 0.924649
O O12 0.150460 0.412466 0.325913
O O13 0.439774 0.435770 0.516065
O O14 0.328760 0.002334 0.039472
#
# Coordination Sequence:
#
# PCOD8172121 Si02
#       8
#     4   4   4   2   4   4   2   4
#     4  11  26  46  72 101 138 184 234 295 352 426
#     4  11  26  48  71 102 139 183 236 292 355 423
#     4  11  27  43  69 105 140 180 239 283 356 423
#     4  12  26  42  72 104 140 192 230 284 362 428
#     4  11  24  47  70  99 139 186 229 289 353 425
#     4  12  26  46  68 106 144 180 234 301 342 428
#     4  12  24  46  72 102 146 184 230 298 342 436
#     4  12  25  46  70 102 146 186 235 288 360 421
#
# _framework density 22.861391000000001
#
# number of rings (size 3 to 8) (size 9 to 14) (size 15 to 20)
#    0.000    0.571    4.286    3.000    8.000    3.429 
#    0.000    0.000    0.000    0.000    0.000    0.000 
#    0.000    0.000    0.000    0.000    0.000    0.000 
#
# Total GULP energy -347088.685589 kJ/mol
# GULP energy per Si atom -12396.024485 kJ/mol
# Density = 2.280936 g / cm^3
# Si number density = 22.861391 Si / 1000 Ang^3
#
#
#
# Elastic Constant Matrix: (Units=GPa)
#
#
# Indices 1 2 3 4 5 6 
#
# 1 107.6833 26.6176 36.9802 0.0000 0.0000 0.0000
# 2 26.6176 102.5529 30.9586 0.0000 0.0000 0.0000
# 3 36.9802 30.9586 94.1417 0.0000 0.0000 0.0000
# 4 0.0000 0.0000 0.0000 22.4422 0.0000 0.0000
# 5 0.0000 0.0000 0.0000 0.0000 35.7855 0.0000
# 6 0.0000 0.0000 0.0000 0.0000 0.0000 34.6901
#
#
#
# Elastic Compliance Matrix: (Units=1/GPa)
#
#
# Indices 1 2 3 4 5 6 
#
# 1 0.011002 -0.001722 -0.003755 0.000000 0.000000 0.000000
# 2 -0.001722 0.011095 -0.002972 0.000000 0.000000 0.000000
# 3 -0.003755 -0.002972 0.013075 0.000000 0.000000 0.000000
# 4 0.000000 0.000000 0.000000 0.044559 0.000000 0.000000
# 5 0.000000 0.000000 0.000000 0.000000 0.027944 0.000000
# 6 0.000000 0.000000 0.000000 0.000000 0.000000 0.028827
#
#
# Mechanical properties :
#
#
# Convention : Reuss Voigt Hill
#
# Bulk Modulus (GPa) = 54.72619 54.83230 54.77925
# Shear Modulus (GPa) = 31.34956 32.57165 31.96061
#
# Velocity S-wave (km/s) = 3.70711 3.77867 3.74306
# Velocity P-wave (km/s) = 6.50490 6.56312 6.53408
#
# Compressibility (1/GPa) = 0.01827279
#
# Stress axis : x y z
#
# Youngs Moduli (GPa) = 90.89442 90.12864 76.48229
#
# Poissons Ratio (x) = 0.15519 0.28722
# Poissons Ratio (y) = 0.15650 0.22733
# Poissons Ratio (z) = 0.34135 0.26789
#
# Static dielectric constant tensor:
#      x y z
#    x 4.256010 0.000000 0.000000 
#    y 0.000000 4.034240 0.000000 
#    z 0.000000 0.000000 4.283960 
# 
# 
# High freq. dielectric constant tensor:
#      x y z
#    x 1.904380 0.000000 0.000000 
#    y 0.000000 1.902230 0.000000 
#    z 0.000000 0.000000 1.908600 
# 
# From -- ./inp_files/598.got.cif
#   From: 2010.03.12/outbox.cif.g09.slc.cpg/sg34_1_cif.got.tgz:598.got - 2010.04.14 01:56:33.
