data_PCOD8172855
_publ_section_title
;
Structure prediction by ZEFSAII (Michael W. Deem and Ramdas Pophale) SiO2 
 PCOD8172855
Probable space group: C M M 2
;
_chemical_formula_sum "Si O2"
_cell_formula_units_Z 48
_cell_length_a 9.031390
_cell_length_b 15.458174
_cell_length_c 17.054189
_cell_angle_alpha 90.000000
_cell_angle_beta 90.000000
_cell_angle_gamma 90.000000
_cell_volume 2380.914829
_symmetry_space_group_name_H-M "C M M 2"
_symmetry_group_IT_number 35
_symmetry_cell_setting 'orthorhombic'
loop_
_space_group_symop_operation_xyz
x,y,z
-x,-y,z
-x,y,z
x,-y,z
1/2+x,1/2+y,z
1/2-x,1/2-y,z
1/2-x,1/2+y,z
1/2+x,1/2-y,z
loop_
_atom_site_type_symbol
_atom_site_label
_atom_site_fract_x
_atom_site_fract_y
_atom_site_fract_z
Si Si1 0.171426 0.897912 0.010070
Si Si2 0.170412 0.101471 0.701725
Si Si3 0.826794 0.500000 0.267478
Si Si4 0.324952 0.163868 0.163731
Si Si5 0.824871 0.837053 0.532843
Si Si6 0.324305 0.500000 0.433776
Si Si7 0.666734 0.102949 0.854934
O O1 0.263116 0.850400 0.076954
O O2 0.000000 0.872266 0.016442
O O3 0.195344 0.000000 0.018610
O O4 0.234230 0.863911 0.927210
O O5 0.224237 0.147848 0.622588
O O6 0.266056 0.138956 0.773750
O O7 0.000000 0.121275 0.720257
O O8 0.195456 0.000000 0.689475
O O9 0.779594 0.584132 0.218557
O O10 0.737451 0.500000 0.347020
O O11 0.000000 0.500000 0.286062
O O12 0.500000 0.175603 0.159148
O O13 0.250000 0.250000 0.199524
O O14 0.750000 0.750000 0.500889
O O15 0.766225 0.915508 0.479398
O O16 0.000000 0.828837 0.526282
O O17 0.500000 0.500000 0.430687
O O18 0.500000 0.137711 0.864607
O O19 0.670585 0.000000 0.852625
#
# Coordination Sequence:
#
# PCOD8172855 Si02
#       7
#     8   8   4   8   8   4   8
#     4  10  19  33  56  85 117 157 204 247 295 351
#     4   9  16  31  54  77 109 152 198 243 290 346
#     4  10  24  44  66  91 122 155 190 239 298 353
#     4  11  23  41  63  90 123 158 197 244 297 353
#     4  10  21  38  60  88 119 155 195 241 293 349
#     4  10  22  42  66  89 118 155 194 235 290 357
#     4   9  17  28  47  79 116 153 197 247 298 344
#
# _framework density 20.160318
#
# number of rings (size 3 to 8) (size 9 to 14) (size 15 to 20)
#    0.000    2.167    1.667    1.500    0.000    6.000 
#    0.000    4.167    0.000    2.000    0.000    0.000 
#    0.000    0.000    0.000    0.000    0.000    0.000 
#
# Total GULP energy -297673.126818 kJ/mol
# GULP energy per Si atom -12403.046951 kJ/mol
# Density = 2.011443 g / cm^3
# Si number density = 20.160318 Si / 1000 Ang^3
#
#
#
# Elastic Constant Matrix: (Units=GPa)
#
#
# Indices 1 2 3 4 5 6 
#
# 1 87.6680 49.6717 55.1547 0.0000 0.0000 0.0000
# 2 49.6717 116.5097 66.8965 0.0000 0.0000 0.0000
# 3 55.1547 66.8965 136.2216 0.0000 0.0000 0.0000
# 4 0.0000 0.0000 0.0000 5.7076 0.0000 0.0000
# 5 0.0000 0.0000 0.0000 0.0000 38.2691 0.0000
# 6 0.0000 0.0000 0.0000 0.0000 0.0000 29.4803
#
#
#
# Elastic Compliance Matrix: (Units=1/GPa)
#
#
# Indices 1 2 3 4 5 6 
#
# 1 0.016881 -0.004558 -0.004597 0.000000 0.000000 0.000000
# 2 -0.004558 0.013184 -0.004629 0.000000 0.000000 0.000000
# 3 -0.004597 -0.004629 0.011475 0.000000 0.000000 0.000000
# 4 0.000000 0.000000 0.000000 0.175205 0.000000 0.000000
# 5 0.000000 0.000000 0.000000 0.000000 0.026131 0.000000
# 6 0.000000 0.000000 0.000000 0.000000 0.000000 0.033921
#
#
# Mechanical properties :
#
#
# Convention : Reuss Voigt Hill
#
# Bulk Modulus (GPa) = 71.56445 75.98279 73.77362
# Shear Modulus (GPa) = 16.18011 25.93650 21.05830
#
# Velocity S-wave (km/s) = 2.83604 3.59069 3.23544
# Velocity P-wave (km/s) = 6.80433 7.41363 7.11550
#
# Compressibility (1/GPa) = 0.01397342
#
# Stress axis : x y z
#
# Youngs Moduli (GPa) = 59.23864 75.85001 87.14242
#
# Poissons Ratio (x) = 0.34569 0.40057
# Poissons Ratio (y) = 0.26998 0.40340
# Poissons Ratio (z) = 0.27231 0.35112
#
# Static dielectric constant tensor:
#      x y z
#    x 3.593940 0.000000 0.000000 
#    y 0.000000 3.672160 0.000000 
#    z 0.000000 0.000000 3.669430 
# 
# 
# High freq. dielectric constant tensor:
#      x y z
#    x 1.784250 0.000000 0.000000 
#    y 0.000000 1.780040 0.000000 
#    z 0.000000 0.000000 1.788040 
# 
# From -- ./inp_files/17887.got.cif
#   From: 2010.03.12/outbox.cif.g09.slc.cpg/sg35_9_cif.got.tgz:17887.got - 2010.04.14 02:02:04.
