data_PCOD8172366
_publ_section_title
;
Structure prediction by ZEFSAII (Michael W. Deem and Ramdas Pophale) SiO2 
 PCOD8172366
Probable space group: C M M 2
;
_chemical_formula_sum "Si O2"
_cell_formula_units_Z 64
_cell_length_a 28.647082
_cell_length_b 8.729293
_cell_length_c 15.500683
_cell_angle_alpha 90.000000
_cell_angle_beta 90.000000
_cell_angle_gamma 90.000000
_cell_volume 3876.236769
_symmetry_space_group_name_H-M "C M M 2"
_symmetry_group_IT_number 35
_symmetry_cell_setting 'orthorhombic'
loop_
_space_group_symop_operation_xyz
x,y,z
-x,-y,z
-x,y,z
x,-y,z
1/2+x,1/2+y,z
1/2-x,1/2-y,z
1/2-x,1/2+y,z
1/2+x,1/2-y,z
loop_
_atom_site_type_symbol
_atom_site_label
_atom_site_fract_x
_atom_site_fract_y
_atom_site_fract_z
Si Si1 0.449070 0.819874 0.265720
Si Si2 0.299408 0.678262 0.355071
Si Si3 0.051797 0.174934 0.446372
Si Si4 0.352920 0.819337 0.197122
Si Si5 0.198377 0.817876 0.851433
Si Si6 0.145284 0.175753 0.527012
Si Si7 0.801022 0.318940 0.024909
Si Si8 0.800714 0.320263 0.678523
O O1 0.500000 0.749925 0.238159
O O2 0.438390 0.781479 0.364745
O O3 0.406292 0.757291 0.207255
O O4 0.451591 0.000000 0.256083
O O5 0.292552 0.500000 0.340556
O O6 0.250000 0.750000 0.378434
O O7 0.319293 0.746175 0.267301
O O8 0.333679 0.715268 0.433841
O O9 0.089713 0.208207 0.520914
O O10 0.000000 0.205210 0.484681
O O11 0.057186 0.000000 0.414297
O O12 0.334974 0.772677 0.102844
O O13 0.350947 0.000000 0.211229
O O14 0.250000 0.750000 0.850395
O O15 0.174916 0.755166 0.763447
O O16 0.198118 0.000000 0.852309
O O17 0.174951 0.752765 0.938845
O O18 0.165946 0.288466 0.598055
O O19 0.156063 0.000000 0.552877
O O20 0.795949 0.500000 0.013899
O O21 0.750000 0.250000 0.042530
O O22 0.795059 0.500000 0.693004
O O23 0.750000 0.250000 0.659280
#
# Coordination Sequence:
#
# PCOD8172366 Si02
#       8
#     8   8   8   8   8   8   8   8
#     4   9  17  30  48  69  93 122 158 199 241 282
#     4  11  22  33  45  63  92 130 164 197 230 273
#     4   9  17  31  50  70  93 122 157 198 241 281
#     4  10  20  32  47  68  95 127 161 197 236 280
#     4  10  18  31  50  70  93 121 153 194 237 281
#     4  10  20  33  47  69  96 126 161 196 235 280
#     4  10  19  31  46  67  94 124 158 195 233 279
#     4  11  21  33  50  71  96 127 159 196 236 281
#
# _framework density 16.510857999999999
#
# number of rings (size 3 to 8) (size 9 to 14) (size 15 to 20)
#    0.000    2.000    1.250    5.250    0.000    4.500 
#    0.000    0.000    0.000    0.000    0.000    0.875 
#    0.000    3.000    0.000    0.000    0.000    0.000 
#
# Total GULP energy -396696.304588 kJ/mol
# GULP energy per Si atom -12396.759518 kJ/mol
# Density = 1.647328 g / cm^3
# Si number density = 16.510858 Si / 1000 Ang^3
#
#
#
# Elastic Constant Matrix: (Units=GPa)
#
#
# Indices 1 2 3 4 5 6 
#
# 1 95.6514 26.4771 42.2919 0.0000 0.0000 0.0000
# 2 26.4771 67.0751 40.3657 0.0000 0.0000 0.0000
# 3 42.2919 40.3657 104.1205 0.0000 0.0000 0.0000
# 4 0.0000 0.0000 0.0000 25.7451 0.0000 0.0000
# 5 0.0000 0.0000 0.0000 0.0000 10.5329 0.0000
# 6 0.0000 0.0000 0.0000 0.0000 0.0000 13.7458
#
#
#
# Elastic Compliance Matrix: (Units=1/GPa)
#
#
# Indices 1 2 3 4 5 6 
#
# 1 0.013072 -0.002563 -0.004316 0.000000 0.000000 0.000000
# 2 -0.002563 0.019948 -0.006693 0.000000 0.000000 0.000000
# 3 -0.004316 -0.006693 0.013952 0.000000 0.000000 0.000000
# 4 0.000000 0.000000 0.000000 0.038842 0.000000 0.000000
# 5 0.000000 0.000000 0.000000 0.000000 0.094941 0.000000
# 6 0.000000 0.000000 0.000000 0.000000 0.000000 0.072750
#
#
# Mechanical properties :
#
#
# Convention : Reuss Voigt Hill
#
# Bulk Modulus (GPa) = 50.43033 53.90183 52.16608
# Shear Modulus (GPa) = 17.40596 20.51889 18.96243
#
# Velocity S-wave (km/s) = 3.25039 3.52909 3.39260
# Velocity P-wave (km/s) = 6.68556 7.02304 6.85638
#
# Compressibility (1/GPa) = 0.01982934
#
# Stress axis : x y z
#
# Youngs Moduli (GPa) = 76.49691 50.13088 71.67416
#
# Poissons Ratio (x) = 0.12847 0.30937
# Poissons Ratio (y) = 0.19603 0.47968
# Poissons Ratio (z) = 0.33018 0.33550
#
# Static dielectric constant tensor:
#      x y z
#    x 3.271880 0.000000 0.000000 
#    y 0.000000 3.152670 0.000000 
#    z 0.000000 0.000000 3.380950 
# 
# 
# High freq. dielectric constant tensor:
#      x y z
#    x 1.617350 0.000000 0.000000 
#    y 0.000000 1.643450 0.000000 
#    z 0.000000 0.000000 1.625160 
# 
# From -- ./inp_files/17725.got.cif
#   From: 2010.03.12/outbox.cif.g09.slc.cpg/sg35_9_cif.got.tgz:17725.got - 2010.04.14 02:02:04.
