data_PCOD8172667
_publ_section_title
;
Structure prediction by ZEFSAII (Michael W. Deem and Ramdas Pophale) SiO2 
 PCOD8172667
Probable space group: C M M 2
;
_chemical_formula_sum "Si O2"
_cell_formula_units_Z 56
_cell_length_a 8.800481
_cell_length_b 19.441610
_cell_length_c 17.836526
_cell_angle_alpha 90.000000
_cell_angle_beta 90.000000
_cell_angle_gamma 90.000000
_cell_volume 3051.749681
_symmetry_space_group_name_H-M "C M M 2"
_symmetry_group_IT_number 35
_symmetry_cell_setting 'orthorhombic'
loop_
_space_group_symop_operation_xyz
x,y,z
-x,-y,z
-x,y,z
x,-y,z
1/2+x,1/2+y,z
1/2-x,1/2-y,z
1/2-x,1/2+y,z
1/2+x,1/2-y,z
loop_
_atom_site_type_symbol
_atom_site_label
_atom_site_fract_x
_atom_site_fract_y
_atom_site_fract_z
Si Si1 0.179600 0.822168 0.704000
Si Si2 0.820203 0.922457 0.000356
Si Si3 0.679454 0.321558 0.873119
Si Si4 0.678350 0.078240 0.152971
Si Si5 0.180729 0.677274 0.285844
Si Si6 0.180223 0.077246 0.576232
Si Si7 0.180941 0.176692 0.443670
O O1 0.250000 0.750000 0.677771
O O2 0.230860 0.840672 0.788651
O O3 0.239826 0.882907 0.650141
O O4 0.000000 0.814417 0.697457
O O5 0.755766 0.891899 0.077935
O O6 0.000000 0.919528 0.004200
O O7 0.760591 0.000000 0.989109
O O8 0.758462 0.879253 0.929813
O O9 0.500000 0.314996 0.877732
O O10 0.750000 0.250000 0.899101
O O11 0.500000 0.083554 0.141380
O O12 0.731763 0.122478 0.223780
O O13 0.731087 0.000000 0.167517
O O14 0.250000 0.750000 0.261419
O O15 0.251868 0.652764 0.364239
O O16 0.000000 0.683232 0.293839
O O17 0.232800 0.119178 0.503058
O O18 0.000000 0.072765 0.578509
O O19 0.249543 0.000000 0.574501
O O20 0.250000 0.250000 0.468042
O O21 0.000000 0.183827 0.438615
#
# Coordination Sequence:
#
# PCOD8172667 Si02
#       7
#     8   8   8   8   8   8   8
#     4   9  17  31  51  71  95 128 161 195 235 280
#     4   9  18  32  49  70  96 125 159 198 237 279
#     4   9  18  31  48  72  98 125 159 197 237 280
#     4   9  19  35  52  70  94 126 161 194 234 285
#     4  10  20  34  52  73  97 124 157 197 237 281
#     4   9  18  31  48  73 100 125 158 198 237 278
#     4  10  19  32  51  72  96 126 159 195 235 282
#
# _framework density 18.35013
#
# number of rings (size 3 to 8) (size 9 to 14) (size 15 to 20)
#    0.000    2.714    0.000    2.143    0.000    3.429 
#    0.000    6.429    0.000    3.429    0.000    4.000 
#    0.000    0.000    0.000    0.000    0.000    0.000 
#
# Total GULP energy -347181.452427 kJ/mol
# GULP energy per Si atom -12399.337587 kJ/mol
# Density = 1.830836 g / cm^3
# Si number density = 18.350130 Si / 1000 Ang^3
#
#
#
# Elastic Constant Matrix: (Units=GPa)
#
#
# Indices 1 2 3 4 5 6 
#
# 1 34.3904 28.1515 32.7506 0.0000 0.0000 0.0000
# 2 28.1515 140.3932 110.0019 0.0000 0.0000 0.0000
# 3 32.7506 110.0019 160.3751 0.0000 0.0000 0.0000
# 4 0.0000 0.0000 0.0000 38.7155 0.0000 0.0000
# 5 0.0000 0.0000 0.0000 0.0000 23.9291 0.0000
# 6 0.0000 0.0000 0.0000 0.0000 0.0000 23.7206
#
#
#
# Elastic Compliance Matrix: (Units=1/GPa)
#
#
# Indices 1 2 3 4 5 6 
#
# 1 0.036759 -0.003219 -0.005298 0.000000 0.000000 0.000000
# 2 -0.003219 0.015680 -0.010098 0.000000 0.000000 0.000000
# 3 -0.005298 -0.010098 0.014243 0.000000 0.000000 0.000000
# 4 0.000000 0.000000 0.000000 0.025829 0.000000 0.000000
# 5 0.000000 0.000000 0.000000 0.000000 0.041790 0.000000
# 6 0.000000 0.000000 0.000000 0.000000 0.000000 0.042157
#
#
# Mechanical properties :
#
#
# Convention : Reuss Voigt Hill
#
# Bulk Modulus (GPa) = 33.95395 75.21852 54.58624
# Shear Modulus (GPa) = 22.37056 28.22336 25.29696
#
# Velocity S-wave (km/s) = 3.49534 3.92605 3.71694
# Velocity P-wave (km/s) = 5.90199 7.85057 6.94496
#
# Compressibility (1/GPa) = 0.02945166
#
# Stress axis : x y z
#
# Youngs Moduli (GPa) = 27.20413 63.77470 70.20785
#
# Poissons Ratio (x) = 0.20532 0.37200
# Poissons Ratio (y) = 0.08758 0.70894
# Poissons Ratio (z) = 0.14414 0.64398
#
# Static dielectric constant tensor:
#      x y z
#    x 3.179110 0.000000 0.000000 
#    y 0.000000 3.614740 0.000000 
#    z 0.000000 0.000000 3.628930 
# 
# 
# High freq. dielectric constant tensor:
#      x y z
#    x 1.693860 0.000000 0.000000 
#    y 0.000000 1.708120 0.000000 
#    z 0.000000 0.000000 1.723170 
# 
# From -- ./inp_files/18279.got.cif
#   From: 2010.03.12/outbox.cif.g09.slc.cpg/sg35_10_cif.got.tgz:18279.got - 2010.04.14 02:02:04.
