data_PCOD8172645
_publ_section_title
;
Structure prediction by ZEFSAII (Michael W. Deem and Ramdas Pophale) SiO2 
 PCOD8172645
Probable space group: C M M 2
;
_chemical_formula_sum "Si O2"
_cell_formula_units_Z 48
_cell_length_a 19.846146
_cell_length_b 7.858852
_cell_length_c 16.945110
_cell_angle_alpha 90.000000
_cell_angle_beta 90.000000
_cell_angle_gamma 90.000000
_cell_volume 2642.893632
_symmetry_space_group_name_H-M "C M M 2"
_symmetry_group_IT_number 35
_symmetry_cell_setting 'orthorhombic'
loop_
_space_group_symop_operation_xyz
x,y,z
-x,-y,z
-x,y,z
x,-y,z
1/2+x,1/2+y,z
1/2-x,1/2-y,z
1/2-x,1/2+y,z
1/2+x,1/2-y,z
loop_
_atom_site_type_symbol
_atom_site_label
_atom_site_fract_x
_atom_site_fract_y
_atom_site_fract_z
Si Si1 0.080669 0.000000 0.296540
Si Si2 0.575058 0.694867 0.028991
Si Si3 0.677170 0.198780 0.722201
Si Si4 0.920514 0.000000 0.473074
Si Si5 0.921185 0.696986 0.585431
Si Si6 0.176261 0.299843 0.898081
Si Si7 0.579940 0.187283 0.194728
O O1 0.110363 0.000000 0.385248
O O2 0.109334 0.831562 0.252887
O O3 0.000000 0.000000 0.297582
O O4 0.500000 0.763335 0.008479
O O5 0.571154 0.500000 0.054471
O O6 0.606226 0.792028 0.104824
O O7 0.620959 0.714632 0.952823
O O8 0.750000 0.250000 0.687348
O O9 0.618609 0.258609 0.663213
O O10 0.666593 0.277504 0.809651
O O11 0.674095 0.000000 0.732050
O O12 0.897636 0.174409 0.516467
O O13 0.000000 0.000000 0.467273
O O14 0.904287 0.500000 0.562274
O O15 0.000000 0.717188 0.604063
O O16 0.165856 0.500000 0.900524
O O17 0.250000 0.250000 0.929754
O O18 0.500000 0.207099 0.192511
O O19 0.601506 0.000000 0.225835
#
# Coordination Sequence:
#
# PCOD8172645 Si02
#       7
#     4   8   8   4   8   8   8
#     4   9  16  28  44  69 103 129 161 205 250 303
#     4  10  19  32  49  72 104 135 170 216 256 299
#     4   9  19  33  51  72  97 130 169 214 251 293
#     4   9  18  30  48  73 101 135 164 201 256 303
#     4   9  18  33  50  72 104 134 166 207 252 305
#     4  10  20  34  50  71 101 134 172 215 256 301
#     4   9  16  27  45  69  99 134 167 204 249 296
#
# _framework density 18.161912999999998
#
# number of rings (size 3 to 8) (size 9 to 14) (size 15 to 20)
#    0.000    2.667    0.833    1.000    1.167    3.000 
#    0.000    5.000    0.000    0.000    0.000    1.167 
#    0.000    0.000    0.000    0.000    0.000    0.000 
#
# Total GULP energy -297492.558008 kJ/mol
# GULP energy per Si atom -12395.523250 kJ/mol
# Density = 1.812058 g / cm^3
# Si number density = 18.161913 Si / 1000 Ang^3
#
#
#
# Elastic Constant Matrix: (Units=GPa)
#
#
# Indices 1 2 3 4 5 6 
#
# 1 58.3125 23.1083 51.8908 0.0000 0.0000 0.0000
# 2 23.1083 99.2918 56.3203 0.0000 0.0000 0.0000
# 3 51.8908 56.3203 134.0065 0.0000 0.0000 0.0000
# 4 0.0000 0.0000 0.0000 27.1131 0.0000 0.0000
# 5 0.0000 0.0000 0.0000 0.0000 7.8623 0.0000
# 6 0.0000 0.0000 0.0000 0.0000 0.0000 18.0326
#
#
#
# Elastic Compliance Matrix: (Units=1/GPa)
#
#
# Indices 1 2 3 4 5 6 
#
# 1 0.026180 -0.000450 -0.009949 0.000000 0.000000 0.000000
# 2 -0.000450 0.013231 -0.005387 0.000000 0.000000 0.000000
# 3 -0.009949 -0.005387 0.013579 0.000000 0.000000 0.000000
# 4 0.000000 0.000000 0.000000 0.036883 0.000000 0.000000
# 5 0.000000 0.000000 0.000000 0.000000 0.127190 0.000000
# 6 0.000000 0.000000 0.000000 0.000000 0.000000 0.055455
#
#
# Mechanical properties :
#
#
# Convention : Reuss Voigt Hill
#
# Bulk Modulus (GPa) = 46.68555 61.58330 54.13443
# Shear Modulus (GPa) = 16.06538 21.28767 18.67652
#
# Velocity S-wave (km/s) = 2.97739 3.42732 3.21024
# Velocity P-wave (km/s) = 6.13032 7.04582 6.60395
#
# Compressibility (1/GPa) = 0.02141990
#
# Stress axis : x y z
#
# Youngs Moduli (GPa) = 38.19671 75.57728 73.64534
#
# Poissons Ratio (x) = 0.03401 0.73267
# Poissons Ratio (y) = 0.01719 0.39671
# Poissons Ratio (z) = 0.38000 0.40711
#
# Static dielectric constant tensor:
#      x y z
#    x 2.951610 0.000000 0.000000 
#    y 0.000000 3.487720 0.000000 
#    z 0.000000 0.000000 3.580440 
# 
# 
# High freq. dielectric constant tensor:
#      x y z
#    x 1.656350 0.000000 0.000000 
#    y 0.000000 1.717340 0.000000 
#    z 0.000000 0.000000 1.698700 
# 
# From -- ./inp_files/15215.got.cif
#   From: 2010.03.12/outbox.cif.g09.slc.cpg/sg35_8_cif.got.tgz:15215.got - 2010.04.14 02:02:04.
