data_PCOD8172241
_publ_section_title
;
Structure prediction by ZEFSAII (Michael W. Deem and Ramdas Pophale) SiO2 
 PCOD8172241
Probable space group: C M M 2
;
_chemical_formula_sum "Si O2"
_cell_formula_units_Z 56
_cell_length_a 18.407016
_cell_length_b 23.527637
_cell_length_c 7.905098
_cell_angle_alpha 90.000000
_cell_angle_beta 90.000000
_cell_angle_gamma 90.000000
_cell_volume 3423.489176
_symmetry_space_group_name_H-M "C M M 2"
_symmetry_group_IT_number 35
_symmetry_cell_setting 'orthorhombic'
loop_
_space_group_symop_operation_xyz
x,y,z
-x,-y,z
-x,y,z
x,-y,z
1/2+x,1/2+y,z
1/2-x,1/2-y,z
1/2-x,1/2+y,z
1/2+x,1/2-y,z
loop_
_atom_site_type_symbol
_atom_site_label
_atom_site_fract_x
_atom_site_fract_y
_atom_site_fract_z
Si Si1 0.652828 0.367400 0.995870
Si Si2 0.847172 0.867400 0.384270
Si Si3 0.706519 0.808165 0.002412
Si Si4 0.583305 0.567075 0.690070
Si Si5 0.581341 0.743374 0.880818
Si Si6 0.206519 0.691835 0.377728
Si Si7 0.418659 0.256626 0.499322
O O1 0.620169 0.411541 0.862990
O O2 0.608654 0.308104 0.997465
O O3 0.649130 0.390646 0.190070
O O4 0.737101 0.356538 0.938742
O O5 0.879831 0.911541 0.517151
O O6 0.762899 0.856538 0.441398
O O7 0.891346 0.808104 0.382675
O O8 0.750000 0.750000 0.998391
O O9 0.680815 0.823719 0.190070
O O10 0.633030 0.799422 0.893835
O O11 0.500000 0.587573 0.690070
O O12 0.589972 0.500000 0.690070
O O13 0.500000 0.761272 0.934379
O O14 0.583284 0.720203 0.690070
O O15 0.250000 0.750000 0.381750
O O16 0.133030 0.700578 0.486306
O O17 0.500000 0.238728 0.445762
#
# Coordination Sequence:
#
# PCOD8172241 Si02
#       7
#     8   8   8   8   8   8   8
#     4  10  20  34  51  68  91 126 162 193 229 275
#     4  10  20  34  51  68  91 126 162 193 229 275
#     4   8  16  28  43  66  91 123 161 186 219 271
#     4  11  24  38  51  70  91 115 156 203 244 280
#     4  10  18  26  42  71 102 130 158 186 221 270
#     4   8  16  28  43  66  91 123 161 186 219 271
#     4  10  18  26  42  71 102 130 158 186 221 270
#
# _framework density 16.357581
#
# number of rings (size 3 to 8) (size 9 to 14) (size 15 to 20)
#    0.000    2.429    1.429    3.429    2.000    6.286 
#    0.000    1.429    0.000    0.000    0.000    0.000 
#    0.000    2.286    0.000    6.286    0.000    0.000 
#
# Total GULP energy -346892.557071 kJ/mol
# GULP energy per Si atom -12389.019895 kJ/mol
# Density = 1.632035 g / cm^3
# Si number density = 16.357581 Si / 1000 Ang^3
#
#
#
# Elastic Constant Matrix: (Units=GPa)
#
#
# Indices 1 2 3 4 5 6 
#
# 1 119.8001 33.5281 37.6999 0.0000 0.0000 0.0000
# 2 33.5281 41.4858 28.3812 0.0000 0.0000 0.0000
# 3 37.6999 28.3812 82.1148 0.0000 0.0000 0.0000
# 4 0.0000 0.0000 0.0000 13.9760 0.0000 0.0000
# 5 0.0000 0.0000 0.0000 0.0000 21.6067 0.0000
# 6 0.0000 0.0000 0.0000 0.0000 0.0000 20.1683
#
#
#
# Elastic Compliance Matrix: (Units=1/GPa)
#
#
# Indices 1 2 3 4 5 6 
#
# 1 0.011207 -0.007252 -0.002639 0.000000 0.000000 0.000000
# 2 -0.007252 0.036262 -0.009204 0.000000 0.000000 0.000000
# 3 -0.002639 -0.009204 0.016571 0.000000 0.000000 0.000000
# 4 0.000000 0.000000 0.000000 0.071551 0.000000 0.000000
# 5 0.000000 0.000000 0.000000 0.000000 0.046282 0.000000
# 6 0.000000 0.000000 0.000000 0.000000 0.000000 0.049583
#
#
# Mechanical properties :
#
#
# Convention : Reuss Voigt Hill
#
# Bulk Modulus (GPa) = 38.68377 49.17990 43.93183
# Shear Modulus (GPa) = 17.96865 20.73630 19.35247
#
# Velocity S-wave (km/s) = 3.31794 3.56432 3.44334
# Velocity P-wave (km/s) = 6.19504 6.86076 6.53638
#
# Compressibility (1/GPa) = 0.02585064
#
# Stress axis : x y z
#
# Youngs Moduli (GPa) = 89.22740 27.57700 60.34776
#
# Poissons Ratio (x) = 0.20000 0.15925
# Poissons Ratio (y) = 0.64710 0.55542
# Poissons Ratio (z) = 0.23546 0.25381
#
# Static dielectric constant tensor:
#      x y z
#    x 3.496090 0.000000 0.000000 
#    y 0.000000 2.633780 0.000000 
#    z 0.000000 0.000000 3.140390 
# 
# 
# High freq. dielectric constant tensor:
#      x y z
#    x 1.637950 0.000000 0.000000 
#    y 0.000000 1.558390 0.000000 
#    z 0.000000 0.000000 1.639900 
# 
# From -- ./inp_files/8822.got.cif
#   From: 2010.03.12/outbox.cif.g09.slc.cpg/sg35_5_cif.got.tgz:8822.got - 2010.04.14 02:02:04.
