data_PCOD8172146
_publ_section_title
;
Structure prediction by ZEFSAII (Michael W. Deem and Ramdas Pophale) SiO2 
 PCOD8172146
Probable space group: C M M 2
;
_chemical_formula_sum "Si O2"
_cell_formula_units_Z 52
_cell_length_a 13.594167
_cell_length_b 23.976378
_cell_length_c 9.187248
_cell_angle_alpha 90.000000
_cell_angle_beta 90.000000
_cell_angle_gamma 90.000000
_cell_volume 2994.481384
_symmetry_space_group_name_H-M "C M M 2"
_symmetry_group_IT_number 35
_symmetry_cell_setting 'orthorhombic'
loop_
_space_group_symop_operation_xyz
x,y,z
-x,-y,z
-x,y,z
x,-y,z
1/2+x,1/2+y,z
1/2-x,1/2-y,z
1/2-x,1/2+y,z
1/2+x,1/2-y,z
loop_
_atom_site_type_symbol
_atom_site_label
_atom_site_fract_x
_atom_site_fract_y
_atom_site_fract_z
Si Si1 0.750000 0.750000 0.210340
Si Si2 0.392841 0.831743 0.901975
Si Si3 0.113595 0.000000 0.737100
Si Si4 0.609972 0.158908 0.248056
Si Si5 0.754725 0.438660 0.210675
Si Si6 0.205681 0.896106 0.895331
Si Si7 0.612140 0.712110 0.969655
Si Si8 0.387598 0.500000 0.393518
O O1 0.679098 0.790130 0.307589
O O2 0.683359 0.709602 0.109725
O O3 0.500000 0.847763 0.836830
O O4 0.313175 0.875133 0.839598
O O5 0.365664 0.766864 0.868959
O O6 0.396624 0.834068 0.075907
O O7 0.168553 0.945539 0.794752
O O8 0.122767 0.000000 0.565331
O O9 0.000000 0.000000 0.788680
O O10 0.500000 0.160932 0.317377
O O11 0.661294 0.099902 0.282761
O O12 0.801754 0.500000 0.179916
O O13 0.665043 0.444924 0.326222
O O14 0.710124 0.415019 0.062101
O O15 0.131259 0.844018 0.878035
O O16 0.500000 0.714357 0.024294
O O17 0.500000 0.500000 0.343251
#
# Coordination Sequence:
#
# PCOD8172146 Si02
#       8
#     4   8   4   8   8   8   8   4
#     4  10  14  26  38  68 112 132 150 186 254 290
#     4   8  15  27  44  70 103 132 155 191 244 294
#     4  11  23  35  48  69  98 128 161 201 253 294
#     4   9  16  27  44  70 103 132 162 198 239 293
#     4   9  18  32  50  72  94 127 170 203 244 287
#     4  11  17  30  49  76 101 123 158 210 239 279
#     4  10  16  24  42  69 102 132 158 194 242 288
#     4   9  21  39  50  63  94 134 167 201 247 302
#
# _framework density 17.365276999999999
#
# number of rings (size 3 to 8) (size 9 to 14) (size 15 to 20)
#    0.462    2.000    5.385    1.846    0.000    2.154 
#    0.000    0.385    0.000    1.846    4.000    0.000 
#    0.000    0.000    0.000    0.000    0.000    0.000 
#
# Total GULP energy -322137.494574 kJ/mol
# GULP energy per Si atom -12389.903637 kJ/mol
# Density = 1.732575 g / cm^3
# Si number density = 17.365277 Si / 1000 Ang^3
#
#
#
# Elastic Constant Matrix: (Units=GPa)
#
#
# Indices 1 2 3 4 5 6 
#
# 1 155.9903 77.6247 28.6819 0.0000 0.0000 0.0000
# 2 77.6247 142.8189 23.8364 0.0000 0.0000 0.0000
# 3 28.6819 23.8364 29.3852 0.0000 0.0000 0.0000
# 4 0.0000 0.0000 0.0000 1.3103 0.0000 0.0000
# 5 0.0000 0.0000 0.0000 0.0000 11.4270 0.0000
# 6 0.0000 0.0000 0.0000 0.0000 0.0000 32.6587
#
#
#
# Elastic Compliance Matrix: (Units=1/GPa)
#
#
# Indices 1 2 3 4 5 6 
#
# 1 0.009609 -0.004230 -0.005948 0.000000 0.000000 0.000000
# 2 -0.004230 0.009960 -0.003951 0.000000 0.000000 0.000000
# 3 -0.005948 -0.003951 0.043041 0.000000 0.000000 0.000000
# 4 0.000000 0.000000 0.000000 0.763160 0.000000 0.000000
# 5 0.000000 0.000000 0.000000 0.000000 0.087512 0.000000
# 6 0.000000 0.000000 0.000000 0.000000 0.000000 0.030620
#
#
# Mechanical properties :
#
#
# Convention : Reuss Voigt Hill
#
# Bulk Modulus (GPa) = 29.10943 65.38671 47.24807
# Shear Modulus (GPa) = 5.08331 22.28264 13.68298
#
# Velocity S-wave (km/s) = 1.71279 3.58603 2.81009
# Velocity P-wave (km/s) = 4.55093 7.40821 6.14786
#
# Compressibility (1/GPa) = 0.03435312
#
# Stress axis : x y z
#
# Youngs Moduli (GPa) = 104.06557 100.39760 23.23369
#
# Poissons Ratio (x) = 0.42470 0.13819
# Poissons Ratio (y) = 0.44021 0.09179
# Poissons Ratio (z) = 0.61898 0.39664
#
# Static dielectric constant tensor:
#      x y z
#    x 3.670470 0.000000 0.000000 
#    y 0.000000 3.483940 0.000000 
#    z 0.000000 0.000000 2.511380 
# 
# 
# High freq. dielectric constant tensor:
#      x y z
#    x 1.688630 0.000000 0.000000 
#    y 0.000000 1.684470 0.000000 
#    z 0.000000 0.000000 1.585230 
# 
# From -- ./inp_files/7778.got.cif
#   From: 2010.03.12/outbox.cif.g09.slc.cpg/sg35_4_cif.got.tgz:7778.got - 2010.04.14 02:02:04.
