data_PCOD8172124
_publ_section_title
;
Structure prediction by ZEFSAII (Michael W. Deem and Ramdas Pophale) SiO2 
 PCOD8172124
Probable space group: P N N 2
;
_chemical_formula_sum "Si O2"
_cell_formula_units_Z 14
_cell_length_a 11.530825
_cell_length_b 7.515085
_cell_length_c 7.188381
_cell_angle_alpha 90.000000
_cell_angle_beta 90.000000
_cell_angle_gamma 90.000000
_cell_volume 622.910090
_symmetry_space_group_name_H-M "P N N 2"
_symmetry_group_IT_number 34
_symmetry_cell_setting 'orthorhombic'
loop_
_space_group_symop_operation_xyz
x,y,z
-x,-y,z
1/2-x,1/2+y,1/2+z
1/2+x,1/2-y,1/2+z
loop_
_atom_site_type_symbol
_atom_site_label
_atom_site_fract_x
_atom_site_fract_y
_atom_site_fract_z
Si Si1 0.592566 0.649751 0.033670
Si Si2 0.627885 0.548091 0.641895
Si Si3 0.500000 0.000000 0.962119
Si Si4 0.782644 0.678479 0.304074
O O1 0.500000 0.500000 0.079270
O O2 0.710034 0.592861 0.135764
O O3 0.610407 0.682154 0.813652
O O4 0.545194 0.843133 0.099806
O O5 0.500000 0.500000 0.557356
O O6 0.705864 0.650633 0.491365
O O7 0.691102 0.381000 0.743393
O O8 0.401172 0.925861 0.826077
#
# Coordination Sequence:
#
# PCOD8172124 Si02
#       4
#     4   4   2   4
#     4  11  25  47  71 102 146 185 243 303 357 434
#     4  11  25  46  71 104 143 187 241 300 361 437
#     4  12  24  46  72 106 138 190 238 302 358 440
#     4  12  25  46  71 104 144 185 243 296 372 425
#
# _framework density 22.475152999999999
#
# number of rings (size 3 to 8) (size 9 to 14) (size 15 to 20)
#    0.000    0.571    8.571    0.857    4.000    0.000 
#    5.143    2.857    0.000    0.000    0.000    0.000 
#    0.000    0.000    0.000    0.000    0.000    0.000 
#
# Total GULP energy -173477.001746 kJ/mol
# GULP energy per Si atom -12391.214410 kJ/mol
# Density = 2.242400 g / cm^3
# Si number density = 22.475153 Si / 1000 Ang^3
#
#
#
# Elastic Constant Matrix: (Units=GPa)
#
#
# Indices 1 2 3 4 5 6 
#
# 1 162.8094 37.3765 58.6562 0.0000 0.0000 0.0000
# 2 37.3765 123.1562 26.6467 0.0000 0.0000 0.0000
# 3 58.6562 26.6467 64.9697 0.0000 0.0000 0.0000
# 4 0.0000 0.0000 0.0000 11.5584 0.0000 0.0000
# 5 0.0000 0.0000 0.0000 0.0000 18.5468 0.0000
# 6 0.0000 0.0000 0.0000 0.0000 0.0000 38.8859
#
#
#
# Elastic Compliance Matrix: (Units=1/GPa)
#
#
# Indices 1 2 3 4 5 6 
#
# 1 0.009236 -0.001096 -0.007889 0.000000 0.000000 0.000000
# 2 -0.001096 0.009041 -0.002718 0.000000 0.000000 0.000000
# 3 -0.007889 -0.002718 0.023629 0.000000 0.000000 0.000000
# 4 0.000000 0.000000 0.000000 0.086517 0.000000 0.000000
# 5 0.000000 0.000000 0.000000 0.000000 0.053918 0.000000
# 6 0.000000 0.000000 0.000000 0.000000 0.000000 0.025716
#
#
# Mechanical properties :
#
#
# Convention : Reuss Voigt Hill
#
# Bulk Modulus (GPa) = 54.05734 66.25489 60.15612
# Shear Modulus (GPa) = 21.04117 29.01528 25.02823
#
# Velocity S-wave (km/s) = 3.06305 3.59694 3.34068
# Velocity P-wave (km/s) = 6.05095 6.84060 6.45785
#
# Compressibility (1/GPa) = 0.01849888
#
# Stress axis : x y z
#
# Youngs Moduli (GPa) = 108.27240 110.61235 42.32096
#
# Poissons Ratio (x) = 0.12125 0.33387
# Poissons Ratio (y) = 0.11868 0.11504
# Poissons Ratio (z) = 0.85415 0.30068
#
# Static dielectric constant tensor:
#      x y z
#    x 4.536440 0.000000 0.000000 
#    y 0.000000 4.194200 0.000000 
#    z 0.000000 0.000000 3.942100 
# 
# 
# High freq. dielectric constant tensor:
#      x y z
#    x 1.910250 0.000000 0.000000 
#    y 0.000000 1.895870 0.000000 
#    z 0.000000 0.000000 1.860910 
# 
# From -- ./inp_files/2313.got.cif
#   From: 2010.03.12/outbox.cif.g09.slc.cpg/sg34_2_cif.got.tgz:2313.got - 2010.04.14 01:56:33.
