data_PCOD8172211
_publ_section_title
;
Structure prediction by ZEFSAII (Michael W. Deem and Ramdas Pophale) SiO2 
 PCOD8172211
Probable space group: C M M 2
;
_chemical_formula_sum "Si O2"
_cell_formula_units_Z 40
_cell_length_a 8.757802
_cell_length_b 14.970487
_cell_length_c 14.808138
_cell_angle_alpha 90.000000
_cell_angle_beta 90.000000
_cell_angle_gamma 90.000000
_cell_volume 1941.473664
_symmetry_space_group_name_H-M "C M M 2"
_symmetry_group_IT_number 35
_symmetry_cell_setting 'orthorhombic'
loop_
_space_group_symop_operation_xyz
x,y,z
-x,-y,z
-x,y,z
x,-y,z
1/2+x,1/2+y,z
1/2-x,1/2-y,z
1/2-x,1/2+y,z
1/2+x,1/2-y,z
loop_
_atom_site_type_symbol
_atom_site_label
_atom_site_fract_x
_atom_site_fract_y
_atom_site_fract_z
Si Si1 0.322474 0.152864 0.819130
Si Si2 0.819059 0.151082 0.445424
Si Si3 0.322974 0.846367 0.620075
Si Si4 0.178347 0.000000 0.934280
Si Si5 0.178589 0.653759 0.264340
Si Si6 0.824369 0.500000 0.124436
O O1 0.500000 0.162203 0.841189
O O2 0.250000 0.250000 0.828120
O O3 0.299095 0.109300 0.718730
O O4 0.247868 0.088716 0.891726
O O5 0.750000 0.250000 0.449028
O O6 0.760335 0.101002 0.537143
O O7 0.754470 0.108075 0.353375
O O8 0.000000 0.150378 0.443043
O O9 0.500000 0.838183 0.595405
O O10 0.250000 0.750000 0.629036
O O11 0.000000 0.000000 0.916915
O O12 0.212424 0.000000 0.040114
O O13 0.250000 0.750000 0.241572
O O14 0.211475 0.588539 0.181506
O O15 0.000000 0.665915 0.282942
O O16 0.000000 0.500000 0.092283
#
# Coordination Sequence:
#
# PCOD8172211 Si02
#       6
#     8   8   8   4   8   4
#     4  10  21  39  63  89 120 156 197 243 292 347
#     4  10  17  27  48  79 115 152 187 228 274 330
#     4   9  16  28  50  80 113 151 190 230 276 331
#     4  12  26  42  63  88 117 152 193 244 300 356
#     4  10  20  37  60  85 113 149 189 233 283 339
#     4  10  24  44  63  82 111 148 189 240 296 350
#
# _framework density 20.602903999999999
#
# number of rings (size 3 to 8) (size 9 to 14) (size 15 to 20)
#    0.000    2.000    0.000    6.900    0.000    4.800 
#    0.000    3.000    0.000    2.400    0.000    0.000 
#    0.000    0.000    0.000    0.000    0.000    0.000 
#
# Total GULP energy -247882.653142 kJ/mol
# GULP energy per Si atom -12394.132657 kJ/mol
# Density = 2.055601 g / cm^3
# Si number density = 20.602904 Si / 1000 Ang^3
#
#
#
# Elastic Constant Matrix: (Units=GPa)
#
#
# Indices 1 2 3 4 5 6 
#
# 1 177.9273 45.9644 82.3786 0.0000 0.0000 0.0000
# 2 45.9644 82.0838 51.1846 0.0000 0.0000 0.0000
# 3 82.3786 51.1846 153.3072 0.0000 0.0000 0.0000
# 4 0.0000 0.0000 0.0000 111.1804 0.0000 0.0000
# 5 0.0000 0.0000 0.0000 0.0000 38.1884 0.0000
# 6 0.0000 0.0000 0.0000 0.0000 0.0000 21.5288
#
#
#
# Elastic Compliance Matrix: (Units=1/GPa)
#
#
# Indices 1 2 3 4 5 6 
#
# 1 0.007787 -0.002212 -0.003446 0.000000 0.000000 0.000000
# 2 -0.002212 0.016014 -0.004158 0.000000 0.000000 0.000000
# 3 -0.003446 -0.004158 0.009763 0.000000 0.000000 0.000000
# 4 0.000000 0.000000 0.000000 0.008994 0.000000 0.000000
# 5 0.000000 0.000000 0.000000 0.000000 0.026186 0.000000
# 6 0.000000 0.000000 0.000000 0.000000 0.000000 0.046449
#
#
# Mechanical properties :
#
#
# Convention : Reuss Voigt Hill
#
# Bulk Modulus (GPa) = 71.77568 85.81929 78.79749
# Shear Modulus (GPa) = 35.85019 49.76557 42.80788
#
# Velocity S-wave (km/s) = 4.17592 4.92007 4.56319
# Velocity P-wave (km/s) = 7.62656 8.60352 8.12973
#
# Compressibility (1/GPa) = 0.01393230
#
# Stress axis : x y z
#
# Youngs Moduli (GPa) = 128.41826 62.44514 102.43025
#
# Poissons Ratio (x) = 0.13811 0.35296
# Poissons Ratio (y) = 0.28403 0.42592
# Poissons Ratio (z) = 0.44251 0.25965
#
# Static dielectric constant tensor:
#      x y z
#    x 3.829210 0.000000 0.000000 
#    y 0.000000 3.365170 0.000000 
#    z 0.000000 0.000000 4.528730 
# 
# 
# High freq. dielectric constant tensor:
#      x y z
#    x 1.820160 0.000000 0.000000 
#    y 0.000000 1.775580 0.000000 
#    z 0.000000 0.000000 1.822460 
# 
# From -- ./inp_files/14780.got.cif
#   From: 2010.03.12/outbox.cif.g09.slc.cpg/sg35_8_cif.got.tgz:14780.got - 2010.04.14 02:02:04.
