data_PCOD8172357
_publ_section_title
;
Structure prediction by ZEFSAII (Michael W. Deem and Ramdas Pophale) SiO2 
 PCOD8172357
Probable space group: C M M 2
;
_chemical_formula_sum "Si O2"
_cell_formula_units_Z 52
_cell_length_a 14.282445
_cell_length_b 28.697246
_cell_length_c 7.566653
_cell_angle_alpha 90.000000
_cell_angle_beta 90.000000
_cell_angle_gamma 90.000000
_cell_volume 3101.320137
_symmetry_space_group_name_H-M "C M M 2"
_symmetry_group_IT_number 35
_symmetry_cell_setting 'orthorhombic'
loop_
_space_group_symop_operation_xyz
x,y,z
-x,-y,z
-x,y,z
x,-y,z
1/2+x,1/2+y,z
1/2-x,1/2-y,z
1/2-x,1/2+y,z
1/2+x,1/2-y,z
loop_
_atom_site_type_symbol
_atom_site_label
_atom_site_fract_x
_atom_site_fract_y
_atom_site_fract_z
Si Si1 0.810421 0.644722 0.568020
Si Si2 0.189579 0.644722 0.976167
Si Si3 0.104537 0.551229 0.562733
Si Si4 0.205833 0.801782 0.272093
Si Si5 0.604537 0.948771 0.981454
Si Si6 0.500000 0.800631 0.574661
Si Si7 0.500000 0.727174 0.272092
Si Si8 0.000000 0.699369 0.969523
O O1 0.777294 0.647659 0.772093
O O2 0.823056 0.591251 0.500474
O O3 0.735425 0.671036 0.448472
O O4 0.910462 0.667993 0.539735
O O5 0.176944 0.591251 0.043713
O O6 0.089538 0.667993 0.004451
O O7 0.264575 0.671036 0.095715
O O8 0.141800 0.500000 0.504029
O O9 0.096753 0.554480 0.772093
O O10 0.000000 0.559083 0.484310
O O11 0.250000 0.750000 0.272094
O O12 0.093676 0.803378 0.272093
O O13 0.500000 0.940917 0.059877
O O14 0.641800 0.000000 0.040158
O O15 0.500000 0.757215 0.447667
O O16 0.500000 0.780298 0.772092
O O17 0.500000 0.757214 0.096515
#
# Coordination Sequence:
#
# PCOD8172357 Si02
#       8
#     8   8   8   8   8   4   4   4
#     4  10  19  33  52  77 105 137 168 197 243 301
#     4  10  19  33  52  77 105 137 168 197 243 301
#     4   8  13  24  46  76 108 137 161 192 240 298
#     4  12  24  36  53  71  97 133 173 217 252 295
#     4   8  13  24  46  76 108 137 161 192 240 298
#     4  10  18  30  53  76 102 133 164 201 243 295
#     4  12  24  40  48  70  98 128 174 222 258 282
#     4  10  18  30  53  76 102 133 164 201 243 295
#
# _framework density 16.767053000000001
#
# number of rings (size 3 to 8) (size 9 to 14) (size 15 to 20)
#    0.000    2.154    4.615    0.923    0.000    1.846 
#    0.000    0.769    0.000    1.846    0.000    2.154 
#    0.000    4.923    0.000    0.000    0.000    0.000 
#
# Total GULP energy -322241.798585 kJ/mol
# GULP energy per Si atom -12393.915330 kJ/mol
# Density = 1.672889 g / cm^3
# Si number density = 16.767053 Si / 1000 Ang^3
#
#
#
# Elastic Constant Matrix: (Units=GPa)
#
#
# Indices 1 2 3 4 5 6 
#
# 1 100.8015 59.6087 43.4074 0.0000 0.0000 0.0000
# 2 59.6087 138.4098 54.9873 0.0000 0.0000 0.0000
# 3 43.4074 54.9873 82.0121 0.0000 0.0000 0.0000
# 4 0.0000 0.0000 0.0000 35.4253 0.0000 0.0000
# 5 0.0000 0.0000 0.0000 0.0000 23.7933 0.0000
# 6 0.0000 0.0000 0.0000 0.0000 0.0000 44.1291
#
#
#
# Elastic Compliance Matrix: (Units=1/GPa)
#
#
# Indices 1 2 3 4 5 6 
#
# 1 0.014564 -0.004375 -0.004775 0.000000 0.000000 0.000000
# 2 -0.004375 0.011163 -0.005168 0.000000 0.000000 0.000000
# 3 -0.004775 -0.005168 0.018186 0.000000 0.000000 0.000000
# 4 0.000000 0.000000 0.000000 0.028228 0.000000 0.000000
# 5 0.000000 0.000000 0.000000 0.000000 0.042029 0.000000
# 6 0.000000 0.000000 0.000000 0.000000 0.000000 0.022661
#
#
# Mechanical properties :
#
#
# Convention : Reuss Voigt Hill
#
# Bulk Modulus (GPa) = 65.46589 70.80335 68.13462
# Shear Modulus (GPa) = 29.31531 31.55087 30.43309
#
# Velocity S-wave (km/s) = 4.18591 4.34258 4.26497
# Velocity P-wave (km/s) = 7.90516 8.21361 8.06086
#
# Compressibility (1/GPa) = 0.01527513
#
# Stress axis : x y z
#
# Youngs Moduli (GPa) = 68.66258 89.58530 54.98758
#
# Poissons Ratio (x) = 0.39196 0.26256
# Poissons Ratio (y) = 0.30042 0.28420
# Poissons Ratio (z) = 0.32786 0.46302
#
# Static dielectric constant tensor:
#      x y z
#    x 2.873790 0.000000 0.000000 
#    y 0.000000 3.503370 0.000000 
#    z 0.000000 0.000000 3.236190 
# 
# 
# High freq. dielectric constant tensor:
#      x y z
#    x 1.595980 0.000000 0.000000 
#    y 0.000000 1.650270 0.000000 
#    z 0.000000 0.000000 1.649590 
# 
# From -- ./inp_files/6421.got.cif
#   From: 2010.03.12/outbox.cif.g09.slc.cpg/sg35_4_cif.got.tgz:6421.got - 2010.04.14 02:02:04.
