data_PCOD8172832
_publ_section_title
;
Structure prediction by ZEFSAII (Michael W. Deem and Ramdas Pophale) SiO2 
 PCOD8172832
Probable space group: C M M 2
;
_chemical_formula_sum "Si O2"
_cell_formula_units_Z 48
_cell_length_a 15.509780
_cell_length_b 8.797363
_cell_length_c 17.026160
_cell_angle_alpha 90.000000
_cell_angle_beta 90.000000
_cell_angle_gamma 90.000000
_cell_volume 2323.137206
_symmetry_space_group_name_H-M "C M M 2"
_symmetry_group_IT_number 35
_symmetry_cell_setting 'orthorhombic'
loop_
_space_group_symop_operation_xyz
x,y,z
-x,-y,z
-x,y,z
x,-y,z
1/2+x,1/2+y,z
1/2-x,1/2-y,z
1/2-x,1/2+y,z
1/2+x,1/2-y,z
loop_
_atom_site_type_symbol
_atom_site_label
_atom_site_fract_x
_atom_site_fract_y
_atom_site_fract_z
Si Si1 0.097404 0.671658 0.228630
Si Si2 0.500000 0.174024 0.460690
Si Si3 0.655520 0.679180 0.076561
Si Si4 0.000000 0.326733 0.646407
Si Si5 0.159050 0.824279 0.907467
Si Si6 0.654806 0.319899 0.736504
Si Si7 0.337950 0.320217 0.378601
O O1 0.133914 0.500000 0.226092
O O2 0.096755 0.743684 0.142139
O O3 0.154396 0.771216 0.287584
O O4 0.000000 0.672429 0.260509
O O5 0.500000 0.184227 0.553609
O O6 0.415588 0.257122 0.429809
O O7 0.500000 0.000000 0.431154
O O8 0.661054 0.500000 0.091999
O O9 0.750000 0.750000 0.082435
O O10 0.610994 0.713306 0.990289
O O11 0.912994 0.246148 0.675347
O O12 0.000000 0.500000 0.675829
O O13 0.250000 0.750000 0.914305
O O14 0.116490 0.776745 0.824069
O O15 0.177854 0.000000 0.903056
O O16 0.661457 0.500000 0.724213
O O17 0.750000 0.250000 0.723370
O O18 0.335340 0.500000 0.385009
O O19 0.250000 0.250000 0.413271
#
# Coordination Sequence:
#
# PCOD8172832 Si02
#       7
#     8   4   8   4   8   8   8
#     4  11  23  39  58  82 121 163 205 256 307 358
#     4  11  25  47  69  94 129 160 199 255 308 367
#     4  10  19  33  54  81 115 154 204 254 303 359
#     4  11  25  43  65  94 127 164 203 249 308 371
#     4   8  16  31  53  81 113 155 200 252 305 355
#     4  10  20  38  64  92 126 165 209 257 310 368
#     4  12  25  43  70  98 126 163 206 249 306 369
#
# _framework density 20.661715999999998
#
# number of rings (size 3 to 8) (size 9 to 14) (size 15 to 20)
#    0.000    1.667    0.833    4.000    0.000    4.333 
#    1.500    0.000    0.000    0.000    0.000    0.000 
#    0.000    0.000    0.000    0.000    0.000    0.000 
#
# Total GULP energy -297436.310984 kJ/mol
# GULP energy per Si atom -12393.179624 kJ/mol
# Density = 2.061469 g / cm^3
# Si number density = 20.661716 Si / 1000 Ang^3
#
#
#
# Elastic Constant Matrix: (Units=GPa)
#
#
# Indices 1 2 3 4 5 6 
#
# 1 114.6048 58.6130 44.9851 0.0000 0.0000 0.0000
# 2 58.6130 149.7159 57.3342 0.0000 0.0000 0.0000
# 3 44.9851 57.3342 101.9227 0.0000 0.0000 0.0000
# 4 0.0000 0.0000 0.0000 33.8936 0.0000 0.0000
# 5 0.0000 0.0000 0.0000 0.0000 42.2282 0.0000
# 6 0.0000 0.0000 0.0000 0.0000 0.0000 30.8048
#
#
#
# Elastic Compliance Matrix: (Units=1/GPa)
#
#
# Indices 1 2 3 4 5 6 
#
# 1 0.011723 -0.003324 -0.003304 0.000000 0.000000 0.000000
# 2 -0.003324 0.009456 -0.003852 0.000000 0.000000 0.000000
# 3 -0.003304 -0.003852 0.013437 0.000000 0.000000 0.000000
# 4 0.000000 0.000000 0.000000 0.029504 0.000000 0.000000
# 5 0.000000 0.000000 0.000000 0.000000 0.023681 0.000000
# 6 0.000000 0.000000 0.000000 0.000000 0.000000 0.032462
#
#
# Mechanical properties :
#
#
# Convention : Reuss Voigt Hill
#
# Bulk Modulus (GPa) = 73.23515 76.45644 74.84580
# Shear Modulus (GPa) = 34.29961 35.07272 34.68617
#
# Velocity S-wave (km/s) = 4.07880 4.12451 4.10172
# Velocity P-wave (km/s) = 7.59631 7.73087 7.66389
#
# Compressibility (1/GPa) = 0.01365464
#
# Stress axis : x y z
#
# Youngs Moduli (GPa) = 85.30530 105.75512 74.42388
#
# Poissons Ratio (x) = 0.35153 0.24590
# Poissons Ratio (y) = 0.28356 0.28668
# Poissons Ratio (z) = 0.28186 0.40737
#
# Static dielectric constant tensor:
#      x y z
#    x 3.461850 0.000000 0.000000 
#    y 0.000000 3.772880 0.000000 
#    z 0.000000 0.000000 4.194050 
# 
# 
# High freq. dielectric constant tensor:
#      x y z
#    x 1.791930 0.000000 0.000000 
#    y 0.000000 1.820810 0.000000 
#    z 0.000000 0.000000 1.822040 
# 
# From -- ./inp_files/18791.got.cif
#   From: 2010.03.12/outbox.cif.g09.slc.cpg/sg35_10_cif.got.tgz:18791.got - 2010.04.14 02:02:04.
