data_PCOD8172988
_publ_section_title
;
Structure prediction by ZEFSAII (Michael W. Deem and Ramdas Pophale) SiO2 
 PCOD8172988
Probable space group: C M M 2
;
_chemical_formula_sum "Si O2"
_cell_formula_units_Z 56
_cell_length_a 30.333020
_cell_length_b 9.033773
_cell_length_c 12.629560
_cell_angle_alpha 90.000000
_cell_angle_beta 90.000000
_cell_angle_gamma 90.000000
_cell_volume 3460.772454
_symmetry_space_group_name_H-M "C M M 2"
_symmetry_group_IT_number 35
_symmetry_cell_setting 'orthorhombic'
loop_
_space_group_symop_operation_xyz
x,y,z
-x,-y,z
-x,y,z
x,-y,z
1/2+x,1/2+y,z
1/2-x,1/2-y,z
1/2-x,1/2+y,z
1/2+x,1/2-y,z
loop_
_atom_site_type_symbol
_atom_site_label
_atom_site_fract_x
_atom_site_fract_y
_atom_site_fract_z
Si Si1 0.112781 0.171376 0.532610
Si Si2 0.611098 0.827700 0.309516
Si Si3 0.209064 0.327621 0.311619
Si Si4 0.052407 0.666848 0.930379
Si Si5 0.551465 0.327210 0.140379
Si Si6 0.949224 0.172910 0.721398
Si Si7 0.290231 0.670549 0.536936
O O1 0.107163 0.271296 0.429446
O O2 0.077408 0.225328 0.618462
O O3 0.161199 0.190605 0.587288
O O4 0.105389 0.000000 0.500368
O O5 0.660511 0.803452 0.261205
O O6 0.576661 0.738387 0.240063
O O7 0.598619 0.000000 0.308334
O O8 0.219488 0.500000 0.324166
O O9 0.250000 0.250000 0.247006
O O10 0.207356 0.248589 0.424053
O O11 0.070392 0.500000 0.935183
O O12 0.070164 0.743366 0.823740
O O13 0.000000 0.672508 0.929353
O O14 0.069945 0.753149 0.033208
O O15 0.500000 0.292913 0.156412
O O16 0.560888 0.500000 0.132369
O O17 0.000000 0.214057 0.700988
O O18 0.942955 0.000000 0.742825
O O19 0.277858 0.500000 0.523763
O O20 0.250000 0.750000 0.602183
#
# Coordination Sequence:
#
# PCOD8172988 Si02
#       7
#     8   8   8   8   8   8   8
#     4   9  18  30  43  63  92 123 152 182 217 262
#     4  10  20  31  44  66  95 123 151 185 225 268
#     4   9  16  26  41  61  85 114 147 182 220 261
#     4   9  17  30  48  68  88 110 142 186 229 263
#     4  10  20  33  49  67  88 118 154 187 221 265
#     4   9  17  30  47  65  87 116 149 182 216 259
#     4   9  15  24  39  58  82 112 146 183 220 256
#
# _framework density 16.181359
#
# number of rings (size 3 to 8) (size 9 to 14) (size 15 to 20)
#    0.000    2.714    0.000    3.000    0.000    6.000 
#    0.000    1.429    0.000    0.000    0.000    1.000 
#    0.000    4.571    0.000    0.000    0.000    0.000 
#
# Total GULP energy -346982.725014 kJ/mol
# GULP energy per Si atom -12392.240179 kJ/mol
# Density = 1.614453 g / cm^3
# Si number density = 16.181359 Si / 1000 Ang^3
#
#
#
# Elastic Constant Matrix: (Units=GPa)
#
#
# Indices 1 2 3 4 5 6 
#
# 1 83.4313 51.6175 48.3167 0.0000 0.0000 0.0000
# 2 51.6175 102.5153 42.4916 0.0000 0.0000 0.0000
# 3 48.3167 42.4916 77.5919 0.0000 0.0000 0.0000
# 4 0.0000 0.0000 0.0000 20.1518 0.0000 0.0000
# 5 0.0000 0.0000 0.0000 0.0000 0.8531 0.0000
# 6 0.0000 0.0000 0.0000 0.0000 0.0000 24.8439
#
#
#
# Elastic Compliance Matrix: (Units=1/GPa)
#
#
# Indices 1 2 3 4 5 6 
#
# 1 0.022047 -0.006999 -0.009896 0.000000 0.000000 0.000000
# 2 -0.006999 0.014841 -0.003769 0.000000 0.000000 0.000000
# 3 -0.009896 -0.003769 0.021114 0.000000 0.000000 0.000000
# 4 0.000000 0.000000 0.000000 0.049623 0.000000 0.000000
# 5 0.000000 0.000000 0.000000 0.000000 1.172175 0.000000
# 6 0.000000 0.000000 0.000000 0.000000 0.000000 0.040251
#
#
# Mechanical properties :
#
#
# Convention : Reuss Voigt Hill
#
# Bulk Modulus (GPa) = 59.97277 60.93225 60.45251
# Shear Modulus (GPa) = 3.65781 17.24394 10.45088
#
# Velocity S-wave (km/s) = 1.50513 3.26800 2.54413
# Velocity P-wave (km/s) = 6.33750 7.20953 6.78753
#
# Compressibility (1/GPa) = 0.01667423
#
# Stress axis : x y z
#
# Youngs Moduli (GPa) = 45.35761 67.38089 47.36183
#
# Poissons Ratio (x) = 0.47161 0.46868
# Poissons Ratio (y) = 0.31747 0.17850
# Poissons Ratio (z) = 0.44885 0.25396
#
# Static dielectric constant tensor:
#      x y z
#    x 3.741760 0.000000 0.000000 
#    y 0.000000 3.209450 0.000000 
#    z 0.000000 0.000000 2.781370 
# 
# 
# High freq. dielectric constant tensor:
#      x y z
#    x 1.619220 0.000000 0.000000 
#    y 0.000000 1.638620 0.000000 
#    z 0.000000 0.000000 1.578970 
# 
# From -- ./inp_files/16062.got.cif
#   From: 2010.03.12/outbox.cif.g09.slc.cpg/sg35_9_cif.got.tgz:16062.got - 2010.04.14 02:02:04.
