data_PCOD8172784
_publ_section_title
;
Structure prediction by ZEFSAII (Michael W. Deem and Ramdas Pophale) SiO2 
 PCOD8172784
Probable space group: C M M 2
;
_chemical_formula_sum "Si O2"
_cell_formula_units_Z 48
_cell_length_a 7.904648
_cell_length_b 19.565370
_cell_length_c 16.829475
_cell_angle_alpha 90.000000
_cell_angle_beta 90.000000
_cell_angle_gamma 90.000000
_cell_volume 2602.802221
_symmetry_space_group_name_H-M "C M M 2"
_symmetry_group_IT_number 35
_symmetry_cell_setting 'orthorhombic'
loop_
_space_group_symop_operation_xyz
x,y,z
-x,-y,z
-x,y,z
x,-y,z
1/2+x,1/2+y,z
1/2-x,1/2-y,z
1/2-x,1/2+y,z
1/2+x,1/2-y,z
loop_
_atom_site_type_symbol
_atom_site_label
_atom_site_fract_x
_atom_site_fract_y
_atom_site_fract_z
Si Si1 0.000000 0.081035 0.859421
Si Si2 0.310855 0.078728 0.753547
Si Si3 0.192909 0.676638 0.450124
Si Si4 0.691449 0.326491 0.622153
Si Si5 0.000000 0.918242 0.037782
Si Si6 0.198430 0.079212 0.312814
Si Si7 0.188376 0.418823 0.141185
O O1 0.170835 0.106657 0.815643
O O2 0.000000 0.111146 0.948492
O O3 0.000000 0.000000 0.864346
O O4 0.500000 0.086779 0.790169
O O5 0.304145 0.120861 0.671967
O O6 0.272821 0.000000 0.732662
O O7 0.250000 0.750000 0.415751
O O8 0.296943 0.656722 0.528711
O O9 0.215686 0.619673 0.383884
O O10 0.000000 0.681523 0.477022
O O11 0.500000 0.336147 0.650244
O O12 0.750000 0.250000 0.640379
O O13 0.831119 0.889802 0.081450
O O14 0.000000 0.000000 0.039241
O O15 0.274356 0.107085 0.230250
O O16 0.000000 0.092375 0.312391
O O17 0.242592 0.000000 0.325198
O O18 0.199279 0.500000 0.140756
O O19 0.000000 0.394244 0.115132
#
# Coordination Sequence:
#
# PCOD8172784 Si02
#       7
#     4   8   8   8   4   8   8
#     4   9  18  32  50  75 107 141 172 213 268 317
#     4  10  20  35  54  78 110 142 176 218 265 319
#     4  11  22  36  52  74 105 138 178 222 263 310
#     4  11  21  36  56  77 104 137 179 223 263 312
#     4   9  16  28  46  71 105 137 169 213 262 313
#     4  10  19  33  52  75 106 140 176 220 265 309
#     4   9  16  27  45  71 103 138 174 214 259 307
#
# _framework density 18.441662000000001
#
# number of rings (size 3 to 8) (size 9 to 14) (size 15 to 20)
#    0.000    2.000    1.667    4.500    0.000    2.333 
#    0.000    3.333    0.000    0.000    0.000    1.167 
#    0.000    0.000    0.000    0.000    0.000    0.000 
#
# Total GULP energy -297597.664604 kJ/mol
# GULP energy per Si atom -12399.902692 kJ/mol
# Density = 1.839969 g / cm^3
# Si number density = 18.441662 Si / 1000 Ang^3
#
#
#
# Elastic Constant Matrix: (Units=GPa)
#
#
# Indices 1 2 3 4 5 6 
#
# 1 134.1597 25.8602 52.4007 0.0000 0.0000 0.0000
# 2 25.8602 41.0039 41.4524 0.0000 0.0000 0.0000
# 3 52.4007 41.4524 120.2927 0.0000 0.0000 0.0000
# 4 0.0000 0.0000 0.0000 0.6857 0.0000 0.0000
# 5 0.0000 0.0000 0.0000 0.0000 26.6202 0.0000
# 6 0.0000 0.0000 0.0000 0.0000 0.0000 19.5969
#
#
#
# Elastic Compliance Matrix: (Units=1/GPa)
#
#
# Indices 1 2 3 4 5 6 
#
# 1 0.009170 -0.002678 -0.003072 0.000000 0.000000 0.000000
# 2 -0.002678 0.038208 -0.012000 0.000000 0.000000 0.000000
# 3 -0.003072 -0.012000 0.013786 0.000000 0.000000 0.000000
# 4 0.000000 0.000000 0.000000 1.458264 0.000000 0.000000
# 5 0.000000 0.000000 0.000000 0.000000 0.037565 0.000000
# 6 0.000000 0.000000 0.000000 0.000000 0.000000 0.051028
#
#
# Mechanical properties :
#
#
# Convention : Reuss Voigt Hill
#
# Bulk Modulus (GPa) = 38.96335 59.43143 49.19739
# Shear Modulus (GPa) = 3.02650 21.09677 12.06164
#
# Velocity S-wave (km/s) = 1.28245 3.38594 2.56020
# Velocity P-wave (km/s) = 4.83391 6.89803 5.95607
#
# Compressibility (1/GPa) = 0.02566515
#
# Stress axis : x y z
#
# Youngs Moduli (GPa) = 109.05461 26.17262 72.53659
#
# Poissons Ratio (x) = 0.07009 0.22280
# Poissons Ratio (y) = 0.29204 0.87042
# Poissons Ratio (z) = 0.33497 0.31406
#
# Static dielectric constant tensor:
#      x y z
#    x 3.667320 0.000000 0.000000 
#    y 0.000000 3.022700 0.000000 
#    z 0.000000 0.000000 3.402390 
# 
# 
# High freq. dielectric constant tensor:
#      x y z
#    x 1.740270 0.000000 0.000000 
#    y 0.000000 1.667750 0.000000 
#    z 0.000000 0.000000 1.708420 
# 
# From -- ./inp_files/15251.got.cif
#   From: 2010.03.12/outbox.cif.g09.slc.cpg/sg35_8_cif.got.tgz:15251.got - 2010.04.14 02:02:04.
