data_PCOD8172527
_publ_section_title
;
Structure prediction by ZEFSAII (Michael W. Deem and Ramdas Pophale) SiO2 
 PCOD8172527
Probable space group: C M M 2
;
_chemical_formula_sum "Si O2"
_cell_formula_units_Z 52
_cell_length_a 23.360216
_cell_length_b 9.145147
_cell_length_c 14.299510
_cell_angle_alpha 90.000000
_cell_angle_beta 90.000000
_cell_angle_gamma 90.000000
_cell_volume 3054.841633
_symmetry_space_group_name_H-M "C M M 2"
_symmetry_group_IT_number 35
_symmetry_cell_setting 'orthorhombic'
loop_
_space_group_symop_operation_xyz
x,y,z
-x,-y,z
-x,y,z
x,-y,z
1/2+x,1/2+y,z
1/2-x,1/2-y,z
1/2-x,1/2+y,z
1/2+x,1/2-y,z
loop_
_atom_site_type_symbol
_atom_site_label
_atom_site_fract_x
_atom_site_fract_y
_atom_site_fract_z
Si Si1 0.850392 0.663808 0.899480
Si Si2 0.250000 0.750000 0.030125
Si Si3 0.690237 0.330962 0.727639
Si Si4 0.311401 0.173554 0.348117
Si Si5 0.565584 0.333966 0.024960
Si Si6 0.842710 0.158976 0.173951
Si Si7 0.189468 0.829561 0.522588
O O1 0.863110 0.500000 0.867210
O O2 0.849060 0.763531 0.807445
O O3 0.792199 0.660314 0.961619
O O4 0.904903 0.721985 0.954985
O O5 0.208924 0.843319 0.097936
O O6 0.701562 0.500000 0.750378
O O7 0.750000 0.250000 0.730029
O O8 0.660109 0.313393 0.625029
O O9 0.250000 0.250000 0.343743
O O10 0.341468 0.212883 0.250543
O O11 0.344335 0.244734 0.438602
O O12 0.307478 0.000000 0.358301
O O13 0.500000 0.287825 0.038125
O O14 0.571378 0.500000 0.986856
O O15 0.596361 0.320408 0.124810
O O16 0.839527 0.000000 0.223474
O O17 0.250000 0.750000 0.530383
O O18 0.197303 0.000000 0.496473
#
# Coordination Sequence:
#
# PCOD8172527 Si02
#       7
#     8   4   8   8   8   8   8
#     4  11  21  31  49  74 101 131 164 202 246 292
#     4  10  20  30  46  68 100 130 160 196 240 288
#     4  10  19  30  46  69  98 131 165 199 239 289
#     4  11  20  29  44  67  97 129 162 196 238 287
#     4   9  20  38  55  71  95 128 167 208 248 291
#     4  10  19  31  49  70  96 127 161 198 240 288
#     4   9  17  29  44  63  92 129 164 196 233 281
#
# _framework density 17.022158999999998
#
# number of rings (size 3 to 8) (size 9 to 14) (size 15 to 20)
#    0.000    2.000    1.538    4.154    0.000    5.846 
#    0.000    0.000    0.000    0.000    0.000    1.077 
#    0.000    3.692    0.000    0.000    0.000    0.000 
#
# Total GULP energy -322138.463331 kJ/mol
# GULP energy per Si atom -12389.940897 kJ/mol
# Density = 1.698342 g / cm^3
# Si number density = 17.022159 Si / 1000 Ang^3
#
#
#
# Elastic Constant Matrix: (Units=GPa)
#
#
# Indices 1 2 3 4 5 6 
#
# 1 78.8697 30.6941 31.8625 0.0000 0.0000 0.0000
# 2 30.6941 147.9930 65.3709 0.0000 0.0000 0.0000
# 3 31.8625 65.3709 121.1032 0.0000 0.0000 0.0000
# 4 0.0000 0.0000 0.0000 29.9192 0.0000 0.0000
# 5 0.0000 0.0000 0.0000 0.0000 7.6789 0.0000
# 6 0.0000 0.0000 0.0000 0.0000 0.0000 14.5614
#
#
#
# Elastic Compliance Matrix: (Units=1/GPa)
#
#
# Indices 1 2 3 4 5 6 
#
# 1 0.014520 -0.001739 -0.002882 0.000000 0.000000 0.000000
# 2 -0.001739 0.009081 -0.004444 0.000000 0.000000 0.000000
# 3 -0.002882 -0.004444 0.011415 0.000000 0.000000 0.000000
# 4 0.000000 0.000000 0.000000 0.033423 0.000000 0.000000
# 5 0.000000 0.000000 0.000000 0.000000 0.130227 0.000000
# 6 0.000000 0.000000 0.000000 0.000000 0.000000 0.068675
#
#
# Mechanical properties :
#
#
# Convention : Reuss Voigt Hill
#
# Bulk Modulus (GPa) = 59.22044 67.09121 63.15582
# Shear Modulus (GPa) = 17.17635 25.10114 21.13874
#
# Velocity S-wave (km/s) = 3.18001 3.84424 3.52779
# Velocity P-wave (km/s) = 6.95335 7.69440 7.33324
#
# Compressibility (1/GPa) = 0.01688606
#
# Stress axis : x y z
#
# Youngs Moduli (GPa) = 68.87077 110.12245 87.60661
#
# Poissons Ratio (x) = 0.19145 0.25246
# Poissons Ratio (y) = 0.11973 0.38935
# Poissons Ratio (z) = 0.19847 0.48942
#
# Static dielectric constant tensor:
#      x y z
#    x 2.734730 0.000000 0.000000 
#    y 0.000000 3.285360 0.000000 
#    z 0.000000 0.000000 4.043850 
# 
# 
# High freq. dielectric constant tensor:
#      x y z
#    x 1.590720 0.000000 0.000000 
#    y 0.000000 1.670970 0.000000 
#    z 0.000000 0.000000 1.672540 
# 
# From -- ./inp_files/17534.got.cif
#   From: 2010.03.12/outbox.cif.g09.slc.cpg/sg35_9_cif.got.tgz:17534.got - 2010.04.14 02:02:04.
