data_PCOD8172513
_publ_section_title
;
Structure prediction by ZEFSAII (Michael W. Deem and Ramdas Pophale) SiO2 
 PCOD8172513
Probable space group: C M M 2
;
_chemical_formula_sum "Si O2"
_cell_formula_units_Z 48
_cell_length_a 8.996318
_cell_length_b 27.090337
_cell_length_c 13.028858
_cell_angle_alpha 90.000000
_cell_angle_beta 90.000000
_cell_angle_gamma 90.000000
_cell_volume 3175.305801
_symmetry_space_group_name_H-M "C M M 2"
_symmetry_group_IT_number 35
_symmetry_cell_setting 'orthorhombic'
loop_
_space_group_symop_operation_xyz
x,y,z
-x,-y,z
-x,y,z
x,-y,z
1/2+x,1/2+y,z
1/2-x,1/2-y,z
1/2-x,1/2+y,z
1/2+x,1/2-y,z
loop_
_atom_site_type_symbol
_atom_site_label
_atom_site_fract_x
_atom_site_fract_y
_atom_site_fract_z
Si Si1 0.831770 0.895746 0.353220
Si Si2 0.668050 0.699776 0.461681
Si Si3 0.823727 0.614339 0.551856
Si Si4 0.673662 0.943165 0.754243
Si Si5 0.825778 0.557374 0.162050
Si Si6 0.667438 0.558655 0.957196
O O1 0.832622 0.835674 0.360773
O O2 0.747122 0.916040 0.455460
O O3 0.744975 0.911401 0.252746
O O4 0.000000 0.916608 0.350381
O O5 0.500000 0.710779 0.498369
O O6 0.750000 0.750000 0.433040
O O7 0.756568 0.670193 0.551970
O O8 0.774400 0.587833 0.656043
O O9 0.000000 0.615780 0.539050
O O10 0.500000 0.937263 0.775457
O O11 0.715856 0.000000 0.733964
O O12 0.758073 0.921215 0.853106
O O13 0.787219 0.500000 0.178994
O O14 0.758278 0.577536 0.055690
O O15 0.000000 0.566790 0.159561
O O16 0.500000 0.578838 0.964527
O O17 0.672133 0.500000 0.954741
#
# Coordination Sequence:
#
# PCOD8172513 Si02
#       6
#     8   8   8   8   8   8
#     4   9  19  31  44  66  92 117 149 184 223 270
#     4   9  18  31  48  67  89 115 145 184 225 270
#     4   9  17  29  45  66  93 120 150 184 222 268
#     4   9  17  29  44  63  90 123 156 187 217 256
#     4  10  19  30  45  64  89 122 156 188 221 261
#     4   9  17  28  43  62  85 117 155 191 224 256
#
# _framework density 15.116654
#
# number of rings (size 3 to 8) (size 9 to 14) (size 15 to 20)
#    1.000    1.833    0.000    2.000    0.000    5.000 
#    0.000    1.667    0.000    0.000    0.000    1.167 
#    0.000    2.667    0.000    0.000    0.000    0.000 
#
# Total GULP energy -297416.192863 kJ/mol
# GULP energy per Si atom -12392.341369 kJ/mol
# Density = 1.508225 g / cm^3
# Si number density = 15.116654 Si / 1000 Ang^3
#
#
#
# Elastic Constant Matrix: (Units=GPa)
#
#
# Indices 1 2 3 4 5 6 
#
# 1 104.4638 36.6788 66.7521 0.0000 0.0000 0.0000
# 2 36.6788 50.7756 43.2980 0.0000 0.0000 0.0000
# 3 66.7521 43.2980 137.5164 0.0000 0.0000 0.0000
# 4 0.0000 0.0000 0.0000 0.1355 0.0000 0.0000
# 5 0.0000 0.0000 0.0000 0.0000 27.5567 0.0000
# 6 0.0000 0.0000 0.0000 0.0000 0.0000 20.8964
#
#
#
# Elastic Compliance Matrix: (Units=1/GPa)
#
#
# Indices 1 2 3 4 5 6 
#
# 1 0.015277 -0.006442 -0.005387 0.000000 0.000000 0.000000
# 2 -0.006442 0.029639 -0.006205 0.000000 0.000000 0.000000
# 3 -0.005387 -0.006205 0.011841 0.000000 0.000000 0.000000
# 4 0.000000 0.000000 0.000000 7.381887 0.000000 0.000000
# 5 0.000000 0.000000 0.000000 0.000000 0.036289 0.000000
# 6 0.000000 0.000000 0.000000 0.000000 0.000000 0.047855
#
#
# Mechanical properties :
#
#
# Convention : Reuss Voigt Hill
#
# Bulk Modulus (GPa) = 48.33654 65.13484 56.73569
# Shear Modulus (GPa) = 0.66087 19.45285 10.05686
#
# Velocity S-wave (km/s) = 0.66191 3.59116 2.58211
# Velocity P-wave (km/s) = 5.71220 7.77026 6.81932
#
# Compressibility (1/GPa) = 0.02068828
#
# Stress axis : x y z
#
# Youngs Moduli (GPa) = 65.45784 33.73916 84.45391
#
# Poissons Ratio (x) = 0.21733 0.45499
# Poissons Ratio (y) = 0.42165 0.52406
# Poissons Ratio (z) = 0.35265 0.20936
#
# Static dielectric constant tensor:
#      x y z
#    x 3.051880 0.000000 0.000000 
#    y 0.000000 2.567630 0.000000 
#    z 0.000000 0.000000 2.888310 
# 
# 
# High freq. dielectric constant tensor:
#      x y z
#    x 1.599490 0.000000 0.000000 
#    y 0.000000 1.534160 0.000000 
#    z 0.000000 0.000000 1.572580 
# 
# From -- ./inp_files/11625.got.cif
#   From: 2010.03.12/outbox.cif.g09.slc.cpg/sg35_6_cif.got.tgz:11625.got - 2010.04.14 02:02:04.
