data_PCOD8172096
_publ_section_title
;
Structure prediction by ZEFSAII (Michael W. Deem and Ramdas Pophale) SiO2 
 PCOD8172096
Probable space group: P N N 2
;
_chemical_formula_sum "Si O2"
_cell_formula_units_Z 32
_cell_length_a 10.433680
_cell_length_b 9.090146
_cell_length_c 15.331737
_cell_angle_alpha 90.000000
_cell_angle_beta 90.000000
_cell_angle_gamma 90.000000
_cell_volume 1454.118274
_symmetry_space_group_name_H-M "P N N 2"
_symmetry_group_IT_number 34
_symmetry_cell_setting 'orthorhombic'
loop_
_space_group_symop_operation_xyz
x,y,z
-x,-y,z
1/2-x,1/2+y,1/2+z
1/2+x,1/2-y,1/2+z
loop_
_atom_site_type_symbol
_atom_site_label
_atom_site_fract_x
_atom_site_fract_y
_atom_site_fract_z
Si Si1 0.037577 0.662737 0.808560
Si Si2 0.273173 0.250000 0.444193
Si Si3 0.864108 0.020898 0.490520
Si Si4 0.618930 0.590062 0.182431
Si Si5 0.165926 0.250000 0.944193
Si Si6 0.118930 0.590062 0.205955
Si Si7 0.364108 0.020898 0.897866
Si Si8 0.962423 0.162737 0.079827
O O1 0.142705 0.642960 0.883891
O O2 0.105723 0.752208 0.729869
O O3 0.000000 0.500000 0.774491
O O4 0.918028 0.748343 0.854757
O O5 0.190141 0.356398 0.381876
O O6 0.357295 0.357040 0.504496
O O7 0.190141 0.143602 0.506510
O O8 0.896618 0.110114 0.578950
O O9 0.757692 0.108930 0.437342
O O10 0.000000 0.000000 0.439465
O O11 0.500000 0.500000 0.222126
O O12 0.750000 0.500000 0.194193
O O13 0.257691 0.108929 0.951044
O O14 0.081972 0.248343 0.033630
O O15 0.103383 0.610114 0.309436
O O16 0.105723 0.747792 0.158518
O O17 0.000000 0.500000 0.166261
O O18 0.500000 0.000000 0.948922
O O19 0.000000 0.000000 0.113896
#
# Coordination Sequence:
#
# PCOD8172096 Si02
#       8
#     4   4   4   4   4   4   4   4
#     4  11  23  40  68 100 136 178 239 300 342 424
#     4  11  21  40  66  96 129 175 238 288 348 409
#     4  11  23  41  66  97 137 177 227 294 359 420
#     4  11  23  42  68 100 141 187 229 287 368 433
#     4  11  23  42  68 104 129 185 246 290 342 429
#     4  11  23  42  68 100 141 187 229 287 368 433
#     4  11  23  41  66  97 137 177 227 294 359 420
#     4  11  23  40  68 100 136 178 239 300 342 424
#
# _framework density 22.006464000000001
#
# number of rings (size 3 to 8) (size 9 to 14) (size 15 to 20)
#    0.000    1.000    5.000    2.250    0.000    0.000 
#    0.000   11.250    0.000    0.000    0.000    0.000 
#    0.000    0.000    0.000    0.000    0.000    0.000 
#
# Total GULP energy -396461.655442 kJ/mol
# GULP energy per Si atom -12389.426733 kJ/mol
# Density = 2.195638 g / cm^3
# Si number density = 22.006464 Si / 1000 Ang^3
#
#
#
# Elastic Constant Matrix: (Units=GPa)
#
#
# Indices 1 2 3 4 5 6 
#
# 1 159.8463 64.8662 26.4570 0.0000 0.0000 0.0000
# 2 64.8662 146.3039 46.9312 0.0000 0.0000 0.0000
# 3 26.4570 46.9312 82.3532 0.0000 0.0000 0.0000
# 4 0.0000 0.0000 0.0000 31.7966 0.0000 0.0000
# 5 0.0000 0.0000 0.0000 0.0000 17.1139 0.0000
# 6 0.0000 0.0000 0.0000 0.0000 0.0000 39.0044
#
#
#
# Elastic Compliance Matrix: (Units=1/GPa)
#
#
# Indices 1 2 3 4 5 6 
#
# 1 0.007656 -0.003188 -0.000643 0.000000 0.000000 0.000000
# 2 -0.003188 0.009692 -0.004499 0.000000 0.000000 0.000000
# 3 -0.000643 -0.004499 0.014913 0.000000 0.000000 0.000000
# 4 0.000000 0.000000 0.000000 0.031450 0.000000 0.000000
# 5 0.000000 0.000000 0.000000 0.000000 0.058432 0.000000
# 6 0.000000 0.000000 0.000000 0.000000 0.000000 0.025638
#
#
# Mechanical properties :
#
#
# Convention : Reuss Voigt Hill
#
# Bulk Modulus (GPa) = 64.09702 73.89025 68.99363
# Shear Modulus (GPa) = 29.47395 34.26626 31.87010
#
# Velocity S-wave (km/s) = 3.66366 3.95029 3.80967
# Velocity P-wave (km/s) = 6.86194 7.37942 7.12538
#
# Compressibility (1/GPa) = 0.01560135
#
# Stress axis : x y z
#
# Youngs Moduli (GPa) = 130.61261 103.17965 67.05521
#
# Poissons Ratio (x) = 0.32897 0.04310
# Poissons Ratio (y) = 0.41644 0.30167
# Poissons Ratio (z) = 0.08394 0.46419
#
# Static dielectric constant tensor:
#      x y z
#    x 4.452620 0.000000 0.000000 
#    y 0.000000 3.836410 0.000000 
#    z 0.000000 0.000000 3.600730 
# 
# 
# High freq. dielectric constant tensor:
#      x y z
#    x 1.890950 0.000000 0.000000 
#    y 0.000000 1.859460 0.000000 
#    z 0.000000 0.000000 1.831200 
# 
# From -- ./inp_files/6819.got.cif
#   From: 2010.03.12/outbox.cif.g09.slc.cpg/sg34_4_cif.got.tgz:6819.got - 2010.04.14 01:56:33.
