data_PCOD8172559
_publ_section_title
;
Structure prediction by ZEFSAII (Michael W. Deem and Ramdas Pophale) SiO2 
 PCOD8172559
Probable space group: C M M 2
;
_chemical_formula_sum "Si O2"
_cell_formula_units_Z 64
_cell_length_a 26.884424
_cell_length_b 14.903233
_cell_length_c 8.980351
_cell_angle_alpha 90.000000
_cell_angle_beta 90.000000
_cell_angle_gamma 90.000000
_cell_volume 3598.110851
_symmetry_space_group_name_H-M "C M M 2"
_symmetry_group_IT_number 35
_symmetry_cell_setting 'orthorhombic'
loop_
_space_group_symop_operation_xyz
x,y,z
-x,-y,z
-x,y,z
x,-y,z
1/2+x,1/2+y,z
1/2-x,1/2-y,z
1/2-x,1/2+y,z
1/2+x,1/2-y,z
loop_
_atom_site_type_symbol
_atom_site_label
_atom_site_fract_x
_atom_site_fract_y
_atom_site_fract_z
Si Si1 0.441172 0.103164 0.319010
Si Si2 0.826582 0.102832 0.343640
Si Si3 0.055319 0.395537 0.657087
Si Si4 0.296709 0.699652 0.621494
Si Si5 0.859817 0.688277 0.832681
Si Si6 0.738968 0.098450 0.868810
Si Si7 0.635725 0.230831 0.167947
Si Si8 0.775185 0.399207 0.194684
O O1 0.500000 0.118113 0.300757
O O2 0.424452 0.120764 0.489680
O O3 0.413448 0.176232 0.216368
O O4 0.427750 0.000000 0.274054
O O5 0.826647 0.130928 0.516885
O O6 0.860341 0.170489 0.244254
O O7 0.768018 0.109972 0.313605
O O8 0.846055 0.000000 0.323052
O O9 0.054794 0.500000 0.691721
O O10 0.086975 0.348925 0.785842
O O11 0.000000 0.355443 0.670515
O O12 0.250000 0.750000 0.538433
O O13 0.340901 0.758217 0.688887
O O14 0.271012 0.661719 0.768137
O O15 0.820657 0.608184 0.857149
O O16 0.864877 0.742923 0.988614
O O17 0.753907 0.000000 0.818659
O O18 0.753057 0.119328 0.039008
O O19 0.682398 0.173137 0.227808
O O20 0.798447 0.500000 0.196321
#
# Coordination Sequence:
#
# PCOD8172559 Si02
#       8
#     8   8   8   8   8   8   8   8
#     4   9  19  35  55  80 108 136 164 197 242 296
#     4  11  22  34  49  70  97 132 176 217 254 296
#     4   9  18  33  51  73 104 136 163 194 235 288
#     4  10  19  31  47  68  95 129 170 212 253 293
#     4  10  20  31  48  73  98 132 168 203 248 296
#     4   9  17  30  46  67  99 132 163 198 241 296
#     4  11  20  33  52  74 104 135 169 208 251 300
#     4   9  18  31  48  72 102 136 167 201 248 299
#
# _framework density 17.787109999999998
#
# number of rings (size 3 to 8) (size 9 to 14) (size 15 to 20)
#    0.000    2.250    0.000    4.500    0.000    5.000 
#    0.000    4.375    0.000    0.375    0.000    0.000 
#    0.000    3.500    0.000    0.000    0.000    0.000 
#
# Total GULP energy -396539.744292 kJ/mol
# GULP energy per Si atom -12391.867009 kJ/mol
# Density = 1.774663 g / cm^3
# Si number density = 17.787110 Si / 1000 Ang^3
#
#
#
# Elastic Constant Matrix: (Units=GPa)
#
#
# Indices 1 2 3 4 5 6 
#
# 1 52.2928 20.1606 22.2564 0.0000 0.0000 0.0000
# 2 20.1606 84.0673 30.6034 0.0000 0.0000 0.0000
# 3 22.2564 30.6034 75.2100 0.0000 0.0000 0.0000
# 4 0.0000 0.0000 0.0000 -6.8202 0.0000 0.0000
# 5 0.0000 0.0000 0.0000 0.0000 6.7836 0.0000
# 6 0.0000 0.0000 0.0000 0.0000 0.0000 25.2087
#
#
#
# Elastic Compliance Matrix: (Units=1/GPa)
#
#
# Indices 1 2 3 4 5 6 
#
# 1 0.022735 -0.003525 -0.005293 0.000000 0.000000 0.000000
# 2 -0.003525 0.014510 -0.004861 0.000000 0.000000 0.000000
# 3 -0.005293 -0.004861 0.016841 0.000000 0.000000 0.000000
# 4 0.000000 0.000000 0.000000 -0.146623 0.000000 0.000000
# 5 0.000000 0.000000 0.000000 0.000000 0.147414 0.000000
# 6 0.000000 0.000000 0.000000 0.000000 0.000000 0.039669
#
#
# Mechanical properties :
#
#
# Convention : Reuss Voigt Hill
#
# Bulk Modulus (GPa) = 37.41619 39.73457 38.57538
# Shear Modulus (GPa) = 38.22206 14.27107 26.24656
#
# Velocity S-wave (km/s) = 4.64061 2.83561 3.84551
# Velocity P-wave (km/s) = 7.05655 5.75399 6.43830
#
# Compressibility (1/GPa) = 0.02672640
#
# Stress axis : x y z
#
# Youngs Moduli (GPa) = 43.98483 68.91680 59.38040
#
# Poissons Ratio (x) = 0.24295 0.31432
# Poissons Ratio (y) = 0.15506 0.28866
# Poissons Ratio (z) = 0.23283 0.33501
#
# Static dielectric constant tensor:
#      x y z
#    x 3.083610 0.000000 0.000000 
#    y 0.000000 3.317290 0.000000 
#    z 0.000000 0.000000 3.321420 
# 
# 
# High freq. dielectric constant tensor:
#      x y z
#    x 1.659130 0.000000 0.000000 
#    y 0.000000 1.675650 0.000000 
#    z 0.000000 0.000000 1.699010 
# 
# From -- ./inp_files/9897.got.cif
#   From: 2010.03.12/outbox.cif.g09.slc.cpg/sg35_5_cif.got.tgz:9897.got - 2010.04.14 02:02:04.
