data_PCOD8172576
_publ_section_title
;
Structure prediction by ZEFSAII (Michael W. Deem and Ramdas Pophale) SiO2 
 PCOD8172576
Probable space group: C M M 2
;
_chemical_formula_sum "Si O2"
_cell_formula_units_Z 40
_cell_length_a 19.418472
_cell_length_b 8.909984
_cell_length_c 13.006702
_cell_angle_alpha 90.000000
_cell_angle_beta 90.000000
_cell_angle_gamma 90.000000
_cell_volume 2250.397141
_symmetry_space_group_name_H-M "C M M 2"
_symmetry_group_IT_number 35
_symmetry_cell_setting 'orthorhombic'
loop_
_space_group_symop_operation_xyz
x,y,z
-x,-y,z
-x,y,z
x,-y,z
1/2+x,1/2+y,z
1/2-x,1/2-y,z
1/2-x,1/2+y,z
1/2+x,1/2-y,z
loop_
_atom_site_type_symbol
_atom_site_label
_atom_site_fract_x
_atom_site_fract_y
_atom_site_fract_z
Si Si1 0.176362 0.175190 0.693850
Si Si2 0.077878 0.177748 0.871925
Si Si3 0.323929 0.324352 0.467975
Si Si4 0.078607 0.676030 0.081329
Si Si5 0.825102 0.321849 0.267744
O O1 0.250000 0.250000 0.708067
O O2 0.123985 0.240401 0.778417
O O3 0.142500 0.204185 0.580461
O O4 0.188338 0.000000 0.710210
O O5 0.000000 0.233423 0.852681
O O6 0.081587 0.000000 0.878027
O O7 0.106189 0.243824 0.978657
O O8 0.318107 0.500000 0.443245
O O9 0.250000 0.250000 0.473922
O O10 0.361556 0.241778 0.372401
O O11 0.084614 0.500000 0.063634
O O12 0.126262 0.729640 0.174783
O O13 0.000000 0.723842 0.105354
O O14 0.818453 0.500000 0.274864
O O15 0.750000 0.250000 0.251473
#
# Coordination Sequence:
#
# PCOD8172576 Si02
#       5
#     8   8   8   8   8
#     4   9  18  31  48  71  96 122 153 190 230 271
#     4   9  18  33  51  69  92 123 156 190 230 275
#     4   9  16  28  46  68  95 124 153 186 227 274
#     4   9  19  35  51  67  91 124 158 191 230 274
#     4  10  19  31  49  71  95 122 153 192 232 272
#
# _framework density 17.774639000000001
#
# number of rings (size 3 to 8) (size 9 to 14) (size 15 to 20)
#    0.000    2.800    0.000    2.400    0.000    4.000 
#    0.000    5.000    0.000    1.200    0.000    0.000 
#    0.000    0.000    0.000    0.000    0.000    0.000 
#
# Total GULP energy -247868.237620 kJ/mol
# GULP energy per Si atom -12393.411881 kJ/mol
# Density = 1.773418 g / cm^3
# Si number density = 17.774639 Si / 1000 Ang^3
#
#
#
# Elastic Constant Matrix: (Units=GPa)
#
#
# Indices 1 2 3 4 5 6 
#
# 1 68.2006 26.5913 79.2314 0.0000 0.0000 0.0000
# 2 26.5913 52.9820 51.4887 0.0000 0.0000 0.0000
# 3 79.2314 51.4887 199.2299 0.0000 0.0000 0.0000
# 4 0.0000 0.0000 0.0000 31.7265 0.0000 0.0000
# 5 0.0000 0.0000 0.0000 0.0000 17.2244 0.0000
# 6 0.0000 0.0000 0.0000 0.0000 0.0000 18.4332
#
#
#
# Elastic Compliance Matrix: (Units=1/GPa)
#
#
# Indices 1 2 3 4 5 6 
#
# 1 0.027973 -0.004311 -0.010010 0.000000 0.000000 0.000000
# 2 -0.004311 0.025869 -0.004971 0.000000 0.000000 0.000000
# 3 -0.010010 -0.004971 0.010285 0.000000 0.000000 0.000000
# 4 0.000000 0.000000 0.000000 0.031519 0.000000 0.000000
# 5 0.000000 0.000000 0.000000 0.000000 0.058057 0.000000
# 6 0.000000 0.000000 0.000000 0.000000 0.000000 0.054250
#
#
# Mechanical properties :
#
#
# Convention : Reuss Voigt Hill
#
# Bulk Modulus (GPa) = 39.15149 70.55950 54.85549
# Shear Modulus (GPa) = 19.60378 24.35022 21.97700
#
# Velocity S-wave (km/s) = 3.32461 3.70529 3.52010
# Velocity P-wave (km/s) = 6.06727 7.62158 6.88840
#
# Compressibility (1/GPa) = 0.02554181
#
# Stress axis : x y z
#
# Youngs Moduli (GPa) = 35.74879 38.65625 97.22873
#
# Poissons Ratio (x) = 0.16666 0.97329
# Poissons Ratio (y) = 0.15412 0.48333
# Poissons Ratio (z) = 0.35786 0.19216
#
# Static dielectric constant tensor:
#      x y z
#    x 3.122010 0.000000 0.000000 
#    y 0.000000 3.270570 0.000000 
#    z 0.000000 0.000000 4.066860 
# 
# 
# High freq. dielectric constant tensor:
#      x y z
#    x 1.652540 0.000000 0.000000 
#    y 0.000000 1.688320 0.000000 
#    z 0.000000 0.000000 1.709480 
# 
# From -- ./inp_files/4847.got.cif
#   From: 2010.03.12/outbox.cif.g09.slc.cpg/sg35_3_cif.got.tgz:4847.got - 2010.04.14 02:02:04.
