data_PCOD8172612
_publ_section_title
;
Structure prediction by ZEFSAII (Michael W. Deem and Ramdas Pophale) SiO2 
 PCOD8172612
Probable space group: C M M 2
;
_chemical_formula_sum "Si O2"
_cell_formula_units_Z 64
_cell_length_a 8.885990
_cell_length_b 18.994636
_cell_length_c 20.590592
_cell_angle_alpha 90.000000
_cell_angle_beta 90.000000
_cell_angle_gamma 90.000000
_cell_volume 3475.406658
_symmetry_space_group_name_H-M "C M M 2"
_symmetry_group_IT_number 35
_symmetry_cell_setting 'orthorhombic'
loop_
_space_group_symop_operation_xyz
x,y,z
-x,-y,z
-x,y,z
x,-y,z
1/2+x,1/2+y,z
1/2-x,1/2-y,z
1/2-x,1/2+y,z
1/2+x,1/2-y,z
loop_
_atom_site_type_symbol
_atom_site_label
_atom_site_fract_x
_atom_site_fract_y
_atom_site_fract_z
Si Si1 0.829318 0.917199 0.950540
Si Si2 0.322051 0.326502 0.324556
Si Si3 0.176367 0.674113 0.198569
Si Si4 0.325468 0.175036 0.055839
Si Si5 0.675067 0.081686 0.579701
Si Si6 0.178535 0.173603 0.689156
Si Si7 0.672840 0.419079 0.446421
Si Si8 0.678802 0.421845 0.805946
O O1 0.724486 0.880098 0.002319
O O2 0.770902 0.897949 0.878079
O O3 0.000000 0.890961 0.960142
O O4 0.818406 0.000000 0.961521
O O5 0.500000 0.319907 0.318174
O O6 0.250000 0.250000 0.333996
O O7 0.256487 0.365115 0.259310
O O8 0.273780 0.373238 0.385610
O O9 0.250000 0.750000 0.196964
O O10 0.000000 0.679322 0.212805
O O11 0.208982 0.641095 0.127314
O O12 0.500000 0.189339 0.048168
O O13 0.250000 0.250000 0.044776
O O14 0.500000 0.098836 0.589110
O O15 0.773247 0.128884 0.627210
O O16 0.722483 0.101613 0.506811
O O17 0.711068 0.000000 0.593941
O O18 0.250000 0.250000 0.686489
O O19 0.239734 0.133879 0.753529
O O20 0.000000 0.180837 0.689801
O O21 0.500000 0.403514 0.465195
O O22 0.695092 0.500000 0.426862
O O23 0.500000 0.425970 0.803898
O O24 0.743432 0.500000 0.790034
#
# Coordination Sequence:
#
# PCOD8172612 Si02
#       8
#     8   8   8   8   8   8   8   8
#     4   9  18  34  55  78 105 136 171 212 257 307
#     4  10  19  31  51  76 101 130 166 210 254 302
#     4   9  17  30  48  70  98 132 169 209 252 302
#     4  10  20  33  51  75 103 136 175 217 260 308
#     4  10  21  37  57  80 105 135 173 214 255 305
#     4  11  22  36  55  79 109 140 170 211 259 304
#     4   9  19  36  55  75 101 135 173 209 249 300
#     4   8  16  33  56  78 100 133 175 212 252 307
#
# _framework density 18.415111
#
# number of rings (size 3 to 8) (size 9 to 14) (size 15 to 20)
#    0.000    2.500    0.000    3.750    0.000    5.000 
#    0.000    4.375    0.000    3.750    0.000    0.000 
#    0.000    0.000    0.000    0.000    0.000    0.000 
#
# Total GULP energy -396683.801333 kJ/mol
# GULP energy per Si atom -12396.368792 kJ/mol
# Density = 1.837320 g / cm^3
# Si number density = 18.415111 Si / 1000 Ang^3
#
#
#
# Elastic Constant Matrix: (Units=GPa)
#
#
# Indices 1 2 3 4 5 6 
#
# 1 76.2791 37.4519 54.8644 0.0000 0.0000 0.0000
# 2 37.4519 74.8676 74.0071 0.0000 0.0000 0.0000
# 3 54.8644 74.0071 159.1920 0.0000 0.0000 0.0000
# 4 0.0000 0.0000 0.0000 61.5866 0.0000 0.0000
# 5 0.0000 0.0000 0.0000 0.0000 29.1837 0.0000
# 6 0.0000 0.0000 0.0000 0.0000 0.0000 24.1190
#
#
#
# Elastic Compliance Matrix: (Units=1/GPa)
#
#
# Indices 1 2 3 4 5 6 
#
# 1 0.018572 -0.005483 -0.003852 0.000000 0.000000 0.000000
# 2 -0.005483 0.026333 -0.010352 0.000000 0.000000 0.000000
# 3 -0.003852 -0.010352 0.012422 0.000000 0.000000 0.000000
# 4 0.000000 0.000000 0.000000 0.016237 0.000000 0.000000
# 5 0.000000 0.000000 0.000000 0.000000 0.034266 0.000000
# 6 0.000000 0.000000 0.000000 0.000000 0.000000 0.041461
#
#
# Mechanical properties :
#
#
# Convention : Reuss Voigt Hill
#
# Bulk Modulus (GPa) = 55.70132 71.44282 63.57207
# Shear Modulus (GPa) = 25.68710 32.57888 29.13299
#
# Velocity S-wave (km/s) = 3.73888 4.21068 3.98177
# Velocity P-wave (km/s) = 6.99659 7.90694 7.46565
#
# Compressibility (1/GPa) = 0.01795290
#
# Stress axis : x y z
#
# Youngs Moduli (GPa) = 53.84363 37.97495 80.50293
#
# Poissons Ratio (x) = 0.20822 0.31008
# Poissons Ratio (y) = 0.29523 0.83339
# Poissons Ratio (z) = 0.20739 0.39313
#
# Static dielectric constant tensor:
#      x y z
#    x 3.344560 0.000000 0.000000 
#    y 0.000000 2.243950 0.000000 
#    z 0.000000 0.000000 3.940560 
# 
# 
# High freq. dielectric constant tensor:
#      x y z
#    x 1.710970 0.000000 0.000000 
#    y 0.000000 1.691030 0.000000 
#    z 0.000000 0.000000 1.733440 
# 
# From -- ./inp_files/18387.got.cif
#   From: 2010.03.12/outbox.cif.g09.slc.cpg/sg35_10_cif.got.tgz:18387.got - 2010.04.14 02:02:04.
