data_PCOD8172839
_publ_section_title
;
Structure prediction by ZEFSAII (Michael W. Deem and Ramdas Pophale) SiO2 
 PCOD8172839
Probable space group: C M M 2
;
_chemical_formula_sum "Si O2"
_cell_formula_units_Z 64
_cell_length_a 17.571975
_cell_length_b 14.610914
_cell_length_c 14.027076
_cell_angle_alpha 90.000000
_cell_angle_beta 90.000000
_cell_angle_gamma 90.000000
_cell_volume 3601.348181
_symmetry_space_group_name_H-M "C M M 2"
_symmetry_group_IT_number 35
_symmetry_cell_setting 'orthorhombic'
loop_
_space_group_symop_operation_xyz
x,y,z
-x,-y,z
-x,y,z
x,-y,z
1/2+x,1/2+y,z
1/2-x,1/2-y,z
1/2-x,1/2+y,z
1/2+x,1/2-y,z
loop_
_atom_site_type_symbol
_atom_site_label
_atom_site_fract_x
_atom_site_fract_y
_atom_site_fract_z
Si Si1 0.827817 0.105732 0.629550
Si Si2 0.411199 0.725481 0.775472
Si Si3 0.692116 0.896343 0.767769
Si Si4 0.410912 0.725832 0.266048
Si Si5 0.810857 0.398165 0.280989
Si Si6 0.677733 0.601985 0.910378
Si Si7 0.206647 0.159721 0.116718
Si Si8 0.171756 0.892999 0.410502
O O1 0.890990 0.165780 0.682798
O O2 0.745517 0.123159 0.676456
O O3 0.824784 0.136210 0.520236
O O4 0.851432 0.000000 0.639891
O O5 0.500000 0.737991 0.783688
O O6 0.377583 0.827055 0.765961
O O7 0.382362 0.675453 0.871359
O O8 0.740101 0.878118 0.863872
O O9 0.660211 0.000000 0.765017
O O10 0.500000 0.729282 0.245744
O O11 0.381086 0.828878 0.282026
O O12 0.369903 0.681927 0.174758
O O13 0.394488 0.664729 0.359358
O O14 0.843339 0.500000 0.297791
O O15 0.764263 0.397964 0.182057
O O16 0.753349 0.368302 0.364897
O O17 0.651247 0.500000 0.879499
O O18 0.683126 0.603466 0.024105
O O19 0.250000 0.250000 0.082167
O O20 0.153286 0.000000 0.396967
#
# Coordination Sequence:
#
# PCOD8172839 Si02
#       8
#     8   8   8   8   8   8   8   8
#     4   9  18  34  56  76  95 125 166 209 247 286
#     4  11  22  33  48  74 107 135 159 194 243 300
#     4   9  19  35  54  75  96 125 169 210 241 281
#     4  10  21  33  47  74 107 134 161 195 243 301
#     4   9  18  33  53  75  97 126 168 210 243 283
#     4  10  19  33  55  77  97 126 165 207 246 286
#     4   9  17  32  53  73  96 128 166 207 245 284
#     4   9  18  34  55  75  95 126 168 209 246 284
#
# _framework density 17.771122999999999
#
# number of rings (size 3 to 8) (size 9 to 14) (size 15 to 20)
#    0.000    2.500    0.000    4.875    0.000    5.250 
#    0.000    1.250    0.000    0.000    0.000    8.750 
#    0.000    0.000    0.000    0.000    0.000    0.000 
#
# Total GULP energy -396822.622976 kJ/mol
# GULP energy per Si atom -12400.706968 kJ/mol
# Density = 1.773067 g / cm^3
# Si number density = 17.771123 Si / 1000 Ang^3
#
#
#
# Elastic Constant Matrix: (Units=GPa)
#
#
# Indices 1 2 3 4 5 6 
#
# 1 108.9590 53.7401 36.2738 0.0000 0.0000 0.0000
# 2 53.7401 93.5278 33.9604 0.0000 0.0000 0.0000
# 3 36.2738 33.9604 126.3153 0.0000 0.0000 0.0000
# 4 0.0000 0.0000 0.0000 24.4721 0.0000 0.0000
# 5 0.0000 0.0000 0.0000 0.0000 8.3626 0.0000
# 6 0.0000 0.0000 0.0000 0.0000 0.0000 14.3454
#
#
#
# Elastic Compliance Matrix: (Units=1/GPa)
#
#
# Indices 1 2 3 4 5 6 
#
# 1 0.013225 -0.006893 -0.001945 0.000000 0.000000 0.000000
# 2 -0.006893 0.015441 -0.002172 0.000000 0.000000 0.000000
# 3 -0.001945 -0.002172 0.009059 0.000000 0.000000 0.000000
# 4 0.000000 0.000000 0.000000 0.040863 0.000000 0.000000
# 5 0.000000 0.000000 0.000000 0.000000 0.119580 0.000000
# 6 0.000000 0.000000 0.000000 0.000000 0.000000 0.069709
#
#
# Mechanical properties :
#
#
# Convention : Reuss Voigt Hill
#
# Bulk Modulus (GPa) = 63.66881 64.08342 63.87611
# Shear Modulus (GPa) = 16.94167 23.09122 20.01644
#
# Velocity S-wave (km/s) = 3.09095 3.60858 3.35975
# Velocity P-wave (km/s) = 6.97449 7.31445 7.14649
#
# Compressibility (1/GPa) = 0.01570628
#
# Stress axis : x y z
#
# Youngs Moduli (GPa) = 75.61596 64.76199 110.38636
#
# Poissons Ratio (x) = 0.44638 0.21466
# Poissons Ratio (y) = 0.52120 0.23977
# Poissons Ratio (z) = 0.14704 0.14067
#
# Static dielectric constant tensor:
#      x y z
#    x 2.905740 0.000000 0.000000 
#    y 0.000000 3.424910 0.000000 
#    z 0.000000 0.000000 3.357590 
# 
# 
# High freq. dielectric constant tensor:
#      x y z
#    x 1.652680 0.000000 0.000000 
#    y 0.000000 1.701800 0.000000 
#    z 0.000000 0.000000 1.691470 
# 
# From -- ./inp_files/16886.got.cif
#   From: 2010.03.12/outbox.cif.g09.slc.cpg/sg35_9_cif.got.tgz:16886.got - 2010.04.14 02:02:04.
