data_PCOD8172252
_publ_section_title
;
Structure prediction by ZEFSAII (Michael W. Deem and Ramdas Pophale) SiO2 
 PCOD8172252
Probable space group: C M M 2
;
_chemical_formula_sum "Si O2"
_cell_formula_units_Z 64
_cell_length_a 14.504123
_cell_length_b 28.317402
_cell_length_c 9.049519
_cell_angle_alpha 90.000000
_cell_angle_beta 90.000000
_cell_angle_gamma 90.000000
_cell_volume 3716.810133
_symmetry_space_group_name_H-M "C M M 2"
_symmetry_group_IT_number 35
_symmetry_cell_setting 'orthorhombic'
loop_
_space_group_symop_operation_xyz
x,y,z
-x,-y,z
-x,y,z
x,-y,z
1/2+x,1/2+y,z
1/2-x,1/2-y,z
1/2-x,1/2+y,z
1/2+x,1/2-y,z
loop_
_atom_site_type_symbol
_atom_site_label
_atom_site_fract_x
_atom_site_fract_y
_atom_site_fract_z
Si Si1 0.269004 0.363949 0.368780
Si Si2 0.227914 0.863327 0.718077
Si Si3 0.603337 0.178982 0.871611
Si Si4 0.393087 0.820161 0.215115
Si Si5 0.150392 0.766978 0.683938
Si Si6 0.898604 0.777053 0.362357
Si Si7 0.896945 0.947243 0.369915
Si Si8 0.103041 0.947346 0.721027
O O1 0.253766 0.366562 0.543687
O O2 0.169887 0.360900 0.288771
O O3 0.328937 0.318659 0.323379
O O4 0.322285 0.410224 0.307901
O O5 0.326923 0.857673 0.795554
O O6 0.161346 0.818969 0.755984
O O7 0.177168 0.909751 0.782500
O O8 0.500000 0.159295 0.848596
O O9 0.608550 0.231594 0.804021
O O10 0.628296 0.182843 0.042575
O O11 0.500000 0.832119 0.247733
O O12 0.363123 0.770653 0.286701
O O13 0.250000 0.750000 0.628634
O O14 0.088788 0.769015 0.537952
O O15 0.000000 0.790341 0.300970
O O16 0.898737 0.944029 0.545582
O O17 0.000000 0.935159 0.311037
O O18 0.868509 0.000000 0.318880
O O19 0.000000 0.935920 0.780869
O O20 0.132718 0.000000 0.771821
#
# Coordination Sequence:
#
# PCOD8172252 Si02
#       8
#     8   8   8   8   8   8   8   8
#     4  10  18  29  47  70  94 118 150 186 222 264
#     4   9  18  29  46  72  93 117 151 185 221 265
#     4  10  20  33  46  62  88 122 157 190 225 265
#     4  10  21  33  45  62  87 122 159 191 225 265
#     4   9  17  28  43  66  93 121 151 183 220 261
#     4  10  18  28  44  67  94 122 150 182 221 264
#     4   8  14  26  46  73 100 121 143 176 221 270
#     4   8  14  26  46  72  99 121 142 176 222 269
#
# _framework density 17.219068
#
# number of rings (size 3 to 8) (size 9 to 14) (size 15 to 20)
#    0.000    2.750    0.000    4.125    0.000    8.000 
#    0.000    0.000    0.000    3.000    0.000    7.000 
#    0.000    0.000    0.000    0.000    0.000    0.000 
#
# Total GULP energy -396682.228627 kJ/mol
# GULP energy per Si atom -12396.319645 kJ/mol
# Density = 1.717988 g / cm^3
# Si number density = 17.219068 Si / 1000 Ang^3
#
#
#
# Elastic Constant Matrix: (Units=GPa)
#
#
# Indices 1 2 3 4 5 6 
#
# 1 111.5919 75.5766 36.9727 0.0000 0.0000 0.0000
# 2 75.5766 126.5774 31.7856 0.0000 0.0000 0.0000
# 3 36.9727 31.7856 43.4901 0.0000 0.0000 0.0000
# 4 0.0000 0.0000 0.0000 3.1424 0.0000 0.0000
# 5 0.0000 0.0000 0.0000 0.0000 18.7125 0.0000
# 6 0.0000 0.0000 0.0000 0.0000 0.0000 28.8452
#
#
#
# Elastic Compliance Matrix: (Units=1/GPa)
#
#
# Indices 1 2 3 4 5 6 
#
# 1 0.017437 -0.008192 -0.008837 0.000000 0.000000 0.000000
# 2 -0.008192 0.013525 -0.002920 0.000000 0.000000 0.000000
# 3 -0.008837 -0.002920 0.032641 0.000000 0.000000 0.000000
# 4 0.000000 0.000000 0.000000 0.318225 0.000000 0.000000
# 5 0.000000 0.000000 0.000000 0.000000 0.053440 0.000000
# 6 0.000000 0.000000 0.000000 0.000000 0.000000 0.034668
#
#
# Mechanical properties :
#
#
# Convention : Reuss Voigt Hill
#
# Bulk Modulus (GPa) = 42.18668 63.36990 52.77829
# Shear Modulus (GPa) = 9.65742 19.29499 14.47621
#
# Velocity S-wave (km/s) = 2.37081 3.35111 2.90264
# Velocity P-wave (km/s) = 5.66105 7.20106 6.47699
#
# Compressibility (1/GPa) = 0.02370416
#
# Stress axis : x y z
#
# Youngs Moduli (GPa) = 57.34805 73.93603 30.63675
#
# Poissons Ratio (x) = 0.60572 0.27072
# Poissons Ratio (y) = 0.46982 0.08947
# Poissons Ratio (z) = 0.50676 0.21592
#
# Static dielectric constant tensor:
#      x y z
#    x 3.320050 0.000000 0.000000 
#    y 0.000000 3.351590 0.000000 
#    z 0.000000 0.000000 2.868810 
# 
# 
# High freq. dielectric constant tensor:
#      x y z
#    x 1.669060 0.000000 0.000000 
#    y 0.000000 1.648450 0.000000 
#    z 0.000000 0.000000 1.631550 
# 
# From -- ./inp_files/7987.got.cif
#   From: 2010.03.12/outbox.cif.g09.slc.cpg/sg35_4_cif.got.tgz:7987.got - 2010.04.14 02:02:04.
