data_PCOD8172602
_publ_section_title
;
Structure prediction by ZEFSAII (Michael W. Deem and Ramdas Pophale) SiO2 
 PCOD8172602
Probable space group: C M M 2
;
_chemical_formula_sum "Si O2"
_cell_formula_units_Z 56
_cell_length_a 14.435671
_cell_length_b 17.535188
_cell_length_c 12.825433
_cell_angle_alpha 90.000000
_cell_angle_beta 90.000000
_cell_angle_gamma 90.000000
_cell_volume 3246.530134
_symmetry_space_group_name_H-M "C M M 2"
_symmetry_group_IT_number 35
_symmetry_cell_setting 'orthorhombic'
loop_
_space_group_symop_operation_xyz
x,y,z
-x,-y,z
-x,y,z
x,-y,z
1/2+x,1/2+y,z
1/2-x,1/2-y,z
1/2-x,1/2+y,z
1/2+x,1/2-y,z
loop_
_atom_site_type_symbol
_atom_site_label
_atom_site_fract_x
_atom_site_fract_y
_atom_site_fract_z
Si Si1 0.722028 0.162877 0.989740
Si Si2 0.788771 0.409607 0.596383
Si Si3 0.898952 0.910175 0.920341
Si Si4 0.390876 0.912137 0.167166
Si Si5 0.102608 0.590274 0.401020
Si Si6 0.891369 0.411021 0.805620
Si Si7 0.398647 0.409172 0.685429
O O1 0.750000 0.250000 0.982872
O O2 0.818915 0.118175 0.996389
O O3 0.661136 0.139145 0.890645
O O4 0.664747 0.144874 0.093487
O O5 0.784459 0.500000 0.588008
O O6 0.828926 0.374822 0.488716
O O7 0.855324 0.386439 0.691886
O O8 0.684549 0.376835 0.613563
O O9 0.881177 0.879724 0.802957
O O10 0.000000 0.880881 0.959202
O O11 0.897932 0.000000 0.919643
O O12 0.500000 0.899890 0.150759
O O13 0.361596 0.890248 0.285108
O O14 0.365405 0.000000 0.141691
O O15 0.096342 0.500000 0.413704
O O16 0.000000 0.624774 0.418440
O O17 0.870182 0.500000 0.827677
O O18 0.000000 0.393780 0.812181
O O19 0.500000 0.380884 0.645249
O O20 0.396466 0.500000 0.685651
#
# Coordination Sequence:
#
# PCOD8172602 Si02
#       7
#     8   8   8   8   8   8   8
#     4  12  23  32  46  69 101 130 167 201 247 291
#     4   9  14  23  44  74 104 126 153 198 248 296
#     4   9  17  31  49  66  88 124 167 202 233 278
#     4   9  18  34  55  75  97 127 164 207 253 301
#     4   8  14  25  44  73 101 122 150 194 250 302
#     4  10  19  31  50  76 104 131 158 197 250 303
#     4   8  13  22  39  64  93 125 160 192 225 274
#
# _framework density 17.249186000000002
#
# number of rings (size 3 to 8) (size 9 to 14) (size 15 to 20)
#    0.000    2.714    1.429    3.857    0.000    4.000 
#    0.000    0.000    0.000    1.714    0.000    4.000 
#    0.000    0.000    0.000    0.000    0.000    0.000 
#
# Total GULP energy -347009.684117 kJ/mol
# GULP energy per Si atom -12393.203004 kJ/mol
# Density = 1.720993 g / cm^3
# Si number density = 17.249186 Si / 1000 Ang^3
#
#
#
# Elastic Constant Matrix: (Units=GPa)
#
#
# Indices 1 2 3 4 5 6 
#
# 1 132.9529 35.1168 70.6570 0.0000 0.0000 0.0000
# 2 35.1168 38.2897 35.6683 0.0000 0.0000 0.0000
# 3 70.6570 35.6683 119.9420 0.0000 0.0000 0.0000
# 4 0.0000 0.0000 0.0000 7.5556 0.0000 0.0000
# 5 0.0000 0.0000 0.0000 0.0000 29.5013 0.0000
# 6 0.0000 0.0000 0.0000 0.0000 0.0000 11.8771
#
#
#
# Elastic Compliance Matrix: (Units=1/GPa)
#
#
# Indices 1 2 3 4 5 6 
#
# 1 0.011885 -0.006055 -0.005200 0.000000 0.000000 0.000000
# 2 -0.006055 0.039209 -0.008093 0.000000 0.000000 0.000000
# 3 -0.005200 -0.008093 0.013807 0.000000 0.000000 0.000000
# 4 0.000000 0.000000 0.000000 0.132352 0.000000 0.000000
# 5 0.000000 0.000000 0.000000 0.000000 0.033897 0.000000
# 6 0.000000 0.000000 0.000000 0.000000 0.000000 0.084196
#
#
# Mechanical properties :
#
#
# Convention : Reuss Voigt Hill
#
# Bulk Modulus (GPa) = 38.16207 63.78541 50.97374
# Shear Modulus (GPa) = 13.78257 19.76963 16.77610
#
# Velocity S-wave (km/s) = 2.82977 3.38911 3.12199
# Velocity P-wave (km/s) = 5.73139 7.23698 6.52774
#
# Compressibility (1/GPa) = 0.02620403
#
# Stress axis : x y z
#
# Youngs Moduli (GPa) = 84.14268 25.50430 72.42452
#
# Poissons Ratio (x) = 0.15444 0.37663
# Poissons Ratio (y) = 0.50952 0.58611
# Poissons Ratio (z) = 0.43757 0.20640
#
# Static dielectric constant tensor:
#      x y z
#    x 3.388170 0.000000 0.000000 
#    y 0.000000 2.596780 0.000000 
#    z 0.000000 0.000000 3.290480 
# 
# 
# High freq. dielectric constant tensor:
#      x y z
#    x 1.682720 0.000000 0.000000 
#    y 0.000000 1.608500 0.000000 
#    z 0.000000 0.000000 1.651480 
# 
# From -- ./inp_files/13012.got.cif
#   From: 2010.03.12/outbox.cif.g09.slc.cpg/sg35_7_cif.got.tgz:13012.got - 2010.04.14 02:02:04.
