data_PCOD8172478
_publ_section_title
;
Structure prediction by ZEFSAII (Michael W. Deem and Ramdas Pophale) SiO2 
 PCOD8172478
Probable space group: C M M 2
;
_chemical_formula_sum "Si O2"
_cell_formula_units_Z 56
_cell_length_a 9.103837
_cell_length_b 23.285667
_cell_length_c 15.679744
_cell_angle_alpha 90.000000
_cell_angle_beta 90.000000
_cell_angle_gamma 90.000000
_cell_volume 3323.931946
_symmetry_space_group_name_H-M "C M M 2"
_symmetry_group_IT_number 35
_symmetry_cell_setting 'orthorhombic'
loop_
_space_group_symop_operation_xyz
x,y,z
-x,-y,z
-x,y,z
x,-y,z
1/2+x,1/2+y,z
1/2-x,1/2-y,z
1/2-x,1/2+y,z
1/2+x,1/2-y,z
loop_
_atom_site_type_symbol
_atom_site_label
_atom_site_fract_x
_atom_site_fract_y
_atom_site_fract_z
Si Si1 0.831094 0.808951 0.217070
Si Si2 0.325680 0.379627 0.562566
Si Si3 0.825405 0.500000 0.816252
Si Si4 0.675098 0.500000 0.632499
Si Si5 0.329925 0.390699 0.879829
Si Si6 0.668791 0.691736 0.720997
Si Si7 0.327067 0.311341 0.401265
Si Si8 0.827897 0.811068 0.032349
O O1 0.750000 0.750000 0.217919
O O2 0.792405 0.840040 0.307426
O O3 0.793088 0.839494 0.126532
O O4 0.000000 0.792962 0.217584
O O5 0.500000 0.379740 0.566109
O O6 0.271109 0.444588 0.578946
O O7 0.264250 0.337771 0.636319
O O8 0.267533 0.356376 0.471559
O O9 0.749726 0.500000 0.724305
O O10 0.773816 0.554605 0.870549
O O11 0.000000 0.500000 0.805711
O O12 0.500000 0.500000 0.647825
O O13 0.500000 0.409594 0.889374
O O14 0.308067 0.351348 0.798079
O O15 0.272650 0.356452 0.962777
O O16 0.500000 0.707123 0.706960
O O17 0.750000 0.750000 0.742830
O O18 0.500000 0.301089 0.413807
O O19 0.250000 0.250000 0.413247
O O20 0.750000 0.750000 0.019812
O O21 0.000000 0.799638 0.019630
#
# Coordination Sequence:
#
# PCOD8172478 Si02
#       8
#     8   8   4   4   8   8   8   8
#     4   8  14  25  42  66  97 126 154 189 227 274
#     4   9  17  29  48  68  88 122 162 194 229 278
#     4  12  24  36  52  73  92 116 160 209 244 271
#     4  10  18  36  56  65  86 124 166 199 234 287
#     4  10  20  35  52  67  92 130 162 189 232 288
#     4  10  19  30  45  67  93 122 153 187 231 280
#     4   9  16  27  44  69  98 125 154 190 233 278
#     4   9  17  29  48  73  99 129 160 192 235 282
#
# _framework density 16.847517
#
# number of rings (size 3 to 8) (size 9 to 14) (size 15 to 20)
#    0.000    2.571    1.429    1.500    0.000    1.143 
#    0.000    0.714    0.000    0.857    0.000    5.000 
#    0.000    1.143    0.000    0.000    0.000    0.000 
#
# Total GULP energy -346927.995297 kJ/mol
# GULP energy per Si atom -12390.285546 kJ/mol
# Density = 1.680917 g / cm^3
# Si number density = 16.847517 Si / 1000 Ang^3
#
#
#
# Elastic Constant Matrix: (Units=GPa)
#
#
# Indices 1 2 3 4 5 6 
#
# 1 38.0375 35.2128 31.9944 0.0000 0.0000 0.0000
# 2 35.2128 94.8618 53.9550 0.0000 0.0000 0.0000
# 3 31.9944 53.9550 158.4206 0.0000 0.0000 0.0000
# 4 0.0000 0.0000 0.0000 4.0644 0.0000 0.0000
# 5 0.0000 0.0000 0.0000 0.0000 13.9392 0.0000
# 6 0.0000 0.0000 0.0000 0.0000 0.0000 21.0240
#
#
#
# Elastic Compliance Matrix: (Units=1/GPa)
#
#
# Indices 1 2 3 4 5 6 
#
# 1 0.041937 -0.013332 -0.003929 0.000000 0.000000 0.000000
# 2 -0.013332 0.017313 -0.003204 0.000000 0.000000 0.000000
# 3 -0.003929 -0.003204 0.008197 0.000000 0.000000 0.000000
# 4 0.000000 0.000000 0.000000 0.246037 0.000000 0.000000
# 5 0.000000 0.000000 0.000000 0.000000 0.071740 0.000000
# 6 0.000000 0.000000 0.000000 0.000000 0.000000 0.047565
#
#
# Mechanical properties :
#
#
# Convention : Reuss Voigt Hill
#
# Bulk Modulus (GPa) = 37.71217 59.29380 48.50299
# Shear Modulus (GPa) = 10.36145 19.14937 14.75541
#
# Velocity S-wave (km/s) = 2.48264 3.37505 2.96264
# Velocity P-wave (km/s) = 5.53633 7.10343 6.36827
#
# Compressibility (1/GPa) = 0.02651664
#
# Stress axis : x y z
#
# Youngs Moduli (GPa) = 23.84544 57.76037 121.99699
#
# Poissons Ratio (x) = 0.77008 0.47929
# Poissons Ratio (y) = 0.31792 0.39086
# Poissons Ratio (z) = 0.09368 0.18506
#
# Static dielectric constant tensor:
#      x y z
#    x 3.284210 0.000000 0.000000 
#    y 0.000000 3.097720 0.000000 
#    z 0.000000 0.000000 3.914340 
# 
# 
# High freq. dielectric constant tensor:
#      x y z
#    x 1.629730 0.000000 0.000000 
#    y 0.000000 1.622360 0.000000 
#    z 0.000000 0.000000 1.668950 
# 
# From -- ./inp_files/15667.got.cif
#   From: 2010.03.12/outbox.cif.g09.slc.cpg/sg35_8_cif.got.tgz:15667.got - 2010.04.14 02:02:04.
