data_PCOD8172430
_publ_section_title
;
Structure prediction by ZEFSAII (Michael W. Deem and Ramdas Pophale) SiO2 
 PCOD8172430
Probable space group: C M M 2
;
_chemical_formula_sum "Si O2"
_cell_formula_units_Z 32
_cell_length_a 8.585170
_cell_length_b 14.878357
_cell_length_c 12.159829
_cell_angle_alpha 90.000000
_cell_angle_beta 90.000000
_cell_angle_gamma 90.000000
_cell_volume 1553.214163
_symmetry_space_group_name_H-M "C M M 2"
_symmetry_group_IT_number 35
_symmetry_cell_setting 'orthorhombic'
loop_
_space_group_symop_operation_xyz
x,y,z
-x,-y,z
-x,y,z
x,-y,z
1/2+x,1/2+y,z
1/2-x,1/2-y,z
1/2-x,1/2+y,z
1/2+x,1/2-y,z
loop_
_atom_site_type_symbol
_atom_site_label
_atom_site_fract_x
_atom_site_fract_y
_atom_site_fract_z
Si Si1 0.815781 0.650311 0.444520
Si Si2 0.318065 0.652205 0.666537
Si Si3 0.815909 0.150379 0.220426
Si Si4 0.320428 0.500000 0.838935
Si Si5 0.318471 0.000000 0.072479
O O1 0.750000 0.750000 0.450215
O O2 0.760268 0.605394 0.558648
O O3 0.744447 0.605391 0.334763
O O4 0.000000 0.647645 0.434875
O O5 0.500000 0.661543 0.642492
O O6 0.250000 0.750000 0.694046
O O7 0.282633 0.588755 0.769199
O O8 0.750000 0.250000 0.203597
O O9 0.760018 0.089274 0.120468
O O10 0.000000 0.155258 0.222300
O O11 0.500000 0.500000 0.877161
O O12 0.207166 0.500000 0.942425
O O13 0.500000 0.000000 0.100040
#
# Coordination Sequence:
#
# PCOD8172430 Si02
#       5
#     8   8   8   4   4
#     4  10  18  32  56  88 122 153 191 237 291 352
#     4  10  20  37  60  86 117 153 193 238 293 351
#     4  11  22  40  64  90 122 158 197 243 298 354
#     4  10  24  43  60  81 114 155 199 245 293 348
#     4  12  26  43  62  87 118 155 203 251 297 352
#
# _framework density 20.602440000000001
#
# number of rings (size 3 to 8) (size 9 to 14) (size 15 to 20)
#    0.000    1.500    0.000    9.375    0.000    4.000 
#    0.000    6.250    0.000    0.000    0.000    0.000 
#    0.000    0.000    0.000    0.000    0.000    0.000 
#
# Total GULP energy -198400.083569 kJ/mol
# GULP energy per Si atom -12400.005223 kJ/mol
# Density = 2.055555 g / cm^3
# Si number density = 20.602440 Si / 1000 Ang^3
#
#
#
# Elastic Constant Matrix: (Units=GPa)
#
#
# Indices 1 2 3 4 5 6 
#
# 1 194.4576 48.4247 68.2291 0.0000 0.0000 0.0000
# 2 48.4247 98.2590 55.0877 0.0000 0.0000 0.0000
# 3 68.2291 55.0877 144.8484 0.0000 0.0000 0.0000
# 4 0.0000 0.0000 0.0000 42.9231 0.0000 0.0000
# 5 0.0000 0.0000 0.0000 0.0000 39.8567 0.0000
# 6 0.0000 0.0000 0.0000 0.0000 0.0000 27.5834
#
#
#
# Elastic Compliance Matrix: (Units=1/GPa)
#
#
# Indices 1 2 3 4 5 6 
#
# 1 0.006419 -0.001866 -0.002314 0.000000 0.000000 0.000000
# 2 -0.001866 0.013478 -0.004247 0.000000 0.000000 0.000000
# 3 -0.002314 -0.004247 0.009609 0.000000 0.000000 0.000000
# 4 0.000000 0.000000 0.000000 0.023297 0.000000 0.000000
# 5 0.000000 0.000000 0.000000 0.000000 0.025090 0.000000
# 6 0.000000 0.000000 0.000000 0.000000 0.000000 0.036254
#
#
# Mechanical properties :
#
#
# Convention : Reuss Voigt Hill
#
# Bulk Modulus (GPa) = 79.03896 86.78313 82.91104
# Shear Modulus (GPa) = 36.97736 39.79418 38.38577
#
# Velocity S-wave (km/s) = 4.24111 4.39968 4.32112
# Velocity P-wave (km/s) = 7.90126 8.24765 8.07631
#
# Compressibility (1/GPa) = 0.01265199
#
# Stress axis : x y z
#
# Youngs Moduli (GPa) = 155.78441 74.19609 104.07154
#
# Poissons Ratio (x) = 0.13847 0.24081
# Poissons Ratio (y) = 0.29074 0.44196
# Poissons Ratio (z) = 0.36047 0.31509
#
# Static dielectric constant tensor:
#      x y z
#    x 3.825990 0.000000 0.000000 
#    y 0.000000 3.589680 0.000000 
#    z 0.000000 0.000000 4.187000 
# 
# 
# High freq. dielectric constant tensor:
#      x y z
#    x 1.822490 0.000000 0.000000 
#    y 0.000000 1.795660 0.000000 
#    z 0.000000 0.000000 1.813830 
# 
# From -- ./inp_files/10822.got.cif
#   From: 2010.03.12/outbox.cif.g09.slc.cpg/sg35_6_cif.got.tgz:10822.got - 2010.04.14 02:02:04.
