data_PCOD8172420
_publ_section_title
;
Structure prediction by ZEFSAII (Michael W. Deem and Ramdas Pophale) SiO2 
 PCOD8172420
Probable space group: C M M 2
;
_chemical_formula_sum "Si O2"
_cell_formula_units_Z 64
_cell_length_a 8.668061
_cell_length_b 18.790044
_cell_length_c 20.596221
_cell_angle_alpha 90.000000
_cell_angle_beta 90.000000
_cell_angle_gamma 90.000000
_cell_volume 3354.573402
_symmetry_space_group_name_H-M "C M M 2"
_symmetry_group_IT_number 35
_symmetry_cell_setting 'orthorhombic'
loop_
_space_group_symop_operation_xyz
x,y,z
-x,-y,z
-x,y,z
x,-y,z
1/2+x,1/2+y,z
1/2-x,1/2-y,z
1/2-x,1/2+y,z
1/2+x,1/2-y,z
loop_
_atom_site_type_symbol
_atom_site_label
_atom_site_fract_x
_atom_site_fract_y
_atom_site_fract_z
Si Si1 0.676994 0.916709 0.930370
Si Si2 0.319304 0.327583 0.302960
Si Si3 0.817191 0.671088 0.172464
Si Si4 0.180696 0.172417 0.041969
Si Si5 0.820114 0.081999 0.549809
Si Si6 0.182650 0.171793 0.672464
Si Si7 0.823006 0.416709 0.414558
Si Si8 0.679886 0.418001 0.795120
O O1 0.500000 0.895114 0.942041
O O2 0.725125 0.893769 0.858114
O O3 0.704727 0.000000 0.940084
O O4 0.785394 0.876764 0.980823
O O5 0.500000 0.319829 0.292208
O O6 0.250000 0.250000 0.315892
O O7 0.245338 0.364990 0.238649
O O8 0.285394 0.376764 0.364105
O O9 0.750000 0.750000 0.172465
O O10 0.754661 0.635010 0.106280
O O11 0.000000 0.670149 0.172464
O O12 0.250000 0.250000 0.029036
O O13 0.000000 0.180171 0.052721
O O14 0.759076 0.129760 0.609058
O O15 0.725125 0.106231 0.486815
O O16 0.000000 0.094467 0.535797
O O17 0.787640 0.000000 0.567586
O O18 0.250000 0.250000 0.672464
O O19 0.240924 0.129760 0.735870
O O20 0.000000 0.175315 0.672464
O O21 0.795273 0.500000 0.404845
O O22 0.000000 0.395115 0.402887
O O23 0.500000 0.405533 0.809131
O O24 0.712359 0.500000 0.777343
#
# Coordination Sequence:
#
# PCOD8172420 Si02
#       8
#     8   8   8   8   8   8   8   8
#     4  10  21  37  56  80 110 142 178 222 271 321
#     4  11  21  35  56  81 109 142 182 224 268 319
#     4  10  18  32  53  78 109 142 179 221 267 319
#     4  11  21  35  56  81 109 142 182 224 268 319
#     4   9  18  35  57  77 100 137 182 220 258 312
#     4  10  21  35  53  79 109 138 170 216 268 316
#     4  10  21  37  56  80 110 142 178 222 271 321
#     4   9  18  35  57  77 100 137 182 220 258 312
#
# _framework density 19.078431999999999
#
# number of rings (size 3 to 8) (size 9 to 14) (size 15 to 20)
#    0.000    2.000    0.000    6.000    0.000    5.000 
#    0.000    3.125    0.000    7.500    0.000    0.000 
#    0.000    0.000    0.000    0.000    0.000    0.000 
#
# Total GULP energy -396856.806396 kJ/mol
# GULP energy per Si atom -12401.775200 kJ/mol
# Density = 1.903501 g / cm^3
# Si number density = 19.078432 Si / 1000 Ang^3
#
#
#
# Elastic Constant Matrix: (Units=GPa)
#
#
# Indices 1 2 3 4 5 6 
#
# 1 118.4470 33.1367 54.7542 0.0000 0.0000 0.0000
# 2 33.1367 67.5351 66.7394 0.0000 0.0000 0.0000
# 3 54.7542 66.7394 155.1770 0.0000 0.0000 0.0000
# 4 0.0000 0.0000 0.0000 24.5814 0.0000 0.0000
# 5 0.0000 0.0000 0.0000 0.0000 35.0077 0.0000
# 6 0.0000 0.0000 0.0000 0.0000 0.0000 28.5301
#
#
#
# Elastic Compliance Matrix: (Units=1/GPa)
#
#
# Indices 1 2 3 4 5 6 
#
# 1 0.010335 -0.002552 -0.002549 0.000000 0.000000 0.000000
# 2 -0.002552 0.026382 -0.010446 0.000000 0.000000 0.000000
# 3 -0.002549 -0.010446 0.011837 0.000000 0.000000 0.000000
# 4 0.000000 0.000000 0.000000 0.040681 0.000000 0.000000
# 5 0.000000 0.000000 0.000000 0.000000 0.028565 0.000000
# 6 0.000000 0.000000 0.000000 0.000000 0.000000 0.035051
#
#
# Mechanical properties :
#
#
# Convention : Reuss Voigt Hill
#
# Bulk Modulus (GPa) = 57.27597 72.26884 64.77240
# Shear Modulus (GPa) = 26.34835 30.05908 28.20372
#
# Velocity S-wave (km/s) = 3.72029 3.97363 3.84904
# Velocity P-wave (km/s) = 6.96710 7.68213 7.33333
#
# Compressibility (1/GPa) = 0.01745933
#
# Stress axis : x y z
#
# Youngs Moduli (GPa) = 96.75969 37.90405 84.48411
#
# Poissons Ratio (x) = 0.09672 0.21537
# Poissons Ratio (y) = 0.24691 0.88255
# Poissons Ratio (z) = 0.24666 0.39596
#
# Static dielectric constant tensor:
#      x y z
#    x 3.496690 0.000000 0.000000 
#    y 0.000000 3.156160 0.000000 
#    z 0.000000 0.000000 3.953510 
# 
# 
# High freq. dielectric constant tensor:
#      x y z
#    x 1.748660 0.000000 0.000000 
#    y 0.000000 1.716360 0.000000 
#    z 0.000000 0.000000 1.761600 
# 
# From -- ./inp_files/18389.got.cif
#   From: 2010.03.12/outbox.cif.g09.slc.cpg/sg35_10_cif.got.tgz:18389.got - 2010.04.14 02:02:04.
