data_PCOD8172443
_publ_section_title
;
Structure prediction by ZEFSAII (Michael W. Deem and Ramdas Pophale) SiO2 
 PCOD8172443
Probable space group: C M M 2
;
_chemical_formula_sum "Si O2"
_cell_formula_units_Z 64
_cell_length_a 20.671083
_cell_length_b 16.602997
_cell_length_c 9.876639
_cell_angle_alpha 90.000000
_cell_angle_beta 90.000000
_cell_angle_gamma 90.000000
_cell_volume 3389.681557
_symmetry_space_group_name_H-M "C M M 2"
_symmetry_group_IT_number 35
_symmetry_cell_setting 'orthorhombic'
loop_
_space_group_symop_operation_xyz
x,y,z
-x,-y,z
-x,y,z
x,-y,z
1/2+x,1/2+y,z
1/2-x,1/2-y,z
1/2-x,1/2+y,z
1/2+x,1/2-y,z
loop_
_atom_site_type_symbol
_atom_site_label
_atom_site_fract_x
_atom_site_fract_y
_atom_site_fract_z
Si Si1 0.198672 0.678268 0.083650
Si Si2 0.865186 0.907188 0.951994
Si Si3 0.799837 0.677269 0.548793
Si Si4 0.722852 0.905379 0.835118
Si Si5 0.573333 0.728470 0.487810
Si Si6 0.376886 0.693467 0.216819
Si Si7 0.925094 0.087987 0.677795
Si Si8 0.736766 0.591667 0.312577
O O1 0.250000 0.750000 0.060320
O O2 0.138967 0.717085 0.163489
O O3 0.226740 0.604229 0.170404
O O4 0.175023 0.638734 0.941982
O O5 0.793287 0.886012 0.900084
O O6 0.912438 0.881661 0.830267
O O7 0.871229 0.000000 0.990086
O O8 0.890212 0.861667 0.086150
O O9 0.750000 0.750000 0.531575
O O10 0.788795 0.636911 0.693388
O O11 0.874870 0.701749 0.522980
O O12 0.783712 0.609907 0.437573
O O13 0.709509 0.000000 0.821018
O O14 0.500000 0.751996 0.535685
O O15 0.566697 0.706524 0.327442
O O16 0.601315 0.651208 0.569450
O O17 0.321748 0.654962 0.312280
O O18 0.000000 0.076804 0.654077
O O19 0.890549 0.000000 0.657005
O O20 0.711909 0.500000 0.320012
#
# Coordination Sequence:
#
# PCOD8172443 Si02
#       8
#     8   8   8   8   8   8   8   8
#     4  10  18  33  53  80 116 151 179 233 295 353
#     4  10  20  33  54  85 119 152 191 238 292 352
#     4  12  22  38  59  88 117 153 197 250 302 353
#     4  11  22  34  54  88 118 146 190 242 303 363
#     4  11  24  41  60  85 120 159 206 250 293 355
#     4  11  21  36  55  85 118 156 190 234 297 351
#     4   9  20  38  55  75 110 155 196 235 283 339
#     4  11  20  34  56  85 120 153 190 239 295 352
#
# _framework density 18.880828999999999
#
# number of rings (size 3 to 8) (size 9 to 14) (size 15 to 20)
#    0.000    1.375    5.000    2.625    1.750    1.500 
#    0.000    0.000    0.000    1.500    0.000    0.000 
#    0.000    0.000    0.000    0.000    0.000    0.000 
#
# Total GULP energy -396539.681582 kJ/mol
# GULP energy per Si atom -12391.865049 kJ/mol
# Density = 1.883786 g / cm^3
# Si number density = 18.880829 Si / 1000 Ang^3
#
#
#
# Elastic Constant Matrix: (Units=GPa)
#
#
# Indices 1 2 3 4 5 6 
#
# 1 31.2747 12.0438 8.2771 0.0000 0.0000 0.0000
# 2 12.0438 70.7546 32.1159 0.0000 0.0000 0.0000
# 3 8.2771 32.1159 122.0255 0.0000 0.0000 0.0000
# 4 0.0000 0.0000 0.0000 25.5206 0.0000 0.0000
# 5 0.0000 0.0000 0.0000 0.0000 20.7524 0.0000
# 6 0.0000 0.0000 0.0000 0.0000 0.0000 7.3829
#
#
#
# Elastic Compliance Matrix: (Units=1/GPa)
#
#
# Indices 1 2 3 4 5 6 
#
# 1 0.034304 -0.005432 -0.000897 0.000000 0.000000 0.000000
# 2 -0.005432 0.016911 -0.004082 0.000000 0.000000 0.000000
# 3 -0.000897 -0.004082 0.009330 0.000000 0.000000 0.000000
# 4 0.000000 0.000000 0.000000 0.039184 0.000000 0.000000
# 5 0.000000 0.000000 0.000000 0.000000 0.048187 0.000000
# 6 0.000000 0.000000 0.000000 0.000000 0.000000 0.135449
#
#
# Mechanical properties :
#
#
# Convention : Reuss Voigt Hill
#
# Bulk Modulus (GPa) = 25.17483 36.54761 30.86122
# Shear Modulus (GPa) = 15.75155 22.17238 18.96196
#
# Velocity S-wave (km/s) = 2.89149 3.43057 3.17250
# Velocity P-wave (km/s) = 4.95077 5.92375 5.45898
#
# Compressibility (1/GPa) = 0.03972221
#
# Stress axis : x y z
#
# Youngs Moduli (GPa) = 29.15114 59.13322 107.17763
#
# Poissons Ratio (x) = 0.32121 0.09616
# Poissons Ratio (y) = 0.15835 0.43754
# Poissons Ratio (z) = 0.02616 0.24140
#
# Static dielectric constant tensor:
#      x y z
#    x 3.144210 0.000000 0.000000 
#    y 0.000000 3.633200 0.000000 
#    z 0.000000 0.000000 3.767890 
# 
# 
# High freq. dielectric constant tensor:
#      x y z
#    x 1.684140 0.000000 0.000000 
#    y 0.000000 1.727440 0.000000 
#    z 0.000000 0.000000 1.760510 
# 
# From -- ./inp_files/8782.got.cif
#   From: 2010.03.12/outbox.cif.g09.slc.cpg/sg35_5_cif.got.tgz:8782.got - 2010.04.14 02:02:04.
