data_PCOD8172024
_publ_section_title
;
Structure prediction by ZEFSAII (Michael W. Deem and Ramdas Pophale) SiO2 
 PCOD8172024
Probable space group: P N N 2
;
_chemical_formula_sum "Si O2"
_cell_formula_units_Z 26
_cell_length_a 11.198121
_cell_length_b 12.102312
_cell_length_c 8.974650
_cell_angle_alpha 90.000000
_cell_angle_beta 90.000000
_cell_angle_gamma 90.000000
_cell_volume 1216.272875
_symmetry_space_group_name_H-M "P N N 2"
_symmetry_group_IT_number 34
_symmetry_cell_setting 'orthorhombic'
loop_
_space_group_symop_operation_xyz
x,y,z
-x,-y,z
1/2-x,1/2+y,1/2+z
1/2+x,1/2-y,1/2+z
loop_
_atom_site_type_symbol
_atom_site_label
_atom_site_fract_x
_atom_site_fract_y
_atom_site_fract_z
Si Si1 0.755705 0.032968 0.895780
Si Si2 0.484226 0.129005 0.381260
Si Si3 0.618310 0.819038 0.860106
Si Si4 0.916782 0.605676 0.170683
Si Si5 0.734572 0.762725 0.552026
Si Si6 0.996813 0.788988 0.611705
Si Si7 0.000000 0.000000 0.791100
O O1 0.715233 0.078372 0.731207
O O2 0.884710 0.974098 0.891382
O O3 0.662017 0.935446 0.933251
O O4 0.763686 0.131962 0.014384
O O5 0.581647 0.166570 0.509335
O O6 0.352864 0.166231 0.444535
O O7 0.515093 0.189847 0.229326
O O8 0.500000 0.000000 0.343668
O O9 0.482352 0.827647 0.801241
O O10 0.701435 0.776158 0.726565
O O11 0.603878 0.733447 0.995106
O O12 0.000000 0.500000 0.135228
O O13 0.868486 0.809179 0.533429
O O14 0.040072 0.897511 0.693474
#
# Coordination Sequence:
#
# PCOD8172024 Si02
#       7
#     4   4   4   4   4   4   2
#     4  11  21  43  69  96 139 182 232 289 360 425
#     4  10  23  41  67 101 133 176 237 286 346 419
#     4  10  22  41  70 100 132 183 228 290 350 423
#     4   8  17  36  67  93 127 174 224 275 339 409
#     4  11  23  44  67 103 137 179 235 290 349 438
#     4  12  25  44  68 100 139 181 233 291 359 422
#     4  12  26  44  62  98 146 182 222 292 374 418
#
# _framework density 21.376781999999999
#
# number of rings (size 3 to 8) (size 9 to 14) (size 15 to 20)
#    0.000    1.538    4.615    0.923    2.154    1.231 
#    0.000    2.308    0.000    0.000    0.000    0.000 
#    0.000    0.000    0.000    0.000    0.000    0.000 
#
# Total GULP energy -322139.866378 kJ/mol
# GULP energy per Si atom -12389.994861 kJ/mol
# Density = 2.132813 g / cm^3
# Si number density = 21.376782 Si / 1000 Ang^3
#
#
#
# Elastic Constant Matrix: (Units=GPa)
#
#
# Indices 1 2 3 4 5 6 
#
# 1 88.1342 8.0078 15.3146 0.0000 0.0000 0.0000
# 2 8.0078 103.9583 31.2437 0.0000 0.0000 0.0000
# 3 15.3146 31.2437 63.5016 0.0000 0.0000 0.0000
# 4 0.0000 0.0000 0.0000 76.1279 0.0000 0.0000
# 5 0.0000 0.0000 0.0000 0.0000 36.4120 0.0000
# 6 0.0000 0.0000 0.0000 0.0000 0.0000 27.8474
#
#
#
# Elastic Compliance Matrix: (Units=1/GPa)
#
#
# Indices 1 2 3 4 5 6 
#
# 1 0.011843 -0.000063 -0.002825 0.000000 0.000000 0.000000
# 2 -0.000063 0.011289 -0.005539 0.000000 0.000000 0.000000
# 3 -0.002825 -0.005539 0.019154 0.000000 0.000000 0.000000
# 4 0.000000 0.000000 0.000000 0.013136 0.000000 0.000000
# 5 0.000000 0.000000 0.000000 0.000000 0.027463 0.000000
# 6 0.000000 0.000000 0.000000 0.000000 0.000000 0.035910
#
#
# Mechanical properties :
#
#
# Convention : Reuss Voigt Hill
#
# Bulk Modulus (GPa) = 39.32141 40.52517 39.92329
# Shear Modulus (GPa) = 34.69163 41.47932 38.08547
#
# Velocity S-wave (km/s) = 4.03285 4.40977 4.22551
# Velocity P-wave (km/s) = 6.33400 6.70274 6.52098
#
# Compressibility (1/GPa) = 0.02543144
#
# Stress axis : x y z
#
# Youngs Moduli (GPa) = 84.43828 88.58331 52.20778
#
# Poissons Ratio (x) = 0.00560 0.14749
# Poissons Ratio (y) = 0.00534 0.28918
# Poissons Ratio (z) = 0.23854 0.49066
#
# Static dielectric constant tensor:
#      x y z
#    x 3.628870 0.000000 0.000000 
#    y 0.000000 3.389150 0.000000 
#    z 0.000000 0.000000 3.856720 
# 
# 
# High freq. dielectric constant tensor:
#      x y z
#    x 1.842350 0.000000 0.000000 
#    y 0.000000 1.826600 0.000000 
#    z 0.000000 0.000000 1.829630 
# 
# From -- ./inp_files/3189.got.cif
#   From: 2010.03.12/outbox.cif.g09.slc.cpg/sg34_2_cif.got.tgz:3189.got - 2010.04.14 01:56:33.
