data_PCOD8172671
_publ_section_title
;
Structure prediction by ZEFSAII (Michael W. Deem and Ramdas Pophale) SiO2 
 PCOD8172671
Probable space group: C M M 2
;
_chemical_formula_sum "Si O2"
_cell_formula_units_Z 56
_cell_length_a 27.303129
_cell_length_b 21.645528
_cell_length_c 5.151006
_cell_angle_alpha 90.000000
_cell_angle_beta 90.000000
_cell_angle_gamma 90.000000
_cell_volume 3044.196349
_symmetry_space_group_name_H-M "C M M 2"
_symmetry_group_IT_number 35
_symmetry_cell_setting 'orthorhombic'
loop_
_space_group_symop_operation_xyz
x,y,z
-x,-y,z
-x,y,z
x,-y,z
1/2+x,1/2+y,z
1/2-x,1/2-y,z
1/2-x,1/2+y,z
1/2+x,1/2-y,z
loop_
_atom_site_type_symbol
_atom_site_label
_atom_site_fract_x
_atom_site_fract_y
_atom_site_fract_z
Si Si1 0.116269 0.068895 0.530880
Si Si2 0.330889 0.610189 0.031798
Si Si3 0.134333 0.367405 0.156778
Si Si4 0.277032 0.929229 0.973771
Si Si5 0.390208 0.269818 0.020998
Si Si6 0.868185 0.569655 0.660938
Si Si7 0.443113 0.311207 0.516024
O O1 0.157965 0.081733 0.314606
O O2 0.071586 0.116715 0.509550
O O3 0.095166 0.000000 0.492681
O O4 0.138905 0.073084 0.816601
O O5 0.274467 0.605122 0.951762
O O6 0.345511 0.682101 0.036025
O O7 0.190668 0.391142 0.182615
O O8 0.132989 0.296031 0.083469
O O9 0.111814 0.384685 0.436009
O O10 0.106850 0.406252 0.928929
O O11 0.269343 0.000000 0.065596
O O12 0.308638 0.927510 0.704178
O O13 0.431775 0.283233 0.234339
O O14 0.413946 0.273021 0.735554
O O15 0.885129 0.500000 0.599056
O O16 0.500000 0.305741 0.576657
#
# Coordination Sequence:
#
# PCOD8172671 Si02
#       7
#     8   8   8   8   8   8   8
#     4  10  20  34  52  77 104 137 179 221 265 307
#     4  10  21  33  50  73 108 148 180 215 254 296
#     4  10  19  32  51  73 107 140 174 217 255 301
#     4   9  19  31  50  74 104 142 181 215 246 291
#     4  10  21  37  54  77 108 137 174 215 266 319
#     4   9  18  31  48  75 104 134 178 220 251 290
#     4  10  21  38  58  78 102 133 170 221 272 324
#
# _framework density 18.395658999999998
#
# number of rings (size 3 to 8) (size 9 to 14) (size 15 to 20)
#    0.857    1.429    0.000    3.429    2.000    0.857 
#    0.000    0.000    3.143    5.143    0.000    0.000 
#    0.000   66.286    0.000    0.000    0.000    0.000 
#
# Total GULP energy -346950.164324 kJ/mol
# GULP energy per Si atom -12391.077297 kJ/mol
# Density = 1.835379 g / cm^3
# Si number density = 18.395659 Si / 1000 Ang^3
#
#
#
# Elastic Constant Matrix: (Units=GPa)
#
#
# Indices 1 2 3 4 5 6 
#
# 1 33.4354 18.9475 7.2293 0.0000 0.0000 0.0000
# 2 18.9475 123.1372 37.0232 0.0000 0.0000 0.0000
# 3 7.2293 37.0232 103.9055 0.0000 0.0000 0.0000
# 4 0.0000 0.0000 0.0000 22.8010 0.0000 0.0000
# 5 0.0000 0.0000 0.0000 0.0000 14.3449 0.0000
# 6 0.0000 0.0000 0.0000 0.0000 0.0000 7.2265
#
#
#
# Elastic Compliance Matrix: (Units=1/GPa)
#
#
# Indices 1 2 3 4 5 6 
#
# 1 0.032793 -0.004883 -0.000542 0.000000 0.000000 0.000000
# 2 -0.004883 0.009823 -0.003160 0.000000 0.000000 0.000000
# 3 -0.000542 -0.003160 0.010788 0.000000 0.000000 0.000000
# 4 0.000000 0.000000 0.000000 0.043858 0.000000 0.000000
# 5 0.000000 0.000000 0.000000 0.000000 0.069711 0.000000
# 6 0.000000 0.000000 0.000000 0.000000 0.000000 0.138380
#
#
# Mechanical properties :
#
#
# Convention : Reuss Voigt Hill
#
# Bulk Modulus (GPa) = 27.59895 42.98648 35.29272
# Shear Modulus (GPa) = 14.94323 22.02635 18.48479
#
# Velocity S-wave (km/s) = 2.85322 3.46405 3.17337
# Velocity P-wave (km/s) = 5.08823 6.27838 5.71437
#
# Compressibility (1/GPa) = 0.03623326
#
# Stress axis : x y z
#
# Youngs Moduli (GPa) = 30.49460 101.80643 92.69695
#
# Poissons Ratio (x) = 0.49713 0.05021
# Poissons Ratio (y) = 0.14891 0.29294
# Poissons Ratio (z) = 0.01652 0.32173
#
# Static dielectric constant tensor:
#      x y z
#    x 2.888410 0.000000 0.000000 
#    y 0.000000 3.390080 0.000000 
#    z 0.000000 0.000000 3.527900 
# 
# 
# High freq. dielectric constant tensor:
#      x y z
#    x 1.662260 0.000000 0.000000 
#    y 0.000000 1.718290 0.000000 
#    z 0.000000 0.000000 1.728930 
# 
# From -- ./inp_files/3421.got.cif
#   From: 2010.03.12/outbox.cif.g09.slc.cpg/sg35_2_cif.got.tgz:3421.got - 2010.04.14 02:02:04.
