data_PCOD8172805
_publ_section_title
;
Structure prediction by ZEFSAII (Michael W. Deem and Ramdas Pophale) SiO2 
 PCOD8172805
Probable space group: C M M 2
;
_chemical_formula_sum "Si O2"
_cell_formula_units_Z 40
_cell_length_a 7.689876
_cell_length_b 18.937877
_cell_length_c 14.508108
_cell_angle_alpha 90.000000
_cell_angle_beta 90.000000
_cell_angle_gamma 90.000000
_cell_volume 2112.814692
_symmetry_space_group_name_H-M "C M M 2"
_symmetry_group_IT_number 35
_symmetry_cell_setting 'orthorhombic'
loop_
_space_group_symop_operation_xyz
x,y,z
-x,-y,z
-x,y,z
x,-y,z
1/2+x,1/2+y,z
1/2-x,1/2-y,z
1/2-x,1/2+y,z
1/2+x,1/2-y,z
loop_
_atom_site_type_symbol
_atom_site_label
_atom_site_fract_x
_atom_site_fract_y
_atom_site_fract_z
Si Si1 0.793955 0.579400 0.282660
Si Si2 0.500000 0.916019 0.605194
Si Si3 0.704115 0.827897 0.114299
Si Si4 0.000000 0.415493 0.815619
Si Si5 0.803320 0.169405 0.910343
Si Si6 0.807675 0.916381 0.480196
O O1 0.724369 0.500000 0.271480
O O2 0.724180 0.621543 0.194381
O O3 0.722121 0.613944 0.377215
O O4 0.000000 0.581891 0.287549
O O5 0.500000 0.890184 0.709886
O O6 0.669932 0.885140 0.553141
O O7 0.500000 0.000000 0.602255
O O8 0.500000 0.837266 0.096960
O O9 0.750000 0.750000 0.147997
O O10 0.800491 0.845805 0.019335
O O11 0.825711 0.384745 0.860752
O O12 0.000000 0.500000 0.826748
O O13 0.750000 0.250000 0.889685
O O14 0.000000 0.156403 0.874693
O O15 0.000000 0.895596 0.514841
O O16 0.781761 0.000000 0.474340
#
# Coordination Sequence:
#
# PCOD8172805 Si02
#       6
#     8   4   8   4   8   8
#     4   9  17  30  50  77 108 145 185 227 276 328
#     4   9  18  34  53  77 115 148 179 234 296 343
#     4  10  19  33  53  81 110 150 192 231 274 343
#     4  11  24  40  61  95 124 146 195 268 311 337
#     4  11  21  40  65  86 114 162 207 237 291 373
#     4   9  16  28  50  77 106 145 187 222 273 347
#
# _framework density 18.932091
#
# number of rings (size 3 to 8) (size 9 to 14) (size 15 to 20)
#    0.000    2.200    3.000    1.800    0.000    3.600 
#    0.000    2.000    0.000    1.200    0.000    0.000 
#    0.000    0.000    0.000    0.000    0.000    0.000 
#
# Total GULP energy -247965.406339 kJ/mol
# GULP energy per Si atom -12398.270317 kJ/mol
# Density = 1.888900 g / cm^3
# Si number density = 18.932091 Si / 1000 Ang^3
#
#
#
# Elastic Constant Matrix: (Units=GPa)
#
#
# Indices 1 2 3 4 5 6 
#
# 1 132.9021 35.8187 57.1573 0.0000 0.0000 0.0000
# 2 35.8187 65.9024 58.6783 0.0000 0.0000 0.0000
# 3 57.1573 58.6783 129.0407 0.0000 0.0000 0.0000
# 4 0.0000 0.0000 0.0000 3.4639 0.0000 0.0000
# 5 0.0000 0.0000 0.0000 0.0000 16.0256 0.0000
# 6 0.0000 0.0000 0.0000 0.0000 0.0000 21.7064
#
#
#
# Elastic Compliance Matrix: (Units=1/GPa)
#
#
# Indices 1 2 3 4 5 6 
#
# 1 0.009513 -0.002384 -0.003130 0.000000 0.000000 0.000000
# 2 -0.002384 0.026095 -0.010810 0.000000 0.000000 0.000000
# 3 -0.003130 -0.010810 0.014051 0.000000 0.000000 0.000000
# 4 0.000000 0.000000 0.000000 0.288695 0.000000 0.000000
# 5 0.000000 0.000000 0.000000 0.000000 0.062400 0.000000
# 6 0.000000 0.000000 0.000000 0.000000 0.000000 0.046069
#
#
# Mechanical properties :
#
#
# Convention : Reuss Voigt Hill
#
# Bulk Modulus (GPa) = 58.78247 70.12820 64.45534
# Shear Modulus (GPa) = 10.30627 19.98523 15.14575
#
# Velocity S-wave (km/s) = 2.33573 3.25257 2.83150
# Velocity P-wave (km/s) = 6.19602 7.15737 6.69398
#
# Compressibility (1/GPa) = 0.01701187
#
# Stress axis : x y z
#
# Youngs Moduli (GPa) = 105.12222 38.32199 71.16733
#
# Poissons Ratio (x) = 0.09135 0.22273
# Poissons Ratio (y) = 0.25058 0.76933
# Poissons Ratio (z) = 0.32899 0.41427
#
# Static dielectric constant tensor:
#      x y z
#    x 3.553920 0.000000 0.000000 
#    y 0.000000 4.215800 0.000000 
#    z 0.000000 0.000000 3.595210 
# 
# 
# High freq. dielectric constant tensor:
#      x y z
#    x 1.748650 0.000000 0.000000 
#    y 0.000000 1.692010 0.000000 
#    z 0.000000 0.000000 1.736740 
# 
# From -- ./inp_files/14763.got.cif
#   From: 2010.03.12/outbox.cif.g09.slc.cpg/sg35_8_cif.got.tgz:14763.got - 2010.04.14 02:02:04.
