data_PCOD8172765
_publ_section_title
;
Structure prediction by ZEFSAII (Michael W. Deem and Ramdas Pophale) SiO2 
 PCOD8172765
Probable space group: C M M 2
;
_chemical_formula_sum "Si O2"
_cell_formula_units_Z 48
_cell_length_a 28.102001
_cell_length_b 8.677185
_cell_length_c 10.293097
_cell_angle_alpha 90.000000
_cell_angle_beta 90.000000
_cell_angle_gamma 90.000000
_cell_volume 2509.933223
_symmetry_space_group_name_H-M "C M M 2"
_symmetry_group_IT_number 35
_symmetry_cell_setting 'orthorhombic'
loop_
_space_group_symop_operation_xyz
x,y,z
-x,-y,z
-x,y,z
x,-y,z
1/2+x,1/2+y,z
1/2-x,1/2-y,z
1/2-x,1/2+y,z
1/2+x,1/2-y,z
loop_
_atom_site_type_symbol
_atom_site_label
_atom_site_fract_x
_atom_site_fract_y
_atom_site_fract_z
Si Si1 0.101508 0.678997 0.153770
Si Si2 0.798436 0.321193 0.045686
Si Si3 0.891731 0.680932 0.669686
Si Si4 0.700360 0.318403 0.766268
Si Si5 0.555740 0.323053 0.906885
Si Si6 0.053462 0.317141 0.417819
O O1 0.088776 0.500000 0.130866
O O2 0.158420 0.705197 0.145918
O O3 0.083921 0.737280 0.293840
O O4 0.074345 0.779922 0.048488
O O5 0.789783 0.500000 0.016399
O O6 0.750000 0.250000 0.105452
O O7 0.811838 0.240510 0.910519
O O8 0.882902 0.500000 0.658345
O O9 0.840852 0.764683 0.668913
O O10 0.920233 0.714586 0.800805
O O11 0.921303 0.746334 0.547429
O O12 0.703914 0.500000 0.768410
O O13 0.750000 0.250000 0.715513
O O14 0.500000 0.293561 0.902416
O O15 0.568877 0.500000 0.877113
O O16 0.051142 0.500000 0.423738
O O17 0.000000 0.248943 0.409576
#
# Coordination Sequence:
#
# PCOD8172765 Si02
#       6
#     8   8   8   8   8   8
#     4  10  20  36  59  84 111 146 191 235 284 342
#     4  10  19  32  54  84 114 147 185 229 282 339
#     4  11  21  36  58  84 113 149 193 237 285 340
#     4  11  21  35  57  84 116 149 186 234 285 341
#     4  11  23  36  53  81 114 146 187 239 290 340
#     4   9  19  36  58  83 112 150 194 238 283 336
#
# _framework density 19.124013999999999
#
# number of rings (size 3 to 8) (size 9 to 14) (size 15 to 20)
#    0.000    1.667    1.667    5.000    0.000    3.333 
#    0.000    2.500    0.000    6.000    0.000    0.000 
#    0.000    0.000    0.000    0.000    0.000    0.000 
#
# Total GULP energy -297680.689762 kJ/mol
# GULP energy per Si atom -12403.362073 kJ/mol
# Density = 1.908049 g / cm^3
# Si number density = 19.124014 Si / 1000 Ang^3
#
#
#
# Elastic Constant Matrix: (Units=GPa)
#
#
# Indices 1 2 3 4 5 6 
#
# 1 157.7606 50.7904 68.1254 0.0000 0.0000 0.0000
# 2 50.7904 90.8879 24.2621 0.0000 0.0000 0.0000
# 3 68.1254 24.2621 111.4397 0.0000 0.0000 0.0000
# 4 0.0000 0.0000 0.0000 12.7873 0.0000 0.0000
# 5 0.0000 0.0000 0.0000 0.0000 37.1784 0.0000
# 6 0.0000 0.0000 0.0000 0.0000 0.0000 31.0066
#
#
#
# Elastic Compliance Matrix: (Units=1/GPa)
#
#
# Indices 1 2 3 4 5 6 
#
# 1 0.009900 -0.004158 -0.005147 0.000000 0.000000 0.000000
# 2 -0.004158 0.013428 -0.000381 0.000000 0.000000 0.000000
# 3 -0.005147 -0.000381 0.012203 0.000000 0.000000 0.000000
# 4 0.000000 0.000000 0.000000 0.078203 0.000000 0.000000
# 5 0.000000 0.000000 0.000000 0.000000 0.026897 0.000000
# 6 0.000000 0.000000 0.000000 0.000000 0.000000 0.032251
#
#
# Mechanical properties :
#
#
# Convention : Reuss Voigt Hill
#
# Bulk Modulus (GPa) = 61.88921 71.82712 66.85816
# Shear Modulus (GPa) = 25.29836 30.65516 27.97676
#
# Velocity S-wave (km/s) = 3.64106 4.00805 3.82895
# Velocity P-wave (km/s) = 7.07875 7.68501 7.38810
#
# Compressibility (1/GPa) = 0.01615791
#
# Stress axis : x y z
#
# Youngs Moduli (GPa) = 101.00977 74.47000 81.94845
#
# Poissons Ratio (x) = 0.30968 0.42177
# Poissons Ratio (y) = 0.42005 0.03125
# Poissons Ratio (z) = 0.51987 0.02840
#
# Static dielectric constant tensor:
#      x y z
#    x 3.785300 0.000000 0.000000 
#    y 0.000000 3.409730 0.000000 
#    z 0.000000 0.000000 3.391400 
# 
# 
# High freq. dielectric constant tensor:
#      x y z
#    x 1.764840 0.000000 0.000000 
#    y 0.000000 1.736890 0.000000 
#    z 0.000000 0.000000 1.722000 
# 
# From -- ./inp_files/10481.got.cif
#   From: 2010.03.12/outbox.cif.g09.slc.cpg/sg35_6_cif.got.tgz:10481.got - 2010.04.14 02:02:04.
