data_PCOD8172029
_publ_section_title
;
Structure prediction by ZEFSAII (Michael W. Deem and Ramdas Pophale) SiO2 
 PCOD8172029
Probable space group: P N N 2
;
_chemical_formula_sum "Si O2"
_cell_formula_units_Z 20
_cell_length_a 9.458399
_cell_length_b 11.045385
_cell_length_c 9.498832
_cell_angle_alpha 90.000000
_cell_angle_beta 90.000000
_cell_angle_gamma 90.000000
_cell_volume 992.358732
_symmetry_space_group_name_H-M "P N N 2"
_symmetry_group_IT_number 34
_symmetry_cell_setting 'orthorhombic'
loop_
_space_group_symop_operation_xyz
x,y,z
-x,-y,z
1/2-x,1/2+y,1/2+z
1/2+x,1/2-y,1/2+z
loop_
_atom_site_type_symbol
_atom_site_label
_atom_site_fract_x
_atom_site_fract_y
_atom_site_fract_z
Si Si1 0.771460 0.768458 0.238930
Si Si2 0.915118 0.207308 0.994285
Si Si3 0.764025 0.746333 0.930222
Si Si4 0.849135 0.034520 0.244441
Si Si5 0.943235 0.365914 0.237695
O O1 0.683143 0.704232 0.359184
O O2 0.934772 0.733524 0.264789
O O3 0.755478 0.913522 0.232989
O O4 0.714135 0.718074 0.089554
O O5 0.880463 0.090080 0.089577
O O6 0.880549 0.329262 0.084732
O O7 0.075165 0.207611 0.937227
O O8 0.742815 0.625450 0.839067
O O9 0.672527 0.854283 0.860519
O O10 0.000000 0.000000 0.315280
O O11 0.000000 0.500000 0.233482
#
# Coordination Sequence:
#
# PCOD8172029 Si02
#       5
#     4   4   4   4   4
#     4  11  24  41  67  96 125 174 214 264 332 381
#     4  10  24  42  66  94 126 169 216 266 325 386
#     4  10  22  42  64  94 124 167 219 262 324 384
#     4  11  21  46  67  86 140 171 204 273 332 383
#     4  10  23  42  63  91 130 167 213 267 321 381
#
# _framework density 20.154001999999998
#
# number of rings (size 3 to 8) (size 9 to 14) (size 15 to 20)
#    0.000    1.600    6.000    0.000    8.400    3.200 
#    0.000    1.000    0.000    0.000    0.000    0.000 
#    0.000    0.000    0.000    0.000    0.000    0.000 
#
# Total GULP energy -247941.198297 kJ/mol
# GULP energy per Si atom -12397.059915 kJ/mol
# Density = 2.010813 g / cm^3
# Si number density = 20.154002 Si / 1000 Ang^3
#
#
#
# Elastic Constant Matrix: (Units=GPa)
#
#
# Indices 1 2 3 4 5 6 
#
# 1 50.6394 2.2838 50.8619 0.0000 0.0000 0.0000
# 2 2.2838 105.7282 15.6719 0.0000 0.0000 0.0000
# 3 50.8619 15.6719 125.1351 0.0000 0.0000 0.0000
# 4 0.0000 0.0000 0.0000 22.0549 0.0000 0.0000
# 5 0.0000 0.0000 0.0000 0.0000 40.2471 0.0000
# 6 0.0000 0.0000 0.0000 0.0000 0.0000 27.4651
#
#
#
# Elastic Compliance Matrix: (Units=1/GPa)
#
#
# Indices 1 2 3 4 5 6 
#
# 1 0.033551 0.001321 -0.013802 0.000000 0.000000 0.000000
# 2 0.001321 0.009689 -0.001750 0.000000 0.000000 0.000000
# 3 -0.013802 -0.001750 0.013821 0.000000 0.000000 0.000000
# 4 0.000000 0.000000 0.000000 0.045341 0.000000 0.000000
# 5 0.000000 0.000000 0.000000 0.000000 0.024847 0.000000
# 6 0.000000 0.000000 0.000000 0.000000 0.000000 0.036410
#
#
# Mechanical properties :
#
#
# Convention : Reuss Voigt Hill
#
# Bulk Modulus (GPa) = 34.96829 46.57088 40.76958
# Shear Modulus (GPa) = 24.79488 32.13242 28.46365
#
# Velocity S-wave (km/s) = 3.51133 3.99726 3.76215
# Velocity P-wave (km/s) = 5.81614 6.66796 6.25656
#
# Compressibility (1/GPa) = 0.02859734
#
# Stress axis : x y z
#
# Youngs Moduli (GPa) = 29.80540 103.20826 72.35534
#
# Poissons Ratio (x) = -0.13636 0.99868
# Poissons Ratio (y) = -0.03938 0.12666
# Poissons Ratio (z) = 0.41139 0.18066
#
# Static dielectric constant tensor:
#      x y z
#    x 3.514460 0.000000 0.000000 
#    y 0.000000 3.733640 0.000000 
#    z 0.000000 0.000000 3.867960 
# 
# 
# High freq. dielectric constant tensor:
#      x y z
#    x 1.774530 0.000000 0.000000 
#    y 0.000000 1.792980 0.000000 
#    z 0.000000 0.000000 1.789300 
# 
# From -- ./inp_files/2444.got.cif
#   From: 2010.03.12/outbox.cif.g09.slc.cpg/sg34_2_cif.got.tgz:2444.got - 2010.04.14 01:56:33.
