data_PCOD8172694
_publ_section_title
;
Structure prediction by ZEFSAII (Michael W. Deem and Ramdas Pophale) SiO2 
 PCOD8172694
Probable space group: C M M 2
;
_chemical_formula_sum "Si O2"
_cell_formula_units_Z 48
_cell_length_a 15.586974
_cell_length_b 9.042451
_cell_length_c 17.233565
_cell_angle_alpha 90.000000
_cell_angle_beta 90.000000
_cell_angle_gamma 90.000000
_cell_volume 2428.975317
_symmetry_space_group_name_H-M "C M M 2"
_symmetry_group_IT_number 35
_symmetry_cell_setting 'orthorhombic'
loop_
_space_group_symop_operation_xyz
x,y,z
-x,-y,z
-x,y,z
x,-y,z
1/2+x,1/2+y,z
1/2-x,1/2-y,z
1/2-x,1/2+y,z
1/2+x,1/2-y,z
loop_
_atom_site_type_symbol
_atom_site_label
_atom_site_fract_x
_atom_site_fract_y
_atom_site_fract_z
Si Si1 0.662000 0.169336 0.080630
Si Si2 0.903532 0.835691 0.390178
Si Si3 0.844299 0.323646 0.911031
Si Si4 0.500000 0.324633 0.822934
Si Si5 0.335898 0.675364 0.552224
Si Si6 0.841212 0.672372 0.247258
Si Si7 0.500000 0.673492 0.642719
O O1 0.750000 0.250000 0.086546
O O2 0.612994 0.203984 0.162373
O O3 0.686972 0.000000 0.077897
O O4 0.617693 0.209385 0.998419
O O5 0.846583 0.778245 0.461908
O O6 0.900969 0.730558 0.315657
O O7 0.000000 0.839427 0.422119
O O8 0.873906 0.000000 0.365078
O O9 0.837913 0.500000 0.894872
O O10 0.750000 0.250000 0.899638
O O11 0.913204 0.248383 0.855318
O O12 0.500000 0.500000 0.839821
O O13 0.500000 0.286702 0.732697
O O14 0.328778 0.500000 0.560995
O O15 0.250000 0.750000 0.584928
O O16 0.414617 0.739675 0.602868
O O17 0.827066 0.500000 0.259621
O O18 0.750000 0.750000 0.254046
O O19 0.500000 0.500000 0.628212
#
# Coordination Sequence:
#
# PCOD8172694 Si02
#       7
#     8   8   8   4   8   8   4
#     4   8  16  31  52  76 105 145 188 231 280 329
#     4  10  20  35  54  76 109 150 189 230 279 333
#     4  10  20  38  62  87 118 156 196 241 291 346
#     4  11  23  39  61  90 119 152 192 237 291 353
#     4  10  20  38  62  85 110 148 188 228 279 337
#     4  10  19  32  51  77 108 144 187 234 279 328
#     4   9  20  41  63  82 113 150 184 227 283 343
#
# _framework density 19.761419
#
# number of rings (size 3 to 8) (size 9 to 14) (size 15 to 20)
#    0.000    2.333    0.833    1.750    0.000    4.333 
#    1.500    3.750    0.000    0.000    0.000    0.000 
#    0.000    0.000    0.000    0.000    0.000    0.000 
#
# Total GULP energy -297327.582097 kJ/mol
# GULP energy per Si atom -12388.649254 kJ/mol
# Density = 1.971644 g / cm^3
# Si number density = 19.761419 Si / 1000 Ang^3
#
#
#
# Elastic Constant Matrix: (Units=GPa)
#
#
# Indices 1 2 3 4 5 6 
#
# 1 117.1584 39.5872 69.3059 0.0000 0.0000 0.0000
# 2 39.5872 73.9339 59.7117 0.0000 0.0000 0.0000
# 3 69.3059 59.7117 142.5426 0.0000 0.0000 0.0000
# 4 0.0000 0.0000 0.0000 29.0885 0.0000 0.0000
# 5 0.0000 0.0000 0.0000 0.0000 21.9704 0.0000
# 6 0.0000 0.0000 0.0000 0.0000 0.0000 30.2260
#
#
#
# Elastic Compliance Matrix: (Units=1/GPa)
#
#
# Indices 1 2 3 4 5 6 
#
# 1 0.012318 -0.002658 -0.004876 0.000000 0.000000 0.000000
# 2 -0.002658 0.021015 -0.007511 0.000000 0.000000 0.000000
# 3 -0.004876 -0.007511 0.012533 0.000000 0.000000 0.000000
# 4 0.000000 0.000000 0.000000 0.034378 0.000000 0.000000
# 5 0.000000 0.000000 0.000000 0.000000 0.045516 0.000000
# 6 0.000000 0.000000 0.000000 0.000000 0.000000 0.033084
#
#
# Mechanical properties :
#
#
# Convention : Reuss Voigt Hill
#
# Bulk Modulus (GPa) = 63.38637 74.53828 68.96233
# Shear Modulus (GPa) = 25.74796 27.25898 26.50347
#
# Velocity S-wave (km/s) = 3.61354 3.71806 3.66618
# Velocity P-wave (km/s) = 7.03958 7.49886 7.27285
#
# Compressibility (1/GPa) = 0.01577626
#
# Stress axis : x y z
#
# Youngs Moduli (GPa) = 81.18391 47.58561 79.79251
#
# Poissons Ratio (x) = 0.12646 0.38905
# Poissons Ratio (y) = 0.21575 0.59932
# Poissons Ratio (z) = 0.39583 0.35742
#
# Static dielectric constant tensor:
#      x y z
#    x 3.379840 0.000000 0.000000 
#    y 0.000000 3.444560 0.000000 
#    z 0.000000 0.000000 4.042020 
# 
# 
# High freq. dielectric constant tensor:
#      x y z
#    x 1.753670 0.000000 0.000000 
#    y 0.000000 1.762120 0.000000 
#    z 0.000000 0.000000 1.784300 
# 
# From -- ./inp_files/17836.got.cif
#   From: 2010.03.12/outbox.cif.g09.slc.cpg/sg35_9_cif.got.tgz:17836.got - 2010.04.14 02:02:04.
