data_PCOD8172107
_publ_section_title
;
Structure prediction by ZEFSAII (Michael W. Deem and Ramdas Pophale) SiO2 
 PCOD8172107
Probable space group: P N N 2
;
_chemical_formula_sum "Si O2"
_cell_formula_units_Z 24
_cell_length_a 15.228831
_cell_length_b 8.788983
_cell_length_c 8.287394
_cell_angle_alpha 90.000000
_cell_angle_beta 90.000000
_cell_angle_gamma 90.000000
_cell_volume 1109.234013
_symmetry_space_group_name_H-M "P N N 2"
_symmetry_group_IT_number 34
_symmetry_cell_setting 'orthorhombic'
loop_
_space_group_symop_operation_xyz
x,y,z
-x,-y,z
1/2-x,1/2+y,1/2+z
1/2+x,1/2-y,1/2+z
loop_
_atom_site_type_symbol
_atom_site_label
_atom_site_fract_x
_atom_site_fract_y
_atom_site_fract_z
Si Si1 0.526543 0.261588 0.869200
Si Si2 0.587777 0.315103 0.368542
Si Si3 0.580000 0.750910 0.167838
Si Si4 0.000000 0.000000 0.128147
Si Si5 0.500000 0.000000 0.658810
Si Si6 0.141305 0.529525 0.927464
Si Si7 0.167723 0.052278 0.568453
O O1 0.467282 0.366116 0.749171
O O2 0.558417 0.116674 0.765434
O O3 0.469364 0.185725 0.011073
O O4 0.605014 0.363697 0.940067
O O5 0.491097 0.322120 0.288614
O O6 0.580730 0.430381 0.521474
O O7 0.662040 0.367846 0.242806
O O8 0.617511 0.147880 0.419399
O O9 0.632502 0.888080 0.253743
O O10 0.644678 0.622767 0.099833
O O11 0.431952 0.097683 0.549060
O O12 0.235788 0.563787 0.997975
#
# Coordination Sequence:
#
# PCOD8172107 Si02
#       7
#     4   4   4   2   2   4   4
#     4  11  24  43  72 106 141 190 249 293 363 438
#     4  11  22  45  73 100 141 197 238 294 378 438
#     4  11  22  46  71 100 142 197 238 292 374 439
#     4  12  18  42  78 100 140 188 244 292 352 462
#     4  12  26  42  70 108 144 188 244 302 362 446
#     4  12  26  44  70 107 147 187 247 301 370 432
#     4  11  26  45  69 107 143 189 243 307 359 437
#
# _framework density 21.636554
#
# number of rings (size 3 to 8) (size 9 to 14) (size 15 to 20)
#    0.000    0.667    6.667    1.000    7.000    1.333 
#    3.000    1.667    0.000    0.000    0.000    0.000 
#    0.000    0.000    0.000    0.000    0.000    0.000 
#
# Total GULP energy -297417.901581 kJ/mol
# GULP energy per Si atom -12392.412566 kJ/mol
# Density = 2.158731 g / cm^3
# Si number density = 21.636554 Si / 1000 Ang^3
#
#
#
# Elastic Constant Matrix: (Units=GPa)
#
#
# Indices 1 2 3 4 5 6 
#
# 1 128.1266 42.6749 69.6064 0.0000 0.0000 0.0000
# 2 42.6749 101.8820 60.1373 0.0000 0.0000 0.0000
# 3 69.6064 60.1373 149.6013 0.0000 0.0000 0.0000
# 4 0.0000 0.0000 0.0000 53.5995 0.0000 0.0000
# 5 0.0000 0.0000 0.0000 0.0000 31.2982 0.0000
# 6 0.0000 0.0000 0.0000 0.0000 0.0000 19.2014
#
#
#
# Elastic Compliance Matrix: (Units=1/GPa)
#
#
# Indices 1 2 3 4 5 6 
#
# 1 0.010757 -0.002034 -0.004187 0.000000 0.000000 0.000000
# 2 -0.002034 0.013253 -0.004381 0.000000 0.000000 0.000000
# 3 -0.004187 -0.004381 0.010394 0.000000 0.000000 0.000000
# 4 0.000000 0.000000 0.000000 0.018657 0.000000 0.000000
# 5 0.000000 0.000000 0.000000 0.000000 0.031951 0.000000
# 6 0.000000 0.000000 0.000000 0.000000 0.000000 0.052080
#
#
# Mechanical properties :
#
#
# Convention : Reuss Voigt Hill
#
# Bulk Modulus (GPa) = 75.76344 80.49413 78.12878
# Shear Modulus (GPa) = 30.73202 34.63257 32.68230
#
# Velocity S-wave (km/s) = 3.77288 4.00515 3.89075
# Velocity P-wave (km/s) = 7.35336 7.65976 7.50812
#
# Compressibility (1/GPa) = 0.01319898
#
# Stress axis : x y z
#
# Youngs Moduli (GPa) = 92.96152 75.45244 96.21011
#
# Poissons Ratio (x) = 0.15348 0.40287
# Poissons Ratio (y) = 0.18910 0.42152
# Poissons Ratio (z) = 0.38927 0.33057
#
# Static dielectric constant tensor:
#      x y z
#    x 3.498110 0.000000 0.000000 
#    y 0.000000 3.961520 0.000000 
#    z 0.000000 0.000000 4.467940 
# 
# 
# High freq. dielectric constant tensor:
#      x y z
#    x 1.799580 0.000000 0.000000 
#    y 0.000000 1.860920 0.000000 
#    z 0.000000 0.000000 1.880090 
# 
# From -- ./inp_files/2633.got.cif
#   From: 2010.03.12/outbox.cif.g09.slc.cpg/sg34_2_cif.got.tgz:2633.got - 2010.04.14 01:56:33.
