data_PCOD8172650
_publ_section_title
;
Structure prediction by ZEFSAII (Michael W. Deem and Ramdas Pophale) SiO2 
 PCOD8172650
Probable space group: C M M 2
;
_chemical_formula_sum "Si O2"
_cell_formula_units_Z 40
_cell_length_a 8.752813
_cell_length_b 19.832472
_cell_length_c 12.911988
_cell_angle_alpha 90.000000
_cell_angle_beta 90.000000
_cell_angle_gamma 90.000000
_cell_volume 2241.390948
_symmetry_space_group_name_H-M "C M M 2"
_symmetry_group_IT_number 35
_symmetry_cell_setting 'orthorhombic'
loop_
_space_group_symop_operation_xyz
x,y,z
-x,-y,z
-x,y,z
x,-y,z
1/2+x,1/2+y,z
1/2-x,1/2-y,z
1/2-x,1/2+y,z
1/2+x,1/2-y,z
loop_
_atom_site_type_symbol
_atom_site_label
_atom_site_fract_x
_atom_site_fract_y
_atom_site_fract_z
Si Si1 0.682402 0.177882 0.772080
Si Si2 0.330786 0.580134 0.153775
Si Si3 0.817592 0.178015 0.553022
Si Si4 0.682068 0.424791 0.379068
Si Si5 0.320150 0.924370 0.946757
O O1 0.500000 0.182553 0.765405
O O2 0.750000 0.250000 0.804171
O O3 0.749908 0.154107 0.662477
O O4 0.740790 0.123904 0.856180
O O5 0.500000 0.610510 0.138120
O O6 0.338059 0.500000 0.154881
O O7 0.261973 0.602168 0.265852
O O8 0.228486 0.605827 0.058269
O O9 0.750000 0.250000 0.521185
O O10 0.758697 0.125046 0.467785
O O11 0.000000 0.182091 0.559866
O O12 0.500000 0.427153 0.376830
O O13 0.746150 0.500000 0.401896
O O14 0.500000 0.926878 0.943768
O O15 0.253065 0.000000 0.930116
#
# Coordination Sequence:
#
# PCOD8172650 Si02
#       5
#     8   8   8   8   8
#     4  10  20  34  50  67  92 125 157 191 231 275
#     4   8  14  27  48  71  94 121 153 188 226 270
#     4  10  19  32  50  69  93 124 155 190 231 276
#     4   8  15  29  49  72  95 120 153 192 230 267
#     4   9  18  32  49  70  96 123 151 188 234 277
#
# _framework density 17.846060999999999
#
# number of rings (size 3 to 8) (size 9 to 14) (size 15 to 20)
#    0.000    3.000    0.000    3.600    0.000    2.400 
#    0.000    3.000    0.000    9.000    0.000    0.000 
#    0.000    0.000    0.000    0.000    0.000    0.000 
#
# Total GULP energy -247881.807472 kJ/mol
# GULP energy per Si atom -12394.090374 kJ/mol
# Density = 1.780544 g / cm^3
# Si number density = 17.846061 Si / 1000 Ang^3
#
#
#
# Elastic Constant Matrix: (Units=GPa)
#
#
# Indices 1 2 3 4 5 6 
#
# 1 41.0848 23.7159 33.6521 0.0000 0.0000 0.0000
# 2 23.7159 89.7592 99.0445 0.0000 0.0000 0.0000
# 3 33.6521 99.0445 184.7501 0.0000 0.0000 0.0000
# 4 0.0000 0.0000 0.0000 15.2328 0.0000 0.0000
# 5 0.0000 0.0000 0.0000 0.0000 27.4869 0.0000
# 6 0.0000 0.0000 0.0000 0.0000 0.0000 17.6988
#
#
#
# Elastic Compliance Matrix: (Units=1/GPa)
#
#
# Indices 1 2 3 4 5 6 
#
# 1 0.029346 -0.004543 -0.002910 0.000000 0.000000 0.000000
# 2 -0.004543 0.027980 -0.014173 0.000000 0.000000 0.000000
# 3 -0.002910 -0.014173 0.013541 0.000000 0.000000 0.000000
# 4 0.000000 0.000000 0.000000 0.065648 0.000000 0.000000
# 5 0.000000 0.000000 0.000000 0.000000 0.036381 0.000000
# 6 0.000000 0.000000 0.000000 0.000000 0.000000 0.056501
#
#
# Mechanical properties :
#
#
# Convention : Reuss Voigt Hill
#
# Bulk Modulus (GPa) = 36.21106 69.82433 53.01770
# Shear Modulus (GPa) = 17.73985 22.69580 20.21783
#
# Velocity S-wave (km/s) = 3.15627 3.57004 3.36951
# Velocity P-wave (km/s) = 5.79807 7.49696 6.70157
#
# Compressibility (1/GPa) = 0.02761587
#
# Stress axis : x y z
#
# Youngs Moduli (GPa) = 34.07662 35.74010 73.85158
#
# Poissons Ratio (x) = 0.16235 0.21491
# Poissons Ratio (y) = 0.15479 1.04666
# Poissons Ratio (z) = 0.09916 0.50653
#
# Static dielectric constant tensor:
#      x y z
#    x 3.137250 0.000000 0.000000 
#    y 0.000000 3.316150 0.000000 
#    z 0.000000 0.000000 3.707850 
# 
# 
# High freq. dielectric constant tensor:
#      x y z
#    x 1.672630 0.000000 0.000000 
#    y 0.000000 1.666050 0.000000 
#    z 0.000000 0.000000 1.705860 
# 
# From -- ./inp_files/4819.got.cif
#   From: 2010.03.12/outbox.cif.g09.slc.cpg/sg35_3_cif.got.tgz:4819.got - 2010.04.14 02:02:04.
