data_PCOD8172631
_publ_section_title
;
Structure prediction by ZEFSAII (Michael W. Deem and Ramdas Pophale) SiO2 
 PCOD8172631
Probable space group: C M M 2
;
_chemical_formula_sum "Si O2"
_cell_formula_units_Z 64
_cell_length_a 28.640832
_cell_length_b 8.993703
_cell_length_c 15.671298
_cell_angle_alpha 90.000000
_cell_angle_beta 90.000000
_cell_angle_gamma 90.000000
_cell_volume 4036.724780
_symmetry_space_group_name_H-M "C M M 2"
_symmetry_group_IT_number 35
_symmetry_cell_setting 'orthorhombic'
loop_
_space_group_symop_operation_xyz
x,y,z
-x,-y,z
-x,y,z
x,-y,z
1/2+x,1/2+y,z
1/2-x,1/2-y,z
1/2-x,1/2+y,z
1/2+x,1/2-y,z
loop_
_atom_site_type_symbol
_atom_site_label
_atom_site_fract_x
_atom_site_fract_y
_atom_site_fract_z
Si Si1 0.797396 0.824524 0.483020
Si Si2 0.203539 0.826719 0.679659
Si Si3 0.052753 0.322516 0.901481
Si Si4 0.447758 0.177684 0.268029
Si Si5 0.055306 0.662422 0.085508
Si Si6 0.105221 0.174338 0.750155
Si Si7 0.389412 0.176456 0.429119
Si Si8 0.445030 0.328639 0.577405
O O1 0.750000 0.750000 0.449001
O O2 0.805390 0.781526 0.581704
O O3 0.839544 0.755480 0.429685
O O4 0.795141 0.000000 0.468619
O O5 0.250000 0.750000 0.716598
O O6 0.158549 0.776105 0.733313
O O7 0.211934 0.000000 0.687308
O O8 0.054912 0.500000 0.902995
O O9 0.088488 0.260638 0.832946
O O10 0.000000 0.269985 0.879476
O O11 0.068228 0.257883 0.995405
O O12 0.500000 0.235821 0.288985
O O13 0.430262 0.242548 0.175179
O O14 0.413602 0.232762 0.342175
O O15 0.448342 0.000000 0.262740
O O16 0.079097 0.500000 0.084361
O O17 0.000000 0.643143 0.087682
O O18 0.073261 0.219801 0.670108
O O19 0.101469 0.000000 0.767577
O O20 0.421314 0.224520 0.507982
O O21 0.383125 0.000000 0.431946
O O22 0.500000 0.303450 0.574389
O O23 0.431116 0.500000 0.559262
#
# Coordination Sequence:
#
# PCOD8172631 Si02
#       8
#     8   8   8   8   8   8   8   8
#     4  10  19  34  51  67  89 117 153 192 232 276
#     4   9  18  32  49  65  84 111 148 187 225 267
#     4   9  17  28  44  68  93 117 151 192 227 262
#     4   8  14  25  42  65  93 123 154 187 222 265
#     4   7  11  23  42  62  87 118 149 185 228 266
#     4  10  19  32  46  63  88 122 154 182 223 274
#     4  11  20  29  45  70  95 120 153 192 231 268
#     4  10  20  33  45  58  87 131 165 185 217 267
#
# _framework density 15.854438
#
# number of rings (size 3 to 8) (size 9 to 14) (size 15 to 20)
#    0.000    2.750    1.250    3.000    0.000    3.000 
#    0.000    0.000    0.000    1.500    0.000    4.375 
#    0.000    2.000    0.000    0.000    0.000    0.000 
#
# Total GULP energy -396579.038205 kJ/mol
# GULP energy per Si atom -12393.094944 kJ/mol
# Density = 1.581835 g / cm^3
# Si number density = 15.854438 Si / 1000 Ang^3
#
#
#
# Elastic Constant Matrix: (Units=GPa)
#
#
# Indices 1 2 3 4 5 6 
#
# 1 111.2459 34.2603 65.9320 0.0000 0.0000 0.0000
# 2 34.2603 37.7774 33.0560 0.0000 0.0000 0.0000
# 3 65.9320 33.0560 125.9840 0.0000 0.0000 0.0000
# 4 0.0000 0.0000 0.0000 7.4819 0.0000 0.0000
# 5 0.0000 0.0000 0.0000 0.0000 9.3977 0.0000
# 6 0.0000 0.0000 0.0000 0.0000 0.0000 25.8362
#
#
#
# Elastic Compliance Matrix: (Units=1/GPa)
#
#
# Indices 1 2 3 4 5 6 
#
# 1 0.014957 -0.008717 -0.005541 0.000000 0.000000 0.000000
# 2 -0.008717 0.039439 -0.005786 0.000000 0.000000 0.000000
# 3 -0.005541 -0.005786 0.012355 0.000000 0.000000 0.000000
# 4 0.000000 0.000000 0.000000 0.133656 0.000000 0.000000
# 5 0.000000 0.000000 0.000000 0.000000 0.106409 0.000000
# 6 0.000000 0.000000 0.000000 0.000000 0.000000 0.038705
#
#
# Mechanical properties :
#
#
# Convention : Reuss Voigt Hill
#
# Bulk Modulus (GPa) = 37.50297 60.16710 48.83503
# Shear Modulus (GPa) = 12.67434 17.99375 15.33405
#
# Velocity S-wave (km/s) = 2.83047 3.37253 3.11332
# Velocity P-wave (km/s) = 5.86413 7.29365 6.61760
#
# Compressibility (1/GPa) = 0.02666455
#
# Stress axis : x y z
#
# Youngs Moduli (GPa) = 66.85705 25.35547 80.93643
#
# Poissons Ratio (x) = 0.22101 0.44844
# Poissons Ratio (y) = 0.58277 0.46833
# Poissons Ratio (z) = 0.37043 0.14672
#
# Static dielectric constant tensor:
#      x y z
#    x 3.009740 0.000000 0.000000 
#    y 0.000000 2.783950 0.000000 
#    z 0.000000 0.000000 3.266380 
# 
# 
# High freq. dielectric constant tensor:
#      x y z
#    x 1.594360 0.000000 0.000000 
#    y 0.000000 1.587230 0.000000 
#    z 0.000000 0.000000 1.603990 
# 
# From -- ./inp_files/16206.got.cif
#   From: 2010.03.12/outbox.cif.g09.slc.cpg/sg35_9_cif.got.tgz:16206.got - 2010.04.14 02:02:04.
