data_PCOD8172001
_publ_section_title
;
Structure prediction by ZEFSAII (Michael W. Deem and Ramdas Pophale) SiO2 
 PCOD8172001
Probable space group: P N N 2
;
_chemical_formula_sum "Si O2"
_cell_formula_units_Z 24
_cell_length_a 11.235623
_cell_length_b 8.648851
_cell_length_c 10.964510
_cell_angle_alpha 90.000000
_cell_angle_beta 90.000000
_cell_angle_gamma 90.000000
_cell_volume 1065.478773
_symmetry_space_group_name_H-M "P N N 2"
_symmetry_group_IT_number 34
_symmetry_cell_setting 'orthorhombic'
loop_
_space_group_symop_operation_xyz
x,y,z
-x,-y,z
1/2-x,1/2+y,1/2+z
1/2+x,1/2-y,1/2+z
loop_
_atom_site_type_symbol
_atom_site_label
_atom_site_fract_x
_atom_site_fract_y
_atom_site_fract_z
Si Si1 0.695221 0.744314 0.255800
Si Si2 0.524193 0.177523 0.121724
Si Si3 0.422322 0.360782 0.491847
Si Si4 0.565308 0.159831 0.660294
Si Si5 0.737546 0.594717 0.719630
Si Si6 0.964633 0.169238 0.378652
O O1 0.567276 0.713789 0.194209
O O2 0.679514 0.689809 0.395687
O O3 0.790716 0.646281 0.173416
O O4 0.720111 0.926159 0.258216
O O5 0.657103 0.208309 0.172682
O O6 0.500000 0.000000 0.146758
O O7 0.502012 0.207468 0.979560
O O8 0.500000 0.500000 0.436106
O O9 0.512428 0.219524 0.530390
O O10 0.356028 0.424783 0.610632
O O11 0.542538 0.290593 0.761218
O O12 0.500000 0.000000 0.693486
O O13 0.674525 0.675042 0.837465
O O14 0.000000 0.000000 0.425673
#
# Coordination Sequence:
#
# PCOD8172001 Si02
#       6
#     4   4   4   4   4   4
#     4  11  23  43  69  99 140 178 232 288 349 426
#     4  10  24  41  64  99 137 177 227 287 352 415
#     4  11  23  44  72  96 136 184 226 293 355 411
#     4  11  23  44  68 100 134 180 235 279 351 425
#     4  10  21  44  69  97 138 179 231 287 346 421
#     4  11  21  41  70  91 133 179 226 287 348 411
#
# _framework density 22.525086000000002
#
# number of rings (size 3 to 8) (size 9 to 14) (size 15 to 20)
#    0.000    1.333    3.333    2.500    0.000    6.667 
#    9.000    0.000    0.000    0.000    0.000    0.000 
#    0.000    0.000    0.000    0.000    0.000    0.000 
#
# Total GULP energy -297471.531621 kJ/mol
# GULP energy per Si atom -12394.647151 kJ/mol
# Density = 2.247382 g / cm^3
# Si number density = 22.525086 Si / 1000 Ang^3
#
#
#
# Elastic Constant Matrix: (Units=GPa)
#
#
# Indices 1 2 3 4 5 6 
#
# 1 164.2401 38.9369 50.4893 0.0000 0.0000 0.0000
# 2 38.9369 67.9083 25.7901 0.0000 0.0000 0.0000
# 3 50.4893 25.7901 89.2550 0.0000 0.0000 0.0000
# 4 0.0000 0.0000 0.0000 28.4308 0.0000 0.0000
# 5 0.0000 0.0000 0.0000 0.0000 38.9375 0.0000
# 6 0.0000 0.0000 0.0000 0.0000 0.0000 31.1139
#
#
#
# Elastic Compliance Matrix: (Units=1/GPa)
#
#
# Indices 1 2 3 4 5 6 
#
# 1 0.007944 -0.003200 -0.003569 0.000000 0.000000 0.000000
# 2 -0.003200 0.017829 -0.003342 0.000000 0.000000 0.000000
# 3 -0.003569 -0.003342 0.014189 0.000000 0.000000 0.000000
# 4 0.000000 0.000000 0.000000 0.035173 0.000000 0.000000
# 5 0.000000 0.000000 0.000000 0.000000 0.025682 0.000000
# 6 0.000000 0.000000 0.000000 0.000000 0.000000 0.032140
#
#
# Mechanical properties :
#
#
# Convention : Reuss Voigt Hill
#
# Bulk Modulus (GPa) = 50.65667 61.31513 55.98590
# Shear Modulus (GPa) = 31.29694 33.44224 32.36959
#
# Velocity S-wave (km/s) = 3.73154 3.85732 3.79495
# Velocity P-wave (km/s) = 6.41122 6.86429 6.64162
#
# Compressibility (1/GPa) = 0.01974074
#
# Stress axis : x y z
#
# Youngs Moduli (GPa) = 125.87368 56.08693 70.47884
#
# Poissons Ratio (x) = 0.17945 0.25157
# Poissons Ratio (y) = 0.40274 0.23553
# Poissons Ratio (z) = 0.44930 0.18744
#
# Static dielectric constant tensor:
#      x y z
#    x 4.789330 0.000000 0.000000 
#    y 0.000000 3.703760 0.000000 
#    z 0.000000 0.000000 3.911790 
# 
# 
# High freq. dielectric constant tensor:
#      x y z
#    x 1.905530 0.000000 0.000000 
#    y 0.000000 1.870220 0.000000 
#    z 0.000000 0.000000 1.875770 
# 
# From -- ./inp_files/4903.got.cif
#   From: 2010.03.12/outbox.cif.g09.slc.cpg/sg34_3_cif.got.tgz:4903.got - 2010.04.14 01:56:33.
