data_PCOD8172315
_publ_section_title
;
Structure prediction by ZEFSAII (Michael W. Deem and Ramdas Pophale) SiO2 
 PCOD8172315
Probable space group: C M M 2
;
_chemical_formula_sum "Si O2"
_cell_formula_units_Z 64
_cell_length_a 19.592467
_cell_length_b 18.300696
_cell_length_c 10.241251
_cell_angle_alpha 90.000000
_cell_angle_beta 90.000000
_cell_angle_gamma 90.000000
_cell_volume 3672.059766
_symmetry_space_group_name_H-M "C M M 2"
_symmetry_group_IT_number 35
_symmetry_cell_setting 'orthorhombic'
loop_
_space_group_symop_operation_xyz
x,y,z
-x,-y,z
-x,y,z
x,-y,z
1/2+x,1/2+y,z
1/2-x,1/2-y,z
1/2-x,1/2+y,z
1/2+x,1/2-y,z
loop_
_atom_site_type_symbol
_atom_site_label
_atom_site_fract_x
_atom_site_fract_y
_atom_site_fract_z
Si Si1 0.359709 0.585742 0.170560
Si Si2 0.071906 0.583809 0.283671
Si Si3 0.923127 0.913109 0.900718
Si Si4 0.922702 0.855372 0.426374
Si Si5 0.780336 0.329515 0.553996
Si Si6 0.718609 0.915529 0.283930
Si Si7 0.163364 0.915091 0.657704
Si Si8 0.426350 0.192913 0.519249
O O1 0.374323 0.500000 0.186329
O O2 0.403079 0.628417 0.277917
O O3 0.279190 0.604411 0.184015
O O4 0.384338 0.614362 0.029992
O O5 0.072698 0.500000 0.328239
O O6 0.144737 0.600029 0.212182
O O7 0.068918 0.630065 0.413866
O O8 0.000000 0.599264 0.203651
O O9 0.882831 0.882830 0.774691
O O10 0.000000 0.881369 0.898358
O O11 0.925326 0.000000 0.895972
O O12 0.874215 0.901823 0.520761
O O13 0.913314 0.769541 0.447620
O O14 0.000000 0.880722 0.452269
O O15 0.750000 0.250000 0.535329
O O16 0.775468 0.368065 0.413893
O O17 0.736321 0.374300 0.659694
O O18 0.859067 0.323995 0.606576
O O19 0.725255 0.000000 0.326204
O O20 0.177645 0.000000 0.678023
O O21 0.500000 0.195102 0.596075
#
# Coordination Sequence:
#
# PCOD8172315 Si02
#       8
#     8   8   8   8   8   8   8   8
#     4  10  18  30  47  71 102 138 173 205 243 289
#     4   8  14  25  42  65  96 131 163 201 253 306
#     4   9  19  34  49  68 100 138 171 204 244 296
#     4  11  20  30  48  76 105 133 164 203 253 304
#     4  11  18  30  48  70  99 133 164 203 253 297
#     4   9  16  26  44  70  97 122 159 207 249 293
#     4  11  21  33  50  74 100 132 170 208 250 298
#     4   9  18  30  45  72 104 134 164 204 257 307
#
# _framework density 17.428910999999999
#
# number of rings (size 3 to 8) (size 9 to 14) (size 15 to 20)
#    0.000    2.250    2.500    1.500    0.000    2.500 
#    0.000    0.000    0.000    3.750    0.000    0.875 
#    0.000    3.000    0.000    0.000    0.000    0.625 
#
# Total GULP energy -396427.929305 kJ/mol
# GULP energy per Si atom -12388.372791 kJ/mol
# Density = 1.738924 g / cm^3
# Si number density = 17.428911 Si / 1000 Ang^3
#
#
#
# Elastic Constant Matrix: (Units=GPa)
#
#
# Indices 1 2 3 4 5 6 
#
# 1 196.0274 36.4648 46.2468 0.0000 0.0000 0.0000
# 2 36.4648 50.8670 14.6117 0.0000 0.0000 0.0000
# 3 46.2468 14.6117 71.8521 0.0000 0.0000 0.0000
# 4 0.0000 0.0000 0.0000 6.1381 0.0000 0.0000
# 5 0.0000 0.0000 0.0000 0.0000 23.8091 0.0000
# 6 0.0000 0.0000 0.0000 0.0000 0.0000 23.1695
#
#
#
# Elastic Compliance Matrix: (Units=1/GPa)
#
#
# Indices 1 2 3 4 5 6 
#
# 1 0.006624 -0.003742 -0.003502 0.000000 0.000000 0.000000
# 2 -0.003742 0.022993 -0.002267 0.000000 0.000000 0.000000
# 3 -0.003502 -0.002267 0.016633 0.000000 0.000000 0.000000
# 4 0.000000 0.000000 0.000000 0.162916 0.000000 0.000000
# 5 0.000000 0.000000 0.000000 0.000000 0.042001 0.000000
# 6 0.000000 0.000000 0.000000 0.000000 0.000000 0.043160
#
#
# Mechanical properties :
#
#
# Convention : Reuss Voigt Hill
#
# Bulk Modulus (GPa) = 36.72945 57.04366 46.88655
# Shear Modulus (GPa) = 15.50746 25.38489 20.44618
#
# Velocity S-wave (km/s) = 2.98611 3.82053 3.42880
# Velocity P-wave (km/s) = 5.74533 7.22927 6.52959
#
# Compressibility (1/GPa) = 0.02722611
#
# Stress axis : x y z
#
# Youngs Moduli (GPa) = 150.97276 43.49135 60.12246
#
# Poissons Ratio (x) = 0.16276 0.21056
# Poissons Ratio (y) = 0.56498 0.13631
# Poissons Ratio (z) = 0.52874 0.09860
#
# Static dielectric constant tensor:
#      x y z
#    x 4.274760 0.000000 0.000000 
#    y 0.000000 3.223620 0.000000 
#    z 0.000000 0.000000 2.823760 
# 
# 
# High freq. dielectric constant tensor:
#      x y z
#    x 1.710310 0.000000 0.000000 
#    y 0.000000 1.666750 0.000000 
#    z 0.000000 0.000000 1.607640 
# 
# From -- ./inp_files/9442.got.cif
#   From: 2010.03.12/outbox.cif.g09.slc.cpg/sg35_5_cif.got.tgz:9442.got - 2010.04.14 02:02:04.
