data_PCOD8172251
_publ_section_title
;
Structure prediction by ZEFSAII (Michael W. Deem and Ramdas Pophale) SiO2 
 PCOD8172251
Probable space group: C M M 2
;
_chemical_formula_sum "Si O2"
_cell_formula_units_Z 64
_cell_length_a 9.692717
_cell_length_b 28.380545
_cell_length_c 15.393875
_cell_angle_alpha 90.000000
_cell_angle_beta 90.000000
_cell_angle_gamma 90.000000
_cell_volume 4234.617808
_symmetry_space_group_name_H-M "C M M 2"
_symmetry_group_IT_number 35
_symmetry_cell_setting 'orthorhombic'
loop_
_space_group_symop_operation_xyz
x,y,z
-x,-y,z
-x,y,z
x,-y,z
1/2+x,1/2+y,z
1/2-x,1/2-y,z
1/2-x,1/2+y,z
1/2+x,1/2-y,z
loop_
_atom_site_type_symbol
_atom_site_label
_atom_site_fract_x
_atom_site_fract_y
_atom_site_fract_z
Si Si1 0.839588 0.944861 0.447640
Si Si2 0.336731 0.606350 0.618994
Si Si3 0.842438 0.793122 0.884594
Si Si4 0.661453 0.393674 0.956503
Si Si5 0.651909 0.944199 0.292209
Si Si6 0.659618 0.706222 0.683778
Si Si7 0.661645 0.945566 0.096856
Si Si8 0.335698 0.447001 0.785808
O O1 0.780351 0.915883 0.529742
O O2 0.760735 0.925436 0.362794
O O3 0.000000 0.934807 0.432075
O O4 0.812266 0.000000 0.464832
O O5 0.500000 0.600301 0.622001
O O6 0.296013 0.661213 0.626367
O O7 0.273052 0.578136 0.700627
O O8 0.750000 0.750000 0.917923
O O9 0.810636 0.838270 0.943836
O O10 0.810551 0.805869 0.784414
O O11 0.000000 0.777216 0.894564
O O12 0.500000 0.403857 0.972524
O O13 0.716577 0.420627 0.871549
O O14 0.748094 0.411495 0.037733
O O15 0.500000 0.923504 0.313540
O O16 0.696969 0.929680 0.195207
O O17 0.644785 0.000000 0.296059
O O18 0.500000 0.718927 0.669516
O O19 0.750000 0.750000 0.651276
O O20 0.500000 0.938546 0.077419
O O21 0.703495 0.000000 0.080897
O O22 0.500000 0.445387 0.782589
O O23 0.279204 0.500000 0.788318
#
# Coordination Sequence:
#
# PCOD8172251 Si02
#       8
#     8   8   8   8   8   8   8   8
#     4   9  16  25  41  66  89 109 140 179 213 247
#     4   9  15  25  40  60  87 116 141 170 210 252
#     4   9  17  29  44  62  85 112 146 184 220 257
#     4  10  18  28  43  66  89 112 146 185 218 250
#     4   8  15  29  45  59  81 115 147 174 210 254
#     4   9  16  28  44  60  82 111 144 180 214 249
#     4   9  18  31  45  62  87 119 150 177 212 262
#     4   9  15  23  37  58  86 118 146 168 198 246
#
# _framework density 15.113524999999999
#
# number of rings (size 3 to 8) (size 9 to 14) (size 15 to 20)
#    0.000    3.000    1.250    1.500    0.000    3.250 
#    0.000    1.875    0.000    0.750    0.000    2.625 
#    0.000    2.000    0.000    0.000    0.000    0.000 
#
# Total GULP energy -396705.714174 kJ/mol
# GULP energy per Si atom -12397.053568 kJ/mol
# Density = 1.507913 g / cm^3
# Si number density = 15.113525 Si / 1000 Ang^3
#
#
#
# Elastic Constant Matrix: (Units=GPa)
#
#
# Indices 1 2 3 4 5 6 
#
# 1 52.3986 44.8316 52.0761 0.0000 0.0000 0.0000
# 2 44.8316 91.6630 57.0531 0.0000 0.0000 0.0000
# 3 52.0761 57.0531 120.1198 0.0000 0.0000 0.0000
# 4 0.0000 0.0000 0.0000 12.5894 0.0000 0.0000
# 5 0.0000 0.0000 0.0000 0.0000 17.1121 0.0000
# 6 0.0000 0.0000 0.0000 0.0000 0.0000 21.2967
#
#
#
# Elastic Compliance Matrix: (Units=1/GPa)
#
#
# Indices 1 2 3 4 5 6 
#
# 1 0.042434 -0.013208 -0.012123 0.000000 0.000000 0.000000
# 2 -0.013208 0.019600 -0.003583 0.000000 0.000000 0.000000
# 3 -0.012123 -0.003583 0.015283 0.000000 0.000000 0.000000
# 4 0.000000 0.000000 0.000000 0.079432 0.000000 0.000000
# 5 0.000000 0.000000 0.000000 0.000000 0.058438 0.000000
# 6 0.000000 0.000000 0.000000 0.000000 0.000000 0.046956
#
#
# Mechanical properties :
#
#
# Convention : Reuss Voigt Hill
#
# Bulk Modulus (GPa) = 51.31509 63.56700 57.44105
# Shear Modulus (GPa) = 15.31551 17.54768 16.43160
#
# Velocity S-wave (km/s) = 3.18679 3.41113 3.30087
# Velocity P-wave (km/s) = 6.89693 7.59377 7.25372
#
# Compressibility (1/GPa) = 0.01948744
#
# Stress axis : x y z
#
# Youngs Moduli (GPa) = 23.56612 51.02102 65.43427
#
# Poissons Ratio (x) = 0.67391 0.79326
# Poissons Ratio (y) = 0.31127 0.23445
# Poissons Ratio (z) = 0.28569 0.18281
#
# Static dielectric constant tensor:
#      x y z
#    x 2.755840 0.000000 0.000000 
#    y 0.000000 2.815240 0.000000 
#    z 0.000000 0.000000 2.968330 
# 
# 
# High freq. dielectric constant tensor:
#      x y z
#    x 1.556030 0.000000 0.000000 
#    y 0.000000 1.562510 0.000000 
#    z 0.000000 0.000000 1.569650 
# 
# From -- ./inp_files/12544.got.cif
#   From: 2010.03.12/outbox.cif.g09.slc.cpg/sg35_7_cif.got.tgz:12544.got - 2010.04.14 02:02:04.
