data_PCOD8172364
_publ_section_title
;
Structure prediction by ZEFSAII (Michael W. Deem and Ramdas Pophale) SiO2 
 PCOD8172364
Probable space group: C M M 2
;
_chemical_formula_sum "Si O2"
_cell_formula_units_Z 64
_cell_length_a 28.369787
_cell_length_b 9.115093
_cell_length_c 15.512484
_cell_angle_alpha 90.000000
_cell_angle_beta 90.000000
_cell_angle_gamma 90.000000
_cell_volume 4011.423605
_symmetry_space_group_name_H-M "C M M 2"
_symmetry_group_IT_number 35
_symmetry_cell_setting 'orthorhombic'
loop_
_space_group_symop_operation_xyz
x,y,z
-x,-y,z
-x,y,z
x,-y,z
1/2+x,1/2+y,z
1/2-x,1/2-y,z
1/2-x,1/2+y,z
1/2+x,1/2-y,z
loop_
_atom_site_type_symbol
_atom_site_label
_atom_site_fract_x
_atom_site_fract_y
_atom_site_fract_z
Si Si1 0.796010 0.671326 0.625000
Si Si2 0.896449 0.673524 0.560653
Si Si3 0.295560 0.169876 0.821655
Si Si4 0.897534 0.672807 0.877641
Si Si5 0.555680 0.668983 0.035773
Si Si6 0.555591 0.331119 0.717149
Si Si7 0.552384 0.174103 0.390942
Si Si8 0.944008 0.663390 0.202999
O O1 0.786886 0.500000 0.618847
O O2 0.750000 0.750000 0.585759
O O3 0.841835 0.718040 0.570640
O O4 0.804631 0.722112 0.723463
O O5 0.903501 0.500000 0.574809
O O6 0.928582 0.756133 0.629120
O O7 0.912500 0.726917 0.465991
O O8 0.250000 0.250000 0.861782
O O9 0.341743 0.207290 0.877202
O O10 0.283836 0.000000 0.823739
O O11 0.907247 0.500000 0.870878
O O12 0.918302 0.734211 0.965417
O O13 0.921664 0.749341 0.797253
O O14 0.500000 0.690424 0.024240
O O15 0.570198 0.500000 0.025488
O O16 0.573095 0.725278 0.129130
O O17 0.500000 0.316998 0.725907
O O18 0.571807 0.500000 0.717837
O O19 0.500000 0.239702 0.407819
O O20 0.572419 0.223767 0.297085
O O21 0.548804 0.000000 0.390137
O O22 0.923546 0.500000 0.184648
O O23 0.000000 0.654187 0.204813
#
# Coordination Sequence:
#
# PCOD8172364 Si02
#       8
#     8   8   8   8   8   8   8   8
#     4   9  17  30  46  66  90 117 153 194 234 276
#     4  10  18  31  49  69  92 122 160 196 230 272
#     4   9  18  32  48  68  90 115 151 192 233 276
#     4  11  21  34  50  69  91 120 159 195 228 272
#     4  10  20  32  46  68  97 126 156 190 232 279
#     4  11  23  34  43  62  95 130 160 189 224 270
#     4   8  14  25  45  71  94 118 152 193 232 270
#     4   8  14  27  46  67  90 118 154 193 232 273
#
# _framework density 15.954435999999999
#
# number of rings (size 3 to 8) (size 9 to 14) (size 15 to 20)
#    0.000    2.500    1.250    2.625    0.000    5.250 
#    0.000    0.625    0.000    2.250    0.000    0.875 
#    0.000    2.000    0.000    0.000    0.000    0.000 
#
# Total GULP energy -396726.493214 kJ/mol
# GULP energy per Si atom -12397.702913 kJ/mol
# Density = 1.591812 g / cm^3
# Si number density = 15.954436 Si / 1000 Ang^3
#
#
#
# Elastic Constant Matrix: (Units=GPa)
#
#
# Indices 1 2 3 4 5 6 
#
# 1 69.1894 42.3641 38.0448 0.0000 0.0000 0.0000
# 2 42.3641 65.3297 41.3904 0.0000 0.0000 0.0000
# 3 38.0448 41.3904 108.1642 0.0000 0.0000 0.0000
# 4 0.0000 0.0000 0.0000 -9.7563 0.0000 0.0000
# 5 0.0000 0.0000 0.0000 0.0000 -3.9092 0.0000
# 6 0.0000 0.0000 0.0000 0.0000 0.0000 24.5970
#
#
#
# Elastic Compliance Matrix: (Units=1/GPa)
#
#
# Indices 1 2 3 4 5 6 
#
# 1 0.024885 -0.013981 -0.003403 0.000000 0.000000 0.000000
# 2 -0.013981 0.028061 -0.005820 0.000000 0.000000 0.000000
# 3 -0.003403 -0.005820 0.012669 0.000000 0.000000 0.000000
# 4 0.000000 0.000000 0.000000 -0.102497 0.000000 0.000000
# 5 0.000000 0.000000 0.000000 0.000000 -0.255810 0.000000
# 6 0.000000 0.000000 0.000000 0.000000 0.000000 0.040655
#
#
# Mechanical properties :
#
#
# Convention : Reuss Voigt Hill
#
# Bulk Modulus (GPa) = 52.06529 54.03132 53.04831
# Shear Modulus (GPa) = -25.09698 10.24521 -7.42588
#
# Velocity S-wave (km/s) = -3.97046 2.53683 -2.15975
# Velocity P-wave (km/s) = 3.41836 6.52075 5.20602
#
# Compressibility (1/GPa) = 0.01920665
#
# Stress axis : x y z
#
# Youngs Moduli (GPa) = 40.18554 35.63705 78.93144
#
# Poissons Ratio (x) = 0.49824 0.26858
# Poissons Ratio (y) = 0.56183 0.45940
# Poissons Ratio (z) = 0.13674 0.20742
#
# Static dielectric constant tensor:
#      x y z
#    x 2.995230 0.000000 0.000000 
#    y 0.000000 3.042050 0.000000 
#    z 0.000000 0.000000 3.341310 
# 
# 
# High freq. dielectric constant tensor:
#      x y z
#    x 1.593900 0.000000 0.000000 
#    y 0.000000 1.608250 0.000000 
#    z 0.000000 0.000000 1.604120 
# 
# From -- ./inp_files/16186.got.cif
#   From: 2010.03.12/outbox.cif.g09.slc.cpg/sg35_9_cif.got.tgz:16186.got - 2010.04.14 02:02:04.
