data_PCOD8172244
_publ_section_title
;
Structure prediction by ZEFSAII (Michael W. Deem and Ramdas Pophale) SiO2 
 PCOD8172244
Probable space group: C M M 2
;
_chemical_formula_sum "Si O2"
_cell_formula_units_Z 56
_cell_length_a 9.202619
_cell_length_b 30.472861
_cell_length_c 12.734485
_cell_angle_alpha 90.000000
_cell_angle_beta 90.000000
_cell_angle_gamma 90.000000
_cell_volume 3571.133279
_symmetry_space_group_name_H-M "C M M 2"
_symmetry_group_IT_number 35
_symmetry_cell_setting 'orthorhombic'
loop_
_space_group_symop_operation_xyz
x,y,z
-x,-y,z
-x,y,z
x,-y,z
1/2+x,1/2+y,z
1/2-x,1/2-y,z
1/2-x,1/2+y,z
1/2+x,1/2-y,z
loop_
_atom_site_type_symbol
_atom_site_label
_atom_site_fract_x
_atom_site_fract_y
_atom_site_fract_z
Si Si1 0.169957 0.050109 0.604420
Si Si2 0.158762 0.210191 0.439792
Si Si3 0.327332 0.048820 0.034056
Si Si4 0.838951 0.552145 0.804709
Si Si5 0.172965 0.885772 0.420393
Si Si6 0.826098 0.380244 0.203782
Si Si7 0.164028 0.791612 0.191013
O O1 0.241021 0.070157 0.709590
O O2 0.220241 0.077696 0.503707
O O3 0.000000 0.054100 0.621196
O O4 0.218384 0.000000 0.584309
O O5 0.250000 0.250000 0.489806
O O6 0.220248 0.161803 0.467092
O O7 0.153248 0.214384 0.315004
O O8 0.000000 0.215430 0.489256
O O9 0.500000 0.046391 0.029078
O O10 0.275507 0.082528 0.122318
O O11 0.265793 0.000000 0.059961
O O12 0.272911 0.065291 0.918839
O O13 0.845129 0.500000 0.800115
O O14 0.000000 0.572021 0.790057
O O15 0.262164 0.895446 0.315144
O O16 0.000000 0.885908 0.395533
O O17 0.755308 0.335072 0.163692
O O18 0.000000 0.374995 0.210975
O O19 0.250000 0.750000 0.142063
O O20 0.000000 0.794428 0.144206
#
# Coordination Sequence:
#
# PCOD8172244 Si02
#       7
#     8   8   8   8   8   8   8
#     4   9  17  29  44  61  83 111 141 174 214 257
#     4   8  14  24  38  54  74 102 133 164 198 236
#     4   8  15  28  44  62  86 115 144 177 217 256
#     4   8  14  27  46  63  79 103 139 181 218 249
#     4   9  18  30  40  56  87 119 140 166 209 256
#     4  10  18  27  42  64  88 115 147 178 210 253
#     4   9  16  27  42  60  84 112 142 176 214 253
#
# _framework density 15.681297000000001
#
# number of rings (size 3 to 8) (size 9 to 14) (size 15 to 20)
#    0.000    3.286    0.000    2.571    0.000    4.571 
#    0.000    1.429    0.000    3.000    0.000    1.000 
#    0.000    4.571    0.000    0.000    0.000    0.000 
#
# Total GULP energy -346977.906778 kJ/mol
# GULP energy per Si atom -12392.068099 kJ/mol
# Density = 1.564561 g / cm^3
# Si number density = 15.681297 Si / 1000 Ang^3
#
#
#
# Elastic Constant Matrix: (Units=GPa)
#
#
# Indices 1 2 3 4 5 6 
#
# 1 61.5910 43.9275 43.1256 0.0000 0.0000 0.0000
# 2 43.9275 106.9267 67.3084 0.0000 0.0000 0.0000
# 3 43.1256 67.3084 92.6419 0.0000 0.0000 0.0000
# 4 0.0000 0.0000 0.0000 1.7710 0.0000 0.0000
# 5 0.0000 0.0000 0.0000 0.0000 14.7804 0.0000
# 6 0.0000 0.0000 0.0000 0.0000 0.0000 21.0515
#
#
#
# Elastic Compliance Matrix: (Units=1/GPa)
#
#
# Indices 1 2 3 4 5 6 
#
# 1 0.025785 -0.005597 -0.007937 0.000000 0.000000 0.000000
# 2 -0.005597 0.018449 -0.010799 0.000000 0.000000 0.000000
# 3 -0.007937 -0.010799 0.022335 0.000000 0.000000 0.000000
# 4 0.000000 0.000000 0.000000 0.564653 0.000000 0.000000
# 5 0.000000 0.000000 0.000000 0.000000 0.067657 0.000000
# 6 0.000000 0.000000 0.000000 0.000000 0.000000 0.047502
#
#
# Mechanical properties :
#
#
# Convention : Reuss Voigt Hill
#
# Bulk Modulus (GPa) = 55.85315 63.32027 59.58671
# Shear Modulus (GPa) = 6.24208 14.64046 10.44127
#
# Velocity S-wave (km/s) = 1.99731 3.05884 2.58319
# Velocity P-wave (km/s) = 6.40422 7.27616 6.85407
#
# Compressibility (1/GPa) = 0.01790409
#
# Stress axis : x y z
#
# Youngs Moduli (GPa) = 38.78184 54.20324 44.77362
#
# Poissons Ratio (x) = 0.30337 0.35536
# Poissons Ratio (y) = 0.21706 0.48349
# Poissons Ratio (z) = 0.30780 0.58532
#
# Static dielectric constant tensor:
#      x y z
#    x 3.048880 0.000000 0.000000 
#    y 0.000000 3.120260 0.000000 
#    z 0.000000 0.000000 2.887140 
# 
# 
# High freq. dielectric constant tensor:
#      x y z
#    x 1.595890 0.000000 0.000000 
#    y 0.000000 1.594310 0.000000 
#    z 0.000000 0.000000 1.566710 
# 
# From -- ./inp_files/16061.got.cif
#   From: 2010.03.12/outbox.cif.g09.slc.cpg/sg35_9_cif.got.tgz:16061.got - 2010.04.14 02:02:04.
