data_PCOD8172896
_publ_section_title
;
Structure prediction by ZEFSAII (Michael W. Deem and Ramdas Pophale) SiO2 
 PCOD8172896
Probable space group: C M M 2
;
_chemical_formula_sum "Si O2"
_cell_formula_units_Z 56
_cell_length_a 21.663417
_cell_length_b 8.720131
_cell_length_c 14.500157
_cell_angle_alpha 90.000000
_cell_angle_beta 90.000000
_cell_angle_gamma 90.000000
_cell_volume 2739.193254
_symmetry_space_group_name_H-M "C M M 2"
_symmetry_group_IT_number 35
_symmetry_cell_setting 'orthorhombic'
loop_
_space_group_symop_operation_xyz
x,y,z
-x,-y,z
-x,y,z
x,-y,z
1/2+x,1/2+y,z
1/2-x,1/2-y,z
1/2-x,1/2+y,z
1/2+x,1/2-y,z
loop_
_atom_site_type_symbol
_atom_site_label
_atom_site_fract_x
_atom_site_fract_y
_atom_site_fract_z
Si Si1 0.500000 0.681786 0.174250
Si Si2 0.125215 0.681696 0.396765
Si Si3 0.113802 0.822581 0.055410
Si Si4 0.429467 0.176532 0.878896
Si Si5 0.569465 0.319032 0.684718
Si Si6 0.185560 0.182616 0.564772
Si Si7 0.000000 0.817449 0.382107
Si Si8 0.314479 0.321403 0.228653
O O1 0.500000 0.500000 0.182340
O O2 0.441123 0.740988 0.118817
O O3 0.500000 0.746576 0.277572
O O4 0.126548 0.500000 0.402318
O O5 0.178443 0.752900 0.461211
O O6 0.059906 0.748581 0.432660
O O7 0.134569 0.738487 0.291742
O O8 0.174015 0.795998 0.119094
O O9 0.104371 0.000000 0.029419
O O10 0.116621 0.727614 0.960802
O O11 0.500000 0.207624 0.910326
O O12 0.413605 0.272745 0.788597
O O13 0.417877 0.000000 0.855929
O O14 0.500000 0.255723 0.658416
O O15 0.567949 0.500000 0.677543
O O16 0.625458 0.256009 0.621456
O O17 0.250000 0.250000 0.605595
O O18 0.189397 0.000000 0.565563
O O19 0.000000 0.000000 0.392206
O O20 0.316728 0.500000 0.253093
O O21 0.250000 0.250000 0.256107
#
# Coordination Sequence:
#
# PCOD8172896 Si02
#       8
#     4   8   8   8   8   8   4   8
#     4   9  16  31  55  82 109 146 189 233 282 336
#     4  12  25  40  60  90 124 159 200 248 304 362
#     4  10  19  34  57  82 112 153 196 236 286 349
#     4  10  20  33  54  88 123 152 184 237 302 355
#     4   9  20  40  65  91 117 154 201 247 302 369
#     4  11  24  43  67  92 120 159 205 254 309 370
#     4  11  21  39  61  88 123 160 203 247 302 360
#     4  11  23  40  59  81 113 159 207 254 301 352
#
# _framework density 20.443975999999999
#
# number of rings (size 3 to 8) (size 9 to 14) (size 15 to 20)
#    0.000    1.571    2.143    3.214    1.000    2.857 
#    0.000    0.714    0.000    0.000    0.000    0.000 
#    0.000    0.000    0.000    0.000    0.000    0.000 
#
# Total GULP energy -347173.660945 kJ/mol
# GULP energy per Si atom -12399.059319 kJ/mol
# Density = 2.039744 g / cm^3
# Si number density = 20.443976 Si / 1000 Ang^3
#
#
#
# Elastic Constant Matrix: (Units=GPa)
#
#
# Indices 1 2 3 4 5 6 
#
# 1 118.3711 41.2674 39.1366 0.0000 0.0000 0.0000
# 2 41.2674 73.9927 23.5871 0.0000 0.0000 0.0000
# 3 39.1366 23.5871 81.0555 0.0000 0.0000 0.0000
# 4 0.0000 0.0000 0.0000 24.2061 0.0000 0.0000
# 5 0.0000 0.0000 0.0000 0.0000 26.6575 0.0000
# 6 0.0000 0.0000 0.0000 0.0000 0.0000 30.9996
#
#
#
# Elastic Compliance Matrix: (Units=1/GPa)
#
#
# Indices 1 2 3 4 5 6 
#
# 1 0.011604 -0.005165 -0.004100 0.000000 0.000000 0.000000
# 2 -0.005165 0.017196 -0.002510 0.000000 0.000000 0.000000
# 3 -0.004100 -0.002510 0.015047 0.000000 0.000000 0.000000
# 4 0.000000 0.000000 0.000000 0.041312 0.000000 0.000000
# 5 0.000000 0.000000 0.000000 0.000000 0.037513 0.000000
# 6 0.000000 0.000000 0.000000 0.000000 0.000000 0.032259
#
#
# Mechanical properties :
#
#
# Convention : Reuss Voigt Hill
#
# Bulk Modulus (GPa) = 49.26809 53.48905 51.37857
# Shear Modulus (GPa) = 26.99112 27.66784 27.32948
#
# Velocity S-wave (km/s) = 3.63746 3.68278 3.66019
# Velocity P-wave (km/s) = 6.46474 6.65615 6.56115
#
# Compressibility (1/GPa) = 0.02029711
#
# Stress axis : x y z
#
# Youngs Moduli (GPa) = 86.17570 58.15435 66.45729
#
# Poissons Ratio (x) = 0.30036 0.27247
# Poissons Ratio (y) = 0.44509 0.16681
# Poissons Ratio (z) = 0.35331 0.14597
#
# Static dielectric constant tensor:
#      x y z
#    x 3.790990 0.000000 0.000000 
#    y 0.000000 3.482050 0.000000 
#    z 0.000000 0.000000 3.642170 
# 
# 
# High freq. dielectric constant tensor:
#      x y z
#    x 1.793220 0.000000 0.000000 
#    y 0.000000 1.788660 0.000000 
#    z 0.000000 0.000000 1.795480 
# 
# From -- ./inp_files/15733.got.cif
#   From: 2010.03.12/outbox.cif.g09.slc.cpg/sg35_8_cif.got.tgz:15733.got - 2010.04.14 02:02:04.
