data_PCOD8172421
_publ_section_title
;
Structure prediction by ZEFSAII (Michael W. Deem and Ramdas Pophale) SiO2 
 PCOD8172421
Probable space group: C M M 2
;
_chemical_formula_sum "Si O2"
_cell_formula_units_Z 64
_cell_length_a 8.596465
_cell_length_b 29.299997
_cell_length_c 12.600822
_cell_angle_alpha 90.000000
_cell_angle_beta 90.000000
_cell_angle_gamma 90.000000
_cell_volume 3173.849666
_symmetry_space_group_name_H-M "C M M 2"
_symmetry_group_IT_number 35
_symmetry_cell_setting 'orthorhombic'
loop_
_space_group_symop_operation_xyz
x,y,z
-x,-y,z
-x,y,z
x,-y,z
1/2+x,1/2+y,z
1/2-x,1/2-y,z
1/2-x,1/2+y,z
1/2+x,1/2-y,z
loop_
_atom_site_type_symbol
_atom_site_label
_atom_site_fract_x
_atom_site_fract_y
_atom_site_fract_z
Si Si1 0.180753 0.889326 0.328900
Si Si2 0.186099 0.391339 0.720863
Si Si3 0.171687 0.416869 0.943980
Si Si4 0.185358 0.947181 0.525528
Si Si5 0.825399 0.685073 0.005730
Si Si6 0.815281 0.203386 0.233657
Si Si7 0.819360 0.449697 0.155848
Si Si8 0.316758 0.702985 0.781030
O O1 0.254989 0.916829 0.428268
O O2 0.246889 0.838196 0.308567
O O3 0.210516 0.917006 0.222370
O O4 0.000000 0.886063 0.351033
O O5 0.257541 0.412901 0.830538
O O6 0.246359 0.424194 0.629903
O O7 0.246379 0.339342 0.713645
O O8 0.000000 0.389361 0.722671
O O9 0.000000 0.434741 0.916700
O O10 0.167049 0.369022 0.004882
O O11 0.244129 0.450167 0.033312
O O12 0.000000 0.945588 0.528975
O O13 0.241699 0.000000 0.516047
O O14 0.744975 0.700714 0.113576
O O15 0.000000 0.705670 0.999545
O O16 0.728135 0.702172 0.904934
O O17 0.750000 0.250000 0.285208
O O18 0.000000 0.203207 0.231157
O O19 0.801838 0.500000 0.203650
O O20 0.000000 0.433603 0.159339
O O21 0.500000 0.701590 0.767556
O O22 0.250000 0.750000 0.731302
#
# Coordination Sequence:
#
# PCOD8172421 Si02
#       8
#     8   8   8   8   8   8   8   8
#     4  10  22  40  60  82 113 151 196 245 295 350
#     4  10  21  38  60  88 118 152 198 247 298 351
#     4   8  16  31  51  78 115 152 183 226 284 341
#     4  10  22  42  65  86 112 151 197 246 301 357
#     4  10  18  32  53  79 116 160 200 239 284 338
#     4  11  22  35  54  82 113 152 196 240 293 352
#     4  10  19  32  54  84 115 149 187 229 288 355
#     4  11  21  35  56  85 122 161 201 242 288 346
#
# _framework density 20.164787
#
# number of rings (size 3 to 8) (size 9 to 14) (size 15 to 20)
#    0.000    2.000    1.250    3.750    0.000    2.500 
#    0.000    2.500    0.000    1.500    0.000    0.000 
#    0.000    0.000    0.000    0.000    0.000    0.000 
#
# Total GULP energy -396536.057939 kJ/mol
# GULP energy per Si atom -12391.751811 kJ/mol
# Density = 2.011889 g / cm^3
# Si number density = 20.164787 Si / 1000 Ang^3
#
#
#
# Elastic Constant Matrix: (Units=GPa)
#
#
# Indices 1 2 3 4 5 6 
#
# 1 47.5436 34.1661 21.3585 0.0000 0.0000 0.0000
# 2 34.1661 150.4116 71.1800 0.0000 0.0000 0.0000
# 3 21.3585 71.1800 108.2879 0.0000 0.0000 0.0000
# 4 0.0000 0.0000 0.0000 -13.6098 0.0000 0.0000
# 5 0.0000 0.0000 0.0000 0.0000 23.3628 0.0000
# 6 0.0000 0.0000 0.0000 0.0000 0.0000 26.2679
#
#
#
# Elastic Compliance Matrix: (Units=1/GPa)
#
#
# Indices 1 2 3 4 5 6 
#
# 1 0.025367 -0.004927 -0.001765 0.000000 0.000000 0.000000
# 2 -0.004927 0.010607 -0.006001 0.000000 0.000000 0.000000
# 3 -0.001765 -0.006001 0.013527 0.000000 0.000000 0.000000
# 4 0.000000 0.000000 0.000000 -0.073477 0.000000 0.000000
# 5 0.000000 0.000000 0.000000 0.000000 0.042803 0.000000
# 6 0.000000 0.000000 0.000000 0.000000 0.000000 0.038069
#
#
# Mechanical properties :
#
#
# Convention : Reuss Voigt Hill
#
# Bulk Modulus (GPa) = 41.46534 62.18358 51.82446
# Shear Modulus (GPa) = 55.35869 19.17343 37.26606
#
# Velocity S-wave (km/s) = 5.24526 3.08691 4.30359
# Velocity P-wave (km/s) = 7.56912 6.60379 7.10287
#
# Compressibility (1/GPa) = 0.02411652
#
# Stress axis : x y z
#
# Youngs Moduli (GPa) = 39.42173 94.27481 73.92600
#
# Poissons Ratio (x) = 0.46449 0.13046
# Poissons Ratio (y) = 0.19423 0.44360
# Poissons Ratio (z) = 0.06957 0.56571
#
# Static dielectric constant tensor:
#      x y z
#    x 3.466650 0.000000 0.000000 
#    y 0.000000 4.204990 0.000000 
#    z 0.000000 0.000000 3.668300 
# 
# 
# High freq. dielectric constant tensor:
#      x y z
#    x 1.767910 0.000000 0.000000 
#    y 0.000000 1.801690 0.000000 
#    z 0.000000 0.000000 1.770450 
# 
# From -- ./inp_files/11920.got.cif
#   From: 2010.03.12/outbox.cif.g09.slc.cpg/sg35_6_cif.got.tgz:11920.got - 2010.04.14 02:02:04.
