data_PCOD8172109
_publ_section_title
;
Structure prediction by ZEFSAII (Michael W. Deem and Ramdas Pophale) SiO2 
 PCOD8172109
Probable space group: P N N 2
;
_chemical_formula_sum "Si O2"
_cell_formula_units_Z 20
_cell_length_a 22.135704
_cell_length_b 4.772623
_cell_length_c 8.280491
_cell_angle_alpha 90.000000
_cell_angle_beta 90.000000
_cell_angle_gamma 90.000000
_cell_volume 874.795536
_symmetry_space_group_name_H-M "P N N 2"
_symmetry_group_IT_number 34
_symmetry_cell_setting 'orthorhombic'
loop_
_space_group_symop_operation_xyz
x,y,z
-x,-y,z
1/2-x,1/2+y,1/2+z
1/2+x,1/2-y,1/2+z
loop_
_atom_site_type_symbol
_atom_site_label
_atom_site_fract_x
_atom_site_fract_y
_atom_site_fract_z
Si Si1 0.228387 0.204377 0.049830
Si Si2 0.500000 0.500000 0.779108
Si Si3 0.092792 0.482707 0.789062
Si Si4 0.783453 0.781508 0.703081
Si Si5 0.500000 0.000000 0.016224
Si Si6 0.595423 0.481554 0.509460
O O1 0.248189 0.388390 0.562048
O O2 0.246048 0.311035 0.872653
O O3 0.266476 0.392968 0.174963
O O4 0.155736 0.182416 0.070443
O O5 0.482243 0.750430 0.897404
O O6 0.557007 0.575388 0.664929
O O7 0.146084 0.290555 0.714336
O O8 0.054615 0.584381 0.635404
O O9 0.058158 0.255512 0.905574
O O10 0.112387 0.751759 0.896357
#
# Coordination Sequence:
#
# PCOD8172109 Si02
#       6
#     4   2   4   4   2   4
#     4  11  23  40  63  93 126 168 217 265 320 383
#     4  12  26  42  66 104 132 164 218 282 336 380
#     4  11  23  44  67  91 130 181 219 258 327 410
#     4  11  23  40  63  93 126 168 217 265 320 383
#     4  12  26  42  66 104 132 164 218 282 336 380
#     4  11  23  44  67  91 130 181 219 258 327 410
#
# _framework density 22.862486000000001
#
# number of rings (size 3 to 8) (size 9 to 14) (size 15 to 20)
#    0.000    0.800    0.000    9.600    0.000    4.800 
#    0.000    0.000    0.000    0.000    0.000    0.000 
#    0.000    0.000    0.000    0.000    0.000    0.000 
#
# Total GULP energy -247811.149672 kJ/mol
# GULP energy per Si atom -12390.557484 kJ/mol
# Density = 2.281045 g / cm^3
# Si number density = 22.862486 Si / 1000 Ang^3
#
#
#
# Elastic Constant Matrix: (Units=GPa)
#
#
# Indices 1 2 3 4 5 6 
#
# 1 82.5433 27.8758 58.7580 0.0000 0.0000 0.0000
# 2 27.8758 109.1097 35.8150 0.0000 0.0000 0.0000
# 3 58.7580 35.8150 110.3526 0.0000 0.0000 0.0000
# 4 0.0000 0.0000 0.0000 52.1995 0.0000 0.0000
# 5 0.0000 0.0000 0.0000 0.0000 20.2377 0.0000
# 6 0.0000 0.0000 0.0000 0.0000 0.0000 34.1174
#
#
#
# Elastic Compliance Matrix: (Units=1/GPa)
#
#
# Indices 1 2 3 4 5 6 
#
# 1 0.019817 -0.001790 -0.009971 0.000000 0.000000 0.000000
# 2 -0.001790 0.010420 -0.002429 0.000000 0.000000 0.000000
# 3 -0.009971 -0.002429 0.015159 0.000000 0.000000 0.000000
# 4 0.000000 0.000000 0.000000 0.019157 0.000000 0.000000
# 5 0.000000 0.000000 0.000000 0.000000 0.049413 0.000000
# 6 0.000000 0.000000 0.000000 0.000000 0.000000 0.029311
#
#
# Mechanical properties :
#
#
# Convention : Reuss Voigt Hill
#
# Bulk Modulus (GPa) = 58.76500 60.76700 59.76600
# Shear Modulus (GPa) = 28.19650 33.28139 30.73895
#
# Velocity S-wave (km/s) = 3.51566 3.81953 3.67074
# Velocity P-wave (km/s) = 6.49918 6.78887 6.64560
#
# Compressibility (1/GPa) = 0.01701693
#
# Stress axis : x y z
#
# Youngs Moduli (GPa) = 50.46183 95.97305 65.96732
#
# Poissons Ratio (x) = 0.17180 0.65774
# Poissons Ratio (y) = 0.09033 0.16021
# Poissons Ratio (z) = 0.50314 0.23308
#
# Static dielectric constant tensor:
#      x y z
#    x 3.843180 0.000000 0.000000 
#    y 0.000000 6.783320 0.000000 
#    z 0.000000 0.000000 4.462260 
# 
# 
# High freq. dielectric constant tensor:
#      x y z
#    x 1.885800 0.000000 0.000000 
#    y 0.000000 1.919420 0.000000 
#    z 0.000000 0.000000 1.913400 
# 
# From -- ./inp_files/1791.got.cif
#   From: 2010.03.12/outbox.cif.g09.slc.cpg/sg34_1_cif.got.tgz:1791.got - 2010.04.14 01:56:33.
