data_PCOD8172465
_publ_section_title
;
Structure prediction by ZEFSAII (Michael W. Deem and Ramdas Pophale) SiO2 
 PCOD8172465
Probable space group: C M M 2
;
_chemical_formula_sum "Si O2"
_cell_formula_units_Z 56
_cell_length_a 8.754227
_cell_length_b 21.637340
_cell_length_c 14.533966
_cell_angle_alpha 90.000000
_cell_angle_beta 90.000000
_cell_angle_gamma 90.000000
_cell_volume 2752.997476
_symmetry_space_group_name_H-M "C M M 2"
_symmetry_group_IT_number 35
_symmetry_cell_setting 'orthorhombic'
loop_
_space_group_symop_operation_xyz
x,y,z
-x,-y,z
-x,y,z
x,-y,z
1/2+x,1/2+y,z
1/2-x,1/2-y,z
1/2-x,1/2+y,z
1/2+x,1/2-y,z
loop_
_atom_site_type_symbol
_atom_site_label
_atom_site_fract_x
_atom_site_fract_y
_atom_site_fract_z
Si Si1 0.679692 0.929045 0.170010
Si Si2 0.325581 0.429286 0.362361
Si Si3 0.822726 0.687928 0.707191
Si Si4 0.673163 0.000000 0.667536
Si Si5 0.181060 0.184825 0.057581
Si Si6 0.323254 0.115728 0.538838
Si Si7 0.178770 0.625022 0.891534
Si Si8 0.320556 0.500000 0.861680
O O1 0.500000 0.922465 0.155063
O O2 0.719170 0.914882 0.275849
O O3 0.762149 0.876450 0.110676
O O4 0.732652 0.000000 0.145664
O O5 0.500000 0.414768 0.335535
O O6 0.304631 0.500000 0.394192
O O7 0.276507 0.385670 0.446749
O O8 0.750000 0.750000 0.743817
O O9 0.763580 0.671016 0.604718
O O10 0.787688 0.635893 0.783444
O O11 0.000000 0.698621 0.700058
O O12 0.703479 0.057206 0.602480
O O13 0.787200 0.000000 0.753101
O O14 0.500000 0.000000 0.707307
O O15 0.250000 0.250000 0.095585
O O16 0.000000 0.189052 0.065123
O O17 0.235120 0.176573 0.952200
O O18 0.500000 0.122164 0.510287
O O19 0.246424 0.558023 0.914161
O O20 0.000000 0.627389 0.915248
O O21 0.500000 0.500000 0.878323
#
# Coordination Sequence:
#
# PCOD8172465 Si02
#       8
#     8   8   8   4   8   8   8   4
#     4  10  22  42  68  96 126 165 208 256 317 381
#     4  10  20  34  56  90 125 155 192 249 311 367
#     4  10  22  38  57  80 112 157 205 252 298 351
#     4  10  18  34  56  79 114 155 196 242 294 354
#     4  12  26  45  68  96 128 164 210 260 315 380
#     4  10  19  34  56  82 113 156 200 242 294 359
#     4  11  23  42  64  87 121 164 207 253 308 372
#     4  12  24  36  56  91 126 159 202 256 314 370
#
# _framework density 20.341463999999998
#
# number of rings (size 3 to 8) (size 9 to 14) (size 15 to 20)
#    0.000    1.429    2.143    3.643    1.000    4.857 
#    0.000    0.714    0.000    1.714    0.000    0.000 
#    0.000    0.000    0.000    0.000    0.000    0.000 
#
# Total GULP energy -347148.892447 kJ/mol
# GULP energy per Si atom -12398.174730 kJ/mol
# Density = 2.029517 g / cm^3
# Si number density = 20.341464 Si / 1000 Ang^3
#
#
#
# Elastic Constant Matrix: (Units=GPa)
#
#
# Indices 1 2 3 4 5 6 
#
# 1 103.3189 52.4183 42.2526 0.0000 0.0000 0.0000
# 2 52.4183 116.8192 37.7032 0.0000 0.0000 0.0000
# 3 42.2526 37.7032 87.9471 0.0000 0.0000 0.0000
# 4 0.0000 0.0000 0.0000 -138.0382 0.0000 0.0000
# 5 0.0000 0.0000 0.0000 0.0000 36.3692 0.0000
# 6 0.0000 0.0000 0.0000 0.0000 0.0000 31.6608
#
#
#
# Elastic Compliance Matrix: (Units=1/GPa)
#
#
# Indices 1 2 3 4 5 6 
#
# 1 0.014020 -0.004778 -0.004687 0.000000 0.000000 0.000000
# 2 -0.004778 0.011563 -0.002662 0.000000 0.000000 0.000000
# 3 -0.004687 -0.002662 0.014763 0.000000 0.000000 0.000000
# 4 0.000000 0.000000 0.000000 -0.007244 0.000000 0.000000
# 5 0.000000 0.000000 0.000000 0.000000 0.027496 0.000000
# 6 0.000000 0.000000 0.000000 0.000000 0.000000 0.031585
#
#
# Mechanical properties :
#
#
# Convention : Reuss Voigt Hill
#
# Bulk Modulus (GPa) = 62.14032 63.64814 62.89423
# Shear Modulus (GPa) = 41.05072 -2.28756 19.38158
#
# Velocity S-wave (km/s) = 4.49718 -1.06161 3.09011
# Velocity P-wave (km/s) = 7.58822 5.46398 6.61197
#
# Compressibility (1/GPa) = 0.01609261
#
# Stress axis : x y z
#
# Youngs Moduli (GPa) = 71.32807 86.48079 67.73514
#
# Poissons Ratio (x) = 0.41321 0.31748
# Poissons Ratio (y) = 0.34081 0.18029
# Poissons Ratio (z) = 0.33433 0.23018
#
# Static dielectric constant tensor:
#      x y z
#    x 3.618340 0.000000 0.000000 
#    y 0.000000 10.027240 0.000000 
#    z 0.000000 0.000000 3.719670 
# 
# 
# High freq. dielectric constant tensor:
#      x y z
#    x 1.792700 0.000000 0.000000 
#    y 0.000000 1.790340 0.000000 
#    z 0.000000 0.000000 1.795110 
# 
# From -- ./inp_files/15677.got.cif
#   From: 2010.03.12/outbox.cif.g09.slc.cpg/sg35_8_cif.got.tgz:15677.got - 2010.04.14 02:02:04.
