data_PCOD8172104
_publ_section_title
;
Structure prediction by ZEFSAII (Michael W. Deem and Ramdas Pophale) SiO2 
 PCOD8172104
Probable space group: P N N 2
;
_chemical_formula_sum "Si O2"
_cell_formula_units_Z 32
_cell_length_a 10.187124
_cell_length_b 9.272646
_cell_length_c 15.781649
_cell_angle_alpha 90.000000
_cell_angle_beta 90.000000
_cell_angle_gamma 90.000000
_cell_volume 1490.759730
_symmetry_space_group_name_H-M "P N N 2"
_symmetry_group_IT_number 34
_symmetry_cell_setting 'orthorhombic'
loop_
_space_group_symop_operation_xyz
x,y,z
-x,-y,z
1/2-x,1/2+y,1/2+z
1/2+x,1/2-y,1/2+z
loop_
_atom_site_type_symbol
_atom_site_label
_atom_site_fract_x
_atom_site_fract_y
_atom_site_fract_z
Si Si1 0.022594 0.666790 0.808630
Si Si2 0.296447 0.192842 0.471142
Si Si3 0.873396 0.077598 0.482986
Si Si4 0.604152 0.617088 0.172806
Si Si5 0.203553 0.192842 0.907397
Si Si6 0.104152 0.382913 0.205733
Si Si7 0.373396 0.922402 0.895553
Si Si8 0.022594 0.166790 0.069909
O O1 0.126701 0.687475 0.883051
O O2 0.080965 0.734535 0.723146
O O3 0.000000 0.500000 0.790259
O O4 0.887048 0.745991 0.832655
O O5 0.171255 0.297468 0.459523
O O6 0.387048 0.254009 0.545884
O O7 0.246907 0.034420 0.496572
O O8 0.915267 0.145962 0.572977
O O9 0.828745 0.202532 0.419016
O O10 0.000000 0.000000 0.441653
O O11 0.500000 0.500000 0.206132
O O12 0.750000 0.557690 0.189269
O O13 0.253093 0.034420 0.881967
O O14 0.126701 0.187475 0.995488
O O15 0.084733 0.354038 0.305562
O O16 0.000000 0.500000 0.172407
O O17 0.080965 0.234535 0.155393
O O18 0.500000 0.000000 0.936886
O O19 0.000000 0.000000 0.088280
#
# Coordination Sequence:
#
# PCOD8172104 Si02
#       8
#     4   4   4   4   4   4   4   4
#     4  11  23  40  68  99 128 178 228 288 327 402
#     4  11  22  41  68  99 132 174 235 273 334 408
#     4  11  23  41  66  98 137 179 218 283 344 407
#     4  11  23  42  66  97 137 176 222 281 349 406
#     4  11  22  41  68  99 132 174 235 273 334 408
#     4  11  23  42  66  97 137 176 222 281 349 406
#     4  11  23  41  66  98 137 179 218 283 344 407
#     4  11  23  40  68  99 128 178 228 288 327 402
#
# _framework density 21.465567
#
# number of rings (size 3 to 8) (size 9 to 14) (size 15 to 20)
#    0.000    1.000    5.000    2.250    0.000    0.000 
#    0.000   12.500    0.000    0.000    0.000    0.000 
#    0.000    0.000    0.000    0.000    0.000    0.000 
#
# Total GULP energy -396982.385217 kJ/mol
# GULP energy per Si atom -12405.699538 kJ/mol
# Density = 2.141671 g / cm^3
# Si number density = 21.465567 Si / 1000 Ang^3
#
#
#
# Elastic Constant Matrix: (Units=GPa)
#
#
# Indices 1 2 3 4 5 6 
#
# 1 93.1957 21.7625 23.4362 0.0000 0.0000 0.0000
# 2 21.7625 108.5686 35.1126 0.0000 0.0000 0.0000
# 3 23.4362 35.1126 78.8177 0.0000 0.0000 0.0000
# 4 0.0000 0.0000 0.0000 28.7204 0.0000 0.0000
# 5 0.0000 0.0000 0.0000 0.0000 20.2060 0.0000
# 6 0.0000 0.0000 0.0000 0.0000 0.0000 39.2648
#
#
#
# Elastic Compliance Matrix: (Units=1/GPa)
#
#
# Indices 1 2 3 4 5 6 
#
# 1 0.011786 -0.001436 -0.002865 0.000000 0.000000 0.000000
# 2 -0.001436 0.010936 -0.004445 0.000000 0.000000 0.000000
# 3 -0.002865 -0.004445 0.015520 0.000000 0.000000 0.000000
# 4 0.000000 0.000000 0.000000 0.034818 0.000000 0.000000
# 5 0.000000 0.000000 0.000000 0.000000 0.049490 0.000000
# 6 0.000000 0.000000 0.000000 0.000000 0.000000 0.025468
#
#
# Mechanical properties :
#
#
# Convention : Reuss Voigt Hill
#
# Bulk Modulus (GPa) = 48.19253 49.02273 48.60763
# Shear Modulus (GPa) = 28.99788 30.98964 29.99376
#
# Velocity S-wave (km/s) = 3.67945 3.80372 3.74210
# Velocity P-wave (km/s) = 6.36796 6.49449 6.43154
#
# Compressibility (1/GPa) = 0.02075010
#
# Stress axis : x y z
#
# Youngs Moduli (GPa) = 84.84761 91.43965 64.43488
#
# Poissons Ratio (x) = 0.13130 0.18459
# Poissons Ratio (y) = 0.12184 0.28641
# Poissons Ratio (z) = 0.24307 0.40645
#
# Static dielectric constant tensor:
#      x y z
#    x 4.142800 0.000000 0.000000 
#    y 0.000000 3.809800 0.000000 
#    z 0.000000 0.000000 3.586360 
# 
# 
# High freq. dielectric constant tensor:
#      x y z
#    x 1.860700 0.000000 0.000000 
#    y 0.000000 1.840560 0.000000 
#    z 0.000000 0.000000 1.823470 
# 
# From -- ./inp_files/6820.got.cif
#   From: 2010.03.12/outbox.cif.g09.slc.cpg/sg34_4_cif.got.tgz:6820.got - 2010.04.14 01:56:33.
