data_PCOD8172363
_publ_section_title
;
Structure prediction by ZEFSAII (Michael W. Deem and Ramdas Pophale) SiO2 
 PCOD8172363
Probable space group: C M M 2
;
_chemical_formula_sum "Si O2"
_cell_formula_units_Z 48
_cell_length_a 16.635828
_cell_length_b 23.691672
_cell_length_c 7.433807
_cell_angle_alpha 90.000000
_cell_angle_beta 90.000000
_cell_angle_gamma 90.000000
_cell_volume 2929.890668
_symmetry_space_group_name_H-M "C M M 2"
_symmetry_group_IT_number 35
_symmetry_cell_setting 'orthorhombic'
loop_
_space_group_symop_operation_xyz
x,y,z
-x,-y,z
-x,y,z
x,-y,z
1/2+x,1/2+y,z
1/2-x,1/2-y,z
1/2-x,1/2+y,z
1/2+x,1/2-y,z
loop_
_atom_site_type_symbol
_atom_site_label
_atom_site_fract_x
_atom_site_fract_y
_atom_site_fract_z
Si Si1 0.405359 0.565006 0.393130
Si Si2 0.198108 0.306693 0.847128
Si Si3 0.656370 0.751229 0.518773
Si Si4 0.591091 0.643225 0.076010
Si Si5 0.655298 0.634550 0.704131
Si Si6 0.593100 0.767383 0.141194
O O1 0.500000 0.575778 0.429606
O O2 0.388454 0.500000 0.351251
O O3 0.371465 0.599664 0.220368
O O4 0.352969 0.582229 0.568167
O O5 0.250000 0.250000 0.857788
O O6 0.139242 0.296765 0.676557
O O7 0.256370 0.359397 0.799025
O O8 0.145474 0.313809 0.029192
O O9 0.750000 0.750000 0.461014
O O10 0.628967 0.689466 0.588417
O O11 0.603463 0.773793 0.353996
O O12 0.500000 0.650260 0.134655
O O13 0.629814 0.705746 0.088726
O O14 0.596609 0.621734 0.871472
O O15 0.500000 0.774972 0.088705
#
# Coordination Sequence:
#
# PCOD8172363 Si02
#       6
#     8   8   8   8   8   8
#     4  10  21  34  46  66  96 131 174 213 239 267
#     4   9  18  31  43  66  91 118 157 197 233 288
#     4   9  18  28  44  63  87 118 158 195 230 284
#     4  10  19  28  43  65  89 121 161 203 242 280
#     4  10  18  31  49  65  87 127 164 200 241 281
#     4  11  19  27  43  65  92 123 155 193 239 291
#
# _framework density 16.382864000000001
#
# number of rings (size 3 to 8) (size 9 to 14) (size 15 to 20)
#    0.000    2.500    5.000    1.000    0.000    2.000 
#    0.000    1.667    0.000    0.000    0.000    0.000 
#    0.000    0.667    0.000    1.833    0.000    0.667 
#
# Total GULP energy -297366.097047 kJ/mol
# GULP energy per Si atom -12390.254044 kJ/mol
# Density = 1.634558 g / cm^3
# Si number density = 16.382864 Si / 1000 Ang^3
#
#
#
# Elastic Constant Matrix: (Units=GPa)
#
#
# Indices 1 2 3 4 5 6 
#
# 1 44.3353 26.0198 33.3612 0.0000 0.0000 0.0000
# 2 26.0198 44.5652 26.4960 0.0000 0.0000 0.0000
# 3 33.3612 26.4960 123.2532 0.0000 0.0000 0.0000
# 4 0.0000 0.0000 0.0000 18.8861 0.0000 0.0000
# 5 0.0000 0.0000 0.0000 0.0000 30.2685 0.0000
# 6 0.0000 0.0000 0.0000 0.0000 0.0000 16.9278
#
#
#
# Elastic Compliance Matrix: (Units=1/GPa)
#
#
# Indices 1 2 3 4 5 6 
#
# 1 0.038218 -0.018532 -0.006361 0.000000 0.000000 0.000000
# 2 -0.018532 0.034714 -0.002446 0.000000 0.000000 0.000000
# 3 -0.006361 -0.002446 0.010361 0.000000 0.000000 0.000000
# 4 0.000000 0.000000 0.000000 0.052949 0.000000 0.000000
# 5 0.000000 0.000000 0.000000 0.000000 0.033038 0.000000
# 6 0.000000 0.000000 0.000000 0.000000 0.000000 0.059075
#
#
# Mechanical properties :
#
#
# Convention : Reuss Voigt Hill
#
# Bulk Modulus (GPa) = 34.94765 42.65641 38.80203
# Shear Modulus (GPa) = 17.08994 21.63492 19.36243
#
# Velocity S-wave (km/s) = 3.23330 3.63792 3.44156
# Velocity P-wave (km/s) = 5.94282 6.61360 6.28716
#
# Compressibility (1/GPa) = 0.02861423
#
# Stress axis : x y z
#
# Youngs Moduli (GPa) = 26.16579 28.80711 96.51658
#
# Poissons Ratio (x) = 0.53386 0.61390
# Poissons Ratio (y) = 0.48491 0.23611
# Poissons Ratio (z) = 0.16643 0.07047
#
# Static dielectric constant tensor:
#      x y z
#    x 2.894960 0.000000 0.000000 
#    y 0.000000 2.741720 0.000000 
#    z 0.000000 0.000000 3.402630 
# 
# 
# High freq. dielectric constant tensor:
#      x y z
#    x 1.603070 0.000000 0.000000 
#    y 0.000000 1.567630 0.000000 
#    z 0.000000 0.000000 1.656630 
# 
# From -- ./inp_files/8617.got.cif
#   From: 2010.03.12/outbox.cif.g09.slc.cpg/sg35_5_cif.got.tgz:8617.got - 2010.04.14 02:02:04.
