data_PCOD8172367
_publ_section_title
;
Structure prediction by ZEFSAII (Michael W. Deem and Ramdas Pophale) SiO2 
 PCOD8172367
Probable space group: C M M 2
;
_chemical_formula_sum "Si O2"
_cell_formula_units_Z 52
_cell_length_a 13.421366
_cell_length_b 21.388538
_cell_length_c 10.476227
_cell_angle_alpha 90.000000
_cell_angle_beta 90.000000
_cell_angle_gamma 90.000000
_cell_volume 3007.341307
_symmetry_space_group_name_H-M "C M M 2"
_symmetry_group_IT_number 35
_symmetry_cell_setting 'orthorhombic'
loop_
_space_group_symop_operation_xyz
x,y,z
-x,-y,z
-x,y,z
x,-y,z
1/2+x,1/2+y,z
1/2-x,1/2-y,z
1/2-x,1/2+y,z
1/2+x,1/2-y,z
loop_
_atom_site_type_symbol
_atom_site_label
_atom_site_fract_x
_atom_site_fract_y
_atom_site_fract_z
Si Si1 0.691511 0.927278 0.106710
Si Si2 0.614242 0.355631 0.495166
Si Si3 0.887903 0.574350 0.840252
Si Si4 0.750000 0.750000 0.416977
Si Si5 0.109527 0.929353 0.237419
Si Si6 0.288024 0.073759 0.582676
Si Si7 0.614730 0.143249 0.344084
O O1 0.808683 0.914748 0.130155
O O2 0.624028 0.895050 0.213730
O O3 0.664425 0.000000 0.112445
O O4 0.666417 0.899796 0.967200
O O5 0.500000 0.348259 0.541059
O O6 0.674201 0.290260 0.505226
O O7 0.620870 0.379845 0.350229
O O8 0.671646 0.406156 0.582806
O O9 0.885353 0.500000 0.838919
O O10 0.833881 0.599979 0.713999
O O11 0.000000 0.599942 0.840044
O O12 0.680714 0.794124 0.329680
O O13 0.000000 0.923029 0.174579
O O14 0.124982 0.000000 0.291840
O O15 0.346099 0.103188 0.463359
O O16 0.298302 0.000000 0.571571
O O17 0.500000 0.161196 0.366636
#
# Coordination Sequence:
#
# PCOD8172367 Si02
#       7
#     8   8   8   4   8   8   8
#     4  10  18  31  50  77 106 132 166 203 248 304
#     4  10  19  32  51  74 101 133 167 210 256 297
#     4   9  18  31  47  70 106 143 164 194 252 309
#     4  10  20  34  48  72 102 130 166 218 260 300
#     4   9  16  28  48  73 100 130 163 202 252 300
#     4  10  19  32  50  77 106 132 165 204 250 307
#     4  11  21  32  51  75  98 128 170 216 252 294
#
# _framework density 17.29102
#
# number of rings (size 3 to 8) (size 9 to 14) (size 15 to 20)
#    0.000    2.154    3.077    2.308    0.000    3.385 
#    0.000    0.769    0.000    6.462    0.000    4.308 
#    0.000    0.000    0.000    0.000    0.000    0.000 
#
# Total GULP energy -322306.490953 kJ/mol
# GULP energy per Si atom -12396.403498 kJ/mol
# Density = 1.725166 g / cm^3
# Si number density = 17.291020 Si / 1000 Ang^3
#
#
#
# Elastic Constant Matrix: (Units=GPa)
#
#
# Indices 1 2 3 4 5 6 
#
# 1 158.3081 39.8922 54.4240 0.0000 0.0000 0.0000
# 2 39.8922 62.7284 30.0452 0.0000 0.0000 0.0000
# 3 54.4240 30.0452 115.1958 0.0000 0.0000 0.0000
# 4 0.0000 0.0000 0.0000 2.7645 0.0000 0.0000
# 5 0.0000 0.0000 0.0000 0.0000 26.7427 0.0000
# 6 0.0000 0.0000 0.0000 0.0000 0.0000 26.4519
#
#
#
# Elastic Compliance Matrix: (Units=1/GPa)
#
#
# Indices 1 2 3 4 5 6 
#
# 1 0.008294 -0.003883 -0.002906 0.000000 0.000000 0.000000
# 2 -0.003883 0.020035 -0.003391 0.000000 0.000000 0.000000
# 3 -0.002906 -0.003391 0.010938 0.000000 0.000000 0.000000
# 4 0.000000 0.000000 0.000000 0.361728 0.000000 0.000000
# 5 0.000000 0.000000 0.000000 0.000000 0.037393 0.000000
# 6 0.000000 0.000000 0.000000 0.000000 0.000000 0.037804
#
#
# Mechanical properties :
#
#
# Convention : Reuss Voigt Hill
#
# Bulk Modulus (GPa) = 52.88761 64.99500 58.94130
# Shear Modulus (GPa) = 9.94320 25.31654 17.62987
#
# Velocity S-wave (km/s) = 2.40062 3.83056 3.19658
# Velocity P-wave (km/s) = 6.19170 7.56537 6.91274
#
# Compressibility (1/GPa) = 0.01890802
#
# Stress axis : x y z
#
# Youngs Moduli (GPa) = 120.56556 49.91179 91.42272
#
# Poissons Ratio (x) = 0.19380 0.26566
# Poissons Ratio (y) = 0.46814 0.31003
# Poissons Ratio (z) = 0.35035 0.16926
#
# Static dielectric constant tensor:
#      x y z
#    x 3.596000 0.000000 0.000000 
#    y 0.000000 3.134080 0.000000 
#    z 0.000000 0.000000 3.107200 
# 
# 
# High freq. dielectric constant tensor:
#      x y z
#    x 1.688270 0.000000 0.000000 
#    y 0.000000 1.646920 0.000000 
#    z 0.000000 0.000000 1.637270 
# 
# From -- ./inp_files/7526.got.cif
#   From: 2010.03.12/outbox.cif.g09.slc.cpg/sg35_4_cif.got.tgz:7526.got - 2010.04.14 02:02:04.
