data_PCOD8172492
_publ_section_title
;
Structure prediction by ZEFSAII (Michael W. Deem and Ramdas Pophale) SiO2 
 PCOD8172492
Probable space group: C M M 2
;
_chemical_formula_sum "Si O2"
_cell_formula_units_Z 56
_cell_length_a 9.028936
_cell_length_b 27.361947
_cell_length_c 15.675973
_cell_angle_alpha 90.000000
_cell_angle_beta 90.000000
_cell_angle_gamma 90.000000
_cell_volume 3872.737660
_symmetry_space_group_name_H-M "C M M 2"
_symmetry_group_IT_number 35
_symmetry_cell_setting 'orthorhombic'
loop_
_space_group_symop_operation_xyz
x,y,z
-x,-y,z
-x,y,z
x,-y,z
1/2+x,1/2+y,z
1/2-x,1/2-y,z
1/2-x,1/2+y,z
1/2+x,1/2-y,z
loop_
_atom_site_type_symbol
_atom_site_label
_atom_site_fract_x
_atom_site_fract_y
_atom_site_fract_z
Si Si1 0.823694 0.445594 0.548510
Si Si2 0.334656 0.558079 0.198807
Si Si3 0.673054 0.056915 0.028800
Si Si4 0.323499 0.882973 0.707217
Si Si5 0.664962 0.941802 0.361707
Si Si6 0.167882 0.895022 0.871827
Si Si7 0.332482 0.700587 0.785475
O O1 0.760875 0.500000 0.567283
O O2 0.766886 0.408643 0.620847
O O3 0.770686 0.426844 0.454975
O O4 0.000000 0.447938 0.548038
O O5 0.500000 0.578886 0.187125
O O6 0.336503 0.500000 0.203806
O O7 0.235222 0.575104 0.119413
O O8 0.267873 0.579679 0.286675
O O9 0.500000 0.067762 0.026704
O O10 0.708054 0.000000 0.013629
O O11 0.751938 0.088033 0.956524
O O12 0.500000 0.881127 0.713627
O O13 0.258008 0.913808 0.787938
O O14 0.255335 0.827915 0.709299
O O15 0.500000 0.920428 0.348551
O O16 0.658183 0.000000 0.356907
O O17 0.167108 0.835444 0.868113
O O18 0.000000 0.915516 0.869717
O O19 0.500000 0.711985 0.755675
O O20 0.250000 0.750000 0.810665
#
# Coordination Sequence:
#
# PCOD8172492 Si02
#       7
#     8   8   8   8   8   8   8
#     4   8  14  24  39  59  83 113 146 176 203 234
#     4   9  16  25  37  54  77 105 137 174 213 245
#     4  10  19  29  42  59  80 111 147 176 204 242
#     4   9  16  27  43  62  85 111 140 173 205 244
#     4   8  13  23  38  54  74 103 141 178 205 233
#     4   9  19  31  42  60  84 109 137 171 208 247
#     4   9  18  31  47  63  81 105 133 169 212 251
#
# _framework density 14.460055000000001
#
# number of rings (size 3 to 8) (size 9 to 14) (size 15 to 20)
#    0.857    2.286    0.000    2.571    0.000    3.143 
#    0.000    2.857    0.000    2.143    0.000    0.000 
#    0.000    1.143    0.000    8.286    0.000    4.286 
#
# Total GULP energy -346895.291990 kJ/mol
# GULP energy per Si atom -12389.117571 kJ/mol
# Density = 1.442714 g / cm^3
# Si number density = 14.460055 Si / 1000 Ang^3
#
#
#
# Elastic Constant Matrix: (Units=GPa)
#
#
# Indices 1 2 3 4 5 6 
#
# 1 98.3003 31.1226 55.1911 0.0000 0.0000 0.0000
# 2 31.1226 43.2992 38.3658 0.0000 0.0000 0.0000
# 3 55.1911 38.3658 124.5770 0.0000 0.0000 0.0000
# 4 0.0000 0.0000 0.0000 0.8811 0.0000 0.0000
# 5 0.0000 0.0000 0.0000 0.0000 16.1670 0.0000
# 6 0.0000 0.0000 0.0000 0.0000 0.0000 17.0249
#
#
#
# Elastic Compliance Matrix: (Units=1/GPa)
#
#
# Indices 1 2 3 4 5 6 
#
# 1 0.014812 -0.006646 -0.004516 0.000000 0.000000 0.000000
# 2 -0.006646 0.034744 -0.007756 0.000000 0.000000 0.000000
# 3 -0.004516 -0.007756 0.012416 0.000000 0.000000 0.000000
# 4 0.000000 0.000000 0.000000 1.134917 0.000000 0.000000
# 5 0.000000 0.000000 0.000000 0.000000 0.061854 0.000000
# 6 0.000000 0.000000 0.000000 0.000000 0.000000 0.058737
#
#
# Mechanical properties :
#
#
# Convention : Reuss Voigt Hill
#
# Bulk Modulus (GPa) = 41.42790 57.28173 49.35481
# Shear Modulus (GPa) = 3.66741 16.24775 9.95758
#
# Velocity S-wave (km/s) = 1.59428 3.35570 2.62702
# Velocity P-wave (km/s) = 5.66578 7.39689 6.58844
#
# Compressibility (1/GPa) = 0.02413832
#
# Stress axis : x y z
#
# Youngs Moduli (GPa) = 67.51152 28.78193 80.53963
#
# Poissons Ratio (x) = 0.19128 0.36368
# Poissons Ratio (y) = 0.44866 0.62465
# Poissons Ratio (z) = 0.30485 0.22323
#
# Static dielectric constant tensor:
#      x y z
#    x 2.889720 0.000000 0.000000 
#    y 0.000000 2.420080 0.000000 
#    z 0.000000 0.000000 2.945520 
# 
# 
# High freq. dielectric constant tensor:
#      x y z
#    x 1.559970 0.000000 0.000000 
#    y 0.000000 1.495060 0.000000 
#    z 0.000000 0.000000 1.551690 
# 
# From -- ./inp_files/16079.got.cif
#   From: 2010.03.12/outbox.cif.g09.slc.cpg/sg35_9_cif.got.tgz:16079.got - 2010.04.14 02:02:04.
