data_PCOD8172116
_publ_section_title
;
Structure prediction by ZEFSAII (Michael W. Deem and Ramdas Pophale) SiO2 
 PCOD8172116
Probable space group: P N N 2
;
_chemical_formula_sum "Si O2"
_cell_formula_units_Z 18
_cell_length_a 5.558211
_cell_length_b 5.303018
_cell_length_c 23.685802
_cell_angle_alpha 90.000000
_cell_angle_beta 90.000000
_cell_angle_gamma 90.000000
_cell_volume 698.145953
_symmetry_space_group_name_H-M "P N N 2"
_symmetry_group_IT_number 34
_symmetry_cell_setting 'orthorhombic'
loop_
_space_group_symop_operation_xyz
x,y,z
-x,-y,z
1/2-x,1/2+y,1/2+z
1/2+x,1/2-y,1/2+z
loop_
_atom_site_type_symbol
_atom_site_label
_atom_site_fract_x
_atom_site_fract_y
_atom_site_fract_z
Si Si1 0.650930 0.750889 0.084210
Si Si2 0.368453 0.250292 0.316849
Si Si3 0.758148 0.644453 0.963815
Si Si4 0.500000 0.000000 0.886461
Si Si5 0.640721 0.256113 0.705269
O O1 0.500000 0.500000 0.096079
O O2 0.804455 0.796568 0.139930
O O3 0.500000 0.000000 0.072919
O O4 0.816198 0.718553 0.028854
O O5 0.500000 0.500000 0.337862
O O6 0.105667 0.274374 0.346724
O O7 0.364653 0.251209 0.248281
O O8 0.500000 0.000000 0.339267
O O9 0.500000 0.500000 0.962454
O O10 0.716282 0.890179 0.925322
O O11 0.000000 0.500000 0.942203
O O12 0.500000 0.500000 0.726892
O O13 0.500000 0.000000 0.714918
#
# Coordination Sequence:
#
# PCOD8172116 Si02
#       5
#     4   4   4   2   4
#     4  11  23  47  76 115 158 209 266 337 415 497
#     4  12  29  50  80 114 160 216 272 341 418 497
#     4  11  28  51  81 119 164 219 281 344 419 499
#     4  12  30  52  78 116 168 212 298 334 432 496
#     4  12  24  45  75 116 160 206 264 339 416 497
#
# _framework density 25.782577
#
# number of rings (size 3 to 8) (size 9 to 14) (size 15 to 20)
#    0.000    0.444    2.222    4.667    6.222    1.778 
#    0.000    0.000    0.000    0.000    0.000    0.000 
#    0.000    0.000    0.000    0.000    0.000    0.000 
#
# Total GULP energy -223129.054733 kJ/mol
# GULP energy per Si atom -12396.058596 kJ/mol
# Density = 2.572389 g / cm^3
# Si number density = 25.782577 Si / 1000 Ang^3
#
#
#
# Elastic Constant Matrix: (Units=GPa)
#
#
# Indices 1 2 3 4 5 6 
#
# 1 117.8466 56.9397 40.2980 0.0000 0.0000 0.0000
# 2 56.9397 173.2084 33.3434 0.0000 0.0000 0.0000
# 3 40.2980 33.3434 171.4947 0.0000 0.0000 0.0000
# 4 0.0000 0.0000 0.0000 29.1772 0.0000 0.0000
# 5 0.0000 0.0000 0.0000 0.0000 16.4180 0.0000
# 6 0.0000 0.0000 0.0000 0.0000 0.0000 55.5448
#
#
#
# Elastic Compliance Matrix: (Units=1/GPa)
#
#
# Indices 1 2 3 4 5 6 
#
# 1 0.010648 -0.003136 -0.001892 0.000000 0.000000 0.000000
# 2 -0.003136 0.006922 -0.000609 0.000000 0.000000 0.000000
# 3 -0.001892 -0.000609 0.006394 0.000000 0.000000 0.000000
# 4 0.000000 0.000000 0.000000 0.034273 0.000000 0.000000
# 5 0.000000 0.000000 0.000000 0.000000 0.060909 0.000000
# 6 0.000000 0.000000 0.000000 0.000000 0.000000 0.018003
#
#
# Mechanical properties :
#
#
# Convention : Reuss Voigt Hill
#
# Bulk Modulus (GPa) = 78.80748 80.41243 79.60995
# Shear Modulus (GPa) = 32.75395 42.35922 37.55659
#
# Velocity S-wave (km/s) = 3.56812 4.05772 3.82077
# Velocity P-wave (km/s) = 6.89984 7.29450 7.09992
#
# Compressibility (1/GPa) = 0.01268915
#
# Stress axis : x y z
#
# Youngs Moduli (GPa) = 93.91478 144.47663 156.39374
#
# Poissons Ratio (x) = 0.45309 0.29595
# Poissons Ratio (y) = 0.29452 0.09522
# Poissons Ratio (z) = 0.17772 0.08796
#
# Static dielectric constant tensor:
#      x y z
#    x 4.540270 0.000000 0.000000 
#    y 0.000000 4.927410 0.000000 
#    z 0.000000 0.000000 5.401040 
# 
# 
# High freq. dielectric constant tensor:
#      x y z
#    x 2.008090 0.000000 0.000000 
#    y 0.000000 2.045200 0.000000 
#    z 0.000000 0.000000 2.065580 
# 
# From -- ./inp_files/8213.got.cif
#   From: 2010.03.12/outbox.cif.g09.slc.cpg/sg34_5_cif.got.tgz:8213.got - 2010.04.14 01:56:33.
