data_PCOD8172280
_publ_section_title
;
Structure prediction by ZEFSAII (Michael W. Deem and Ramdas Pophale) SiO2 
 PCOD8172280
Probable space group: C M M 2
;
_chemical_formula_sum "Si O2"
_cell_formula_units_Z 64
_cell_length_a 9.068998
_cell_length_b 19.427936
_cell_length_c 20.920008
_cell_angle_alpha 90.000000
_cell_angle_beta 90.000000
_cell_angle_gamma 90.000000
_cell_volume 3685.936224
_symmetry_space_group_name_H-M "C M M 2"
_symmetry_group_IT_number 35
_symmetry_cell_setting 'orthorhombic'
loop_
_space_group_symop_operation_xyz
x,y,z
-x,-y,z
-x,y,z
x,-y,z
1/2+x,1/2+y,z
1/2-x,1/2-y,z
1/2-x,1/2+y,z
1/2+x,1/2-y,z
loop_
_atom_site_type_symbol
_atom_site_label
_atom_site_fract_x
_atom_site_fract_y
_atom_site_fract_z
Si Si1 0.326209 0.078623 0.707570
Si Si2 0.175347 0.076547 0.195054
Si Si3 0.671212 0.822441 0.819127
Si Si4 0.836049 0.918145 0.335093
Si Si5 0.334037 0.581939 0.581024
Si Si6 0.834619 0.582180 0.457231
Si Si7 0.827147 0.323101 0.959876
Si Si8 0.823490 0.824576 0.082431
O O1 0.500000 0.084468 0.697679
O O2 0.269505 0.123005 0.767603
O O3 0.250069 0.108445 0.643962
O O4 0.278690 0.000000 0.720459
O O5 0.228995 0.102389 0.265246
O O6 0.230949 0.129322 0.141574
O O7 0.000000 0.073039 0.196200
O O8 0.237971 0.000000 0.180142
O O9 0.500000 0.807467 0.808793
O O10 0.750000 0.750000 0.809718
O O11 0.696828 0.856486 0.889695
O O12 0.733920 0.888416 0.391467
O O13 0.000000 0.887568 0.344660
O O14 0.843677 0.000000 0.338970
O O15 0.500000 0.610311 0.582535
O O16 0.330595 0.500000 0.579290
O O17 0.255552 0.611344 0.517696
O O18 0.831210 0.500000 0.457020
O O19 0.000000 0.610197 0.462610
O O20 0.750000 0.250000 0.955695
O O21 0.000000 0.316229 0.976454
O O22 0.741978 0.361517 0.018035
O O23 0.750000 0.750000 0.090941
O O24 0.000000 0.818894 0.078318
#
# Coordination Sequence:
#
# PCOD8172280 Si02
#       8
#     8   8   8   8   8   8   8   8
#     4   9  17  30  46  64  89 119 147 177 218 265
#     4   8  15  28  45  64  87 117 150 181 216 260
#     4   9  18  31  48  68  88 114 147 182 219 260
#     4   8  13  23  39  57  78 106 141 179 215 252
#     4   9  16  25  38  58  84 114 147 181 216 254
#     4   9  15  22  34  55  83 113 143 175 214 259
#     4   9  16  28  45  65  88 113 145 182 219 258
#     4  10  18  29  47  68  89 114 146 183 220 260
#
# _framework density 17.363295000000001
#
# number of rings (size 3 to 8) (size 9 to 14) (size 15 to 20)
#    0.000    3.125    0.000    3.000    0.000    4.000 
#    0.000    1.875    0.000    3.750    0.000    0.875 
#    0.000    4.000    0.000    0.000    0.000    0.000 
#
# Total GULP energy -396526.789059 kJ/mol
# GULP energy per Si atom -12391.462158 kJ/mol
# Density = 1.732378 g / cm^3
# Si number density = 17.363295 Si / 1000 Ang^3
#
#
#
# Elastic Constant Matrix: (Units=GPa)
#
#
# Indices 1 2 3 4 5 6 
#
# 1 82.6014 22.4456 65.2738 0.0000 0.0000 0.0000
# 2 22.4456 38.3441 50.6417 0.0000 0.0000 0.0000
# 3 65.2738 50.6417 196.6494 0.0000 0.0000 0.0000
# 4 0.0000 0.0000 0.0000 9.9955 0.0000 0.0000
# 5 0.0000 0.0000 0.0000 0.0000 30.3010 0.0000
# 6 0.0000 0.0000 0.0000 0.0000 0.0000 11.1427
#
#
#
# Elastic Compliance Matrix: (Units=1/GPa)
#
#
# Indices 1 2 3 4 5 6 
#
# 1 0.016756 -0.003732 -0.004601 0.000000 0.000000 0.000000
# 2 -0.003732 0.040353 -0.009153 0.000000 0.000000 0.000000
# 3 -0.004601 -0.009153 0.008969 0.000000 0.000000 0.000000
# 4 0.000000 0.000000 0.000000 0.100045 0.000000 0.000000
# 5 0.000000 0.000000 0.000000 0.000000 0.033002 0.000000
# 6 0.000000 0.000000 0.000000 0.000000 0.000000 0.089745
#
#
# Mechanical properties :
#
#
# Convention : Reuss Voigt Hill
#
# Bulk Modulus (GPa) = 32.14772 66.03524 49.09148
# Shear Modulus (GPa) = 14.96059 22.23675 18.59867
#
# Velocity S-wave (km/s) = 2.93852 3.58254 3.27639
# Velocity P-wave (km/s) = 5.48345 7.43148 6.53051
#
# Compressibility (1/GPa) = 0.03110641
#
# Stress axis : x y z
#
# Youngs Moduli (GPa) = 59.67958 24.78141 111.49052
#
# Poissons Ratio (x) = 0.09249 0.51293
# Poissons Ratio (y) = 0.22275 1.02046
# Poissons Ratio (z) = 0.27457 0.22682
#
# Static dielectric constant tensor:
#      x y z
#    x 3.242430 0.000000 0.000000 
#    y 0.000000 2.704530 0.000000 
#    z 0.000000 0.000000 3.951490 
# 
# 
# High freq. dielectric constant tensor:
#      x y z
#    x 1.666430 0.000000 0.000000 
#    y 0.000000 1.600290 0.000000 
#    z 0.000000 0.000000 1.695810 
# 
# From -- ./inp_files/18488.got.cif
#   From: 2010.03.12/outbox.cif.g09.slc.cpg/sg35_10_cif.got.tgz:18488.got - 2010.04.14 02:02:04.
