data_PCOD8172954
_publ_section_title
;
Structure prediction by ZEFSAII (Michael W. Deem and Ramdas Pophale) SiO2 
 PCOD8172954
Probable space group: C M M 2
;
_chemical_formula_sum "Si O2"
_cell_formula_units_Z 64
_cell_length_a 30.731029
_cell_length_b 8.993231
_cell_length_c 11.749905
_cell_angle_alpha 90.000000
_cell_angle_beta 90.000000
_cell_angle_gamma 90.000000
_cell_volume 3247.335846
_symmetry_space_group_name_H-M "C M M 2"
_symmetry_group_IT_number 35
_symmetry_cell_setting 'orthorhombic'
loop_
_space_group_symop_operation_xyz
x,y,z
-x,-y,z
-x,y,z
x,-y,z
1/2+x,1/2+y,z
1/2-x,1/2-y,z
1/2-x,1/2+y,z
1/2+x,1/2-y,z
loop_
_atom_site_type_symbol
_atom_site_label
_atom_site_fract_x
_atom_site_fract_y
_atom_site_fract_z
Si Si1 0.792969 0.324565 0.197630
Si Si2 0.081873 0.175487 0.429386
Si Si3 0.180950 0.829586 0.420273
Si Si4 0.049783 0.173637 0.669840
Si Si5 0.623763 0.173030 0.056956
Si Si6 0.049155 0.824308 0.189700
Si Si7 0.126261 0.673829 0.793826
Si Si8 0.206590 0.828799 0.674121
O O1 0.787837 0.500000 0.189956
O O2 0.750000 0.250000 0.142989
O O3 0.796174 0.275397 0.328713
O O4 0.835031 0.267771 0.128697
O O5 0.131712 0.225984 0.436760
O O6 0.057219 0.234768 0.541521
O O7 0.060477 0.241656 0.314756
O O8 0.077165 0.000000 0.426313
O O9 0.206051 0.812301 0.538337
O O10 0.182101 0.000000 0.376937
O O11 0.079468 0.263785 0.757247
O O12 0.000000 0.200861 0.705121
O O13 0.062359 0.000000 0.676896
O O14 0.580391 0.256851 0.094740
O O15 0.616303 0.000000 0.079327
O O16 0.633070 0.208029 0.926123
O O17 0.000000 0.779289 0.158508
O O18 0.055597 0.000000 0.189132
O O19 0.128250 0.500000 0.767052
O O20 0.164080 0.753957 0.725141
O O21 0.250000 0.750000 0.721602
O O22 0.207316 0.000000 0.711720
#
# Coordination Sequence:
#
# PCOD8172954 Si02
#       8
#     8   8   8   8   8   8   8   8
#     4  11  23  39  60  86 116 149 191 236 288 345
#     4   9  16  32  58  88 120 151 184 229 288 347
#     4  10  19  35  61  89 119 153 187 228 286 346
#     4  10  20  37  62  90 120 154 193 239 292 349
#     4  10  24  43  59  80 113 155 197 241 291 340
#     4  10  20  35  60  91 118 149 191 236 284 342
#     4  11  24  42  61  82 115 156 201 247 292 341
#     4  11  23  40  62  90 121 153 192 236 290 349
#
# _framework density 19.708462000000001
#
# number of rings (size 3 to 8) (size 9 to 14) (size 15 to 20)
#    0.000    1.750    2.500    1.875    0.000    6.500 
#    0.000    4.375    0.000    1.500    0.000    0.000 
#    0.000    0.000    0.000    0.000    0.000    0.000 
#
# Total GULP energy -396912.356324 kJ/mol
# GULP energy per Si atom -12403.511135 kJ/mol
# Density = 1.966360 g / cm^3
# Si number density = 19.708462 Si / 1000 Ang^3
#
#
#
# Elastic Constant Matrix: (Units=GPa)
#
#
# Indices 1 2 3 4 5 6 
#
# 1 132.7031 52.0472 34.5058 0.0000 0.0000 0.0000
# 2 52.0472 75.7334 39.4106 0.0000 0.0000 0.0000
# 3 34.5058 39.4106 73.7856 0.0000 0.0000 0.0000
# 4 0.0000 0.0000 0.0000 26.9200 0.0000 0.0000
# 5 0.0000 0.0000 0.0000 0.0000 13.0519 0.0000
# 6 0.0000 0.0000 0.0000 0.0000 0.0000 33.9990
#
#
#
# Elastic Compliance Matrix: (Units=1/GPa)
#
#
# Indices 1 2 3 4 5 6 
#
# 1 0.010427 -0.006410 -0.001452 0.000000 0.000000 0.000000
# 2 -0.006410 0.022228 -0.008875 0.000000 0.000000 0.000000
# 3 -0.001452 -0.008875 0.018972 0.000000 0.000000 0.000000
# 4 0.000000 0.000000 0.000000 0.037147 0.000000 0.000000
# 5 0.000000 0.000000 0.000000 0.000000 0.076617 0.000000
# 6 0.000000 0.000000 0.000000 0.000000 0.000000 0.029413
#
#
# Mechanical properties :
#
#
# Convention : Reuss Voigt Hill
#
# Bulk Modulus (GPa) = 55.08850 59.34992 57.21921
# Shear Modulus (GPa) = 21.33740 25.21141 23.27440
#
# Velocity S-wave (km/s) = 3.29394 3.58050 3.44020
# Velocity P-wave (km/s) = 6.51760 6.87550 6.69894
#
# Compressibility (1/GPa) = 0.01815261
#
# Stress axis : x y z
#
# Youngs Moduli (GPa) = 95.90032 44.98845 52.70875
#
# Poissons Ratio (x) = 0.28839 0.07656
# Poissons Ratio (y) = 0.61476 0.46777
# Poissons Ratio (z) = 0.13929 0.39926
#
# Static dielectric constant tensor:
#      x y z
#    x 3.768330 0.000000 0.000000 
#    y 0.000000 3.418670 0.000000 
#    z 0.000000 0.000000 3.579870 
# 
# 
# High freq. dielectric constant tensor:
#      x y z
#    x 1.784350 0.000000 0.000000 
#    y 0.000000 1.750130 0.000000 
#    z 0.000000 0.000000 1.763820 
# 
# From -- ./inp_files/11932.got.cif
#   From: 2010.03.12/outbox.cif.g09.slc.cpg/sg35_6_cif.got.tgz:11932.got - 2010.04.14 02:02:04.
