data_PCOD8172905
_publ_section_title
;
Structure prediction by ZEFSAII (Michael W. Deem and Ramdas Pophale) SiO2 
 PCOD8172905
Probable space group: C M M 2
;
_chemical_formula_sum "Si O2"
_cell_formula_units_Z 64
_cell_length_a 26.910469
_cell_length_b 24.183218
_cell_length_c 5.116009
_cell_angle_alpha 90.000000
_cell_angle_beta 90.000000
_cell_angle_gamma 90.000000
_cell_volume 3329.405230
_symmetry_space_group_name_H-M "C M M 2"
_symmetry_group_IT_number 35
_symmetry_cell_setting 'orthorhombic'
loop_
_space_group_symop_operation_xyz
x,y,z
-x,-y,z
-x,y,z
x,-y,z
1/2+x,1/2+y,z
1/2-x,1/2-y,z
1/2-x,1/2+y,z
1/2+x,1/2-y,z
loop_
_atom_site_type_symbol
_atom_site_label
_atom_site_fract_x
_atom_site_fract_y
_atom_site_fract_z
Si Si1 0.132914 0.596690 0.170580
Si Si2 0.054148 0.559347 0.519885
Si Si3 0.691999 0.934642 0.654350
Si Si4 0.637279 0.434681 0.254410
Si Si5 0.441942 0.161465 0.894681
Si Si6 0.802150 0.934770 0.756252
Si Si7 0.941560 0.220155 0.701635
Si Si8 0.559015 0.345159 0.201175
O O1 0.092395 0.553752 0.280929
O O2 0.173823 0.601325 0.403431
O O3 0.157439 0.574914 0.905165
O O4 0.099193 0.652888 0.125595
O O5 0.055433 0.500000 0.668462
O O6 0.067469 0.608079 0.717004
O O7 0.000000 0.570749 0.397109
O O8 0.746649 0.911208 0.721484
O O9 0.692394 0.000000 0.582510
O O10 0.626997 0.500000 0.241015
O O11 0.662598 0.415413 0.522018
O O12 0.584148 0.404973 0.231570
O O13 0.674150 0.414173 0.026371
O O14 0.500000 0.165703 0.992579
O O15 0.425962 0.216103 0.736838
O O16 0.797804 0.000000 0.758519
O O17 0.922180 0.196408 0.427783
O O18 0.000000 0.215838 0.708153
O O19 0.921075 0.182438 0.936074
O O20 0.500000 0.354599 0.207948
#
# Coordination Sequence:
#
# PCOD8172905 Si02
#       8
#     8   8   8   8   8   8   8   8
#     4  12  22  34  52  77 105 141 181 235 287 338
#     4  10  21  35  50  73 109 146 179 220 281 355
#     4  11  22  35  53  76 109 144 183 236 285 329
#     4  10  19  34  58  87 122 152 178 212 263 335
#     4  10  22  38  56  76 108 150 192 235 281 335
#     4   9  19  35  54  80 112 151 188 221 266 325
#     4   9  20  36  56  78 110 149 193 237 266 304
#     4  10  20  35  57  89 120 148 183 222 264 317
#
# _framework density 19.222653000000001
#
# number of rings (size 3 to 8) (size 9 to 14) (size 15 to 20)
#    0.000    1.875    1.250    3.000    1.750    3.250 
#    0.000    1.250    0.000    4.500    0.000   13.125 
#    0.000    0.000    0.000    0.000    0.000    0.000 
#
# Total GULP energy -396500.178569 kJ/mol
# GULP energy per Si atom -12390.630580 kJ/mol
# Density = 1.917890 g / cm^3
# Si number density = 19.222653 Si / 1000 Ang^3
#
#
#
# Elastic Constant Matrix: (Units=GPa)
#
#
# Indices 1 2 3 4 5 6 
#
# 1 79.0248 34.3866 11.2501 0.0000 0.0000 0.0000
# 2 34.3866 66.0023 11.0421 0.0000 0.0000 0.0000
# 3 11.2501 11.0421 72.1046 0.0000 0.0000 0.0000
# 4 0.0000 0.0000 0.0000 21.6467 0.0000 0.0000
# 5 0.0000 0.0000 0.0000 0.0000 23.4181 0.0000
# 6 0.0000 0.0000 0.0000 0.0000 0.0000 25.5719
#
#
#
# Elastic Compliance Matrix: (Units=1/GPa)
#
#
# Indices 1 2 3 4 5 6 
#
# 1 0.016480 -0.008370 -0.001289 0.000000 0.000000 0.000000
# 2 -0.008370 0.019801 -0.001726 0.000000 0.000000 0.000000
# 3 -0.001289 -0.001726 0.014334 0.000000 0.000000 0.000000
# 4 0.000000 0.000000 0.000000 0.046196 0.000000 0.000000
# 5 0.000000 0.000000 0.000000 0.000000 0.042702 0.000000
# 6 0.000000 0.000000 0.000000 0.000000 0.000000 0.039105
#
#
# Mechanical properties :
#
#
# Convention : Reuss Voigt Hill
#
# Bulk Modulus (GPa) = 35.91573 36.72100 36.31837
# Shear Modulus (GPa) = 23.73362 24.82422 24.27892
#
# Velocity S-wave (km/s) = 3.51760 3.59751 3.55778
# Velocity P-wave (km/s) = 5.93487 6.03329 5.98428
#
# Compressibility (1/GPa) = 0.02784295
#
# Stress axis : x y z
#
# Youngs Moduli (GPa) = 60.67959 50.50354 69.76275
#
# Poissons Ratio (x) = 0.42272 0.08996
# Poissons Ratio (y) = 0.50790 0.12043
# Poissons Ratio (z) = 0.07824 0.08718
#
# Static dielectric constant tensor:
#      x y z
#    x 3.611610 0.000000 0.000000 
#    y 0.000000 3.312700 0.000000 
#    z 0.000000 0.000000 3.871700 
# 
# 
# High freq. dielectric constant tensor:
#      x y z
#    x 1.738550 0.000000 0.000000 
#    y 0.000000 1.711550 0.000000 
#    z 0.000000 0.000000 1.760220 
# 
# From -- ./inp_files/3817.got.cif
#   From: 2010.03.12/outbox.cif.g09.slc.cpg/sg35_2_cif.got.tgz:3817.got - 2010.04.14 02:02:04.
