data_PCOD8172062
_publ_section_title
;
Structure prediction by ZEFSAII (Michael W. Deem and Ramdas Pophale) SiO2 
 PCOD8172062
Probable space group: P N N 2
;
_chemical_formula_sum "Si O2"
_cell_formula_units_Z 20
_cell_length_a 18.141365
_cell_length_b 9.003014
_cell_length_c 5.160232
_cell_angle_alpha 90.000000
_cell_angle_beta 90.000000
_cell_angle_gamma 90.000000
_cell_volume 842.805021
_symmetry_space_group_name_H-M "P N N 2"
_symmetry_group_IT_number 34
_symmetry_cell_setting 'orthorhombic'
loop_
_space_group_symop_operation_xyz
x,y,z
-x,-y,z
1/2-x,1/2+y,1/2+z
1/2+x,1/2-y,1/2+z
loop_
_atom_site_type_symbol
_atom_site_label
_atom_site_fract_x
_atom_site_fract_y
_atom_site_fract_z
Si Si1 0.738001 0.745297 0.038600
Si Si2 0.667816 0.670096 0.537362
Si Si3 0.101206 0.130978 0.136966
Si Si4 0.456540 0.775720 0.156872
Si Si5 0.390741 0.089583 0.214030
O O1 0.710360 0.631854 0.266162
O O2 0.820146 0.796205 0.083541
O O3 0.681150 0.885433 0.034808
O O4 0.730821 0.670996 0.757814
O O5 0.608055 0.546880 0.619854
O O6 0.626109 0.830040 0.494011
O O7 0.073728 0.180746 0.417863
O O8 0.043429 0.175954 0.914698
O O9 0.538670 0.827968 0.087318
O O10 0.405178 0.915528 0.235557
#
# Coordination Sequence:
#
# PCOD8172062 Si02
#       5
#     4   4   4   4   4
#     4  10  24  40  70  91 137 172 223 272 341 401
#     4  10  24  44  66  99 129 179 219 277 343 393
#     4  12  26  42  69 102 134 175 232 285 337 405
#     4  11  26  44  70 101 134 179 229 280 339 410
#     4   9  26  45  70  94 140 181 223 275 344 408
#
# _framework density 23.730283
#
# number of rings (size 3 to 8) (size 9 to 14) (size 15 to 20)
#    1.200    0.400    0.000    2.400   11.200    2.400 
#    0.000    0.000    0.000    0.000    0.000    0.000 
#    0.000    0.000    0.000    0.000    0.000    0.000 
#
# Total GULP energy -247814.120666 kJ/mol
# GULP energy per Si atom -12390.706033 kJ/mol
# Density = 2.367627 g / cm^3
# Si number density = 23.730283 Si / 1000 Ang^3
#
#
#
# Elastic Constant Matrix: (Units=GPa)
#
#
# Indices 1 2 3 4 5 6 
#
# 1 57.3104 -17.7348 5.6452 0.0000 0.0000 0.0000
# 2 -17.7348 64.8276 35.9206 0.0000 0.0000 0.0000
# 3 5.6452 35.9206 158.6634 0.0000 0.0000 0.0000
# 4 0.0000 0.0000 0.0000 36.5125 0.0000 0.0000
# 5 0.0000 0.0000 0.0000 0.0000 20.7342 0.0000
# 6 0.0000 0.0000 0.0000 0.0000 0.0000 30.5177
#
#
#
# Elastic Compliance Matrix: (Units=1/GPa)
#
#
# Indices 1 2 3 4 5 6 
#
# 1 0.019711 0.006610 -0.002198 0.000000 0.000000 0.000000
# 2 0.006610 0.019855 -0.004730 0.000000 0.000000 0.000000
# 3 -0.002198 -0.004730 0.007452 0.000000 0.000000 0.000000
# 4 0.000000 0.000000 0.000000 0.027388 0.000000 0.000000
# 5 0.000000 0.000000 0.000000 0.000000 0.048229 0.000000
# 6 0.000000 0.000000 0.000000 0.000000 0.000000 0.032768
#
#
# Mechanical properties :
#
#
# Convention : Reuss Voigt Hill
#
# Bulk Modulus (GPa) = 21.56036 36.49594 29.02815
# Shear Modulus (GPa) = 29.15471 34.68426 31.91948
#
# Velocity S-wave (km/s) = 3.50892 3.82724 3.67153
# Velocity P-wave (km/s) = 5.05193 5.91128 5.49842
#
# Compressibility (1/GPa) = 0.04638142
#
# Stress axis : x y z
#
# Youngs Moduli (GPa) = 50.73360 50.36566 134.19686
#
# Poissons Ratio (x) = -0.33292 0.29494
# Poissons Ratio (y) = -0.33535 0.63478
# Poissons Ratio (z) = 0.11150 0.23824
#
# Static dielectric constant tensor:
#      x y z
#    x 4.242700 0.000000 0.000000 
#    y 0.000000 4.170920 0.000000 
#    z 0.000000 0.000000 4.184670 
# 
# 
# High freq. dielectric constant tensor:
#      x y z
#    x 1.948010 0.000000 0.000000 
#    y 0.000000 1.926350 0.000000 
#    z 0.000000 0.000000 1.936030 
# 
# From -- ./inp_files/1401.got.cif
#   From: 2010.03.12/outbox.cif.g09.slc.cpg/sg34_1_cif.got.tgz:1401.got - 2010.04.14 01:56:33.
