data_PCOD8172883
_publ_section_title
;
Structure prediction by ZEFSAII (Michael W. Deem and Ramdas Pophale) SiO2 
 PCOD8172883
Probable space group: C M M 2
;
_chemical_formula_sum "Si O2"
_cell_formula_units_Z 32
_cell_length_a 8.923790
_cell_length_b 14.204764
_cell_length_c 14.147655
_cell_angle_alpha 90.000000
_cell_angle_beta 90.000000
_cell_angle_gamma 90.000000
_cell_volume 1793.361430
_symmetry_space_group_name_H-M "C M M 2"
_symmetry_group_IT_number 35
_symmetry_cell_setting 'orthorhombic'
loop_
_space_group_symop_operation_xyz
x,y,z
-x,-y,z
-x,y,z
x,-y,z
1/2+x,1/2+y,z
1/2-x,1/2-y,z
1/2-x,1/2+y,z
1/2+x,1/2-y,z
loop_
_atom_site_type_symbol
_atom_site_label
_atom_site_fract_x
_atom_site_fract_y
_atom_site_fract_z
Si Si1 0.176549 0.500000 0.588050
Si Si2 0.676221 0.351158 0.231750
Si Si3 0.677351 0.000000 0.885509
Si Si4 0.177318 0.350724 0.736637
Si Si5 0.320842 0.000000 0.099566
Si Si6 0.670286 0.500000 0.389681
O O1 0.232821 0.407067 0.643456
O O2 0.227531 0.500000 0.480843
O O3 0.000000 0.500000 0.589426
O O4 0.500000 0.342897 0.210014
O O5 0.750000 0.250000 0.242900
O O6 0.755115 0.405972 0.146313
O O7 0.705307 0.407237 0.328617
O O8 0.732424 0.093056 0.829900
O O9 0.500000 0.000000 0.886147
O O10 0.738111 0.000000 0.991965
O O11 0.250000 0.250000 0.736436
O O12 0.000000 0.339634 0.736593
O O13 0.500000 0.000000 0.108224
O O14 0.500000 0.500000 0.424110
#
# Coordination Sequence:
#
# PCOD8172883 Si02
#       6
#     4   8   4   8   4   4
#     4   9  19  34  52  72 100 135 167 201 250 305
#     4  10  21  37  54  76 105 137 172 213 257 307
#     4   8  17  34  53  73 102 135 167 202 249 303
#     4   9  18  34  52  73 101 133 167 205 247 297
#     4  10  19  34  56  79 104 137 171 212 260 305
#     4   9  20  36  53  74 102 131 167 213 255 299
#
# _framework density 17.843585999999998
#
# number of rings (size 3 to 8) (size 9 to 14) (size 15 to 20)
#    0.000    2.750    0.000    3.375    0.000    6.000 
#    0.000   11.875    0.000    0.000    0.000    0.000 
#    0.000    0.000    0.000    0.000    0.000    0.000 
#
# Total GULP energy -198364.225215 kJ/mol
# GULP energy per Si atom -12397.764076 kJ/mol
# Density = 1.780297 g / cm^3
# Si number density = 17.843586 Si / 1000 Ang^3
#
#
#
# Elastic Constant Matrix: (Units=GPa)
#
#
# Indices 1 2 3 4 5 6 
#
# 1 61.9697 51.7735 41.2417 0.0000 0.0000 0.0000
# 2 51.7735 177.4177 71.1181 0.0000 0.0000 0.0000
# 3 41.2417 71.1181 138.2039 0.0000 0.0000 0.0000
# 4 0.0000 0.0000 0.0000 11.6934 0.0000 0.0000
# 5 0.0000 0.0000 0.0000 0.0000 25.7563 0.0000
# 6 0.0000 0.0000 0.0000 0.0000 0.0000 36.4906
#
#
#
# Elastic Compliance Matrix: (Units=1/GPa)
#
#
# Indices 1 2 3 4 5 6 
#
# 1 0.023237 -0.005041 -0.004340 0.000000 0.000000 0.000000
# 2 -0.005041 0.008195 -0.002713 0.000000 0.000000 0.000000
# 3 -0.004340 -0.002713 0.009927 0.000000 0.000000 0.000000
# 4 0.000000 0.000000 0.000000 0.085518 0.000000 0.000000
# 5 0.000000 0.000000 0.000000 0.000000 0.038825 0.000000
# 6 0.000000 0.000000 0.000000 0.000000 0.000000 0.027404
#
#
# Mechanical properties :
#
#
# Convention : Reuss Voigt Hill
#
# Bulk Modulus (GPa) = 58.23841 78.42865 68.33353
# Shear Modulus (GPa) = 22.41973 29.01862 25.71918
#
# Velocity S-wave (km/s) = 3.54850 4.03709 3.80065
# Velocity P-wave (km/s) = 7.03550 8.11046 7.59203
#
# Compressibility (1/GPa) = 0.01717080
#
# Stress axis : x y z
#
# Youngs Moduli (GPa) = 43.03468 122.02718 100.73846
#
# Poissons Ratio (x) = 0.61517 0.43721
# Poissons Ratio (y) = 0.21695 0.27327
# Poissons Ratio (z) = 0.18677 0.33101
#
# Static dielectric constant tensor:
#      x y z
#    x 3.172780 0.000000 0.000000 
#    y 0.000000 3.586280 0.000000 
#    z 0.000000 0.000000 3.534800 
# 
# 
# High freq. dielectric constant tensor:
#      x y z
#    x 1.682080 0.000000 0.000000 
#    y 0.000000 1.697980 0.000000 
#    z 0.000000 0.000000 1.694620 
# 
# From -- ./inp_files/14645.got.cif
#   From: 2010.03.12/outbox.cif.g09.slc.cpg/sg35_8_cif.got.tgz:14645.got - 2010.04.14 02:02:04.
