data_PCOD8172454
_publ_section_title
;
Structure prediction by ZEFSAII (Michael W. Deem and Ramdas Pophale) SiO2 
 PCOD8172454
Probable space group: C M M 2
;
_chemical_formula_sum "Si O2"
_cell_formula_units_Z 64
_cell_length_a 8.684101
_cell_length_b 31.224231
_cell_length_c 12.022238
_cell_angle_alpha 90.000000
_cell_angle_beta 90.000000
_cell_angle_gamma 90.000000
_cell_volume 3259.882439
_symmetry_space_group_name_H-M "C M M 2"
_symmetry_group_IT_number 35
_symmetry_cell_setting 'orthorhombic'
loop_
_space_group_symop_operation_xyz
x,y,z
-x,-y,z
-x,y,z
x,-y,z
1/2+x,1/2+y,z
1/2-x,1/2-y,z
1/2-x,1/2+y,z
1/2+x,1/2-y,z
loop_
_atom_site_type_symbol
_atom_site_label
_atom_site_fract_x
_atom_site_fract_y
_atom_site_fract_z
Si Si1 0.318706 0.705898 0.860930
Si Si2 0.683480 0.873981 0.472700
Si Si3 0.682763 0.080933 0.095366
Si Si4 0.818408 0.321274 0.086426
Si Si5 0.183202 0.452804 0.863021
Si Si6 0.683227 0.872520 0.724502
Si Si7 0.681359 0.205775 0.330923
Si Si8 0.683540 0.047584 0.328772
O O1 0.500000 0.706499 0.847189
O O2 0.250000 0.750000 0.812042
O O3 0.250339 0.666774 0.792332
O O4 0.273698 0.702768 0.990240
O O5 0.500000 0.874246 0.469565
O O6 0.744386 0.870956 0.598465
O O7 0.748055 0.833437 0.403880
O O8 0.746613 0.917878 0.417542
O O9 0.500000 0.078874 0.098789
O O10 0.736819 0.129820 0.089863
O O11 0.749438 0.058885 0.206426
O O12 0.747090 0.056620 0.986856
O O13 0.770808 0.299983 0.202795
O O14 0.000000 0.317613 0.062621
O O15 0.240937 0.500000 0.825549
O O16 0.244239 0.417004 0.777556
O O17 0.000000 0.451363 0.865503
O O18 0.500000 0.869773 0.730747
O O19 0.500000 0.207031 0.344135
O O20 0.750000 0.250000 0.377263
O O21 0.500000 0.049391 0.325805
O O22 0.740306 0.000000 0.362832
#
# Coordination Sequence:
#
# PCOD8172454 Si02
#       8
#     8   8   8   8   8   8   8   8
#     4  12  25  40  59  82 109 139 179 226 278 335
#     4   9  18  32  49  73 107 146 182 221 266 313
#     4   9  14  24  45  74 109 145 178 215 267 321
#     4  10  18  33  57  81 110 145 176 215 271 330
#     4   9  16  26  46  78 110 141 180 224 267 311
#     4  10  20  36  56  78 110 149 188 229 271 316
#     4  10  20  34  53  77 106 138 175 216 266 320
#     4   9  15  24  43  75 113 147 177 216 270 324
#
# _framework density 19.63261
#
# number of rings (size 3 to 8) (size 9 to 14) (size 15 to 20)
#    0.000    2.250    2.500    1.875    0.000    4.000 
#    0.000    4.375    0.000    0.375    0.000    0.000 
#    0.000    3.500    0.000    0.000    0.000    0.000 
#
# Total GULP energy -396755.993050 kJ/mol
# GULP energy per Si atom -12398.624783 kJ/mol
# Density = 1.958793 g / cm^3
# Si number density = 19.632610 Si / 1000 Ang^3
#
#
#
# Elastic Constant Matrix: (Units=GPa)
#
#
# Indices 1 2 3 4 5 6 
#
# 1 20.7963 20.4983 20.8762 0.0000 0.0000 0.0000
# 2 20.4983 188.5356 77.2567 0.0000 0.0000 0.0000
# 3 20.8762 77.2567 144.4149 0.0000 0.0000 0.0000
# 4 0.0000 0.0000 0.0000 12.0824 0.0000 0.0000
# 5 0.0000 0.0000 0.0000 0.0000 9.9665 0.0000
# 6 0.0000 0.0000 0.0000 0.0000 0.0000 18.5264
#
#
#
# Elastic Compliance Matrix: (Units=1/GPa)
#
#
# Indices 1 2 3 4 5 6 
#
# 1 0.058183 -0.003688 -0.006438 0.000000 0.000000 0.000000
# 2 -0.003688 0.007027 -0.003226 0.000000 0.000000 0.000000
# 3 -0.006438 -0.003226 0.009581 0.000000 0.000000 0.000000
# 4 0.000000 0.000000 0.000000 0.082765 0.000000 0.000000
# 5 0.000000 0.000000 0.000000 0.000000 0.100336 0.000000
# 6 0.000000 0.000000 0.000000 0.000000 0.000000 0.053977
#
#
# Mechanical properties :
#
#
# Convention : Reuss Voigt Hill
#
# Bulk Modulus (GPa) = 20.79542 65.66767 43.23155
# Shear Modulus (GPa) = 14.10033 23.78945 18.94489
#
# Velocity S-wave (km/s) = 2.68285 3.48477 3.10977
# Velocity P-wave (km/s) = 4.49580 7.05070 5.91289
#
# Compressibility (1/GPa) = 0.04808752
#
# Stress axis : x y z
#
# Youngs Moduli (GPa) = 17.18708 142.30944 104.37362
#
# Poissons Ratio (x) = 0.52481 0.67195
# Poissons Ratio (y) = 0.06338 0.33672
# Poissons Ratio (z) = 0.11065 0.45910
#
# Static dielectric constant tensor:
#      x y z
#    x 2.922210 0.000000 0.000000 
#    y 0.000000 3.914920 0.000000 
#    z 0.000000 0.000000 3.749630 
# 
# 
# High freq. dielectric constant tensor:
#      x y z
#    x 1.696660 0.000000 0.000000 
#    y 0.000000 1.786240 0.000000 
#    z 0.000000 0.000000 1.766120 
# 
# From -- ./inp_files/11974.got.cif
#   From: 2010.03.12/outbox.cif.g09.slc.cpg/sg35_6_cif.got.tgz:11974.got - 2010.04.14 02:02:04.
