data_PCOD8172074
_publ_section_title
;
Structure prediction by ZEFSAII (Michael W. Deem and Ramdas Pophale) SiO2 
 PCOD8172074
Probable space group: P N N 2
;
_chemical_formula_sum "Si O2"
_cell_formula_units_Z 22
_cell_length_a 6.715657
_cell_length_b 13.390056
_cell_length_c 10.936144
_cell_angle_alpha 90.000000
_cell_angle_beta 90.000000
_cell_angle_gamma 90.000000
_cell_volume 983.411132
_symmetry_space_group_name_H-M "P N N 2"
_symmetry_group_IT_number 34
_symmetry_cell_setting 'orthorhombic'
loop_
_space_group_symop_operation_xyz
x,y,z
-x,-y,z
1/2-x,1/2+y,1/2+z
1/2+x,1/2-y,1/2+z
loop_
_atom_site_type_symbol
_atom_site_label
_atom_site_fract_x
_atom_site_fract_y
_atom_site_fract_z
Si Si1 0.074488 0.395318 0.429140
Si Si2 0.092659 0.394951 0.775706
Si Si3 0.307393 0.439507 0.022592
Si Si4 0.668461 0.773029 0.111238
Si Si5 0.000000 0.500000 0.196944
Si Si6 0.570359 0.612039 0.586643
O O1 0.308895 0.378559 0.458240
O O2 0.000000 0.500000 0.489661
O O3 0.947849 0.308474 0.490148
O O4 0.034443 0.401533 0.282658
O O5 0.161813 0.398757 0.916125
O O6 0.282273 0.364304 0.697153
O O7 0.000000 0.500000 0.736091
O O8 0.921750 0.313534 0.740403
O O9 0.500000 0.500000 0.972097
O O10 0.358031 0.345936 0.108820
O O11 0.190089 0.517436 0.109601
O O12 0.895843 0.807379 0.094811
O O13 0.500000 0.500000 0.602473
#
# Coordination Sequence:
#
# PCOD8172074 Si02
#       6
#     4   4   4   4   2   4
#     4   9  20  39  66  99 137 168 226 290 346 414
#     4  11  23  45  71 102 138 179 234 290 352 428
#     4  12  29  46  66  98 146 196 231 290 364 424
#     4  11  24  42  73 106 132 182 241 285 351 432
#     4  10  24  46  62  92 144 184 228 294 348 426
#     4  11  17  36  72 101 126 173 225 290 345 405
#
# _framework density 22.371110999999999
#
# number of rings (size 3 to 8) (size 9 to 14) (size 15 to 20)
#    0.545    0.727    4.545    1.636    0.000    9.455 
#    0.000    0.000    0.000    0.000    0.000    0.000 
#    0.000    0.000    0.000    0.000    0.000    0.000 
#
# Total GULP energy -272612.903006 kJ/mol
# GULP energy per Si atom -12391.495591 kJ/mol
# Density = 2.232019 g / cm^3
# Si number density = 22.371111 Si / 1000 Ang^3
#
#
#
# Elastic Constant Matrix: (Units=GPa)
#
#
# Indices 1 2 3 4 5 6 
#
# 1 147.6447 41.4415 49.2979 0.0000 0.0000 0.0000
# 2 41.4415 88.1213 18.6846 0.0000 0.0000 0.0000
# 3 49.2979 18.6846 134.9578 0.0000 0.0000 0.0000
# 4 0.0000 0.0000 0.0000 17.0864 0.0000 0.0000
# 5 0.0000 0.0000 0.0000 0.0000 20.3487 0.0000
# 6 0.0000 0.0000 0.0000 0.0000 0.0000 22.0254
#
#
#
# Elastic Compliance Matrix: (Units=1/GPa)
#
#
# Indices 1 2 3 4 5 6 
#
# 1 0.008648 -0.003500 -0.002675 0.000000 0.000000 0.000000
# 2 -0.003500 0.013108 -0.000536 0.000000 0.000000 0.000000
# 3 -0.002675 -0.000536 0.008461 0.000000 0.000000 0.000000
# 4 0.000000 0.000000 0.000000 0.058526 0.000000 0.000000
# 5 0.000000 0.000000 0.000000 0.000000 0.049143 0.000000
# 6 0.000000 0.000000 0.000000 0.000000 0.000000 0.045402
#
#
# Mechanical properties :
#
#
# Convention : Reuss Voigt Hill
#
# Bulk Modulus (GPa) = 59.54018 65.50799 62.52409
# Shear Modulus (GPa) = 24.71472 29.31209 27.01340
#
# Velocity S-wave (km/s) = 3.32740 3.62369 3.47870
# Velocity P-wave (km/s) = 6.43698 6.84501 6.64412
#
# Compressibility (1/GPa) = 0.01679538
#
# Stress axis : x y z
#
# Youngs Moduli (GPa) = 115.62756 76.29101 118.19028
#
# Poissons Ratio (x) = 0.26703 0.31611
# Poissons Ratio (y) = 0.40471 0.06337
# Poissons Ratio (z) = 0.30925 0.04091
#
# Static dielectric constant tensor:
#      x y z
#    x 4.361350 0.000000 0.000000 
#    y 0.000000 3.728000 0.000000 
#    z 0.000000 0.000000 3.916460 
# 
# 
# High freq. dielectric constant tensor:
#      x y z
#    x 1.891230 0.000000 0.000000 
#    y 0.000000 1.858650 0.000000 
#    z 0.000000 0.000000 1.877550 
# 
# From -- ./inp_files/4400.got.cif
#   From: 2010.03.12/outbox.cif.g09.slc.cpg/sg34_3_cif.got.tgz:4400.got - 2010.04.14 01:56:33.
