data_PCOD8172185
_publ_section_title
;
Structure prediction by ZEFSAII (Michael W. Deem and Ramdas Pophale) SiO2 
 PCOD8172185
Probable space group: C M M 2
;
_chemical_formula_sum "Si O2"
_cell_formula_units_Z 48
_cell_length_a 30.580411
_cell_length_b 8.932602
_cell_length_c 9.945842
_cell_angle_alpha 90.000000
_cell_angle_beta 90.000000
_cell_angle_gamma 90.000000
_cell_volume 2716.832462
_symmetry_space_group_name_H-M "C M M 2"
_symmetry_group_IT_number 35
_symmetry_cell_setting 'orthorhombic'
loop_
_space_group_symop_operation_xyz
x,y,z
-x,-y,z
-x,y,z
x,-y,z
1/2+x,1/2+y,z
1/2-x,1/2-y,z
1/2-x,1/2+y,z
1/2+x,1/2-y,z
loop_
_atom_site_type_symbol
_atom_site_label
_atom_site_fract_x
_atom_site_fract_y
_atom_site_fract_z
Si Si1 0.620279 0.675446 0.595450
Si Si2 0.950586 0.824377 0.809636
Si Si3 0.450265 0.824487 0.082523
Si Si4 0.112474 0.828722 0.285677
Si Si5 0.209197 0.174315 0.298753
Si Si6 0.207234 0.322579 0.588342
O O1 0.630521 0.500000 0.605933
O O2 0.578872 0.724833 0.683931
O O3 0.610247 0.719377 0.441606
O O4 0.662304 0.763349 0.654593
O O5 0.000000 0.771582 0.778096
O O6 0.948134 0.000000 0.833355
O O7 0.932763 0.748294 0.945056
O O8 0.500000 0.772363 0.111251
O O9 0.420336 0.776049 0.206052
O O10 0.447151 0.000000 0.065600
O O11 0.162020 0.808089 0.227199
O O12 0.097424 0.000000 0.268596
O O13 0.250000 0.250000 0.215705
O O14 0.206664 0.266872 0.435682
O O15 0.218725 0.000000 0.328419
O O16 0.209747 0.500000 0.598629
O O17 0.250000 0.250000 0.660861
#
# Coordination Sequence:
#
# PCOD8172185 Si02
#       6
#     8   8   8   8   8   8
#     4   9  18  32  50  75 102 125 158 204 246 285
#     4   9  18  34  55  74  94 126 164 199 241 293
#     4  10  21  35  50  70  97 129 165 202 240 287
#     4   9  18  31  49  74 101 128 160 199 241 285
#     4   9  16  27  44  68  97 127 160 197 238 284
#     4  10  17  26  43  67  97 131 163 195 236 284
#
# _framework density 17.667634
#
# number of rings (size 3 to 8) (size 9 to 14) (size 15 to 20)
#    0.000    2.667    0.000    4.500    0.000    5.667 
#    0.000    1.667    0.000    3.000    0.000    4.667 
#    0.000    0.000    0.000    0.000    0.000    0.000 
#
# Total GULP energy -297467.791313 kJ/mol
# GULP energy per Si atom -12394.491305 kJ/mol
# Density = 1.762742 g / cm^3
# Si number density = 17.667634 Si / 1000 Ang^3
#
#
#
# Elastic Constant Matrix: (Units=GPa)
#
#
# Indices 1 2 3 4 5 6 
#
# 1 127.5584 53.3615 59.1918 0.0000 0.0000 0.0000
# 2 53.3615 77.9162 30.8291 0.0000 0.0000 0.0000
# 3 59.1918 30.8291 67.6735 0.0000 0.0000 0.0000
# 4 0.0000 0.0000 0.0000 17.5160 0.0000 0.0000
# 5 0.0000 0.0000 0.0000 0.0000 3.6710 0.0000
# 6 0.0000 0.0000 0.0000 0.0000 0.0000 33.8750
#
#
#
# Elastic Compliance Matrix: (Units=1/GPa)
#
#
# Indices 1 2 3 4 5 6 
#
# 1 0.015414 -0.006370 -0.010580 0.000000 0.000000 0.000000
# 2 -0.006370 0.018289 -0.002760 0.000000 0.000000 0.000000
# 3 -0.010580 -0.002760 0.025288 0.000000 0.000000 0.000000
# 4 0.000000 0.000000 0.000000 0.057091 0.000000 0.000000
# 5 0.000000 0.000000 0.000000 0.000000 0.272406 0.000000
# 6 0.000000 0.000000 0.000000 0.000000 0.000000 0.029520
#
#
# Mechanical properties :
#
#
# Convention : Reuss Voigt Hill
#
# Bulk Modulus (GPa) = 51.09655 62.21254 56.65455
# Shear Modulus (GPa) = 10.77698 19.66345 15.22021
#
# Velocity S-wave (km/s) = 2.47247 3.33973 2.93827
# Velocity P-wave (km/s) = 6.09381 7.08244 6.60664
#
# Compressibility (1/GPa) = 0.01957079
#
# Stress axis : x y z
#
# Youngs Moduli (GPa) = 64.87648 54.67791 39.54410
#
# Poissons Ratio (x) = 0.34830 0.41838
# Poissons Ratio (y) = 0.41327 0.10914
# Poissons Ratio (z) = 0.68640 0.15091
#
# Static dielectric constant tensor:
#      x y z
#    x 4.051130 0.000000 0.000000 
#    y 0.000000 3.290130 0.000000 
#    z 0.000000 0.000000 2.905550 
# 
# 
# High freq. dielectric constant tensor:
#      x y z
#    x 1.702160 0.000000 0.000000 
#    y 0.000000 1.686820 0.000000 
#    z 0.000000 0.000000 1.631670 
# 
# From -- ./inp_files/5339.got.cif
#   From: 2010.03.12/outbox.cif.g09.slc.cpg/sg35_3_cif.got.tgz:5339.got - 2010.04.14 02:02:04.
