data_PCOD8172779
_publ_section_title
;
Structure prediction by ZEFSAII (Michael W. Deem and Ramdas Pophale) SiO2 
 PCOD8172779
Probable space group: C M M 2
;
_chemical_formula_sum "Si O2"
_cell_formula_units_Z 48
_cell_length_a 8.551672
_cell_length_b 33.456801
_cell_length_c 9.284630
_cell_angle_alpha 90.000000
_cell_angle_beta 90.000000
_cell_angle_gamma 90.000000
_cell_volume 2656.440236
_symmetry_space_group_name_H-M "C M M 2"
_symmetry_group_IT_number 35
_symmetry_cell_setting 'orthorhombic'
loop_
_space_group_symop_operation_xyz
x,y,z
-x,-y,z
-x,y,z
x,-y,z
1/2+x,1/2+y,z
1/2-x,1/2-y,z
1/2-x,1/2+y,z
1/2+x,1/2-y,z
loop_
_atom_site_type_symbol
_atom_site_label
_atom_site_fract_x
_atom_site_fract_y
_atom_site_fract_z
Si Si1 0.319517 0.116628 0.388030
Si Si2 0.184367 0.791613 0.881565
Si Si3 0.816626 0.364498 0.702593
Si Si4 0.814830 0.044408 0.211816
Si Si5 0.318938 0.159713 0.109350
Si Si6 0.820127 0.089438 0.941071
O O1 0.500000 0.106955 0.408360
O O2 0.247931 0.128391 0.542427
O O3 0.247133 0.075866 0.327544
O O4 0.293932 0.154694 0.280997
O O5 0.250000 0.750000 0.819646
O O6 0.229417 0.826455 0.769746
O O7 0.000000 0.789471 0.899255
O O8 0.266094 0.798134 0.040032
O O9 0.780812 0.404910 0.795202
O O10 0.000000 0.355617 0.700678
O O11 0.000000 0.046838 0.216118
O O12 0.754268 0.000000 0.251335
O O13 0.760118 0.053975 0.046740
O O14 0.500000 0.150569 0.069307
O O15 0.200147 0.129314 0.034239
O O16 0.000000 0.083600 0.896848
#
# Coordination Sequence:
#
# PCOD8172779 Si02
#       6
#     8   8   8   8   8   8
#     4   9  19  33  51  74 101 132 164 200 244 295
#     4  11  21  34  52  75  99 127 163 202 245 289
#     4  10  19  33  51  73 101 131 163 200 243 292
#     4   9  18  32  50  72  98 128 165 209 251 290
#     4   9  16  30  50  71  94 123 159 197 237 283
#     4   9  16  28  47  70  94 124 162 199 237 285
#
# _framework density 18.069292999999998
#
# number of rings (size 3 to 8) (size 9 to 14) (size 15 to 20)
#    0.000    2.500    0.000    5.000    0.000    3.000 
#    0.000    1.667    0.000    3.000    0.000    0.000 
#    0.000    0.000    0.000    0.000    0.000    0.000 
#
# Total GULP energy -297347.814505 kJ/mol
# GULP energy per Si atom -12389.492271 kJ/mol
# Density = 1.802817 g / cm^3
# Si number density = 18.069293 Si / 1000 Ang^3
#
#
#
# Elastic Constant Matrix: (Units=GPa)
#
#
# Indices 1 2 3 4 5 6 
#
# 1 60.0648 29.7878 35.7303 0.0000 0.0000 0.0000
# 2 29.7878 96.7966 57.9635 0.0000 0.0000 0.0000
# 3 35.7303 57.9635 153.5091 0.0000 0.0000 0.0000
# 4 0.0000 0.0000 0.0000 19.1558 0.0000 0.0000
# 5 0.0000 0.0000 0.0000 0.0000 22.9740 0.0000
# 6 0.0000 0.0000 0.0000 0.0000 0.0000 23.3857
#
#
#
# Elastic Compliance Matrix: (Units=1/GPa)
#
#
# Indices 1 2 3 4 5 6 
#
# 1 0.020746 -0.004513 -0.003125 0.000000 0.000000 0.000000
# 2 -0.004513 0.014331 -0.004361 0.000000 0.000000 0.000000
# 3 -0.003125 -0.004361 0.008888 0.000000 0.000000 0.000000
# 4 0.000000 0.000000 0.000000 0.052203 0.000000 0.000000
# 5 0.000000 0.000000 0.000000 0.000000 0.043528 0.000000
# 6 0.000000 0.000000 0.000000 0.000000 0.000000 0.042761
#
#
# Mechanical properties :
#
#
# Convention : Reuss Voigt Hill
#
# Bulk Modulus (GPa) = 50.08058 61.92594 56.00326
# Shear Modulus (GPa) = 23.46205 25.56234 24.51220
#
# Velocity S-wave (km/s) = 3.60731 3.76531 3.68716
# Velocity P-wave (km/s) = 6.71761 7.29720 7.01340
#
# Compressibility (1/GPa) = 0.01996782
#
# Stress axis : x y z
#
# Youngs Moduli (GPa) = 48.20307 69.77816 112.50943
#
# Poissons Ratio (x) = 0.31492 0.35154
# Poissons Ratio (y) = 0.21755 0.49063
# Poissons Ratio (z) = 0.15061 0.30429
#
# Static dielectric constant tensor:
#      x y z
#    x 3.282860 0.000000 0.000000 
#    y 0.000000 3.454550 0.000000 
#    z 0.000000 0.000000 3.753470 
# 
# 
# High freq. dielectric constant tensor:
#      x y z
#    x 1.703750 0.000000 0.000000 
#    y 0.000000 1.675100 0.000000 
#    z 0.000000 0.000000 1.695130 
# 
# From -- ./inp_files/5349.got.cif
#   From: 2010.03.12/outbox.cif.g09.slc.cpg/sg35_3_cif.got.tgz:5349.got - 2010.04.14 02:02:04.
