data_PCOD8172374
_publ_section_title
;
Structure prediction by ZEFSAII (Michael W. Deem and Ramdas Pophale) SiO2 
 PCOD8172374
Probable space group: C M M 2
;
_chemical_formula_sum "Si O2"
_cell_formula_units_Z 64
_cell_length_a 29.203167
_cell_length_b 8.965972
_cell_length_c 12.517037
_cell_angle_alpha 90.000000
_cell_angle_beta 90.000000
_cell_angle_gamma 90.000000
_cell_volume 3277.395600
_symmetry_space_group_name_H-M "C M M 2"
_symmetry_group_IT_number 35
_symmetry_cell_setting 'orthorhombic'
loop_
_space_group_symop_operation_xyz
x,y,z
-x,-y,z
-x,y,z
x,-y,z
1/2+x,1/2+y,z
1/2-x,1/2-y,z
1/2-x,1/2+y,z
1/2+x,1/2-y,z
loop_
_atom_site_type_symbol
_atom_site_label
_atom_site_fract_x
_atom_site_fract_y
_atom_site_fract_z
Si Si1 0.894249 0.675533 0.546110
Si Si2 0.891141 0.674586 0.139140
Si Si3 0.052564 0.321728 0.339748
Si Si4 0.704532 0.822493 0.052502
Si Si5 0.815073 0.829031 0.827493
Si Si6 0.916587 0.165910 0.752508
Si Si7 0.550424 0.669957 0.971206
Si Si8 0.205498 0.677291 0.609824
O O1 0.894893 0.500000 0.540600
O O2 0.921621 0.741165 0.444903
O O3 0.920678 0.722824 0.653394
O O4 0.841218 0.730986 0.550083
O O5 0.895180 0.500000 0.149815
O O6 0.917953 0.744705 0.240562
O O7 0.837787 0.721495 0.130707
O O8 0.915076 0.721237 0.029879
O O9 0.052439 0.500000 0.339442
O O10 0.000000 0.262870 0.335631
O O11 0.750000 0.750000 0.104934
O O12 0.709085 0.000000 0.042140
O O13 0.698809 0.752310 0.935821
O O14 0.869192 0.823852 0.815831
O O15 0.793179 0.738053 0.730234
O O16 0.797096 0.000000 0.827758
O O17 0.952801 0.208100 0.844605
O O18 0.924594 0.000000 0.706630
O O19 0.500000 0.692616 0.020067
O O20 0.567434 0.500000 0.986500
O O21 0.209396 0.500000 0.609289
O O22 0.250000 0.750000 0.550980
#
# Coordination Sequence:
#
# PCOD8172374 Si02
#       8
#     8   8   8   8   8   8   8   8
#     4   9  19  34  54  79 106 137 176 224 269 315
#     4  10  21  37  58  81 107 139 182 231 272 320
#     4   9  18  36  61  84 105 134 176 226 278 323
#     4  11  22  34  51  77 108 143 181 222 269 322
#     4  10  18  31  51  74 105 146 184 219 261 313
#     4   9  18  32  50  75 110 148 177 212 265 321
#     4  10  20  34  53  79 112 147 178 214 271 334
#     4  10  19  31  48  74 108 143 180 219 261 314
#
# _framework density 19.527701
#
# number of rings (size 3 to 8) (size 9 to 14) (size 15 to 20)
#    0.000    2.250    1.250    1.875    0.000    3.250 
#    0.000    1.250    0.000    0.750    0.000    0.000 
#    0.000    0.000    0.000    0.000    0.000    0.000 
#
# Total GULP energy -396636.966886 kJ/mol
# GULP energy per Si atom -12394.905215 kJ/mol
# Density = 1.948326 g / cm^3
# Si number density = 19.527701 Si / 1000 Ang^3
#
#
#
# Elastic Constant Matrix: (Units=GPa)
#
#
# Indices 1 2 3 4 5 6 
#
# 1 140.8209 38.1232 71.1958 0.0000 0.0000 0.0000
# 2 38.1232 30.5423 19.5946 0.0000 0.0000 0.0000
# 3 71.1958 19.5946 100.8256 0.0000 0.0000 0.0000
# 4 0.0000 0.0000 0.0000 13.0980 0.0000 0.0000
# 5 0.0000 0.0000 0.0000 0.0000 22.6016 0.0000
# 6 0.0000 0.0000 0.0000 0.0000 0.0000 21.0658
#
#
#
# Elastic Compliance Matrix: (Units=1/GPa)
#
#
# Indices 1 2 3 4 5 6 
#
# 1 0.014602 -0.013265 -0.007733 0.000000 0.000000 0.000000
# 2 -0.013265 0.049456 -0.000244 0.000000 0.000000 0.000000
# 3 -0.007733 -0.000244 0.015426 0.000000 0.000000 0.000000
# 4 0.000000 0.000000 0.000000 0.076348 0.000000 0.000000
# 5 0.000000 0.000000 0.000000 0.000000 0.044245 0.000000
# 6 0.000000 0.000000 0.000000 0.000000 0.000000 0.047470
#
#
# Mechanical properties :
#
#
# Convention : Reuss Voigt Hill
#
# Bulk Modulus (GPa) = 27.02775 58.89068 42.95921
# Shear Modulus (GPa) = 16.53631 20.90474 18.72052
#
# Velocity S-wave (km/s) = 2.91316 3.27543 3.09959
# Velocity P-wave (km/s) = 5.01858 6.67289 5.90397
#
# Compressibility (1/GPa) = 0.03699901
#
# Stress axis : x y z
#
# Youngs Moduli (GPa) = 68.48387 20.21995 64.82557
#
# Poissons Ratio (x) = 0.26822 0.50129
# Poissons Ratio (y) = 0.90846 0.01584
# Poissons Ratio (z) = 0.52958 0.00494
#
# Static dielectric constant tensor:
#      x y z
#    x 4.064200 0.000000 0.000000 
#    y 0.000000 3.365660 0.000000 
#    z 0.000000 0.000000 3.497390 
# 
# 
# High freq. dielectric constant tensor:
#      x y z
#    x 1.777630 0.000000 0.000000 
#    y 0.000000 1.741010 0.000000 
#    z 0.000000 0.000000 1.736290 
# 
# From -- ./inp_files/14566.got.cif
#   From: 2010.03.12/outbox.cif.g09.slc.cpg/sg35_8_cif.got.tgz:14566.got - 2010.04.14 02:02:04.
