data_PCOD8172512
_publ_section_title
;
Structure prediction by ZEFSAII (Michael W. Deem and Ramdas Pophale) SiO2 
 PCOD8172512
Probable space group: C M M 2
;
_chemical_formula_sum "Si O2"
_cell_formula_units_Z 56
_cell_length_a 13.626399
_cell_length_b 32.340401
_cell_length_c 7.856530
_cell_angle_alpha 90.000000
_cell_angle_beta 90.000000
_cell_angle_gamma 90.000000
_cell_volume 3462.240843
_symmetry_space_group_name_H-M "C M M 2"
_symmetry_group_IT_number 35
_symmetry_cell_setting 'orthorhombic'
loop_
_space_group_symop_operation_xyz
x,y,z
-x,-y,z
-x,y,z
x,-y,z
1/2+x,1/2+y,z
1/2-x,1/2-y,z
1/2-x,1/2+y,z
1/2+x,1/2-y,z
loop_
_atom_site_type_symbol
_atom_site_label
_atom_site_fract_x
_atom_site_fract_y
_atom_site_fract_z
Si Si1 0.198325 0.691166 0.641270
Si Si2 0.698325 0.808834 0.256035
Si Si3 0.883694 0.453900 0.948652
Si Si4 0.115414 0.603968 0.253490
Si Si5 0.390959 0.273017 0.754917
Si Si6 0.615414 0.896032 0.643814
Si Si7 0.390959 0.273017 0.142387
O O1 0.163065 0.697294 0.448653
O O2 0.315649 0.698047 0.652064
O O3 0.141444 0.725007 0.752395
O O4 0.171178 0.645389 0.702650
O O5 0.671177 0.854611 0.194654
O O6 0.641443 0.774993 0.144910
O O7 0.815648 0.801953 0.245240
O O8 0.838274 0.500000 0.948652
O O9 0.848666 0.431205 0.775341
O O10 0.000000 0.456315 0.948653
O O11 0.848666 0.431205 0.121963
O O12 0.142061 0.591299 0.448652
O O13 0.000000 0.612092 0.236331
O O14 0.500000 0.277953 0.676500
O O15 0.390266 0.287893 0.948652
O O16 0.500000 0.887908 0.660972
O O17 0.500000 0.277953 0.220804
#
# Coordination Sequence:
#
# PCOD8172512 Si02
#       7
#     8   8   8   8   8   8   8
#     4  10  19  30  45  63  85 118 154 186 221 259
#     4  10  19  30  45  63  85 118 154 186 221 259
#     4   9  18  30  46  67  89 119 149 175 220 270
#     4   9  18  30  45  67  92 118 150 185 219 261
#     4  10  20  30  42  62  88 119 152 187 223 257
#     4   9  18  30  45  67  92 118 150 185 219 261
#     4  10  20  30  42  62  88 119 152 187 223 257
#
# _framework density 16.174496999999999
#
# number of rings (size 3 to 8) (size 9 to 14) (size 15 to 20)
#    0.000    2.429    0.000    4.286    4.000    4.000 
#    0.000    2.857    0.000    0.000    0.000    0.000 
#    0.000    2.286    0.000    6.286    0.000    0.286 
#
# Total GULP energy -347127.964386 kJ/mol
# GULP energy per Si atom -12397.427299 kJ/mol
# Density = 1.613768 g / cm^3
# Si number density = 16.174497 Si / 1000 Ang^3
#
#
#
# Elastic Constant Matrix: (Units=GPa)
#
#
# Indices 1 2 3 4 5 6 
#
# 1 70.3741 32.9632 11.1528 0.0000 0.0000 0.0000
# 2 32.9632 124.2452 49.0060 0.0000 0.0000 0.0000
# 3 11.1528 49.0060 74.7624 0.0000 0.0000 0.0000
# 4 0.0000 0.0000 0.0000 25.2737 0.0000 0.0000
# 5 0.0000 0.0000 0.0000 0.0000 18.2513 0.0000
# 6 0.0000 0.0000 0.0000 0.0000 0.0000 17.5246
#
#
#
# Elastic Compliance Matrix: (Units=1/GPa)
#
#
# Indices 1 2 3 4 5 6 
#
# 1 0.016242 -0.004523 0.000542 0.000000 0.000000 0.000000
# 2 -0.004523 0.012115 -0.007266 0.000000 0.000000 0.000000
# 3 0.000542 -0.007266 0.018058 0.000000 0.000000 0.000000
# 4 0.000000 0.000000 0.000000 0.039567 0.000000 0.000000
# 5 0.000000 0.000000 0.000000 0.000000 0.054791 0.000000
# 6 0.000000 0.000000 0.000000 0.000000 0.000000 0.057063
#
#
# Mechanical properties :
#
#
# Convention : Reuss Voigt Hill
#
# Bulk Modulus (GPa) = 41.80605 50.62509 46.21557
# Shear Modulus (GPa) = 21.90068 23.96055 22.93062
#
# Velocity S-wave (km/s) = 3.68370 3.85304 3.76932
# Velocity P-wave (km/s) = 6.63294 7.15275 6.89774
#
# Compressibility (1/GPa) = 0.02391998
#
# Stress axis : x y z
#
# Youngs Moduli (GPa) = 61.56698 82.54496 55.37750
#
# Poissons Ratio (x) = 0.37335 -0.03000
# Poissons Ratio (y) = 0.27846 0.40239
# Poissons Ratio (z) = -0.03335 0.59980
#
# Static dielectric constant tensor:
#      x y z
#    x 2.988560 0.000000 0.000000 
#    y 0.000000 3.018450 0.000000 
#    z 0.000000 0.000000 3.175650 
# 
# 
# High freq. dielectric constant tensor:
#      x y z
#    x 1.591400 0.000000 0.000000 
#    y 0.000000 1.595230 0.000000 
#    z 0.000000 0.000000 1.636970 
# 
# From -- ./inp_files/7969.got.cif
#   From: 2010.03.12/outbox.cif.g09.slc.cpg/sg35_4_cif.got.tgz:7969.got - 2010.04.14 02:02:04.
