data_PCOD8172858
_publ_section_title
;
Structure prediction by ZEFSAII (Michael W. Deem and Ramdas Pophale) SiO2 
 PCOD8172858
Probable space group: C M M 2
;
_chemical_formula_sum "Si O2"
_cell_formula_units_Z 48
_cell_length_a 13.936775
_cell_length_b 17.212944
_cell_length_c 10.185338
_cell_angle_alpha 90.000000
_cell_angle_beta 90.000000
_cell_angle_gamma 90.000000
_cell_volume 2443.390552
_symmetry_space_group_name_H-M "C M M 2"
_symmetry_group_IT_number 35
_symmetry_cell_setting 'orthorhombic'
loop_
_space_group_symop_operation_xyz
x,y,z
-x,-y,z
-x,y,z
x,-y,z
1/2+x,1/2+y,z
1/2-x,1/2-y,z
1/2-x,1/2+y,z
1/2+x,1/2-y,z
loop_
_atom_site_type_symbol
_atom_site_label
_atom_site_fract_x
_atom_site_fract_y
_atom_site_fract_z
Si Si1 0.394736 0.588978 0.228820
Si Si2 0.194070 0.590624 0.131647
Si Si3 0.390693 0.316340 0.490138
Si Si4 0.892418 0.592361 0.859463
Si Si5 0.735120 0.912111 0.619271
Si Si6 0.387894 0.144616 0.398991
O O1 0.500000 0.611258 0.169175
O O2 0.394375 0.500000 0.274175
O O3 0.309499 0.604089 0.124875
O O4 0.372165 0.637480 0.357245
O O5 0.168971 0.500000 0.152110
O O6 0.146911 0.639392 0.249146
O O7 0.150860 0.623106 0.996478
O O8 0.500000 0.322793 0.538087
O O9 0.325105 0.354218 0.602957
O O10 0.361913 0.228161 0.459966
O O11 0.894597 0.500000 0.859447
O O12 0.826884 0.621961 0.740072
O O13 0.000000 0.625745 0.841963
O O14 0.669046 0.916303 0.488981
O O15 0.771123 0.000000 0.647655
O O16 0.500000 0.126192 0.404682
#
# Coordination Sequence:
#
# PCOD8172858 Si02
#       6
#     8   8   8   8   8   8
#     4   9  17  31  53  80 109 143 184 230 278 327
#     4  10  19  33  56  86 114 147 188 234 287 339
#     4  10  21  36  55  79 113 149 184 231 282 327
#     4   9  19  35  54  80 117 151 182 231 291 340
#     4  11  21  35  57  83 110 147 190 230 278 334
#     4  11  22  34  55  83 113 145 184 233 281 335
#
# _framework density 19.644832999999998
#
# number of rings (size 3 to 8) (size 9 to 14) (size 15 to 20)
#    0.000    2.000    1.667    2.500    0.000    3.667 
#    0.000    0.833    7.333    3.000    0.000    0.000 
#    0.000    0.000    0.000    0.000    0.000    0.000 
#
# Total GULP energy -297582.332332 kJ/mol
# GULP energy per Si atom -12399.263847 kJ/mol
# Density = 1.960012 g / cm^3
# Si number density = 19.644833 Si / 1000 Ang^3
#
#
#
# Elastic Constant Matrix: (Units=GPa)
#
#
# Indices 1 2 3 4 5 6 
#
# 1 134.3837 38.4140 60.1011 0.0000 0.0000 0.0000
# 2 38.4140 53.5655 23.4800 0.0000 0.0000 0.0000
# 3 60.1011 23.4800 120.7763 0.0000 0.0000 0.0000
# 4 0.0000 0.0000 0.0000 10.6293 0.0000 0.0000
# 5 0.0000 0.0000 0.0000 0.0000 38.9744 0.0000
# 6 0.0000 0.0000 0.0000 0.0000 0.0000 23.9553
#
#
#
# Elastic Compliance Matrix: (Units=1/GPa)
#
#
# Indices 1 2 3 4 5 6 
#
# 1 0.011124 -0.006068 -0.004356 0.000000 0.000000 0.000000
# 2 -0.006068 0.023718 -0.001591 0.000000 0.000000 0.000000
# 3 -0.004356 -0.001591 0.010757 0.000000 0.000000 0.000000
# 4 0.000000 0.000000 0.000000 0.094079 0.000000 0.000000
# 5 0.000000 0.000000 0.000000 0.000000 0.025658 0.000000
# 6 0.000000 0.000000 0.000000 0.000000 0.000000 0.041744
#
#
# Mechanical properties :
#
#
# Convention : Reuss Voigt Hill
#
# Bulk Modulus (GPa) = 46.36494 61.41285 53.88890
# Shear Modulus (GPa) = 20.98191 27.16049 24.07120
#
# Velocity S-wave (km/s) = 3.27167 3.72234 3.50425
# Velocity P-wave (km/s) = 6.15829 7.05718 6.62301
#
# Compressibility (1/GPa) = 0.02156802
#
# Stress axis : x y z
#
# Youngs Moduli (GPa) = 89.89497 42.16209 92.96498
#
# Poissons Ratio (x) = 0.25585 0.40495
# Poissons Ratio (y) = 0.54550 0.14794
# Poissons Ratio (z) = 0.39157 0.06709
#
# Static dielectric constant tensor:
#      x y z
#    x 3.937430 0.000000 0.000000 
#    y 0.000000 3.454460 0.000000 
#    z 0.000000 0.000000 3.413750 
# 
# 
# High freq. dielectric constant tensor:
#      x y z
#    x 1.785950 0.000000 0.000000 
#    y 0.000000 1.745620 0.000000 
#    z 0.000000 0.000000 1.739570 
# 
# From -- ./inp_files/7308.got.cif
#   From: 2010.03.12/outbox.cif.g09.slc.cpg/sg35_4_cif.got.tgz:7308.got - 2010.04.14 02:02:04.
