data_PCOD8172946
_publ_section_title
;
Structure prediction by ZEFSAII (Michael W. Deem and Ramdas Pophale) SiO2 
 PCOD8172946
Probable space group: C M M 2
;
_chemical_formula_sum "Si O2"
_cell_formula_units_Z 48
_cell_length_a 8.827352
_cell_length_b 14.912745
_cell_length_c 18.903343
_cell_angle_alpha 90.000000
_cell_angle_beta 90.000000
_cell_angle_gamma 90.000000
_cell_volume 2488.437006
_symmetry_space_group_name_H-M "C M M 2"
_symmetry_group_IT_number 35
_symmetry_cell_setting 'orthorhombic'
loop_
_space_group_symop_operation_xyz
x,y,z
-x,-y,z
-x,y,z
x,-y,z
1/2+x,1/2+y,z
1/2-x,1/2-y,z
1/2-x,1/2+y,z
1/2+x,1/2-y,z
loop_
_atom_site_type_symbol
_atom_site_label
_atom_site_fract_x
_atom_site_fract_y
_atom_site_fract_z
Si Si1 0.327886 0.394405 0.075020
Si Si2 0.178328 0.339323 0.933924
Si Si3 0.820964 0.500000 0.840640
Si Si4 0.321030 0.350012 0.577393
Si Si5 0.321755 0.500000 0.331896
Si Si6 0.178361 0.158559 0.228924
Si Si7 0.173835 0.000000 0.690595
Si Si8 0.679346 0.000000 0.482583
O O1 0.500000 0.360272 0.065163
O O2 0.320413 0.500000 0.068659
O O3 0.259900 0.365768 0.150873
O O4 0.224218 0.351272 0.015299
O O5 0.250000 0.250000 0.902444
O O6 0.245399 0.415388 0.882782
O O7 0.000000 0.334724 0.929674
O O8 0.775301 0.500000 0.759555
O O9 0.000000 0.500000 0.844701
O O10 0.500000 0.340221 0.563800
O O11 0.250000 0.250000 0.583323
O O12 0.288384 0.408852 0.647607
O O13 0.249053 0.407936 0.513927
O O14 0.500000 0.500000 0.351454
O O15 0.274259 0.414805 0.285831
O O16 0.217957 0.500000 0.400452
O O17 0.250000 0.250000 0.256339
O O18 0.000000 0.166465 0.224549
O O19 0.000000 0.000000 0.713426
O O20 0.500000 0.000000 0.495429
#
# Coordination Sequence:
#
# PCOD8172946 Si02
#       8
#     8   8   4   8   4   8   4   4
#     4  10  19  35  59  83 108 145 192 241 295 349
#     4  11  23  39  56  81 112 149 194 241 292 345
#     4  10  23  40  57  80 117 154 191 236 286 340
#     4  10  21  40  65  94 123 155 194 236 284 341
#     4  10  21  40  59  78 115 158 191 234 290 346
#     4  10  21  37  57  81 110 147 191 238 291 347
#     4   9  21  39  61  89 121 153 191 233 282 340
#     4  11  23  39  61  91 123 157 197 239 286 342
#
# _framework density 19.289217000000001
#
# number of rings (size 3 to 8) (size 9 to 14) (size 15 to 20)
#    0.000    1.833    1.667    2.750    0.000    7.333 
#    0.000    5.000    0.000    0.000    0.000    0.000 
#    0.000    0.000    0.000    0.000    0.000    0.000 
#
# Total GULP energy -297600.138045 kJ/mol
# GULP energy per Si atom -12400.005752 kJ/mol
# Density = 1.924531 g / cm^3
# Si number density = 19.289217 Si / 1000 Ang^3
#
#
#
# Elastic Constant Matrix: (Units=GPa)
#
#
# Indices 1 2 3 4 5 6 
#
# 1 72.1968 55.0215 43.9618 0.0000 0.0000 0.0000
# 2 55.0215 173.0005 68.6097 0.0000 0.0000 0.0000
# 3 43.9618 68.6097 126.6854 0.0000 0.0000 0.0000
# 4 0.0000 0.0000 0.0000 111.3692 0.0000 0.0000
# 5 0.0000 0.0000 0.0000 0.0000 27.7803 0.0000
# 6 0.0000 0.0000 0.0000 0.0000 0.0000 33.0015
#
#
#
# Elastic Compliance Matrix: (Units=1/GPa)
#
#
# Indices 1 2 3 4 5 6 
#
# 1 0.020093 -0.004617 -0.004472 0.000000 0.000000 0.000000
# 2 -0.004617 0.008422 -0.002959 0.000000 0.000000 0.000000
# 3 -0.004472 -0.002959 0.011048 0.000000 0.000000 0.000000
# 4 0.000000 0.000000 0.000000 0.008979 0.000000 0.000000
# 5 0.000000 0.000000 0.000000 0.000000 0.035997 0.000000
# 6 0.000000 0.000000 0.000000 0.000000 0.000000 0.030302
#
#
# Mechanical properties :
#
#
# Convention : Reuss Voigt Hill
#
# Bulk Modulus (GPa) = 64.65456 78.56319 71.60888
# Shear Modulus (GPa) = 34.70001 48.04951 41.37476
#
# Velocity S-wave (km/s) = 4.24598 4.99641 4.63640
# Velocity P-wave (km/s) = 7.59138 8.60831 8.11579
#
# Compressibility (1/GPa) = 0.01546681
#
# Stress axis : x y z
#
# Youngs Moduli (GPa) = 49.76957 118.73357 90.51332
#
# Poissons Ratio (x) = 0.54816 0.40479
# Poissons Ratio (y) = 0.22977 0.26785
# Poissons Ratio (z) = 0.22258 0.35136
#
# Static dielectric constant tensor:
#      x y z
#    x 3.422380 0.000000 0.000000 
#    y 0.000000 3.716210 0.000000 
#    z 0.000000 0.000000 3.508110 
# 
# 
# High freq. dielectric constant tensor:
#      x y z
#    x 1.745700 0.000000 0.000000 
#    y 0.000000 1.766470 0.000000 
#    z 0.000000 0.000000 1.748760 
# 
# From -- ./inp_files/17963.got.cif
#   From: 2010.03.12/outbox.cif.g09.slc.cpg/sg35_9_cif.got.tgz:17963.got - 2010.04.14 02:02:04.
