data_PCOD8172583
_publ_section_title
;
Structure prediction by ZEFSAII (Michael W. Deem and Ramdas Pophale) SiO2 
 PCOD8172583
Probable space group: C M M 2
;
_chemical_formula_sum "Si O2"
_cell_formula_units_Z 56
_cell_length_a 9.144751
_cell_length_b 19.256496
_cell_length_c 17.590388
_cell_angle_alpha 90.000000
_cell_angle_beta 90.000000
_cell_angle_gamma 90.000000
_cell_volume 3097.594521
_symmetry_space_group_name_H-M "C M M 2"
_symmetry_group_IT_number 35
_symmetry_cell_setting 'orthorhombic'
loop_
_space_group_symop_operation_xyz
x,y,z
-x,-y,z
-x,y,z
x,-y,z
1/2+x,1/2+y,z
1/2-x,1/2-y,z
1/2-x,1/2+y,z
1/2+x,1/2-y,z
loop_
_atom_site_type_symbol
_atom_site_label
_atom_site_fract_x
_atom_site_fract_y
_atom_site_fract_z
Si Si1 0.326692 0.077017 0.694300
Si Si2 0.326692 0.077017 0.427083
Si Si3 0.165729 0.418319 0.257002
Si Si4 0.674344 0.824066 0.560691
Si Si5 0.670794 0.319544 0.148146
Si Si6 0.170794 0.819544 0.973236
Si Si7 0.665729 0.081681 0.864381
O O1 0.500000 0.071894 0.689728
O O2 0.269234 0.133503 0.634290
O O3 0.280670 0.100423 0.779084
O O4 0.262836 0.000000 0.675652
O O5 0.500000 0.071894 0.431654
O O6 0.280669 0.100423 0.342298
O O7 0.269234 0.133503 0.487092
O O8 0.262837 0.000000 0.445731
O O9 0.174047 0.500000 0.244026
O O10 0.273876 0.383631 0.197412
O O11 0.000000 0.391906 0.243804
O O12 0.500000 0.814710 0.560691
O O13 0.750000 0.750000 0.560692
O O14 0.500000 0.309437 0.160825
O O15 0.750000 0.250000 0.176400
O O16 0.709448 0.335337 0.060691
O O17 0.250000 0.750000 0.944983
O O18 0.226124 0.883631 0.923971
O O19 0.000000 0.809437 0.960558
O O20 0.500000 0.108094 0.877579
O O21 0.674047 0.000000 0.877357
#
# Coordination Sequence:
#
# PCOD8172583 Si02
#       7
#     8   8   8   8   8   8   8
#     4   8  15  30  52  74  95 126 168 205 237 282
#     4   8  15  30  52  74  95 126 168 205 237 282
#     4   9  18  33  53  77 103 130 164 206 250 297
#     4  10  19  31  49  73 101 130 162 202 244 286
#     4  10  21  36  53  73  99 132 169 207 248 297
#     4  10  21  36  53  73  99 132 169 207 248 297
#     4   9  18  33  53  77 103 130 164 206 250 297
#
# _framework density 18.078544000000001
#
# number of rings (size 3 to 8) (size 9 to 14) (size 15 to 20)
#    0.000    2.857    0.000    3.000    0.000    5.714 
#    0.000    7.143    0.000    3.429    0.000    0.000 
#    0.000    0.000    0.000    0.000    0.000    0.000 
#
# Total GULP energy -347159.376484 kJ/mol
# GULP energy per Si atom -12398.549160 kJ/mol
# Density = 1.803740 g / cm^3
# Si number density = 18.078544 Si / 1000 Ang^3
#
#
#
# Elastic Constant Matrix: (Units=GPa)
#
#
# Indices 1 2 3 4 5 6 
#
# 1 53.4370 39.3739 43.9358 0.0000 0.0000 0.0000
# 2 39.3739 101.2014 73.4725 0.0000 0.0000 0.0000
# 3 43.9358 73.4725 115.7695 0.0000 0.0000 0.0000
# 4 0.0000 0.0000 0.0000 25.9169 0.0000 0.0000
# 5 0.0000 0.0000 0.0000 0.0000 19.4560 0.0000
# 6 0.0000 0.0000 0.0000 0.0000 0.0000 33.7961
#
#
#
# Elastic Compliance Matrix: (Units=1/GPa)
#
#
# Indices 1 2 3 4 5 6 
#
# 1 0.029117 -0.006131 -0.007160 0.000000 0.000000 0.000000
# 2 -0.006131 0.019615 -0.010122 0.000000 0.000000 0.000000
# 3 -0.007160 -0.010122 0.017779 0.000000 0.000000 0.000000
# 4 0.000000 0.000000 0.000000 0.038585 0.000000 0.000000
# 5 0.000000 0.000000 0.000000 0.000000 0.051398 0.000000
# 6 0.000000 0.000000 0.000000 0.000000 0.000000 0.029589
#
#
# Mechanical properties :
#
#
# Convention : Reuss Voigt Hill
#
# Bulk Modulus (GPa) = 50.79512 64.88582 57.84047
# Shear Modulus (GPa) = 20.87942 23.40884 22.14413
#
# Velocity S-wave (km/s) = 3.40211 3.60229 3.50363
# Velocity P-wave (km/s) = 6.60230 7.29870 6.95922
#
# Compressibility (1/GPa) = 0.01968693
#
# Stress axis : x y z
#
# Youngs Moduli (GPa) = 34.34363 50.98121 56.24671
#
# Poissons Ratio (x) = 0.31255 0.40270
# Poissons Ratio (y) = 0.21055 0.56932
# Poissons Ratio (z) = 0.24589 0.51603
#
# Static dielectric constant tensor:
#      x y z
#    x 3.034020 0.000000 0.000000 
#    y 0.000000 3.347410 0.000000 
#    z 0.000000 0.000000 3.603880 
# 
# 
# High freq. dielectric constant tensor:
#      x y z
#    x 1.668450 0.000000 0.000000 
#    y 0.000000 1.700020 0.000000 
#    z 0.000000 0.000000 1.709440 
# 
# From -- ./inp_files/15603.got.cif
#   From: 2010.03.12/outbox.cif.g09.slc.cpg/sg35_8_cif.got.tgz:15603.got - 2010.04.14 02:02:04.
