data_PCOD8172608
_publ_section_title
;
Structure prediction by ZEFSAII (Michael W. Deem and Ramdas Pophale) SiO2 
 PCOD8172608
Probable space group: C M M 2
;
_chemical_formula_sum "Si O2"
_cell_formula_units_Z 64
_cell_length_a 18.863249
_cell_length_b 17.266994
_cell_length_c 10.673217
_cell_angle_alpha 90.000000
_cell_angle_beta 90.000000
_cell_angle_gamma 90.000000
_cell_volume 3476.390664
_symmetry_space_group_name_H-M "C M M 2"
_symmetry_group_IT_number 35
_symmetry_cell_setting 'orthorhombic'
loop_
_space_group_symop_operation_xyz
x,y,z
-x,-y,z
-x,y,z
x,-y,z
1/2+x,1/2+y,z
1/2-x,1/2-y,z
1/2-x,1/2+y,z
1/2+x,1/2-y,z
loop_
_atom_site_type_symbol
_atom_site_label
_atom_site_fract_x
_atom_site_fract_y
_atom_site_fract_z
Si Si1 0.299291 0.319986 0.988950
Si Si2 0.316598 0.909207 0.120131
Si Si3 0.083292 0.728295 0.103982
Si Si4 0.819214 0.792727 0.703205
Si Si5 0.577422 0.803253 0.571832
Si Si6 0.828941 0.585634 0.407039
Si Si7 0.827358 0.086588 0.495960
Si Si8 0.423579 0.311628 0.352848
O O1 0.250000 0.250000 0.033598
O O2 0.303087 0.326710 0.839624
O O3 0.259965 0.394089 0.051998
O O4 0.379313 0.301851 0.035122
O O5 0.379338 0.853494 0.065407
O O6 0.313079 0.886050 0.266134
O O7 0.335444 0.000000 0.099119
O O8 0.095666 0.746328 0.250721
O O9 0.000000 0.724070 0.068216
O O10 0.750000 0.750000 0.647200
O O11 0.879715 0.725250 0.695857
O O12 0.843587 0.865296 0.620740
O O13 0.500000 0.834206 0.614055
O O14 0.615533 0.866779 0.487556
O O15 0.569479 0.728355 0.486384
O O16 0.861400 0.500000 0.400308
O O17 0.756055 0.586926 0.480556
O O18 0.864152 0.122203 0.370590
O O19 0.856875 0.000000 0.514484
O O20 0.500000 0.349421 0.317403
#
# Coordination Sequence:
#
# PCOD8172608 Si02
#       8
#     8   8   8   8   8   8   8   8
#     4   9  20  35  53  79 106 142 191 233 276 329
#     4  10  20  34  55  84 115 146 182 229 281 336
#     4  10  19  34  55  78 109 146 184 229 277 328
#     4  10  19  35  55  75 101 143 186 229 273 322
#     4  10  19  32  51  76 106 141 182 227 274 329
#     4  10  19  31  50  78 111 144 176 218 278 342
#     4  10  20  32  51  78 104 136 177 223 278 334
#     4   9  18  31  50  75 103 138 177 221 277 331
#
# _framework density 18.409898999999999
#
# number of rings (size 3 to 8) (size 9 to 14) (size 15 to 20)
#    0.000    2.250    2.500    0.750    0.000    1.750 
#    0.000    1.250    0.000    1.125    0.000    3.500 
#    0.000    0.000    0.000    0.000    0.000    0.000 
#
# Total GULP energy -396440.706874 kJ/mol
# GULP energy per Si atom -12388.772090 kJ/mol
# Density = 1.836800 g / cm^3
# Si number density = 18.409899 Si / 1000 Ang^3
#
#
#
# Elastic Constant Matrix: (Units=GPa)
#
#
# Indices 1 2 3 4 5 6 
#
# 1 118.8257 57.4051 31.9371 0.0000 0.0000 0.0000
# 2 57.4051 95.6394 28.1666 0.0000 0.0000 0.0000
# 3 31.9371 28.1666 55.7388 0.0000 0.0000 0.0000
# 4 0.0000 0.0000 0.0000 19.5408 0.0000 0.0000
# 5 0.0000 0.0000 0.0000 0.0000 19.9706 0.0000
# 6 0.0000 0.0000 0.0000 0.0000 0.0000 20.5592
#
#
#
# Elastic Compliance Matrix: (Units=1/GPa)
#
#
# Indices 1 2 3 4 5 6 
#
# 1 0.012562 -0.006368 -0.003980 0.000000 0.000000 0.000000
# 2 -0.006368 0.015512 -0.004190 0.000000 0.000000 0.000000
# 3 -0.003980 -0.004190 0.022339 0.000000 0.000000 0.000000
# 4 0.000000 0.000000 0.000000 0.051175 0.000000 0.000000
# 5 0.000000 0.000000 0.000000 0.000000 0.050074 0.000000
# 6 0.000000 0.000000 0.000000 0.000000 0.000000 0.048640
#
#
# Mechanical properties :
#
#
# Convention : Reuss Voigt Hill
#
# Bulk Modulus (GPa) = 46.86697 56.13573 51.50135
# Shear Modulus (GPa) = 21.14267 22.19377 21.66822
#
# Velocity S-wave (km/s) = 3.39254 3.47585 3.43445
# Velocity P-wave (km/s) = 6.39207 6.83133 6.61534
#
# Compressibility (1/GPa) = 0.02133699
#
# Stress axis : x y z
#
# Youngs Moduli (GPa) = 79.60768 64.46607 44.76571
#
# Poissons Ratio (x) = 0.41050 0.17815
# Poissons Ratio (y) = 0.50692 0.18757
# Poissons Ratio (z) = 0.31682 0.27012
#
# Static dielectric constant tensor:
#      x y z
#    x 3.659400 0.000000 0.000000 
#    y 0.000000 3.385810 0.000000 
#    z 0.000000 0.000000 3.146860 
# 
# 
# High freq. dielectric constant tensor:
#      x y z
#    x 1.716470 0.000000 0.000000 
#    y 0.000000 1.697310 0.000000 
#    z 0.000000 0.000000 1.695600 
# 
# From -- ./inp_files/13657.got.cif
#   From: 2010.03.12/outbox.cif.g09.slc.cpg/sg35_7_cif.got.tgz:13657.got - 2010.04.14 02:02:04.
