data_PCOD8172769
_publ_section_title
;
Structure prediction by ZEFSAII (Michael W. Deem and Ramdas Pophale) SiO2 
 PCOD8172769
Probable space group: C M M 2
;
_chemical_formula_sum "Si O2"
_cell_formula_units_Z 64
_cell_length_a 9.095107
_cell_length_b 28.837575
_cell_length_c 12.307255
_cell_angle_alpha 90.000000
_cell_angle_beta 90.000000
_cell_angle_gamma 90.000000
_cell_volume 3227.957059
_symmetry_space_group_name_H-M "C M M 2"
_symmetry_group_IT_number 35
_symmetry_cell_setting 'orthorhombic'
loop_
_space_group_symop_operation_xyz
x,y,z
-x,-y,z
-x,y,z
x,-y,z
1/2+x,1/2+y,z
1/2-x,1/2-y,z
1/2-x,1/2+y,z
1/2+x,1/2-y,z
loop_
_atom_site_type_symbol
_atom_site_label
_atom_site_fract_x
_atom_site_fract_y
_atom_site_fract_z
Si Si1 0.169821 0.705220 0.089360
Si Si2 0.825229 0.602926 0.616278
Si Si3 0.334593 0.448532 0.183126
Si Si4 0.671513 0.894675 0.012780
Si Si5 0.826324 0.945816 0.817988
Si Si6 0.164728 0.705809 0.560066
Si Si7 0.667097 0.174097 0.325380
Si Si8 0.832459 0.912466 0.406280
O O1 0.250000 0.750000 0.039420
O O2 0.217267 0.699327 0.215238
O O3 0.000000 0.716163 0.082365
O O4 0.207707 0.660089 0.016650
O O5 0.753943 0.579197 0.719403
O O6 0.773018 0.656691 0.605422
O O7 0.769876 0.575652 0.509242
O O8 0.000000 0.599160 0.623108
O O9 0.500000 0.430822 0.155252
O O10 0.312033 0.500000 0.135790
O O11 0.315048 0.451465 0.313709
O O12 0.212947 0.415067 0.130648
O O13 0.500000 0.903459 0.988245
O O14 0.772336 0.920663 0.926306
O O15 0.000000 0.939469 0.806347
O O16 0.783014 0.000000 0.821064
O O17 0.250000 0.750000 0.608836
O O18 0.171831 0.708193 0.428992
O O19 0.000000 0.710891 0.602689
O O20 0.500000 0.154294 0.312502
O O21 0.784297 0.134293 0.346458
O O22 0.000000 0.908061 0.447492
#
# Coordination Sequence:
#
# PCOD8172769 Si02
#       8
#     8   8   8   8   8   8   8   8
#     4  10  21  35  55  84 119 157 199 245 292 347
#     4  10  22  40  61  87 120 154 196 247 296 350
#     4  10  21  36  55  83 119 157 196 239 291 353
#     4  11  23  40  62  88 119 153 195 246 296 351
#     4  11  25  45  68  91 114 146 194 249 301 358
#     4   9  18  31  52  82 118 157 195 238 284 338
#     4   9  17  32  50  76 117 159 199 245 289 337
#     4  10  19  32  54  84 119 160 198 239 293 349
#
# _framework density 19.826782999999999
#
# number of rings (size 3 to 8) (size 9 to 14) (size 15 to 20)
#    0.000    2.000    1.250    3.000    0.000    7.750 
#    0.000    1.875    0.000    0.000    0.000    0.000 
#    0.000    0.000    0.000    0.000    0.000    0.000 
#
# Total GULP energy -396710.243019 kJ/mol
# GULP energy per Si atom -12397.195094 kJ/mol
# Density = 1.978166 g / cm^3
# Si number density = 19.826783 Si / 1000 Ang^3
#
#
#
# Elastic Constant Matrix: (Units=GPa)
#
#
# Indices 1 2 3 4 5 6 
#
# 1 82.4597 52.4211 40.5193 0.0000 0.0000 0.0000
# 2 52.4211 102.1683 42.4146 0.0000 0.0000 0.0000
# 3 40.5193 42.4146 88.6650 0.0000 0.0000 0.0000
# 4 0.0000 0.0000 0.0000 22.3515 0.0000 0.0000
# 5 0.0000 0.0000 0.0000 0.0000 27.8221 0.0000
# 6 0.0000 0.0000 0.0000 0.0000 0.0000 28.2299
#
#
#
# Elastic Compliance Matrix: (Units=1/GPa)
#
#
# Indices 1 2 3 4 5 6 
#
# 1 0.019758 -0.007972 -0.005216 0.000000 0.000000 0.000000
# 2 -0.007972 0.015430 -0.003738 0.000000 0.000000 0.000000
# 3 -0.005216 -0.003738 0.015450 0.000000 0.000000 0.000000
# 4 0.000000 0.000000 0.000000 0.044740 0.000000 0.000000
# 5 0.000000 0.000000 0.000000 0.000000 0.035943 0.000000
# 6 0.000000 0.000000 0.000000 0.000000 0.000000 0.035423
#
#
# Mechanical properties :
#
#
# Convention : Reuss Voigt Hill
#
# Bulk Modulus (GPa) = 59.57210 60.44479 60.00845
# Shear Modulus (GPa) = 24.24928 24.87655 24.56292
#
# Velocity S-wave (km/s) = 3.50102 3.54601 3.52358
# Velocity P-wave (km/s) = 6.81574 6.87882 6.84735
#
# Compressibility (1/GPa) = 0.01678638
#
# Stress axis : x y z
#
# Youngs Moduli (GPa) = 50.61184 64.80840 64.72480
#
# Poissons Ratio (x) = 0.51668 0.33758
# Poissons Ratio (y) = 0.40350 0.24194
# Poissons Ratio (z) = 0.26397 0.24225
#
# Static dielectric constant tensor:
#      x y z
#    x 3.593950 0.000000 0.000000 
#    y 0.000000 3.593110 0.000000 
#    z 0.000000 0.000000 3.583690 
# 
# 
# High freq. dielectric constant tensor:
#      x y z
#    x 1.775970 0.000000 0.000000 
#    y 0.000000 1.768740 0.000000 
#    z 0.000000 0.000000 1.758930 
# 
# From -- ./inp_files/11937.got.cif
#   From: 2010.03.12/outbox.cif.g09.slc.cpg/sg35_6_cif.got.tgz:11937.got - 2010.04.14 02:02:04.
