data_PCOD8172369
_publ_section_title
;
Structure prediction by ZEFSAII (Michael W. Deem and Ramdas Pophale) SiO2 
 PCOD8172369
Probable space group: C M M 2
;
_chemical_formula_sum "Si O2"
_cell_formula_units_Z 64
_cell_length_a 18.081236
_cell_length_b 16.987533
_cell_length_c 11.814751
_cell_angle_alpha 90.000000
_cell_angle_beta 90.000000
_cell_angle_gamma 90.000000
_cell_volume 3628.966852
_symmetry_space_group_name_H-M "C M M 2"
_symmetry_group_IT_number 35
_symmetry_cell_setting 'orthorhombic'
loop_
_space_group_symop_operation_xyz
x,y,z
-x,-y,z
-x,y,z
x,-y,z
1/2+x,1/2+y,z
1/2-x,1/2-y,z
1/2-x,1/2+y,z
1/2+x,1/2-y,z
loop_
_atom_site_type_symbol
_atom_site_label
_atom_site_fract_x
_atom_site_fract_y
_atom_site_fract_z
Si Si1 0.081359 0.851753 0.011910
Si Si2 0.822354 0.091574 0.642097
Si Si3 0.714481 0.163381 0.205492
Si Si4 0.199808 0.823428 0.413323
Si Si5 0.084649 0.757948 0.244214
Si Si6 0.292598 0.171147 0.772776
Si Si7 0.082882 0.219797 0.774628
Si Si8 0.762471 0.086645 0.985244
O O1 0.092731 0.811995 0.133352
O O2 0.000000 0.893600 0.009111
O O3 0.084382 0.788316 0.910550
O O4 0.148227 0.911715 0.989927
O O5 0.823855 0.118362 0.512531
O O6 0.738550 0.102765 0.690433
O O7 0.878381 0.143903 0.717056
O O8 0.845154 0.000000 0.651043
O O9 0.750000 0.250000 0.181131
O O10 0.750461 0.129843 0.321125
O O11 0.626180 0.175310 0.218608
O O12 0.729748 0.101569 0.108392
O O13 0.250000 0.750000 0.458430
O O14 0.123474 0.796999 0.353407
O O15 0.000000 0.740650 0.274584
O O16 0.250000 0.250000 0.741612
O O17 0.377982 0.195292 0.750282
O O18 0.275124 0.149134 0.902179
O O19 0.000000 0.225045 0.726562
O O20 0.739335 0.000000 0.945105
#
# Coordination Sequence:
#
# PCOD8172369 Si02
#       8
#     8   8   8   8   8   8   8   8
#     4  10  18  31  50  78 110 137 162 204 257 309
#     4  11  22  35  53  79 109 138 169 216 271 318
#     4   9  17  32  53  74 100 133 178 218 249 293
#     4   9  18  33  52  74 101 137 178 218 250 300
#     4   9  17  31  55  78  99 131 174 213 255 297
#     4  10  19  34  56  74 101 136 184 219 250 300
#     4  10  21  35  57  80 103 138 177 215 259 309
#     4  12  20  30  51  79 107 142 172 207 261 312
#
# _framework density 17.635874999999999
#
# number of rings (size 3 to 8) (size 9 to 14) (size 15 to 20)
#    0.000    2.250    5.000    2.625    0.000    1.500 
#    0.000    1.250    0.000    2.625    0.000    0.000 
#    0.000    0.000    0.000    0.000    0.000    0.000 
#
# Total GULP energy -396466.551070 kJ/mol
# GULP energy per Si atom -12389.579721 kJ/mol
# Density = 1.759573 g / cm^3
# Si number density = 17.635875 Si / 1000 Ang^3
#
#
#
# Elastic Constant Matrix: (Units=GPa)
#
#
# Indices 1 2 3 4 5 6 
#
# 1 137.8331 51.8995 39.2515 0.0000 0.0000 0.0000
# 2 51.8995 55.5226 26.1955 0.0000 0.0000 0.0000
# 3 39.2515 26.1955 88.5065 0.0000 0.0000 0.0000
# 4 0.0000 0.0000 0.0000 16.9020 0.0000 0.0000
# 5 0.0000 0.0000 0.0000 0.0000 15.4324 0.0000
# 6 0.0000 0.0000 0.0000 0.0000 0.0000 15.6343
#
#
#
# Elastic Compliance Matrix: (Units=1/GPa)
#
#
# Indices 1 2 3 4 5 6 
#
# 1 0.011566 -0.009754 -0.002243 0.000000 0.000000 0.000000
# 2 -0.009754 0.029159 -0.004305 0.000000 0.000000 0.000000
# 3 -0.002243 -0.004305 0.013567 0.000000 0.000000 0.000000
# 4 0.000000 0.000000 0.000000 0.059164 0.000000 0.000000
# 5 0.000000 0.000000 0.000000 0.000000 0.064799 0.000000
# 6 0.000000 0.000000 0.000000 0.000000 0.000000 0.063962
#
#
# Mechanical properties :
#
#
# Convention : Reuss Voigt Hill
#
# Bulk Modulus (GPa) = 46.10303 57.39503 51.74903
# Shear Modulus (GPa) = 17.72738 20.56145 19.14442
#
# Velocity S-wave (km/s) = 3.17391 3.41821 3.29833
# Velocity P-wave (km/s) = 6.29523 6.94219 6.62661
#
# Compressibility (1/GPa) = 0.02169055
#
# Stress axis : x y z
#
# Youngs Moduli (GPa) = 86.45716 34.29513 73.70658
#
# Poissons Ratio (x) = 0.33450 0.16531
# Poissons Ratio (y) = 0.84326 0.31728
# Poissons Ratio (z) = 0.19391 0.14763
#
# Static dielectric constant tensor:
#      x y z
#    x 3.686010 0.000000 0.000000 
#    y 0.000000 2.988660 0.000000 
#    z 0.000000 0.000000 3.318650 
# 
# 
# High freq. dielectric constant tensor:
#      x y z
#    x 1.679710 0.000000 0.000000 
#    y 0.000000 1.637790 0.000000 
#    z 0.000000 0.000000 1.690810 
# 
# From -- ./inp_files/13700.got.cif
#   From: 2010.03.12/outbox.cif.g09.slc.cpg/sg35_7_cif.got.tgz:13700.got - 2010.04.14 02:02:04.
