data_PCOD8172877
_publ_section_title
;
Structure prediction by ZEFSAII (Michael W. Deem and Ramdas Pophale) SiO2 
 PCOD8172877
Probable space group: C M M 2
;
_chemical_formula_sum "Si O2"
_cell_formula_units_Z 48
_cell_length_a 15.491762
_cell_length_b 8.564790
_cell_length_c 18.831484
_cell_angle_alpha 90.000000
_cell_angle_beta 90.000000
_cell_angle_gamma 90.000000
_cell_volume 2498.630753
_symmetry_space_group_name_H-M "C M M 2"
_symmetry_group_IT_number 35
_symmetry_cell_setting 'orthorhombic'
loop_
_space_group_symop_operation_xyz
x,y,z
-x,-y,z
-x,y,z
x,-y,z
1/2+x,1/2+y,z
1/2-x,1/2-y,z
1/2-x,1/2+y,z
1/2+x,1/2-y,z
loop_
_atom_site_type_symbol
_atom_site_label
_atom_site_fract_x
_atom_site_fract_y
_atom_site_fract_z
Si Si1 0.500000 0.814723 0.928560
Si Si2 0.000000 0.314598 0.265734
Si Si3 0.841597 0.685625 0.023294
Si Si4 0.500000 0.186427 0.769016
Si Si5 0.340150 0.184972 0.517564
Si Si6 0.657590 0.685313 0.177966
Si Si7 0.159887 0.684843 0.678467
Si Si8 0.500000 0.185372 0.428042
O O1 0.500000 0.746507 0.848948
O O2 0.500000 0.000000 0.926796
O O3 0.585535 0.755526 0.968797
O O4 0.914491 0.245131 0.231323
O O5 0.000000 0.259071 0.347109
O O6 0.000000 0.500000 0.257361
O O7 0.837693 0.500000 0.029112
O O8 0.750000 0.750000 0.995857
O O9 0.865292 0.753765 0.099854
O O10 0.584164 0.250717 0.728408
O O11 0.500000 0.000000 0.769118
O O12 0.250000 0.250000 0.487976
O O13 0.356349 0.243761 0.598065
O O14 0.415619 0.252477 0.467699
O O15 0.337715 0.000000 0.514910
O O16 0.660319 0.500000 0.177307
O O17 0.750000 0.750000 0.203545
O O18 0.162303 0.500000 0.681052
O O19 0.250000 0.750000 0.708174
O O20 0.500000 0.000000 0.433222
#
# Coordination Sequence:
#
# PCOD8172877 Si02
#       8
#     4   4   8   4   8   8   8   4
#     4   9  19  32  49  73 104 137 170 206 252 305
#     4  11  22  37  55  79 110 143 174 214 264 317
#     4  10  19  34  55  78 102 133 171 215 259 306
#     4   9  17  31  49  72 100 137 174 204 246 307
#     4   9  17  32  52  76 100 130 170 212 253 297
#     4  11  22  38  59  82 106 137 176 220 263 313
#     4   9  17  30  52  75  99 130 170 213 252 296
#     4   9  19  34  53  74 102 137 172 206 250 305
#
# _framework density 19.210522999999998
#
# number of rings (size 3 to 8) (size 9 to 14) (size 15 to 20)
#    0.000    2.333    0.000    4.250    0.000    4.000 
#    0.000    5.417    0.000    7.000    0.000    0.000 
#    0.000    0.000    0.000    0.000    0.000    0.000 
#
# Total GULP energy -297624.577696 kJ/mol
# GULP energy per Si atom -12401.024071 kJ/mol
# Density = 1.916680 g / cm^3
# Si number density = 19.210523 Si / 1000 Ang^3
#
#
#
# Elastic Constant Matrix: (Units=GPa)
#
#
# Indices 1 2 3 4 5 6 
#
# 1 205.7519 36.0089 121.8520 0.0000 0.0000 0.0000
# 2 36.0089 61.9505 31.7460 0.0000 0.0000 0.0000
# 3 121.8520 31.7460 145.1985 0.0000 0.0000 0.0000
# 4 0.0000 0.0000 0.0000 17.4280 0.0000 0.0000
# 5 0.0000 0.0000 0.0000 0.0000 17.1698 0.0000
# 6 0.0000 0.0000 0.0000 0.0000 0.0000 32.6856
#
#
#
# Elastic Compliance Matrix: (Units=1/GPa)
#
#
# Indices 1 2 3 4 5 6 
#
# 1 0.009814 -0.001671 -0.007870 0.000000 0.000000 0.000000
# 2 -0.001671 0.018463 -0.002634 0.000000 0.000000 0.000000
# 3 -0.007870 -0.002634 0.014068 0.000000 0.000000 0.000000
# 4 0.000000 0.000000 0.000000 0.057379 0.000000 0.000000
# 5 0.000000 0.000000 0.000000 0.000000 0.058242 0.000000
# 6 0.000000 0.000000 0.000000 0.000000 0.000000 0.030595
#
#
# Mechanical properties :
#
#
# Convention : Reuss Voigt Hill
#
# Bulk Modulus (GPa) = 55.57652 88.01272 71.79462
# Shear Modulus (GPa) = 22.84045 28.34295 25.59170
#
# Velocity S-wave (km/s) = 3.45186 3.84524 3.65385
# Velocity P-wave (km/s) = 6.69927 8.10116 7.43334
#
# Compressibility (1/GPa) = 0.01799321
#
# Stress axis : x y z
#
# Youngs Moduli (GPa) = 101.89737 54.16173 71.08306
#
# Poissons Ratio (x) = 0.09051 0.55946
# Poissons Ratio (y) = 0.17029 0.18726
# Poissons Ratio (z) = 0.80198 0.14268
#
# Static dielectric constant tensor:
#      x y z
#    x 3.784620 0.000000 0.000000 
#    y 0.000000 3.259580 0.000000 
#    z 0.000000 0.000000 3.653340 
# 
# 
# High freq. dielectric constant tensor:
#      x y z
#    x 1.764930 0.000000 0.000000 
#    y 0.000000 1.724960 0.000000 
#    z 0.000000 0.000000 1.743080 
# 
# From -- ./inp_files/18819.got.cif
#   From: 2010.03.12/outbox.cif.g09.slc.cpg/sg35_10_cif.got.tgz:18819.got - 2010.04.14 02:02:04.
