data_PCOD8172780
_publ_section_title
;
Structure prediction by ZEFSAII (Michael W. Deem and Ramdas Pophale) SiO2 
 PCOD8172780
Probable space group: C M M 2
;
_chemical_formula_sum "Si O2"
_cell_formula_units_Z 56
_cell_length_a 28.591440
_cell_length_b 9.022445
_cell_length_c 12.530507
_cell_angle_alpha 90.000000
_cell_angle_beta 90.000000
_cell_angle_gamma 90.000000
_cell_volume 3232.428415
_symmetry_space_group_name_H-M "C M M 2"
_symmetry_group_IT_number 35
_symmetry_cell_setting 'orthorhombic'
loop_
_space_group_symop_operation_xyz
x,y,z
-x,-y,z
-x,y,z
x,-y,z
1/2+x,1/2+y,z
1/2-x,1/2-y,z
1/2-x,1/2+y,z
1/2+x,1/2-y,z
loop_
_atom_site_type_symbol
_atom_site_label
_atom_site_fract_x
_atom_site_fract_y
_atom_site_fract_z
Si Si1 0.200226 0.826038 0.271490
Si Si2 0.797925 0.326493 0.900132
Si Si3 0.860690 0.174894 0.067633
Si Si4 0.702585 0.172041 0.653129
Si Si5 0.053241 0.671512 0.154741
Si Si6 0.354814 0.328399 0.482557
Si Si7 0.052103 0.831650 0.373478
O O1 0.250000 0.750000 0.262810
O O2 0.168655 0.776885 0.171593
O O3 0.174049 0.775342 0.378897
O O4 0.208376 0.000000 0.270434
O O5 0.794029 0.500000 0.924747
O O6 0.750000 0.250000 0.937642
O O7 0.807826 0.293959 0.776296
O O8 0.840269 0.254682 0.964014
O O9 0.913721 0.231384 0.078982
O O10 0.860319 0.000000 0.049702
O O11 0.750000 0.250000 0.614339
O O12 0.659547 0.233591 0.584924
O O13 0.708827 0.000000 0.630714
O O14 0.067193 0.500000 0.145942
O O15 0.059827 0.720410 0.276625
O O16 0.000000 0.698881 0.117457
O O17 0.345066 0.500000 0.506557
O O18 0.409922 0.297308 0.464598
O O19 0.000000 0.813021 0.422338
O O20 0.059863 0.000000 0.330636
#
# Coordination Sequence:
#
# PCOD8172780 Si02
#       7
#     8   8   8   8   8   8   8
#     4  10  21  33  45  70 104 136 166 203 251 305
#     4  10  21  37  55  77 104 135 177 221 262 310
#     4  11  21  35  54  76 104 138 177 215 259 310
#     4  10  21  36  54  76 102 136 177 218 259 305
#     4  10  20  33  51  77 107 138 173 213 259 312
#     4  10  19  33  51  75 105 135 172 213 257 308
#     4   9  17  32  53  75 103 138 173 212 257 307
#
# _framework density 17.324435999999999
#
# number of rings (size 3 to 8) (size 9 to 14) (size 15 to 20)
#    0.000    2.000    1.429    2.571    0.000    7.143 
#    0.000    0.000    0.000    0.857    0.000    4.000 
#    0.000    0.000    0.000    0.000    0.000    0.000 
#
# Total GULP energy -347297.223202 kJ/mol
# GULP energy per Si atom -12403.472257 kJ/mol
# Density = 1.728500 g / cm^3
# Si number density = 17.324436 Si / 1000 Ang^3
#
#
#
# Elastic Constant Matrix: (Units=GPa)
#
#
# Indices 1 2 3 4 5 6 
#
# 1 127.8664 54.5488 53.4515 0.0000 0.0000 0.0000
# 2 54.5488 79.4241 46.0920 0.0000 0.0000 0.0000
# 3 53.4515 46.0920 75.2877 0.0000 0.0000 0.0000
# 4 0.0000 0.0000 0.0000 29.3137 0.0000 0.0000
# 5 0.0000 0.0000 0.0000 0.0000 25.4508 0.0000
# 6 0.0000 0.0000 0.0000 0.0000 0.0000 29.8153
#
#
#
# Elastic Compliance Matrix: (Units=1/GPa)
#
#
# Indices 1 2 3 4 5 6 
#
# 1 0.012405 -0.005287 -0.005570 0.000000 0.000000 0.000000
# 2 -0.005287 0.021782 -0.009582 0.000000 0.000000 0.000000
# 3 -0.005570 -0.009582 0.023103 0.000000 0.000000 0.000000
# 4 0.000000 0.000000 0.000000 0.034114 0.000000 0.000000
# 5 0.000000 0.000000 0.000000 0.000000 0.039292 0.000000
# 6 0.000000 0.000000 0.000000 0.000000 0.000000 0.033540
#
#
# Mechanical properties :
#
#
# Convention : Reuss Voigt Hill
#
# Bulk Modulus (GPa) = 60.93029 65.64031 63.28530
# Shear Modulus (GPa) = 23.74355 25.48168 24.61261
#
# Velocity S-wave (km/s) = 3.70607 3.83933 3.77329
# Velocity P-wave (km/s) = 7.31846 7.59112 7.45603
#
# Compressibility (1/GPa) = 0.01641220
#
# Stress axis : x y z
#
# Youngs Moduli (GPa) = 80.61541 45.90860 43.28456
#
# Poissons Ratio (x) = 0.24272 0.24109
# Poissons Ratio (y) = 0.42622 0.41474
# Poissons Ratio (z) = 0.44902 0.43989
#
# Static dielectric constant tensor:
#      x y z
#    x 3.371390 0.000000 0.000000 
#    y 0.000000 3.274510 0.000000 
#    z 0.000000 0.000000 3.060590 
# 
# 
# High freq. dielectric constant tensor:
#      x y z
#    x 1.673440 0.000000 0.000000 
#    y 0.000000 1.677800 0.000000 
#    z 0.000000 0.000000 1.646870 
# 
# From -- ./inp_files/17680.got.cif
#   From: 2010.03.12/outbox.cif.g09.slc.cpg/sg35_9_cif.got.tgz:17680.got - 2010.04.14 02:02:04.
