data_PCOD8172409
_publ_section_title
;
Structure prediction by ZEFSAII (Michael W. Deem and Ramdas Pophale) SiO2 
 PCOD8172409
Probable space group: C M M 2
;
_chemical_formula_sum "Si O2"
_cell_formula_units_Z 64
_cell_length_a 8.648300
_cell_length_b 28.330182
_cell_length_c 15.552943
_cell_angle_alpha 90.000000
_cell_angle_beta 90.000000
_cell_angle_gamma 90.000000
_cell_volume 3810.594105
_symmetry_space_group_name_H-M "C M M 2"
_symmetry_group_IT_number 35
_symmetry_cell_setting 'orthorhombic'
loop_
_space_group_symop_operation_xyz
x,y,z
-x,-y,z
-x,y,z
x,-y,z
1/2+x,1/2+y,z
1/2-x,1/2-y,z
1/2-x,1/2+y,z
1/2+x,1/2-y,z
loop_
_atom_site_type_symbol
_atom_site_label
_atom_site_fract_x
_atom_site_fract_y
_atom_site_fract_z
Si Si1 0.818554 0.301658 0.709220
Si Si2 0.317982 0.698527 0.380496
Si Si3 0.179984 0.853654 0.552382
Si Si4 0.683354 0.302284 0.882965
Si Si5 0.818042 0.301823 0.057204
Si Si6 0.820769 0.553595 0.282865
Si Si7 0.319083 0.642676 0.212611
Si Si8 0.823264 0.947260 0.463936
O O1 0.750000 0.250000 0.689451
O O2 0.782427 0.336661 0.631430
O O3 0.745599 0.325838 0.794996
O O4 0.000000 0.296141 0.721784
O O5 0.500000 0.702189 0.379725
O O6 0.250000 0.750000 0.373516
O O7 0.261669 0.673665 0.467637
O O8 0.261245 0.668294 0.299244
O O9 0.211664 0.909506 0.538874
O O10 0.000000 0.843355 0.571205
O O11 0.500000 0.302976 0.884121
O O12 0.750000 0.250000 0.881590
O O13 0.748297 0.325717 0.970293
O O14 0.750000 0.250000 0.075217
O O15 0.777154 0.336297 0.134410
O O16 0.000000 0.296738 0.047087
O O17 0.777249 0.500000 0.258112
O O18 0.720183 0.587378 0.221673
O O19 0.784615 0.562829 0.382776
O O20 0.000000 0.564074 0.267262
O O21 0.500000 0.649927 0.195357
O O22 0.000000 0.940736 0.431978
O O23 0.795304 0.000000 0.501012
#
# Coordination Sequence:
#
# PCOD8172409 Si02
#       8
#     8   8   8   8   8   8   8   8
#     4  11  21  33  49  72  99 132 167 205 248 294
#     4  10  21  33  45  64  94 132 168 203 237 282
#     4  10  19  33  48  70  98 129 167 205 244 293
#     4  10  18  32  52  73  97 129 164 206 249 292
#     4  11  21  34  51  75 104 135 168 207 248 296
#     4  10  20  33  50  73  99 127 163 209 258 302
#     4  11  21  35  51  71  97 133 174 209 248 296
#     4   9  17  32  53  72  94 127 165 207 252 296
#
# _framework density 16.795280999999999
#
# number of rings (size 3 to 8) (size 9 to 14) (size 15 to 20)
#    0.000    1.750    1.250    6.375    0.000    4.750 
#    0.000    0.000    0.000    0.000    0.000    0.875 
#    0.000    5.000    0.000    0.000    0.000    0.000 
#
# Total GULP energy -396808.696125 kJ/mol
# GULP energy per Si atom -12400.271754 kJ/mol
# Density = 1.675705 g / cm^3
# Si number density = 16.795281 Si / 1000 Ang^3
#
#
#
# Elastic Constant Matrix: (Units=GPa)
#
#
# Indices 1 2 3 4 5 6 
#
# 1 97.5357 31.6225 46.1351 0.0000 0.0000 0.0000
# 2 31.6225 92.2900 46.8227 0.0000 0.0000 0.0000
# 3 46.1351 46.8227 123.8047 0.0000 0.0000 0.0000
# 4 0.0000 0.0000 0.0000 9.2462 0.0000 0.0000
# 5 0.0000 0.0000 0.0000 0.0000 29.1163 0.0000
# 6 0.0000 0.0000 0.0000 0.0000 0.0000 21.0568
#
#
#
# Elastic Compliance Matrix: (Units=1/GPa)
#
#
# Indices 1 2 3 4 5 6 
#
# 1 0.012878 -0.002448 -0.003873 0.000000 0.000000 0.000000
# 2 -0.002448 0.013873 -0.004335 0.000000 0.000000 0.000000
# 3 -0.003873 -0.004335 0.011160 0.000000 0.000000 0.000000
# 4 0.000000 0.000000 0.000000 0.108153 0.000000 0.000000
# 5 0.000000 0.000000 0.000000 0.000000 0.034345 0.000000
# 6 0.000000 0.000000 0.000000 0.000000 0.000000 0.047491
#
#
# Mechanical properties :
#
#
# Convention : Reuss Voigt Hill
#
# Bulk Modulus (GPa) = 60.24011 62.53232 61.38621
# Shear Modulus (GPa) = 19.62747 24.48721 22.05734
#
# Velocity S-wave (km/s) = 3.42223 3.82249 3.62789
# Velocity P-wave (km/s) = 7.18058 7.53624 7.36056
#
# Compressibility (1/GPa) = 0.01660023
#
# Stress axis : x y z
#
# Youngs Moduli (GPa) = 77.64994 72.08118 89.60549
#
# Poissons Ratio (x) = 0.17642 0.34708
# Poissons Ratio (y) = 0.19005 0.38842
# Poissons Ratio (z) = 0.30077 0.31246
#
# Static dielectric constant tensor:
#      x y z
#    x 3.189670 0.000000 0.000000 
#    y 0.000000 3.075140 0.000000 
#    z 0.000000 0.000000 3.499770 
# 
# 
# High freq. dielectric constant tensor:
#      x y z
#    x 1.658350 0.000000 0.000000 
#    y 0.000000 1.624890 0.000000 
#    z 0.000000 0.000000 1.639790 
# 
# From -- ./inp_files/16174.got.cif
#   From: 2010.03.12/outbox.cif.g09.slc.cpg/sg35_9_cif.got.tgz:16174.got - 2010.04.14 02:02:04.
