data_PCOD8172094
_publ_section_title
;
Structure prediction by ZEFSAII (Michael W. Deem and Ramdas Pophale) SiO2 
 PCOD8172094
Probable space group: P N N 2
;
_chemical_formula_sum "Si O2"
_cell_formula_units_Z 20
_cell_length_a 22.778370
_cell_length_b 4.876284
_cell_length_c 8.334726
_cell_angle_alpha 90.000000
_cell_angle_beta 90.000000
_cell_angle_gamma 90.000000
_cell_volume 925.769699
_symmetry_space_group_name_H-M "P N N 2"
_symmetry_group_IT_number 34
_symmetry_cell_setting 'orthorhombic'
loop_
_space_group_symop_operation_xyz
x,y,z
-x,-y,z
1/2-x,1/2+y,1/2+z
1/2+x,1/2-y,1/2+z
loop_
_atom_site_type_symbol
_atom_site_label
_atom_site_fract_x
_atom_site_fract_y
_atom_site_fract_z
Si Si1 0.462065 0.754302 0.962060
Si Si2 0.867686 0.613411 0.222895
Si Si3 0.644154 0.478451 0.160389
Si Si4 0.658304 0.597552 0.518317
Si Si5 0.705789 0.002597 0.021901
O O1 0.500000 0.500000 0.895019
O O2 0.428445 0.919100 0.819961
O O3 0.500000 0.000000 0.044359
O O4 0.417864 0.618883 0.089545
O O5 0.853446 0.400415 0.082624
O O6 0.813909 0.616369 0.348517
O O7 0.876635 0.904366 0.138576
O O8 0.633294 0.587350 0.338790
O O9 0.686981 0.215006 0.161266
O O10 0.674971 0.710406 0.051176
O O11 0.724658 0.487664 0.521329
#
# Coordination Sequence:
#
# PCOD8172094 Si02
#       5
#     4   4   4   4   4
#     4  11  23  45  68  84 114 167 219 265 310 366
#     4  11  24  39  63  94 123 163 211 248 303 374
#     4  11  24  39  63  94 123 163 211 248 303 376
#     4  12  22  38  61  97 134 157 193 260 308 361
#     4  11  21  39  61  91 132 174 196 229 304 391
#
# _framework density 21.603646000000001
#
# number of rings (size 3 to 8) (size 9 to 14) (size 15 to 20)
#    0.000    0.800    0.000   10.800    0.000    0.000 
#    0.000    4.000    0.000    2.400    0.000    0.000 
#    0.000    0.000    0.000    0.000    0.000    0.000 
#
# Total GULP energy -247989.395501 kJ/mol
# GULP energy per Si atom -12399.469775 kJ/mol
# Density = 2.155448 g / cm^3
# Si number density = 21.603646 Si / 1000 Ang^3
#
#
#
# Elastic Constant Matrix: (Units=GPa)
#
#
# Indices 1 2 3 4 5 6 
#
# 1 102.4416 36.7539 39.4548 0.0000 0.0000 0.0000
# 2 36.7539 102.9045 19.9204 0.0000 0.0000 0.0000
# 3 39.4548 19.9204 118.5008 0.0000 0.0000 0.0000
# 4 0.0000 0.0000 0.0000 42.9217 0.0000 0.0000
# 5 0.0000 0.0000 0.0000 0.0000 9.9995 0.0000
# 6 0.0000 0.0000 0.0000 0.0000 0.0000 34.2735
#
#
#
# Elastic Compliance Matrix: (Units=1/GPa)
#
#
# Indices 1 2 3 4 5 6 
#
# 1 0.012470 -0.003773 -0.003518 0.000000 0.000000 0.000000
# 2 -0.003773 0.011186 -0.000624 0.000000 0.000000 0.000000
# 3 -0.003518 -0.000624 0.009715 0.000000 0.000000 0.000000
# 4 0.000000 0.000000 0.000000 0.023298 0.000000 0.000000
# 5 0.000000 0.000000 0.000000 0.000000 0.100005 0.000000
# 6 0.000000 0.000000 0.000000 0.000000 0.000000 0.029177
#
#
# Mechanical properties :
#
#
# Convention : Reuss Voigt Hill
#
# Bulk Modulus (GPa) = 57.00773 57.34501 57.17637
# Shear Modulus (GPa) = 24.09310 32.62012 28.35661
#
# Velocity S-wave (km/s) = 3.34313 3.89001 3.62689
# Velocity P-wave (km/s) = 6.43019 6.83944 6.63797
#
# Compressibility (1/GPa) = 0.01754148
#
# Stress axis : x y z
#
# Youngs Moduli (GPa) = 80.19165 89.39623 102.93459
#
# Poissons Ratio (x) = 0.33729 0.36209
# Poissons Ratio (y) = 0.30256 0.06426
# Poissons Ratio (z) = 0.28209 0.05580
#
# Static dielectric constant tensor:
#      x y z
#    x 3.892560 0.000000 0.000000 
#    y 0.000000 4.072740 0.000000 
#    z 0.000000 0.000000 3.816710 
# 
# 
# High freq. dielectric constant tensor:
#      x y z
#    x 1.841860 0.000000 0.000000 
#    y 0.000000 1.871180 0.000000 
#    z 0.000000 0.000000 1.840230 
# 
# From -- ./inp_files/4038.got.cif
#   From: 2010.03.12/outbox.cif.g09.slc.cpg/sg34_3_cif.got.tgz:4038.got - 2010.04.14 01:56:33.
