data_PCOD8172301
_publ_section_title
;
Structure prediction by ZEFSAII (Michael W. Deem and Ramdas Pophale) SiO2 
 PCOD8172301
Probable space group: C M M 2
;
_chemical_formula_sum "Si O2"
_cell_formula_units_Z 64
_cell_length_a 19.079245
_cell_length_b 18.610059
_cell_length_c 10.119919
_cell_angle_alpha 90.000000
_cell_angle_beta 90.000000
_cell_angle_gamma 90.000000
_cell_volume 3593.237896
_symmetry_space_group_name_H-M "C M M 2"
_symmetry_group_IT_number 35
_symmetry_cell_setting 'orthorhombic'
loop_
_space_group_symop_operation_xyz
x,y,z
-x,-y,z
-x,y,z
x,-y,z
1/2+x,1/2+y,z
1/2-x,1/2-y,z
1/2-x,1/2+y,z
1/2+x,1/2-y,z
loop_
_atom_site_type_symbol
_atom_site_label
_atom_site_fract_x
_atom_site_fract_y
_atom_site_fract_z
Si Si1 0.813805 0.420671 0.431070
Si Si2 0.743229 0.140230 0.181194
Si Si3 0.710888 0.582935 0.664919
Si Si4 0.922109 0.264079 0.928505
Si Si5 0.079658 0.175163 0.676887
Si Si6 0.866452 0.232674 0.206907
Si Si7 0.780690 0.669269 0.898935
Si Si8 0.420468 0.207590 0.466014
O O1 0.844866 0.500000 0.458162
O O2 0.785292 0.420529 0.280167
O O3 0.748017 0.404738 0.525079
O O4 0.873996 0.363507 0.459593
O O5 0.823953 0.157866 0.218785
O O6 0.692401 0.207181 0.200814
O O7 0.740312 0.120139 0.025526
O O8 0.711949 0.500000 0.709035
O O9 0.630695 0.608373 0.650127
O O10 0.752207 0.631279 0.769727
O O11 0.913244 0.196839 0.829998
O O12 0.865336 0.325403 0.892983
O O13 0.000000 0.297912 0.913139
O O14 0.913737 0.233436 0.076002
O O15 0.103292 0.243663 0.589370
O O16 0.000000 0.152185 0.641318
O O17 0.914929 0.244275 0.334123
O O18 0.750000 0.750000 0.915787
O O19 0.500000 0.181791 0.483891
#
# Coordination Sequence:
#
# PCOD8172301 Si02
#       8
#     8   8   8   8   8   8   8   8
#     4  10  22  35  50  75 108 144 181 220 267 319
#     4   9  16  30  51  74 101 133 176 216 263 308
#     4  11  23  37  54  79 107 141 177 216 270 328
#     4  10  18  29  50  79 109 134 170 222 266 304
#     4  10  20  34  53  79 104 134 173 219 270 319
#     4   9  15  28  47  74 100 130 164 218 265 300
#     4  11  18  34  56  81 107 139 180 223 263 311
#     4  10  20  32  51  76 102 137 182 222 264 313
#
# _framework density 17.811233999999999
#
# number of rings (size 3 to 8) (size 9 to 14) (size 15 to 20)
#    0.000    2.000    3.750    1.875    0.000    2.000 
#    0.000    0.000    0.000    1.125    0.000    0.000 
#    0.000    4.500    0.000    0.000    0.000    0.000 
#
# Total GULP energy -396680.581515 kJ/mol
# GULP energy per Si atom -12396.268172 kJ/mol
# Density = 1.777070 g / cm^3
# Si number density = 17.811234 Si / 1000 Ang^3
#
#
#
# Elastic Constant Matrix: (Units=GPa)
#
#
# Indices 1 2 3 4 5 6 
#
# 1 106.3814 48.2146 33.3076 0.0000 0.0000 0.0000
# 2 48.2146 63.6188 34.3181 0.0000 0.0000 0.0000
# 3 33.3076 34.3181 104.6817 0.0000 0.0000 0.0000
# 4 0.0000 0.0000 0.0000 18.5704 0.0000 0.0000
# 5 0.0000 0.0000 0.0000 0.0000 26.1697 0.0000
# 6 0.0000 0.0000 0.0000 0.0000 0.0000 18.8757
#
#
#
# Elastic Compliance Matrix: (Units=1/GPa)
#
#
# Indices 1 2 3 4 5 6 
#
# 1 0.014446 -0.010288 -0.001224 0.000000 0.000000 0.000000
# 2 -0.010288 0.026423 -0.005389 0.000000 0.000000 0.000000
# 3 -0.001224 -0.005389 0.011709 0.000000 0.000000 0.000000
# 4 0.000000 0.000000 0.000000 0.053849 0.000000 0.000000
# 5 0.000000 0.000000 0.000000 0.000000 0.038212 0.000000
# 6 0.000000 0.000000 0.000000 0.000000 0.000000 0.052978
#
#
# Mechanical properties :
#
#
# Convention : Reuss Voigt Hill
#
# Bulk Modulus (GPa) = 53.25856 56.26250 54.76053
# Shear Modulus (GPa) = 21.03700 23.31260 22.17480
#
# Velocity S-wave (km/s) = 3.44045 3.62176 3.53227
# Velocity P-wave (km/s) = 6.76379 7.01044 6.88822
#
# Compressibility (1/GPa) = 0.01877632
#
# Stress axis : x y z
#
# Youngs Moduli (GPa) = 69.22291 37.84652 85.40650
#
# Poissons Ratio (x) = 0.38937 0.10451
# Poissons Ratio (y) = 0.71217 0.46023
# Poissons Ratio (z) = 0.08471 0.20394
#
# Static dielectric constant tensor:
#      x y z
#    x 3.419000 0.000000 0.000000 
#    y 0.000000 2.974840 0.000000 
#    z 0.000000 0.000000 3.621540 
# 
# 
# High freq. dielectric constant tensor:
#      x y z
#    x 1.694710 0.000000 0.000000 
#    y 0.000000 1.641800 0.000000 
#    z 0.000000 0.000000 1.709060 
# 
# From -- ./inp_files/8758.got.cif
#   From: 2010.03.12/outbox.cif.g09.slc.cpg/sg35_5_cif.got.tgz:8758.got - 2010.04.14 02:02:04.
