data_PCOD8172481
_publ_section_title
;
Structure prediction by ZEFSAII (Michael W. Deem and Ramdas Pophale) SiO2 
 PCOD8172481
Probable space group: C M M 2
;
_chemical_formula_sum "Si O2"
_cell_formula_units_Z 40
_cell_length_a 22.758048
_cell_length_b 9.065173
_cell_length_c 10.160706
_cell_angle_alpha 90.000000
_cell_angle_beta 90.000000
_cell_angle_gamma 90.000000
_cell_volume 2096.210977
_symmetry_space_group_name_H-M "C M M 2"
_symmetry_group_IT_number 35
_symmetry_cell_setting 'orthorhombic'
loop_
_space_group_symop_operation_xyz
x,y,z
-x,-y,z
-x,y,z
x,-y,z
1/2+x,1/2+y,z
1/2-x,1/2-y,z
1/2-x,1/2+y,z
1/2+x,1/2-y,z
loop_
_atom_site_type_symbol
_atom_site_label
_atom_site_fract_x
_atom_site_fract_y
_atom_site_fract_z
Si Si1 0.000000 0.674582 0.584690
Si Si2 0.110927 0.831741 0.677792
Si Si3 0.122483 0.175037 0.185650
Si Si4 0.312911 0.325660 0.925327
Si Si5 0.807490 0.832964 0.430672
Si Si6 0.500000 0.675837 0.299498
O O1 0.944453 0.724024 0.671719
O O2 0.000000 0.500000 0.565334
O O3 0.000000 0.752229 0.443118
O O4 0.154748 0.777280 0.791871
O O5 0.142827 0.820163 0.539263
O O6 0.090429 0.000000 0.705269
O O7 0.166649 0.237769 0.296845
O O8 0.056380 0.230390 0.215675
O O9 0.122290 0.000000 0.193614
O O10 0.145501 0.230012 0.044561
O O11 0.302790 0.500000 0.931316
O O12 0.250000 0.250000 0.934114
O O13 0.750000 0.750000 0.479332
O O14 0.788489 0.000000 0.406473
O O15 0.500000 0.500000 0.321442
#
# Coordination Sequence:
#
# PCOD8172481 Si02
#       6
#     4   8   8   8   8   4
#     4  12  24  37  58  88 116 142 186 242 295 335
#     4  10  21  38  59  81 111 152 192 228 277 341
#     4   9  18  33  57  84 110 147 191 232 277 329
#     4  10  21  37  58  86 117 152 192 232 279 336
#     4  10  19  32  52  79 109 145 188 231 277 326
#     4  10  18  37  62  80 112 152 192 236 279 337
#
# _framework density 19.082049000000001
#
# number of rings (size 3 to 8) (size 9 to 14) (size 15 to 20)
#    0.000    2.000    2.000    2.100    0.000    2.400 
#    0.000    4.000    0.000    1.200    0.000    0.000 
#    0.000    0.000    0.000    0.000    0.000    0.000 
#
# Total GULP energy -248010.685254 kJ/mol
# GULP energy per Si atom -12400.534263 kJ/mol
# Density = 1.903862 g / cm^3
# Si number density = 19.082049 Si / 1000 Ang^3
#
#
#
# Elastic Constant Matrix: (Units=GPa)
#
#
# Indices 1 2 3 4 5 6 
#
# 1 137.1132 49.4147 38.7418 0.0000 0.0000 0.0000
# 2 49.4147 55.3958 25.5971 0.0000 0.0000 0.0000
# 3 38.7418 25.5971 108.5514 0.0000 0.0000 0.0000
# 4 0.0000 0.0000 0.0000 12.8243 0.0000 0.0000
# 5 0.0000 0.0000 0.0000 0.0000 34.6153 0.0000
# 6 0.0000 0.0000 0.0000 0.0000 0.0000 30.5866
#
#
#
# Elastic Compliance Matrix: (Units=1/GPa)
#
#
# Indices 1 2 3 4 5 6 
#
# 1 0.011060 -0.009025 -0.001819 0.000000 0.000000 0.000000
# 2 -0.009025 0.027624 -0.003293 0.000000 0.000000 0.000000
# 3 -0.001819 -0.003293 0.010638 0.000000 0.000000 0.000000
# 4 0.000000 0.000000 0.000000 0.077977 0.000000 0.000000
# 5 0.000000 0.000000 0.000000 0.000000 0.028889 0.000000
# 6 0.000000 0.000000 0.000000 0.000000 0.000000 0.032694
#
#
# Mechanical properties :
#
#
# Convention : Reuss Voigt Hill
#
# Bulk Modulus (GPa) = 47.51099 58.72972 53.12035
# Shear Modulus (GPa) = 22.30428 28.09235 25.19832
#
# Velocity S-wave (km/s) = 3.42257 3.84107 3.63784
# Velocity P-wave (km/s) = 6.36954 7.10747 6.74859
#
# Compressibility (1/GPa) = 0.02104776
#
# Stress axis : x y z
#
# Youngs Moduli (GPa) = 90.41721 36.20012 94.00332
#
# Poissons Ratio (x) = 0.32671 0.17100
# Poissons Ratio (y) = 0.81603 0.30954
# Poissons Ratio (z) = 0.16447 0.11920
#
# Static dielectric constant tensor:
#      x y z
#    x 3.604270 0.000000 0.000000 
#    y 0.000000 3.197390 0.000000 
#    z 0.000000 0.000000 3.655350 
# 
# 
# High freq. dielectric constant tensor:
#      x y z
#    x 1.755440 0.000000 0.000000 
#    y 0.000000 1.705260 0.000000 
#    z 0.000000 0.000000 1.749860 
# 
# From -- ./inp_files/11208.got.cif
#   From: 2010.03.12/outbox.cif.g09.slc.cpg/sg35_6_cif.got.tgz:11208.got - 2010.04.14 02:02:04.
