data_PCOD8172936
_publ_section_title
;
Structure prediction by ZEFSAII (Michael W. Deem and Ramdas Pophale) SiO2 
 PCOD8172936
Probable space group: C M M 2
;
_chemical_formula_sum "Si O2"
_cell_formula_units_Z 40
_cell_length_a 13.232105
_cell_length_b 30.467514
_cell_length_c 5.193431
_cell_angle_alpha 90.000000
_cell_angle_beta 90.000000
_cell_angle_gamma 90.000000
_cell_volume 2093.728303
_symmetry_space_group_name_H-M "C M M 2"
_symmetry_group_IT_number 35
_symmetry_cell_setting 'orthorhombic'
loop_
_space_group_symop_operation_xyz
x,y,z
-x,-y,z
-x,y,z
x,-y,z
1/2+x,1/2+y,z
1/2-x,1/2-y,z
1/2-x,1/2+y,z
1/2+x,1/2-y,z
loop_
_atom_site_type_symbol
_atom_site_label
_atom_site_fract_x
_atom_site_fract_y
_atom_site_fract_z
Si Si1 0.725825 0.413942 0.141280
Si Si2 0.884259 0.830263 0.176837
Si Si3 0.772896 0.800418 0.678134
Si Si4 0.295872 0.951017 0.648199
Si Si5 0.614910 0.869244 0.843912
O O1 0.629307 0.383102 0.192050
O O2 0.738816 0.446914 0.377750
O O3 0.714803 0.442521 0.879282
O O4 0.823708 0.381089 0.106477
O O5 0.818811 0.806480 0.395298
O O6 0.000000 0.818175 0.223723
O O7 0.852937 0.814824 0.893032
O O8 0.750000 0.750000 0.723556
O O9 0.670266 0.829037 0.699796
O O10 0.383060 0.913719 0.667134
O O11 0.342095 0.000000 0.671082
O O12 0.500000 0.855894 0.906241
#
# Coordination Sequence:
#
# PCOD8172936 Si02
#       5
#     8   8   8   8   8
#     4   9  19  37  54  84 114 151 190 242 284 340
#     4  11  21  40  65  86 113 157 200 242 295 344
#     4  11  23  41  59  90 121 151 196 248 292 355
#     4  10  19  35  58  81 117 155 191 235 293 347
#     4   9  21  37  56  83 119 155 189 237 295 346
#
# _framework density 19.104675
#
# number of rings (size 3 to 8) (size 9 to 14) (size 15 to 20)
#    1.200    0.800    2.000    1.800    0.000    2.800 
#    0.000    0.000    0.000    3.600    0.000    0.000 
#    0.000    0.000    0.000    0.000    0.000    0.000 
#
# Total GULP energy -247803.137369 kJ/mol
# GULP energy per Si atom -12390.156868 kJ/mol
# Density = 1.906119 g / cm^3
# Si number density = 19.104675 Si / 1000 Ang^3
#
#
#
# Elastic Constant Matrix: (Units=GPa)
#
#
# Indices 1 2 3 4 5 6 
#
# 1 74.8767 33.8282 6.7367 0.0000 0.0000 0.0000
# 2 33.8282 127.0050 7.6747 0.0000 0.0000 0.0000
# 3 6.7367 7.6747 96.4877 0.0000 0.0000 0.0000
# 4 0.0000 0.0000 0.0000 29.3953 0.0000 0.0000
# 5 0.0000 0.0000 0.0000 0.0000 17.3427 0.0000
# 6 0.0000 0.0000 0.0000 0.0000 0.0000 8.2632
#
#
#
# Elastic Compliance Matrix: (Units=1/GPa)
#
#
# Indices 1 2 3 4 5 6 
#
# 1 0.015235 -0.004013 -0.000745 0.000000 0.000000 0.000000
# 2 -0.004013 0.008969 -0.000433 0.000000 0.000000 0.000000
# 3 -0.000745 -0.000433 0.010450 0.000000 0.000000 0.000000
# 4 0.000000 0.000000 0.000000 0.034019 0.000000 0.000000
# 5 0.000000 0.000000 0.000000 0.000000 0.057661 0.000000
# 6 0.000000 0.000000 0.000000 0.000000 0.000000 0.121018
#
#
# Mechanical properties :
#
#
# Convention : Reuss Voigt Hill
#
# Bulk Modulus (GPa) = 41.19789 43.87207 42.53498
# Shear Modulus (GPa) = 18.80938 27.67558 23.24248
#
# Velocity S-wave (km/s) = 3.14115 3.81021 3.49174
# Velocity P-wave (km/s) = 5.89634 6.50929 6.21038
#
# Compressibility (1/GPa) = 0.02427309
#
# Stress axis : x y z
#
# Youngs Moduli (GPa) = 65.63712 111.49819 95.68965
#
# Poissons Ratio (x) = 0.44744 0.07124
# Poissons Ratio (y) = 0.26340 0.04145
# Poissons Ratio (z) = 0.04887 0.04830
#
# Static dielectric constant tensor:
#      x y z
#    x 3.080900 0.000000 0.000000 
#    y 0.000000 3.438090 0.000000 
#    z 0.000000 0.000000 3.482800 
# 
# 
# High freq. dielectric constant tensor:
#      x y z
#    x 1.699210 0.000000 0.000000 
#    y 0.000000 1.742340 0.000000 
#    z 0.000000 0.000000 1.753850 
# 
# From -- ./inp_files/1822.got.cif
#   From: 2010.03.12/outbox.cif.g09.slc.cpg/sg35_1_cif.got.tgz:1822.got - 2010.04.14 02:02:04.
