data_PCOD8172467
_publ_section_title
;
Structure prediction by ZEFSAII (Michael W. Deem and Ramdas Pophale) SiO2 
 PCOD8172467
Probable space group: C M M 2
;
_chemical_formula_sum "Si O2"
_cell_formula_units_Z 48
_cell_length_a 16.735840
_cell_length_b 16.139214
_cell_length_c 9.188534
_cell_angle_alpha 90.000000
_cell_angle_beta 90.000000
_cell_angle_gamma 90.000000
_cell_volume 2481.853385
_symmetry_space_group_name_H-M "C M M 2"
_symmetry_group_IT_number 35
_symmetry_cell_setting 'orthorhombic'
loop_
_space_group_symop_operation_xyz
x,y,z
-x,-y,z
-x,y,z
x,-y,z
1/2+x,1/2+y,z
1/2-x,1/2-y,z
1/2-x,1/2+y,z
1/2+x,1/2-y,z
loop_
_atom_site_type_symbol
_atom_site_label
_atom_site_fract_x
_atom_site_fract_y
_atom_site_fract_z
Si Si1 0.850923 0.335159 0.882770
Si Si2 0.091505 0.230442 0.637145
Si Si3 0.677309 0.594977 0.819733
Si Si4 0.342597 0.244048 0.323836
Si Si5 0.409144 0.092240 0.158072
Si Si6 0.405066 0.678899 0.053573
O O1 0.889481 0.315466 0.725493
O O2 0.763095 0.369948 0.862037
O O3 0.899220 0.400220 0.982708
O O4 0.854035 0.248583 0.969118
O O5 0.142777 0.151212 0.689157
O O6 0.107350 0.250072 0.470137
O O7 0.000000 0.206139 0.661172
O O8 0.682943 0.500000 0.766285
O O9 0.620281 0.596615 0.964853
O O10 0.250000 0.250000 0.361373
O O11 0.354648 0.155737 0.246319
O O12 0.374308 0.318822 0.219921
O O13 0.500000 0.111825 0.199073
O O14 0.384672 0.000000 0.205800
O O15 0.500000 0.694560 0.046707
#
# Coordination Sequence:
#
# PCOD8172467 Si02
#       6
#     8   8   8   8   8   8
#     4  10  18  34  56  82 109 140 183 221 265 325
#     4  11  22  38  59  80 108 147 189 229 272 329
#     4  11  22  36  56  82 113 147 184 231 280 322
#     4  11  21  37  58  82 113 147 186 226 272 333
#     4  10  20  36  59  86 115 144 177 224 278 326
#     4  10  19  34  58  83 109 144 186 227 268 324
#
# _framework density 19.340385000000001
#
# number of rings (size 3 to 8) (size 9 to 14) (size 15 to 20)
#    0.000    1.500    0.000   11.000    0.000    1.333 
#    0.000    5.000    0.000    6.000    0.000    0.000 
#    0.000    0.000    0.000    0.000    0.000    0.000 
#
# Total GULP energy -297460.990472 kJ/mol
# GULP energy per Si atom -12394.207936 kJ/mol
# Density = 1.929637 g / cm^3
# Si number density = 19.340385 Si / 1000 Ang^3
#
#
#
# Elastic Constant Matrix: (Units=GPa)
#
#
# Indices 1 2 3 4 5 6 
#
# 1 68.4817 44.7449 11.8992 0.0000 0.0000 0.0000
# 2 44.7449 75.5150 18.6255 0.0000 0.0000 0.0000
# 3 11.8992 18.6255 114.8669 0.0000 0.0000 0.0000
# 4 0.0000 0.0000 0.0000 17.0957 0.0000 0.0000
# 5 0.0000 0.0000 0.0000 0.0000 35.0558 0.0000
# 6 0.0000 0.0000 0.0000 0.0000 0.0000 11.6587
#
#
#
# Elastic Compliance Matrix: (Units=1/GPa)
#
#
# Indices 1 2 3 4 5 6 
#
# 1 0.023831 -0.014075 -0.000187 0.000000 0.000000 0.000000
# 2 -0.014075 0.022107 -0.002127 0.000000 0.000000 0.000000
# 3 -0.000187 -0.002127 0.009070 0.000000 0.000000 0.000000
# 4 0.000000 0.000000 0.000000 0.058494 0.000000 0.000000
# 5 0.000000 0.000000 0.000000 0.000000 0.028526 0.000000
# 6 0.000000 0.000000 0.000000 0.000000 0.000000 0.085773
#
#
# Mechanical properties :
#
#
# Convention : Reuss Voigt Hill
#
# Bulk Modulus (GPa) = 44.97997 45.48920 45.23459
# Shear Modulus (GPa) = 18.65766 25.00162 21.82964
#
# Velocity S-wave (km/s) = 3.10933 3.59934 3.36327
# Velocity P-wave (km/s) = 6.01648 6.39101 6.20657
#
# Compressibility (1/GPa) = 0.02223212
#
# Stress axis : x y z
#
# Youngs Moduli (GPa) = 41.96221 45.23553 110.25523
#
# Poissons Ratio (x) = 0.63667 0.02056
# Poissons Ratio (y) = 0.59060 0.23446
# Poissons Ratio (z) = 0.00783 0.09620
#
# Static dielectric constant tensor:
#      x y z
#    x 3.576090 0.000000 0.000000 
#    y 0.000000 3.577580 0.000000 
#    z 0.000000 0.000000 3.731120 
# 
# 
# High freq. dielectric constant tensor:
#      x y z
#    x 1.768200 0.000000 0.000000 
#    y 0.000000 1.728540 0.000000 
#    z 0.000000 0.000000 1.750810 
# 
# From -- ./inp_files/7327.got.cif
#   From: 2010.03.12/outbox.cif.g09.slc.cpg/sg35_4_cif.got.tgz:7327.got - 2010.04.14 02:02:04.
