data_PCOD8172401
_publ_section_title
;
Structure prediction by ZEFSAII (Michael W. Deem and Ramdas Pophale) SiO2 
 PCOD8172401
Probable space group: C M M 2
;
_chemical_formula_sum "Si O2"
_cell_formula_units_Z 32
_cell_length_a 8.798668
_cell_length_b 15.300689
_cell_length_c 12.040683
_cell_angle_alpha 90.000000
_cell_angle_beta 90.000000
_cell_angle_gamma 90.000000
_cell_volume 1620.985169
_symmetry_space_group_name_H-M "C M M 2"
_symmetry_group_IT_number 35
_symmetry_cell_setting 'orthorhombic'
loop_
_space_group_symop_operation_xyz
x,y,z
-x,-y,z
-x,y,z
x,-y,z
1/2+x,1/2+y,z
1/2-x,1/2-y,z
1/2-x,1/2+y,z
1/2+x,1/2-y,z
loop_
_atom_site_type_symbol
_atom_site_label
_atom_site_fract_x
_atom_site_fract_y
_atom_site_fract_z
Si Si1 0.829093 0.104294 0.173850
Si Si2 0.820352 0.659047 0.395957
Si Si3 0.320628 0.500000 0.526653
Si Si4 0.835046 0.402537 0.960703
Si Si5 0.677974 0.500000 0.783789
O O1 0.720597 0.142386 0.268124
O O2 0.000000 0.140090 0.191051
O O3 0.830844 0.000000 0.179111
O O4 0.767562 0.142529 0.055886
O O5 0.750000 0.750000 0.437039
O O6 0.750332 0.585289 0.473332
O O7 0.000000 0.660205 0.410204
O O8 0.500000 0.500000 0.505576
O O9 0.277817 0.500000 0.655914
O O10 0.865197 0.500000 0.006512
O O11 0.746956 0.411988 0.842254
O O12 0.000000 0.355423 0.944925
O O13 0.500000 0.500000 0.804531
#
# Coordination Sequence:
#
# PCOD8172401 Si02
#       5
#     8   8   4   8   4
#     4  10  18  31  55  83 115 149 186 231 285 343
#     4  12  25  40  60  86 119 156 198 244 295 350
#     4  11  23  40  61  86 117 155 201 245 292 347
#     4   8  15  26  46  77 110 141 183 230 276 336
#     4   9  17  30  51  80 111 147 191 237 286 343
#
# _framework density 19.74108
#
# number of rings (size 3 to 8) (size 9 to 14) (size 15 to 20)
#    0.750    1.250    1.250    4.125    0.000    3.000 
#    0.000    0.000    0.000    1.500    0.000    3.500 
#    0.000    0.000    0.000    0.000    0.000    0.000 
#
# Total GULP energy -198268.813578 kJ/mol
# GULP energy per Si atom -12391.800849 kJ/mol
# Density = 1.969615 g / cm^3
# Si number density = 19.741080 Si / 1000 Ang^3
#
#
#
# Elastic Constant Matrix: (Units=GPa)
#
#
# Indices 1 2 3 4 5 6 
#
# 1 161.9559 49.1553 81.3728 0.0000 0.0000 0.0000
# 2 49.1553 78.0514 48.3799 0.0000 0.0000 0.0000
# 3 81.3728 48.3799 157.0141 0.0000 0.0000 0.0000
# 4 0.0000 0.0000 0.0000 -11.7332 0.0000 0.0000
# 5 0.0000 0.0000 0.0000 0.0000 29.2423 0.0000
# 6 0.0000 0.0000 0.0000 0.0000 0.0000 23.1171
#
#
#
# Elastic Compliance Matrix: (Units=1/GPa)
#
#
# Indices 1 2 3 4 5 6 
#
# 1 0.009042 -0.003448 -0.003623 0.000000 0.000000 0.000000
# 2 -0.003448 0.017152 -0.003498 0.000000 0.000000 0.000000
# 3 -0.003623 -0.003498 0.009324 0.000000 0.000000 0.000000
# 4 0.000000 0.000000 0.000000 -0.085228 0.000000 0.000000
# 5 0.000000 0.000000 0.000000 0.000000 0.034197 0.000000
# 6 0.000000 0.000000 0.000000 0.000000 0.000000 0.043258
#
#
# Mechanical properties :
#
#
# Convention : Reuss Voigt Hill
#
# Bulk Modulus (GPa) = 69.54601 83.87083 76.70842
# Shear Modulus (GPa) = 93.15028 22.66613 57.90821
#
# Velocity S-wave (km/s) = 6.87666 3.39214 5.42195
# Velocity P-wave (km/s) = 9.91750 7.61051 8.83959
#
# Compressibility (1/GPa) = 0.01437897
#
# Stress axis : x y z
#
# Youngs Moduli (GPa) = 110.59963 58.30266 107.24552
#
# Poissons Ratio (x) = 0.20105 0.38858
# Poissons Ratio (y) = 0.38139 0.37512
# Poissons Ratio (z) = 0.40074 0.20393
#
# Static dielectric constant tensor:
#      x y z
#    x 3.869260 0.000000 0.000000 
#    y 0.000000 3.236840 0.000000 
#    z 0.000000 0.000000 3.585210 
# 
# 
# High freq. dielectric constant tensor:
#      x y z
#    x 1.793060 0.000000 0.000000 
#    y 0.000000 1.725650 0.000000 
#    z 0.000000 0.000000 1.764340 
# 
# From -- ./inp_files/10920.got.cif
#   From: 2010.03.12/outbox.cif.g09.slc.cpg/sg35_6_cif.got.tgz:10920.got - 2010.04.14 02:02:04.
