data_PCOD8172125
_publ_section_title
;
Structure prediction by ZEFSAII (Michael W. Deem and Ramdas Pophale) SiO2 
 PCOD8172125
Probable space group: P N N 2
;
_chemical_formula_sum "Si O2"
_cell_formula_units_Z 10
_cell_length_a 5.042156
_cell_length_b 4.940297
_cell_length_c 15.813980
_cell_angle_alpha 90.000000
_cell_angle_beta 90.000000
_cell_angle_gamma 90.000000
_cell_volume 393.922259
_symmetry_space_group_name_H-M "P N N 2"
_symmetry_group_IT_number 34
_symmetry_cell_setting 'orthorhombic'
loop_
_space_group_symop_operation_xyz
x,y,z
-x,-y,z
1/2-x,1/2+y,1/2+z
1/2+x,1/2-y,1/2+z
loop_
_atom_site_type_symbol
_atom_site_label
_atom_site_fract_x
_atom_site_fract_y
_atom_site_fract_z
Si Si1 0.000000 0.000000 0.816391
Si Si2 0.000000 0.500000 0.927244
Si Si3 0.323727 0.763935 0.668004
Si Si4 0.000000 0.000000 0.537017
O O1 0.772680 0.138728 0.759865
O O2 0.109793 0.245786 0.873109
O O3 0.253069 0.601012 0.980842
O O4 0.500000 0.500000 0.678921
O O5 0.083326 0.746578 0.599627
O O6 0.500000 0.000000 0.627325
#
# Coordination Sequence:
#
# PCOD8172125 Si02
#       4
#     2   2   4   2
#     4  11  28  46  76 115 156 206 262 319 396 462
#     4  12  28  48  76 112 160 202 256 332 388 464
#     4  11  25  49  80 110 152 207 262 318 381 474
#     4  11  28  50  76 115 156 206 262 319 396 462
#
# _framework density 25.385717
#
# number of rings (size 3 to 8) (size 9 to 14) (size 15 to 20)
#    0.000    0.800    2.000    2.400   11.200    8.000 
#    0.000    0.000    0.000    0.000    0.000    0.000 
#    0.000    0.000    0.000    0.000    0.000    0.000 
#
# Total GULP energy -123925.605921 kJ/mol
# GULP energy per Si atom -12392.560592 kJ/mol
# Density = 2.532794 g / cm^3
# Si number density = 25.385717 Si / 1000 Ang^3
#
#
#
# Elastic Constant Matrix: (Units=GPa)
#
#
# Indices 1 2 3 4 5 6 
#
# 1 165.6694 74.9844 83.0194 0.0000 0.0000 0.0000
# 2 74.9844 198.2380 77.8369 0.0000 0.0000 0.0000
# 3 83.0194 77.8369 166.1562 0.0000 0.0000 0.0000
# 4 0.0000 0.0000 0.0000 14.1047 0.0000 0.0000
# 5 0.0000 0.0000 0.0000 0.0000 39.4809 0.0000
# 6 0.0000 0.0000 0.0000 0.0000 0.0000 53.2977
#
#
#
# Elastic Compliance Matrix: (Units=1/GPa)
#
#
# Indices 1 2 3 4 5 6 
#
# 1 0.008611 -0.001921 -0.003402 0.000000 0.000000 0.000000
# 2 -0.001921 0.006610 -0.002137 0.000000 0.000000 0.000000
# 3 -0.003402 -0.002137 0.008719 0.000000 0.000000 0.000000
# 4 0.000000 0.000000 0.000000 0.070898 0.000000 0.000000
# 5 0.000000 0.000000 0.000000 0.000000 0.025329 0.000000
# 6 0.000000 0.000000 0.000000 0.000000 0.000000 0.018763
#
#
# Mechanical properties :
#
#
# Convention : Reuss Voigt Hill
#
# Bulk Modulus (GPa) = 110.86665 111.30501 111.08583
# Shear Modulus (GPa) = 31.87630 40.99150 36.43390
#
# Velocity S-wave (km/s) = 3.54740 4.02275 3.79253
# Velocity P-wave (km/s) = 7.78116 8.09428 7.93926
#
# Compressibility (1/GPa) = 0.00901985
#
# Stress axis : x y z
#
# Youngs Moduli (GPa) = 116.13621 151.28482 114.68802
#
# Poissons Ratio (x) = 0.29063 0.39020
# Poissons Ratio (y) = 0.22311 0.24505
# Poissons Ratio (z) = 0.39513 0.32324
#
# Static dielectric constant tensor:
#      x y z
#    x 4.718530 0.000000 0.000000 
#    y 0.000000 4.283470 0.000000 
#    z 0.000000 0.000000 4.871000 
# 
# 
# High freq. dielectric constant tensor:
#      x y z
#    x 2.022510 0.000000 0.000000 
#    y 0.000000 1.997930 0.000000 
#    z 0.000000 0.000000 2.035220 
# 
# From -- ./inp_files/6992.got.cif
#   From: 2010.03.12/outbox.cif.g09.slc.cpg/sg34_4_cif.got.tgz:6992.got - 2010.04.14 01:56:33.
