data_PCOD8172147
_publ_section_title
;
Structure prediction by ZEFSAII (Michael W. Deem and Ramdas Pophale) SiO2 
 PCOD8172147
Probable space group: C M M 2
;
_chemical_formula_sum "Si O2"
_cell_formula_units_Z 64
_cell_length_a 8.908702
_cell_length_b 19.484499
_cell_length_c 21.023502
_cell_angle_alpha 90.000000
_cell_angle_beta 90.000000
_cell_angle_gamma 90.000000
_cell_volume 3649.293014
_symmetry_space_group_name_H-M "C M M 2"
_symmetry_group_IT_number 35
_symmetry_cell_setting 'orthorhombic'
loop_
_space_group_symop_operation_xyz
x,y,z
-x,-y,z
-x,y,z
x,-y,z
1/2+x,1/2+y,z
1/2-x,1/2-y,z
1/2-x,1/2+y,z
1/2+x,1/2-y,z
loop_
_atom_site_type_symbol
_atom_site_label
_atom_site_fract_x
_atom_site_fract_y
_atom_site_fract_z
Si Si1 0.175339 0.176317 0.066490
Si Si2 0.325403 0.676687 0.682061
Si Si3 0.678688 0.173798 0.944261
Si Si4 0.677565 0.578164 0.571638
Si Si5 0.830637 0.581580 0.444261
Si Si6 0.175339 0.176318 0.822033
Si Si7 0.677566 0.578164 0.316885
Si Si8 0.825403 0.176687 0.206462
O O1 0.250000 0.250000 0.071436
O O2 0.201747 0.143015 0.136175
O O3 0.000000 0.182618 0.050015
O O4 0.259199 0.135980 0.008451
O O5 0.500000 0.689458 0.671351
O O6 0.250000 0.750000 0.672788
O O7 0.262072 0.622938 0.630705
O O8 0.298254 0.643015 0.752348
O O9 0.500000 0.175197 0.944261
O O10 0.750000 0.250000 0.944261
O O11 0.740801 0.135980 0.880072
O O12 0.500000 0.582100 0.564870
O O13 0.730518 0.500000 0.583181
O O14 0.748327 0.609279 0.507296
O O15 0.822674 0.500000 0.444261
O O16 0.748327 0.609280 0.381227
O O17 0.000000 0.609144 0.444262
O O18 0.250000 0.250000 0.817087
O O19 0.000000 0.182618 0.838508
O O20 0.500000 0.582100 0.323653
O O21 0.730519 0.500000 0.305343
O O22 0.737928 0.622938 0.257818
O O23 0.750000 0.250000 0.215735
O O24 0.000000 0.189458 0.217172
#
# Coordination Sequence:
#
# PCOD8172147 Si02
#       8
#     8   8   8   8   8   8   8   8
#     4   9  15  24  37  55  81 110 140 174 213 254
#     4   9  18  30  45  66  91 119 147 178 219 264
#     4  10  16  22  34  54  79 108 143 177 211 251
#     4   9  17  31  50  69  89 115 147 181 218 261
#     4   9  17  29  46  69  92 113 143 183 222 257
#     4   9  15  24  37  55  81 110 140 174 213 254
#     4   9  17  31  50  69  89 115 147 181 218 261
#     4   9  18  30  45  66  91 119 147 178 219 264
#
# _framework density 17.537645000000001
#
# number of rings (size 3 to 8) (size 9 to 14) (size 15 to 20)
#    0.000    2.875    0.000    3.750    0.000    3.500 
#    0.000    0.625    0.000    0.000    0.000    0.875 
#    0.000    7.000    0.000    0.000    0.000    0.000 
#
# Total GULP energy -396472.148911 kJ/mol
# GULP energy per Si atom -12389.754653 kJ/mol
# Density = 1.749773 g / cm^3
# Si number density = 17.537645 Si / 1000 Ang^3
#
#
#
# Elastic Constant Matrix: (Units=GPa)
#
#
# Indices 1 2 3 4 5 6 
#
# 1 82.2749 20.7475 63.9948 0.0000 0.0000 0.0000
# 2 20.7475 39.9877 51.6429 0.0000 0.0000 0.0000
# 3 63.9948 51.6429 202.4262 0.0000 0.0000 0.0000
# 4 0.0000 0.0000 0.0000 9.7509 0.0000 0.0000
# 5 0.0000 0.0000 0.0000 0.0000 26.5961 0.0000
# 6 0.0000 0.0000 0.0000 0.0000 0.0000 12.5793
#
#
#
# Elastic Compliance Matrix: (Units=1/GPa)
#
#
# Indices 1 2 3 4 5 6 
#
# 1 0.016309 -0.002689 -0.004470 0.000000 0.000000 0.000000
# 2 -0.002689 0.037739 -0.008778 0.000000 0.000000 0.000000
# 3 -0.004470 -0.008778 0.008593 0.000000 0.000000 0.000000
# 4 0.000000 0.000000 0.000000 0.102554 0.000000 0.000000
# 5 0.000000 0.000000 0.000000 0.000000 0.037599 0.000000
# 6 0.000000 0.000000 0.000000 0.000000 0.000000 0.079496
#
#
# Mechanical properties :
#
#
# Convention : Reuss Voigt Hill
#
# Bulk Modulus (GPa) = 32.50218 66.38434 49.44326
# Shear Modulus (GPa) = 15.41209 22.33883 18.87546
#
# Velocity S-wave (km/s) = 2.96767 3.57286 3.28423
# Velocity P-wave (km/s) = 5.50598 7.41317 6.52958
#
# Compressibility (1/GPa) = 0.03076717
#
# Stress axis : x y z
#
# Youngs Moduli (GPa) = 61.31457 26.49752 116.37921
#
# Poissons Ratio (x) = 0.07126 0.52021
# Poissons Ratio (y) = 0.16489 1.02156
# Poissons Ratio (z) = 0.27407 0.23259
#
# Static dielectric constant tensor:
#      x y z
#    x 3.299010 0.000000 0.000000 
#    y 0.000000 2.706360 0.000000 
#    z 0.000000 0.000000 4.546940 
# 
# 
# High freq. dielectric constant tensor:
#      x y z
#    x 1.682420 0.000000 0.000000 
#    y 0.000000 1.599760 0.000000 
#    z 0.000000 0.000000 1.710760 
# 
# From -- ./inp_files/18495.got.cif
#   From: 2010.03.12/outbox.cif.g09.slc.cpg/sg35_10_cif.got.tgz:18495.got - 2010.04.14 02:02:04.
