data_PCOD8172400
_publ_section_title
;
Structure prediction by ZEFSAII (Michael W. Deem and Ramdas Pophale) SiO2 
 PCOD8172400
Probable space group: C M M 2
;
_chemical_formula_sum "Si O2"
_cell_formula_units_Z 48
_cell_length_a 28.025920
_cell_length_b 8.801892
_cell_length_c 10.366281
_cell_angle_alpha 90.000000
_cell_angle_beta 90.000000
_cell_angle_gamma 90.000000
_cell_volume 2557.165818
_symmetry_space_group_name_H-M "C M M 2"
_symmetry_group_IT_number 35
_symmetry_cell_setting 'orthorhombic'
loop_
_space_group_symop_operation_xyz
x,y,z
-x,-y,z
-x,y,z
x,-y,z
1/2+x,1/2+y,z
1/2-x,1/2-y,z
1/2-x,1/2+y,z
1/2+x,1/2-y,z
loop_
_atom_site_type_symbol
_atom_site_label
_atom_site_fract_x
_atom_site_fract_y
_atom_site_fract_z
Si Si1 0.298406 0.178439 0.201200
Si Si2 0.897782 0.321460 0.303682
Si Si3 0.943787 0.672764 0.043448
Si Si4 0.054113 0.680414 0.560949
Si Si5 0.298430 0.677944 0.924944
Si Si6 0.897207 0.176033 0.803155
O O1 0.250000 0.250000 0.258762
O O2 0.341372 0.216995 0.299456
O O3 0.291428 0.000000 0.184228
O O4 0.310776 0.246890 0.061835
O O5 0.906849 0.500000 0.305488
O O6 0.922701 0.256339 0.175175
O O7 0.921683 0.250504 0.431547
O O8 0.925357 0.500000 0.021160
O O9 0.000000 0.675981 0.054108
O O10 0.927674 0.777610 0.926760
O O11 0.053756 0.500000 0.556735
O O12 0.085735 0.729980 0.680928
O O13 0.000000 0.742675 0.572731
O O14 0.290948 0.500000 0.947328
O O15 0.250000 0.750000 0.866720
O O16 0.341347 0.711247 0.826288
O O17 0.906094 0.000000 0.775907
#
# Coordination Sequence:
#
# PCOD8172400 Si02
#       6
#     8   8   8   8   8   8
#     4  10  18  31  54  82 112 142 174 220 275 327
#     4   9  18  34  56  82 108 138 181 230 273 314
#     4  10  19  33  56  82 106 137 182 231 273 319
#     4  10  21  38  59  80 106 146 192 231 269 319
#     4  10  20  34  54  80 109 142 179 223 272 323
#     4  11  23  37  53  79 114 146 179 222 277 332
#
# _framework density 18.770780999999999
#
# number of rings (size 3 to 8) (size 9 to 14) (size 15 to 20)
#    0.000    2.000    1.667    3.500    0.000    6.667 
#    0.000    3.333    0.000    6.000    0.000    0.000 
#    0.000    0.000    0.000    0.000    0.000    0.000 
#
# Total GULP energy -297604.030576 kJ/mol
# GULP energy per Si atom -12400.167941 kJ/mol
# Density = 1.872806 g / cm^3
# Si number density = 18.770781 Si / 1000 Ang^3
#
#
#
# Elastic Constant Matrix: (Units=GPa)
#
#
# Indices 1 2 3 4 5 6 
#
# 1 133.5831 45.5765 64.5997 0.0000 0.0000 0.0000
# 2 45.5765 53.1829 20.2709 0.0000 0.0000 0.0000
# 3 64.5997 20.2709 122.3838 0.0000 0.0000 0.0000
# 4 0.0000 0.0000 0.0000 0.9287 0.0000 0.0000
# 5 0.0000 0.0000 0.0000 0.0000 34.6130 0.0000
# 6 0.0000 0.0000 0.0000 0.0000 0.0000 28.1056
#
#
#
# Elastic Compliance Matrix: (Units=1/GPa)
#
#
# Indices 1 2 3 4 5 6 
#
# 1 0.013321 -0.009324 -0.005487 0.000000 0.000000 0.000000
# 2 -0.009324 0.026597 0.000516 0.000000 0.000000 0.000000
# 3 -0.005487 0.000516 0.010982 0.000000 0.000000 0.000000
# 4 0.000000 0.000000 0.000000 1.076749 0.000000 0.000000
# 5 0.000000 0.000000 0.000000 0.000000 0.028891 0.000000
# 6 0.000000 0.000000 0.000000 0.000000 0.000000 0.035580
#
#
# Mechanical properties :
#
#
# Convention : Reuss Voigt Hill
#
# Bulk Modulus (GPa) = 44.82315 63.33824 54.08070
# Shear Modulus (GPa) = 4.07118 24.64297 14.35708
#
# Velocity S-wave (km/s) = 1.47431 3.62724 2.76862
# Velocity P-wave (km/s) = 5.17969 7.16650 6.25252
#
# Compressibility (1/GPa) = 0.02230990
#
# Stress axis : x y z
#
# Youngs Moduli (GPa) = 75.07166 37.59852 91.06072
#
# Poissons Ratio (x) = 0.35057 0.49963
# Poissons Ratio (y) = 0.69998 -0.04702
# Poissons Ratio (z) = 0.41191 -0.01941
#
# Static dielectric constant tensor:
#      x y z
#    x 3.705070 0.000000 0.000000 
#    y 0.000000 3.985200 0.000000 
#    z 0.000000 0.000000 3.426640 
# 
# 
# High freq. dielectric constant tensor:
#      x y z
#    x 1.748510 0.000000 0.000000 
#    y 0.000000 1.713710 0.000000 
#    z 0.000000 0.000000 1.712140 
# 
# From -- ./inp_files/5319.got.cif
#   From: 2010.03.12/outbox.cif.g09.slc.cpg/sg35_3_cif.got.tgz:5319.got - 2010.04.14 02:02:04.
