data_PCOD8172702
_publ_section_title
;
Structure prediction by ZEFSAII (Michael W. Deem and Ramdas Pophale) SiO2 
 PCOD8172702
Probable space group: C M M 2
;
_chemical_formula_sum "Si O2"
_cell_formula_units_Z 64
_cell_length_a 9.311303
_cell_length_b 32.081678
_cell_length_c 11.481814
_cell_angle_alpha 90.000000
_cell_angle_beta 90.000000
_cell_angle_gamma 90.000000
_cell_volume 3429.873021
_symmetry_space_group_name_H-M "C M M 2"
_symmetry_group_IT_number 35
_symmetry_cell_setting 'orthorhombic'
loop_
_space_group_symop_operation_xyz
x,y,z
-x,-y,z
-x,y,z
x,-y,z
1/2+x,1/2+y,z
1/2-x,1/2-y,z
1/2-x,1/2+y,z
1/2+x,1/2-y,z
loop_
_atom_site_type_symbol
_atom_site_label
_atom_site_fract_x
_atom_site_fract_y
_atom_site_fract_z
Si Si1 0.339779 0.787908 0.518870
Si Si2 0.837029 0.674296 0.759920
Si Si3 0.827780 0.705877 0.015700
Si Si4 0.840109 0.142068 0.413886
Si Si5 0.334163 0.631078 0.147362
Si Si6 0.832875 0.952470 0.017606
Si Si7 0.156505 0.451762 0.792990
Si Si8 0.662486 0.399528 0.647899
O O1 0.500000 0.780131 0.478358
O O2 0.250000 0.750000 0.470699
O O3 0.325756 0.791309 0.658322
O O4 0.284969 0.827434 0.450153
O O5 0.792115 0.695327 0.881450
O O6 0.728915 0.637657 0.725772
O O7 0.000000 0.657013 0.766691
O O8 0.750000 0.750000 0.047419
O O9 0.000000 0.709768 0.036925
O O10 0.764488 0.667853 0.093635
O O11 0.808285 0.126806 0.284835
O O12 0.830802 0.105033 0.508446
O O13 0.000000 0.162395 0.422361
O O14 0.500000 0.641642 0.117295
O O15 0.293603 0.584018 0.108406
O O16 0.746104 0.938106 0.904896
O O17 0.000000 0.952033 0.986455
O O18 0.790023 0.000000 0.059311
O O19 0.132762 0.500000 0.790406
O O20 0.244296 0.440024 0.677150
O O21 0.000000 0.429706 0.796330
O O22 0.500000 0.404762 0.690844
#
# Coordination Sequence:
#
# PCOD8172702 Si02
#       8
#     8   8   8   8   8   8   8   8
#     4  10  19  32  52  76 101 132 170 214 263 311
#     4   9  19  34  52  76 105 135 168 210 262 319
#     4  11  23  37  54  78 108 142 180 221 267 319
#     4   9  20  37  53  72 100 135 175 215 256 306
#     4  10  21  38  57  77 106 143 181 222 266 312
#     4   9  18  34  58  86 111 137 174 219 266 317
#     4  10  20  33  51  77 109 140 167 202 253 312
#     4  10  19  32  53  78 103 134 171 212 259 309
#
# _framework density 18.659583000000001
#
# number of rings (size 3 to 8) (size 9 to 14) (size 15 to 20)
#    0.000    2.250    0.000    2.625    0.000    6.250 
#    0.000    0.625    0.000    2.250    0.000    1.750 
#    0.000    0.000    0.000    0.000    0.000    0.000 
#
# Total GULP energy -396540.275152 kJ/mol
# GULP energy per Si atom -12391.883598 kJ/mol
# Density = 1.861711 g / cm^3
# Si number density = 18.659583 Si / 1000 Ang^3
#
#
#
# Elastic Constant Matrix: (Units=GPa)
#
#
# Indices 1 2 3 4 5 6 
#
# 1 116.9704 41.9477 62.1806 0.0000 0.0000 0.0000
# 2 41.9477 69.4703 57.9765 0.0000 0.0000 0.0000
# 3 62.1806 57.9765 112.5413 0.0000 0.0000 0.0000
# 4 0.0000 0.0000 0.0000 10.4812 0.0000 0.0000
# 5 0.0000 0.0000 0.0000 0.0000 28.7222 0.0000
# 6 0.0000 0.0000 0.0000 0.0000 0.0000 29.4622
#
#
#
# Elastic Compliance Matrix: (Units=1/GPa)
#
#
# Indices 1 2 3 4 5 6 
#
# 1 0.012479 -0.003124 -0.005286 0.000000 0.000000 0.000000
# 2 -0.003124 0.026033 -0.011685 0.000000 0.000000 0.000000
# 3 -0.005286 -0.011685 0.017825 0.000000 0.000000 0.000000
# 4 0.000000 0.000000 0.000000 0.095409 0.000000 0.000000
# 5 0.000000 0.000000 0.000000 0.000000 0.034816 0.000000
# 6 0.000000 0.000000 0.000000 0.000000 0.000000 0.033942
#
#
# Mechanical properties :
#
#
# Convention : Reuss Voigt Hill
#
# Bulk Modulus (GPa) = 61.92566 69.24352 65.58459
# Shear Modulus (GPa) = 18.79160 22.85827 20.82494
#
# Velocity S-wave (km/s) = 3.17689 3.50382 3.34435
# Velocity P-wave (km/s) = 6.83490 7.31836 7.08076
#
# Compressibility (1/GPa) = 0.01614840
#
# Stress axis : x y z
#
# Youngs Moduli (GPa) = 80.13253 38.41332 56.09963
#
# Poissons Ratio (x) = 0.12001 0.29652
# Poissons Ratio (y) = 0.25035 0.65551
# Poissons Ratio (z) = 0.42354 0.44885
#
# Static dielectric constant tensor:
#      x y z
#    x 3.783300 0.000000 0.000000 
#    y 0.000000 3.416250 0.000000 
#    z 0.000000 0.000000 3.444080 
# 
# 
# High freq. dielectric constant tensor:
#      x y z
#    x 1.737430 0.000000 0.000000 
#    y 0.000000 1.717170 0.000000 
#    z 0.000000 0.000000 1.713640 
# 
# From -- ./inp_files/11979.got.cif
#   From: 2010.03.12/outbox.cif.g09.slc.cpg/sg35_6_cif.got.tgz:11979.got - 2010.04.14 02:02:04.
