data_PCOD8172084
_publ_section_title
;
Structure prediction by ZEFSAII (Michael W. Deem and Ramdas Pophale) SiO2 
 PCOD8172084
Probable space group: P N N 2
;
_chemical_formula_sum "Si O2"
_cell_formula_units_Z 18
_cell_length_a 19.619638
_cell_length_b 5.164667
_cell_length_c 8.060249
_cell_angle_alpha 90.000000
_cell_angle_beta 90.000000
_cell_angle_gamma 90.000000
_cell_volume 816.736140
_symmetry_space_group_name_H-M "P N N 2"
_symmetry_group_IT_number 34
_symmetry_cell_setting 'orthorhombic'
loop_
_space_group_symop_operation_xyz
x,y,z
-x,-y,z
1/2-x,1/2+y,1/2+z
1/2+x,1/2-y,1/2+z
loop_
_atom_site_type_symbol
_atom_site_label
_atom_site_fract_x
_atom_site_fract_y
_atom_site_fract_z
Si Si1 0.289770 0.661505 0.266700
Si Si2 0.000000 0.500000 0.570249
Si Si3 0.461220 0.755507 0.751888
Si Si4 0.330798 0.913214 0.580724
Si Si5 0.630681 0.852272 0.258836
O O1 0.286369 0.713541 0.466683
O O2 0.215228 0.591987 0.199512
O O3 0.319935 0.922887 0.181140
O O4 0.340203 0.429048 0.220038
O O5 0.964055 0.716203 0.452635
O O6 0.944656 0.362086 0.685173
O O7 0.500000 0.500000 0.691903
O O8 0.382736 0.748592 0.693674
O O9 0.500000 0.000000 0.669222
O O10 0.372838 0.103152 0.457840
#
# Coordination Sequence:
#
# PCOD8172084 Si02
#       5
#     4   2   4   4   4
#     4  10  26  40  70  97 135 176 231 284 351 419
#     4  10  26  42  68 100 140 178 230 290 354 414
#     4  10  26  41  69  98 136 180 227 287 345 421
#     4  10  26  44  71  97 139 180 234 288 352 421
#     4  10  26  42  69  97 134 179 227 285 347 422
#
# _framework density 22.038941999999999
#
# number of rings (size 3 to 8) (size 9 to 14) (size 15 to 20)
#    2.000    0.000    0.000    0.000   14.000    0.000 
#    0.000    0.000    0.000    0.000    0.000    0.000 
#    0.000    0.000    0.000    0.000    0.000    0.000 
#
# Total GULP energy -223004.247590 kJ/mol
# GULP energy per Si atom -12389.124866 kJ/mol
# Density = 2.198878 g / cm^3
# Si number density = 22.038942 Si / 1000 Ang^3
#
#
#
# Elastic Constant Matrix: (Units=GPa)
#
#
# Indices 1 2 3 4 5 6 
#
# 1 106.4014 19.7105 78.0034 0.0000 0.0000 0.0000
# 2 19.7105 119.4015 28.0629 0.0000 0.0000 0.0000
# 3 78.0034 28.0629 111.8915 0.0000 0.0000 0.0000
# 4 0.0000 0.0000 0.0000 20.7752 0.0000 0.0000
# 5 0.0000 0.0000 0.0000 0.0000 54.0653 0.0000
# 6 0.0000 0.0000 0.0000 0.0000 0.0000 30.2561
#
#
#
# Elastic Compliance Matrix: (Units=1/GPa)
#
#
# Indices 1 2 3 4 5 6 
#
# 1 0.019222 -0.000025 -0.013394 0.000000 0.000000 0.000000
# 2 -0.000025 0.008900 -0.002215 0.000000 0.000000 0.000000
# 3 -0.013394 -0.002215 0.018830 0.000000 0.000000 0.000000
# 4 0.000000 0.000000 0.000000 0.048134 0.000000 0.000000
# 5 0.000000 0.000000 0.000000 0.000000 0.018496 0.000000
# 6 0.000000 0.000000 0.000000 0.000000 0.000000 0.033051
#
#
# Mechanical properties :
#
#
# Convention : Reuss Voigt Hill
#
# Bulk Modulus (GPa) = 63.75747 65.47198 64.61473
# Shear Modulus (GPa) = 27.30295 35.14716 31.22505
#
# Velocity S-wave (km/s) = 3.52355 3.99780 3.76814
# Velocity P-wave (km/s) = 6.74879 7.14715 6.95082
#
# Compressibility (1/GPa) = 0.01568444
#
# Stress axis : x y z
#
# Youngs Moduli (GPa) = 52.02237 112.36272 53.10584
#
# Poissons Ratio (x) = 0.00282 0.71132
# Poissons Ratio (y) = 0.00131 0.11761
# Poissons Ratio (z) = 0.69681 0.24884
#
# Static dielectric constant tensor:
#      x y z
#    x 3.669910 0.000000 0.000000 
#    y 0.000000 3.779980 0.000000 
#    z 0.000000 0.000000 3.744800 
# 
# 
# High freq. dielectric constant tensor:
#      x y z
#    x 1.856620 0.000000 0.000000 
#    y 0.000000 1.863820 0.000000 
#    z 0.000000 0.000000 1.851220 
# 
# From -- ./inp_files/3792.got.cif
#   From: 2010.03.12/outbox.cif.g09.slc.cpg/sg34_2_cif.got.tgz:3792.got - 2010.04.14 01:56:33.
