data_PCOD8172217
_publ_section_title
;
Structure prediction by ZEFSAII (Michael W. Deem and Ramdas Pophale) SiO2 
 PCOD8172217
Probable space group: C M M 2
;
_chemical_formula_sum "Si O2"
_cell_formula_units_Z 64
_cell_length_a 18.772272
_cell_length_b 22.845950
_cell_length_c 9.358310
_cell_angle_alpha 90.000000
_cell_angle_beta 90.000000
_cell_angle_gamma 90.000000
_cell_volume 4013.502036
_symmetry_space_group_name_H-M "C M M 2"
_symmetry_group_IT_number 35
_symmetry_cell_setting 'orthorhombic'
loop_
_space_group_symop_operation_xyz
x,y,z
-x,-y,z
-x,y,z
x,-y,z
1/2+x,1/2+y,z
1/2-x,1/2-y,z
1/2-x,1/2+y,z
1/2+x,1/2-y,z
loop_
_atom_site_type_symbol
_atom_site_label
_atom_site_fract_x
_atom_site_fract_y
_atom_site_fract_z
Si Si1 0.580145 0.760287 0.392370
Si Si2 0.655058 0.431208 0.055410
Si Si3 0.779687 0.313355 0.416561
Si Si4 0.357107 0.654114 0.556209
Si Si5 0.920178 0.931943 0.353297
Si Si6 0.739087 0.157914 0.113555
Si Si7 0.919121 0.159410 0.861568
Si Si8 0.634032 0.252976 0.079580
O O1 0.500000 0.780229 0.431525
O O2 0.637399 0.805712 0.463107
O O3 0.596402 0.697489 0.459181
O O4 0.586665 0.757171 0.220472
O O5 0.657976 0.500000 0.019915
O O6 0.625895 0.417446 0.213338
O O7 0.735329 0.403302 0.041402
O O8 0.602169 0.399157 0.946299
O O9 0.750000 0.250000 0.366070
O O10 0.728743 0.338352 0.540085
O O11 0.779907 0.355254 0.278515
O O12 0.381122 0.591468 0.495904
O O13 0.370202 0.663440 0.722358
O O14 0.000000 0.905681 0.334631
O O15 0.925711 0.000000 0.377907
O O16 0.672414 0.190865 0.036250
O O17 0.807525 0.198960 0.113219
O O18 0.000000 0.152388 0.812077
O O19 0.912241 0.220364 0.950031
#
# Coordination Sequence:
#
# PCOD8172217 Si02
#       8
#     8   8   8   8   8   8   8   8
#     4  10  17  28  49  69  91 123 155 190 231 284
#     4  10  20  33  48  65  90 126 171 209 238 274
#     4   9  15  29  46  68  91 118 154 193 236 284
#     4  11  19  32  45  63  98 131 158 190 232 283
#     4  10  19  30  47  67  86 120 169 205 230 267
#     4   9  13  29  49  66  86 117 158 205 234 275
#     4  11  22  31  43  68 101 133 162 197 242 289
#     4   9  16  29  47  68  93 121 160 194 240 284
#
# _framework density 15.946173999999999
#
# number of rings (size 3 to 8) (size 9 to 14) (size 15 to 20)
#    0.000    2.125    5.000    2.625    0.000    1.250 
#   13.500    0.000    0.000    0.000    0.000    0.000 
#    0.000   17.000    0.000    1.250    0.000    0.000 
#
# Total GULP energy -396487.279597 kJ/mol
# GULP energy per Si atom -12390.227487 kJ/mol
# Density = 1.590988 g / cm^3
# Si number density = 15.946174 Si / 1000 Ang^3
#
#
#
# Elastic Constant Matrix: (Units=GPa)
#
#
# Indices 1 2 3 4 5 6 
#
# 1 100.5678 36.4762 26.7405 0.0000 0.0000 0.0000
# 2 36.4762 56.4814 24.7659 0.0000 0.0000 0.0000
# 3 26.7405 24.7659 71.7507 0.0000 0.0000 0.0000
# 4 0.0000 0.0000 0.0000 8.8011 0.0000 0.0000
# 5 0.0000 0.0000 0.0000 0.0000 17.8632 0.0000
# 6 0.0000 0.0000 0.0000 0.0000 0.0000 19.1657
#
#
#
# Elastic Compliance Matrix: (Units=1/GPa)
#
#
# Indices 1 2 3 4 5 6 
#
# 1 0.013313 -0.007567 -0.002350 0.000000 0.000000 0.000000
# 2 -0.007567 0.025164 -0.005865 0.000000 0.000000 0.000000
# 3 -0.002350 -0.005865 0.016837 0.000000 0.000000 0.000000
# 4 0.000000 0.000000 0.000000 0.113623 0.000000 0.000000
# 5 0.000000 0.000000 0.000000 0.000000 0.055981 0.000000
# 6 0.000000 0.000000 0.000000 0.000000 0.000000 0.052177
#
#
# Mechanical properties :
#
#
# Convention : Reuss Voigt Hill
#
# Bulk Modulus (GPa) = 42.10633 44.97392 43.54013
# Shear Modulus (GPa) = 15.79401 18.55381 17.17391
#
# Velocity S-wave (km/s) = 3.15057 3.41475 3.28532
# Velocity P-wave (km/s) = 6.30059 6.61908 6.46179
#
# Compressibility (1/GPa) = 0.02374940
#
# Stress axis : x y z
#
# Youngs Moduli (GPa) = 75.11446 39.73943 59.39176
#
# Poissons Ratio (x) = 0.30073 0.13954
# Poissons Ratio (y) = 0.56842 0.34836
# Poissons Ratio (z) = 0.17649 0.23309
#
# Static dielectric constant tensor:
#      x y z
#    x 3.367400 0.000000 0.000000 
#    y 0.000000 3.033020 0.000000 
#    z 0.000000 0.000000 2.880880 
# 
# 
# High freq. dielectric constant tensor:
#      x y z
#    x 1.607010 0.000000 0.000000 
#    y 0.000000 1.578580 0.000000 
#    z 0.000000 0.000000 1.596570 
# 
# From -- ./inp_files/8853.got.cif
#   From: 2010.03.12/outbox.cif.g09.slc.cpg/sg35_5_cif.got.tgz:8853.got - 2010.04.14 02:02:04.
