data_PCOD8172396
_publ_section_title
;
Structure prediction by ZEFSAII (Michael W. Deem and Ramdas Pophale) SiO2 
 PCOD8172396
Probable space group: C M M 2
;
_chemical_formula_sum "Si O2"
_cell_formula_units_Z 64
_cell_length_a 8.583281
_cell_length_b 29.640539
_cell_length_c 12.497703
_cell_angle_alpha 90.000000
_cell_angle_beta 90.000000
_cell_angle_gamma 90.000000
_cell_volume 3179.579054
_symmetry_space_group_name_H-M "C M M 2"
_symmetry_group_IT_number 35
_symmetry_cell_setting 'orthorhombic'
loop_
_space_group_symop_operation_xyz
x,y,z
-x,-y,z
-x,y,z
x,-y,z
1/2+x,1/2+y,z
1/2-x,1/2-y,z
1/2-x,1/2+y,z
1/2+x,1/2-y,z
loop_
_atom_site_type_symbol
_atom_site_label
_atom_site_fract_x
_atom_site_fract_y
_atom_site_fract_z
Si Si1 0.184206 0.451626 0.392440
Si Si2 0.818326 0.893613 0.820572
Si Si3 0.177701 0.795624 0.758450
Si Si4 0.315950 0.051732 0.014590
Si Si5 0.184830 0.704221 0.301729
Si Si6 0.320386 0.088237 0.603880
Si Si7 0.815063 0.610648 0.211238
Si Si8 0.680167 0.323900 0.523669
O O1 0.239298 0.500000 0.347913
O O2 0.230864 0.449139 0.517252
O O3 0.257251 0.413358 0.316538
O O4 0.000000 0.446437 0.384859
O O5 0.752154 0.841916 0.810809
O O6 0.791058 0.916861 0.705677
O O7 0.000000 0.894325 0.848250
O O8 0.726546 0.923517 0.905083
O O9 0.250000 0.750000 0.808288
O O10 0.199980 0.793703 0.630301
O O11 0.000000 0.795426 0.791685
O O12 0.500000 0.048729 0.024196
O O13 0.246494 0.084055 0.108341
O O14 0.249061 0.000000 0.019656
O O15 0.250000 0.750000 0.247380
O O16 0.234533 0.663147 0.222284
O O17 0.265510 0.702015 0.418000
O O18 0.000000 0.705702 0.316984
O O19 0.500000 0.084116 0.640172
O O20 0.295156 0.134279 0.538697
O O21 0.000000 0.607036 0.206771
O O22 0.500000 0.339127 0.512832
#
# Coordination Sequence:
#
# PCOD8172396 Si02
#       8
#     8   8   8   8   8   8   8   8
#     4   9  16  28  51  83 113 141 176 224 283 341
#     4  10  22  39  56  80 116 153 189 234 291 347
#     4   9  19  33  51  77 109 147 188 227 272 329
#     4  10  21  39  65  90 107 137 193 249 291 341
#     4  11  21  34  53  81 114 152 194 234 284 341
#     4  10  18  31  53  83 116 152 190 232 279 335
#     4   9  18  35  57  83 113 142 182 238 290 338
#     4  10  19  32  50  77 115 157 194 231 277 335
#
# _framework density 20.128451999999999
#
# number of rings (size 3 to 8) (size 9 to 14) (size 15 to 20)
#    0.000    2.250    1.250    3.000    0.000    6.250 
#    0.000    3.125    0.000    4.125    0.000    0.000 
#    0.000    0.000    0.000    0.000    0.000    0.000 
#
# Total GULP energy -396503.287159 kJ/mol
# GULP energy per Si atom -12390.727724 kJ/mol
# Density = 2.008264 g / cm^3
# Si number density = 20.128452 Si / 1000 Ang^3
#
#
#
# Elastic Constant Matrix: (Units=GPa)
#
#
# Indices 1 2 3 4 5 6 
#
# 1 25.5785 15.5030 11.0034 0.0000 0.0000 0.0000
# 2 15.5030 147.9245 80.1975 0.0000 0.0000 0.0000
# 3 11.0034 80.1975 88.6262 0.0000 0.0000 0.0000
# 4 0.0000 0.0000 0.0000 23.7120 0.0000 0.0000
# 5 0.0000 0.0000 0.0000 0.0000 14.2978 0.0000
# 6 0.0000 0.0000 0.0000 0.0000 0.0000 24.7574
#
#
#
# Elastic Compliance Matrix: (Units=1/GPa)
#
#
# Indices 1 2 3 4 5 6 
#
# 1 0.042009 -0.003092 -0.002418 0.000000 0.000000 0.000000
# 2 -0.003092 0.013498 -0.011831 0.000000 0.000000 0.000000
# 3 -0.002418 -0.011831 0.022289 0.000000 0.000000 0.000000
# 4 0.000000 0.000000 0.000000 0.042173 0.000000 0.000000
# 5 0.000000 0.000000 0.000000 0.000000 0.069941 0.000000
# 6 0.000000 0.000000 0.000000 0.000000 0.000000 0.040392
#
#
# Mechanical properties :
#
#
# Convention : Reuss Voigt Hill
#
# Bulk Modulus (GPa) = 23.19326 52.83744 38.01535
# Shear Modulus (GPa) = 17.89838 22.91513 20.40675
#
# Velocity S-wave (km/s) = 2.98519 3.37775 3.18752
# Velocity P-wave (km/s) = 4.84040 6.44355 5.69863
#
# Compressibility (1/GPa) = 0.04311597
#
# Stress axis : x y z
#
# Youngs Moduli (GPa) = 23.80420 74.08364 44.86505
#
# Poissons Ratio (x) = 0.22906 0.10848
# Poissons Ratio (y) = 0.07360 0.53078
# Poissons Ratio (z) = 0.05755 0.87646
#
# Static dielectric constant tensor:
#      x y z
#    x 3.324250 0.000000 0.000000 
#    y 0.000000 3.961930 0.000000 
#    z 0.000000 0.000000 3.604580 
# 
# 
# High freq. dielectric constant tensor:
#      x y z
#    x 1.754380 0.000000 0.000000 
#    y 0.000000 1.796020 0.000000 
#    z 0.000000 0.000000 1.767090 
# 
# From -- ./inp_files/11973.got.cif
#   From: 2010.03.12/outbox.cif.g09.slc.cpg/sg35_6_cif.got.tgz:11973.got - 2010.04.14 02:02:04.
