data_PCOD8172521
_publ_section_title
;
Structure prediction by ZEFSAII (Michael W. Deem and Ramdas Pophale) SiO2 
 PCOD8172521
Probable space group: C M M 2
;
_chemical_formula_sum "Si O2"
_cell_formula_units_Z 48
_cell_length_a 9.153254
_cell_length_b 18.999379
_cell_length_c 15.478206
_cell_angle_alpha 90.000000
_cell_angle_beta 90.000000
_cell_angle_gamma 90.000000
_cell_volume 2691.755088
_symmetry_space_group_name_H-M "C M M 2"
_symmetry_group_IT_number 35
_symmetry_cell_setting 'orthorhombic'
loop_
_space_group_symop_operation_xyz
x,y,z
-x,-y,z
-x,y,z
x,-y,z
1/2+x,1/2+y,z
1/2-x,1/2-y,z
1/2-x,1/2+y,z
1/2+x,1/2-y,z
loop_
_atom_site_type_symbol
_atom_site_label
_atom_site_fract_x
_atom_site_fract_y
_atom_site_fract_z
Si Si1 0.173124 0.920980 0.506050
Si Si2 0.671222 0.678203 0.159323
Si Si3 0.673217 0.579134 0.820664
Si Si4 0.170798 0.177394 0.353939
Si Si5 0.173948 0.825158 0.665351
Si Si6 0.826500 0.922139 0.011833
O O1 0.226751 0.883872 0.417659
O O2 0.226295 0.873732 0.586003
O O3 0.000000 0.926746 0.507426
O O4 0.240045 0.000000 0.511474
O O5 0.500000 0.689393 0.146334
O O6 0.750000 0.750000 0.139354
O O7 0.706086 0.651961 0.256454
O O8 0.737674 0.624543 0.089260
O O9 0.500000 0.575537 0.813877
O O10 0.733976 0.500000 0.802271
O O11 0.731961 0.635356 0.751413
O O12 0.721441 0.605000 0.916544
O O13 0.250000 0.250000 0.376804
O O14 0.000000 0.191652 0.366938
O O15 0.250000 0.750000 0.658078
O O16 0.000000 0.814386 0.665588
O O17 0.000000 0.923535 0.017606
O O18 0.763170 0.000000 0.025574
#
# Coordination Sequence:
#
# PCOD8172521 Si02
#       6
#     8   8   8   8   8   8
#     4   9  17  29  46  67  87 109 142 181 214 246
#     4   9  17  28  43  64  88 114 142 173 212 254
#     4   8  14  26  44  64  85 111 144 179 212 247
#     4   9  17  29  45  64  87 114 142 174 212 253
#     4  10  19  30  46  67  89 113 141 174 212 254
#     4   8  14  25  42  64  87 110 141 181 216 245
#
# _framework density 17.832232000000001
#
# number of rings (size 3 to 8) (size 9 to 14) (size 15 to 20)
#    0.000    3.167    0.000    2.000    0.000    3.333 
#    0.000    3.333    0.000    4.000    0.000    7.000 
#    0.000    0.000    0.000    0.000    0.000    0.000 
#
# Total GULP energy -297445.907339 kJ/mol
# GULP energy per Si atom -12393.579472 kJ/mol
# Density = 1.779164 g / cm^3
# Si number density = 17.832232 Si / 1000 Ang^3
#
#
#
# Elastic Constant Matrix: (Units=GPa)
#
#
# Indices 1 2 3 4 5 6 
#
# 1 13.4320 24.5256 21.3036 0.0000 0.0000 0.0000
# 2 24.5256 155.3937 116.6573 0.0000 0.0000 0.0000
# 3 21.3036 116.6573 175.9316 0.0000 0.0000 0.0000
# 4 0.0000 0.0000 0.0000 41.2096 0.0000 0.0000
# 5 0.0000 0.0000 0.0000 0.0000 10.8659 0.0000
# 6 0.0000 0.0000 0.0000 0.0000 0.0000 22.6178
#
#
#
# Elastic Compliance Matrix: (Units=1/GPa)
#
#
# Indices 1 2 3 4 5 6 
#
# 1 0.105635 -0.014077 -0.003457 0.000000 0.000000 0.000000
# 2 -0.014077 0.014690 -0.008036 0.000000 0.000000 0.000000
# 3 -0.003457 -0.008036 0.011431 0.000000 0.000000 0.000000
# 4 0.000000 0.000000 0.000000 0.024266 0.000000 0.000000
# 5 0.000000 0.000000 0.000000 0.000000 0.092031 0.000000
# 6 0.000000 0.000000 0.000000 0.000000 0.000000 0.044213
#
#
# Mechanical properties :
#
#
# Convention : Reuss Voigt Hill
#
# Bulk Modulus (GPa) = 12.40450 74.41447 43.40949
# Shear Modulus (GPa) = 13.50337 27.09007 20.29672
#
# Velocity S-wave (km/s) = 2.75479 3.90187 3.37739
# Velocity P-wave (km/s) = 4.13399 7.88165 6.29326
#
# Compressibility (1/GPa) = 0.08061593
#
# Stress axis : x y z
#
# Youngs Moduli (GPa) = 9.46656 68.07464 87.47994
#
# Poissons Ratio (x) = 0.95827 0.30244
# Poissons Ratio (y) = 0.13326 0.70299
# Poissons Ratio (z) = 0.03273 0.54705
#
# Static dielectric constant tensor:
#      x y z
#    x 2.755660 0.000000 0.000000 
#    y 0.000000 3.510290 0.000000 
#    z 0.000000 0.000000 3.730740 
# 
# 
# High freq. dielectric constant tensor:
#      x y z
#    x 1.628240 0.000000 0.000000 
#    y 0.000000 1.690530 0.000000 
#    z 0.000000 0.000000 1.710040 
# 
# From -- ./inp_files/13485.got.cif
#   From: 2010.03.12/outbox.cif.g09.slc.cpg/sg35_7_cif.got.tgz:13485.got - 2010.04.14 02:02:04.
