data_PCOD8172422
_publ_section_title
;
Structure prediction by ZEFSAII (Michael W. Deem and Ramdas Pophale) SiO2 
 PCOD8172422
Probable space group: C M M 2
;
_chemical_formula_sum "Si O2"
_cell_formula_units_Z 64
_cell_length_a 29.648886
_cell_length_b 8.518681
_cell_length_c 12.525763
_cell_angle_alpha 90.000000
_cell_angle_beta 90.000000
_cell_angle_gamma 90.000000
_cell_volume 3163.624468
_symmetry_space_group_name_H-M "C M M 2"
_symmetry_group_IT_number 35
_symmetry_cell_setting 'orthorhombic'
loop_
_space_group_symop_operation_xyz
x,y,z
-x,-y,z
-x,y,z
x,-y,z
1/2+x,1/2+y,z
1/2-x,1/2-y,z
1/2-x,1/2+y,z
1/2+x,1/2-y,z
loop_
_atom_site_type_symbol
_atom_site_label
_atom_site_fract_x
_atom_site_fract_y
_atom_site_fract_z
Si Si1 0.203883 0.816314 0.751340
Si Si2 0.047485 0.818214 0.382315
Si Si3 0.094395 0.819191 0.588355
Si Si4 0.392123 0.813991 0.807171
Si Si5 0.684623 0.817744 0.526769
Si Si6 0.796001 0.814159 0.295354
Si Si7 0.448189 0.185390 0.010938
Si Si8 0.889239 0.814396 0.202901
O O1 0.250000 0.750000 0.804565
O O2 0.159963 0.742354 0.809173
O O3 0.206217 0.777321 0.625366
O O4 0.201561 0.000000 0.770189
O O5 0.052345 0.798981 0.509681
O O6 0.087907 0.749669 0.311890
O O7 0.000000 0.737223 0.350373
O O8 0.045307 0.000000 0.352803
O O9 0.082005 0.757850 0.705271
O O10 0.131559 0.709790 0.533612
O O11 0.111187 0.000000 0.594309
O O12 0.392009 0.000000 0.800407
O O13 0.421606 0.752456 0.906638
O O14 0.702162 0.757372 0.413705
O O15 0.696586 0.000000 0.540012
O O16 0.750000 0.750000 0.241433
O O17 0.837050 0.761369 0.217103
O O18 0.795967 0.000000 0.307158
O O19 0.500000 0.253354 0.017582
O O20 0.416219 0.234579 0.107737
O O21 0.451495 0.000000 0.007994
O O22 0.892049 0.000000 0.186785
#
# Coordination Sequence:
#
# PCOD8172422 Si02
#       8
#     8   8   8   8   8   8   8   8
#     4  11  21  35  56  84 119 156 197 241 287 342
#     4   9  17  31  53  82 115 149 183 229 292 349
#     4  10  18  32  53  81 118 155 191 237 288 342
#     4  10  21  38  58  83 116 154 196 240 292 346
#     4  11  20  32  52  80 116 159 199 236 281 338
#     4  11  22  37  56  84 117 154 195 239 290 344
#     4  10  23  43  65  88 116 151 193 245 299 349
#     4  10  21  39  62  85 115 151 195 245 291 346
#
# _framework density 20.229959999999998
#
# number of rings (size 3 to 8) (size 9 to 14) (size 15 to 20)
#    0.000    1.750    1.250    5.625    0.000    3.250 
#    0.000    0.625    0.000    3.375    0.000    0.000 
#    0.000    0.000    0.000    0.000    0.000    0.000 
#
# Total GULP energy -396537.558136 kJ/mol
# GULP energy per Si atom -12391.798692 kJ/mol
# Density = 2.018392 g / cm^3
# Si number density = 20.229960 Si / 1000 Ang^3
#
#
#
# Elastic Constant Matrix: (Units=GPa)
#
#
# Indices 1 2 3 4 5 6 
#
# 1 158.1744 22.4339 71.3341 0.0000 0.0000 0.0000
# 2 22.4339 62.5960 24.2203 0.0000 0.0000 0.0000
# 3 71.3341 24.2203 116.2404 0.0000 0.0000 0.0000
# 4 0.0000 0.0000 0.0000 26.7648 0.0000 0.0000
# 5 0.0000 0.0000 0.0000 0.0000 4.6806 0.0000
# 6 0.0000 0.0000 0.0000 0.0000 0.0000 20.3270
#
#
#
# Elastic Compliance Matrix: (Units=1/GPa)
#
#
# Indices 1 2 3 4 5 6 
#
# 1 0.008818 -0.001160 -0.005170 0.000000 0.000000 0.000000
# 2 -0.001160 0.017529 -0.002941 0.000000 0.000000 0.000000
# 3 -0.005170 -0.002941 0.012388 0.000000 0.000000 0.000000
# 4 0.000000 0.000000 0.000000 0.037362 0.000000 0.000000
# 5 0.000000 0.000000 0.000000 0.000000 0.213648 0.000000
# 6 0.000000 0.000000 0.000000 0.000000 0.000000 0.049196
#
#
# Mechanical properties :
#
#
# Convention : Reuss Voigt Hill
#
# Bulk Modulus (GPa) = 49.51814 63.66525 56.59169
# Shear Modulus (GPa) = 13.72820 24.95598 19.34209
#
# Velocity S-wave (km/s) = 2.60784 3.51610 3.09546
# Velocity P-wave (km/s) = 5.79642 6.92986 6.38833
#
# Compressibility (1/GPa) = 0.02019462
#
# Stress axis : x y z
#
# Youngs Moduli (GPa) = 113.40241 57.04834 80.72231
#
# Poissons Ratio (x) = 0.06618 0.41732
# Poissons Ratio (y) = 0.13155 0.23737
# Poissons Ratio (z) = 0.58627 0.16775
#
# Static dielectric constant tensor:
#      x y z
#    x 4.261050 0.000000 0.000000 
#    y 0.000000 3.567180 0.000000 
#    z 0.000000 0.000000 3.601230 
# 
# 
# High freq. dielectric constant tensor:
#      x y z
#    x 1.805030 0.000000 0.000000 
#    y 0.000000 1.779130 0.000000 
#    z 0.000000 0.000000 1.769510 
# 
# From -- ./inp_files/14608.got.cif
#   From: 2010.03.12/outbox.cif.g09.slc.cpg/sg35_8_cif.got.tgz:14608.got - 2010.04.14 02:02:04.
