data_PCOD8172201
_publ_section_title
;
Structure prediction by ZEFSAII (Michael W. Deem and Ramdas Pophale) SiO2 
 PCOD8172201
Probable space group: C M M 2
;
_chemical_formula_sum "Si O2"
_cell_formula_units_Z 48
_cell_length_a 30.772082
_cell_length_b 8.713995
_cell_length_c 9.990166
_cell_angle_alpha 90.000000
_cell_angle_beta 90.000000
_cell_angle_gamma 90.000000
_cell_volume 2678.840722
_symmetry_space_group_name_H-M "C M M 2"
_symmetry_group_IT_number 35
_symmetry_cell_setting 'orthorhombic'
loop_
_space_group_symop_operation_xyz
x,y,z
-x,-y,z
-x,y,z
x,-y,z
1/2+x,1/2+y,z
1/2-x,1/2-y,z
1/2-x,1/2+y,z
1/2+x,1/2-y,z
loop_
_atom_site_type_symbol
_atom_site_label
_atom_site_fract_x
_atom_site_fract_y
_atom_site_fract_z
Si Si1 0.617958 0.318871 0.699450
Si Si2 0.386361 0.677687 0.398867
Si Si3 0.550462 0.177796 0.894791
Si Si4 0.708856 0.321578 0.411213
Si Si5 0.293503 0.819695 0.702157
Si Si6 0.950112 0.820290 0.176070
O O1 0.624570 0.500000 0.694504
O O2 0.610033 0.252744 0.548707
O O3 0.576710 0.275949 0.787546
O O4 0.661773 0.247088 0.764305
O O5 0.397878 0.500000 0.410157
O O6 0.337549 0.702040 0.338381
O O7 0.420969 0.750726 0.296215
O O8 0.500000 0.211432 0.868001
O O9 0.561947 0.000000 0.878162
O O10 0.563445 0.230745 0.042957
O O11 0.716774 0.500000 0.442824
O O12 0.750000 0.250000 0.328006
O O13 0.706969 0.226478 0.547495
O O14 0.250000 0.750000 0.772448
O O15 0.293007 0.000000 0.722268
O O16 0.000000 0.789562 0.214394
O O17 0.941066 0.000000 0.152224
#
# Coordination Sequence:
#
# PCOD8172201 Si02
#       6
#     8   8   8   8   8   8
#     4  10  19  32  51  76 102 129 164 205 248 291
#     4   8  16  29  47  73 100 122 153 201 246 284
#     4  10  21  36  51  70  98 130 164 203 247 297
#     4   9  15  25  41  64  95 128 161 197 237 283
#     4  10  17  27  44  68  99 132 164 199 241 288
#     4   9  17  32  53  72  91 122 162 199 240 294
#
# _framework density 17.918198
#
# number of rings (size 3 to 8) (size 9 to 14) (size 15 to 20)
#    0.000    2.667    0.000    5.000    0.000    1.667 
#    0.000    6.667    0.000    3.000    0.000    4.667 
#    0.000    0.000    0.000    0.000    0.000    0.000 
#
# Total GULP energy -297427.377482 kJ/mol
# GULP energy per Si atom -12392.807395 kJ/mol
# Density = 1.787742 g / cm^3
# Si number density = 17.918198 Si / 1000 Ang^3
#
#
#
# Elastic Constant Matrix: (Units=GPa)
#
#
# Indices 1 2 3 4 5 6 
#
# 1 124.6095 40.4927 62.2183 0.0000 0.0000 0.0000
# 2 40.4927 82.5148 24.5753 0.0000 0.0000 0.0000
# 3 62.2183 24.5753 66.2713 0.0000 0.0000 0.0000
# 4 0.0000 0.0000 0.0000 14.3652 0.0000 0.0000
# 5 0.0000 0.0000 0.0000 0.0000 5.8504 0.0000
# 6 0.0000 0.0000 0.0000 0.0000 0.0000 30.2216
#
#
#
# Elastic Compliance Matrix: (Units=1/GPa)
#
#
# Indices 1 2 3 4 5 6 
#
# 1 0.016113 -0.003824 -0.013709 0.000000 0.000000 0.000000
# 2 -0.003824 0.014531 -0.001798 0.000000 0.000000 0.000000
# 3 -0.013709 -0.001798 0.028627 0.000000 0.000000 0.000000
# 4 0.000000 0.000000 0.000000 0.069613 0.000000 0.000000
# 5 0.000000 0.000000 0.000000 0.000000 0.170928 0.000000
# 6 0.000000 0.000000 0.000000 0.000000 0.000000 0.033089
#
#
# Mechanical properties :
#
#
# Convention : Reuss Voigt Hill
#
# Bulk Modulus (GPa) = 48.52542 58.66313 53.59428
# Shear Modulus (GPa) = 13.21234 19.82806 16.52020
#
# Velocity S-wave (km/s) = 2.71840 3.33015 3.03970
# Velocity P-wave (km/s) = 6.08222 6.89906 6.50348
#
# Compressibility (1/GPa) = 0.02060775
#
# Stress axis : x y z
#
# Youngs Moduli (GPa) = 62.06194 68.81720 34.93165
#
# Poissons Ratio (x) = 0.26316 0.47889
# Poissons Ratio (y) = 0.23733 0.06282
# Poissons Ratio (z) = 0.85083 0.12376
#
# Static dielectric constant tensor:
#      x y z
#    x 4.010700 0.000000 0.000000 
#    y 0.000000 3.247980 0.000000 
#    z 0.000000 0.000000 3.021410 
# 
# 
# High freq. dielectric constant tensor:
#      x y z
#    x 1.715180 0.000000 0.000000 
#    y 0.000000 1.688280 0.000000 
#    z 0.000000 0.000000 1.641910 
# 
# From -- ./inp_files/14228.got.cif
#   From: 2010.03.12/outbox.cif.g09.slc.cpg/sg35_8_cif.got.tgz:14228.got - 2010.04.14 02:02:04.
