data_PCOD8172908
_publ_section_title
;
Structure prediction by ZEFSAII (Michael W. Deem and Ramdas Pophale) SiO2 
 PCOD8172908
Probable space group: C M M 2
;
_chemical_formula_sum "Si O2"
_cell_formula_units_Z 56
_cell_length_a 13.764417
_cell_length_b 22.424544
_cell_length_c 9.331361
_cell_angle_alpha 90.000000
_cell_angle_beta 90.000000
_cell_angle_gamma 90.000000
_cell_volume 2880.225115
_symmetry_space_group_name_H-M "C M M 2"
_symmetry_group_IT_number 35
_symmetry_cell_setting 'orthorhombic'
loop_
_space_group_symop_operation_xyz
x,y,z
-x,-y,z
-x,y,z
x,-y,z
1/2+x,1/2+y,z
1/2-x,1/2-y,z
1/2-x,1/2+y,z
1/2+x,1/2-y,z
loop_
_atom_site_type_symbol
_atom_site_label
_atom_site_fract_x
_atom_site_fract_y
_atom_site_fract_z
Si Si1 0.780238 0.315954 0.215070
Si Si2 0.892023 0.161479 0.037310
Si Si3 0.386868 0.791603 0.937630
Si Si4 0.614743 0.000000 0.246842
Si Si5 0.892612 0.069940 0.790546
Si Si6 0.190576 0.389967 0.739312
Si Si7 0.112788 0.611341 0.427900
Si Si8 0.615735 0.000000 0.921041
O O1 0.750000 0.250000 0.246078
O O2 0.682508 0.350807 0.166691
O O3 0.823895 0.334799 0.367023
O O4 0.860740 0.321995 0.089574
O O5 0.000000 0.173288 0.099426
O O6 0.859445 0.220855 0.945773
O O7 0.890869 0.102243 0.943326
O O8 0.500000 0.801287 0.905345
O O9 0.326977 0.825103 0.811446
O O10 0.652785 0.056287 0.335302
O O11 0.500000 0.000000 0.246171
O O12 0.653870 0.000000 0.084759
O O13 0.804810 0.099522 0.699695
O O14 0.000000 0.080106 0.718983
O O15 0.873308 0.000000 0.814251
O O16 0.129371 0.397122 0.595604
O O17 0.156487 0.440647 0.848740
O O18 0.000000 0.623285 0.401329
O O19 0.500000 0.000000 0.911184
#
# Coordination Sequence:
#
# PCOD8172908 Si02
#       8
#     8   8   8   4   8   8   8   4
#     4  10  20  37  57  84 114 161 199 240 289 351
#     4   9  19  37  61  87 114 149 201 259 294 334
#     4  10  19  34  60  89 118 150 196 246 298 353
#     4   9  21  37  57  83 116 158 191 234 291 357
#     4  10  21  38  59  85 116 153 198 250 300 342
#     4  12  22  36  60  89 119 159 193 246 303 360
#     4  11  23  39  57  86 128 159 188 236 307 369
#     4  11  21  35  58  91 120 152 206 244 286 355
#
# _framework density 19.442924999999999
#
# number of rings (size 3 to 8) (size 9 to 14) (size 15 to 20)
#    0.000    1.714    2.143    3.000    0.000    2.286 
#    2.571    0.714    0.000    0.000    0.000    0.000 
#    0.000    0.000    0.000    0.000    0.000    0.000 
#
# Total GULP energy -347067.374413 kJ/mol
# GULP energy per Si atom -12395.263372 kJ/mol
# Density = 1.939867 g / cm^3
# Si number density = 19.442925 Si / 1000 Ang^3
#
#
#
# Elastic Constant Matrix: (Units=GPa)
#
#
# Indices 1 2 3 4 5 6 
#
# 1 111.5330 40.1557 24.7654 0.0000 0.0000 0.0000
# 2 40.1557 63.9678 37.0920 0.0000 0.0000 0.0000
# 3 24.7654 37.0920 103.8822 0.0000 0.0000 0.0000
# 4 0.0000 0.0000 0.0000 20.1642 0.0000 0.0000
# 5 0.0000 0.0000 0.0000 0.0000 31.0148 0.0000
# 6 0.0000 0.0000 0.0000 0.0000 0.0000 29.7631
#
#
#
# Elastic Compliance Matrix: (Units=1/GPa)
#
#
# Indices 1 2 3 4 5 6 
#
# 1 0.011588 -0.007153 -0.000208 0.000000 0.000000 0.000000
# 2 -0.007153 0.024131 -0.006911 0.000000 0.000000 0.000000
# 3 -0.000208 -0.006911 0.012143 0.000000 0.000000 0.000000
# 4 0.000000 0.000000 0.000000 0.049593 0.000000 0.000000
# 5 0.000000 0.000000 0.000000 0.000000 0.032243 0.000000
# 6 0.000000 0.000000 0.000000 0.000000 0.000000 0.033599
#
#
# Mechanical properties :
#
#
# Convention : Reuss Voigt Hill
#
# Bulk Modulus (GPa) = 51.76786 53.71214 52.74000
# Shear Modulus (GPa) = 25.21695 28.01309 26.61502
#
# Velocity S-wave (km/s) = 3.60526 3.79989 3.70385
# Velocity P-wave (km/s) = 6.63429 6.85111 6.74357
#
# Compressibility (1/GPa) = 0.01931701
#
# Stress axis : x y z
#
# Youngs Moduli (GPa) = 86.29869 41.44129 82.34891
#
# Poissons Ratio (x) = 0.29644 0.01716
# Poissons Ratio (y) = 0.61732 0.56908
# Poissons Ratio (z) = 0.01798 0.28639
#
# Static dielectric constant tensor:
#      x y z
#    x 4.078430 0.000000 0.000000 
#    y 0.000000 3.654960 0.000000 
#    z 0.000000 0.000000 3.241630 
# 
# 
# High freq. dielectric constant tensor:
#      x y z
#    x 1.774110 0.000000 0.000000 
#    y 0.000000 1.763100 0.000000 
#    z 0.000000 0.000000 1.718100 
# 
# From -- ./inp_files/7684.got.cif
#   From: 2010.03.12/outbox.cif.g09.slc.cpg/sg35_4_cif.got.tgz:7684.got - 2010.04.14 02:02:04.
