data_PCOD8172640
_publ_section_title
;
Structure prediction by ZEFSAII (Michael W. Deem and Ramdas Pophale) SiO2 
 PCOD8172640
Probable space group: C M M 2
;
_chemical_formula_sum "Si O2"
_cell_formula_units_Z 64
_cell_length_a 8.997172
_cell_length_b 28.293965
_cell_length_c 15.345752
_cell_angle_alpha 90.000000
_cell_angle_beta 90.000000
_cell_angle_gamma 90.000000
_cell_volume 3906.501634
_symmetry_space_group_name_H-M "C M M 2"
_symmetry_group_IT_number 35
_symmetry_cell_setting 'orthorhombic'
loop_
_space_group_symop_operation_xyz
x,y,z
-x,-y,z
-x,y,z
x,-y,z
1/2+x,1/2+y,z
1/2-x,1/2-y,z
1/2-x,1/2+y,z
1/2+x,1/2-y,z
loop_
_atom_site_type_symbol
_atom_site_label
_atom_site_fract_x
_atom_site_fract_y
_atom_site_fract_z
Si Si1 0.326161 0.894816 0.981490
Si Si2 0.170584 0.444628 0.805247
Si Si3 0.835305 0.943941 0.328569
Si Si4 0.326492 0.202767 0.901702
Si Si5 0.175271 0.298160 0.700347
Si Si6 0.176086 0.946865 0.136040
Si Si7 0.169086 0.556093 0.497664
Si Si8 0.324344 0.608629 0.651844
O O1 0.500000 0.895675 0.000798
O O2 0.286095 0.930407 0.903182
O O3 0.271764 0.842122 0.957154
O O4 0.242360 0.910406 0.067728
O O5 0.193455 0.500000 0.793389
O O6 0.277871 0.417921 0.739664
O O7 0.000000 0.429576 0.785419
O O8 0.776947 0.928937 0.232689
O O9 0.722462 0.925865 0.402688
O O10 0.000000 0.922806 0.346339
O O11 0.846437 0.000000 0.330172
O O12 0.500000 0.210350 0.911399
O O13 0.250000 0.250000 0.938226
O O14 0.283821 0.193456 0.801410
O O15 0.250000 0.250000 0.666670
O O16 0.245310 0.340670 0.645251
O O17 0.000000 0.295855 0.684419
O O18 0.000000 0.947014 0.128188
O O19 0.237260 0.000000 0.118708
O O20 0.182291 0.500000 0.505270
O O21 0.275545 0.578009 0.569621
O O22 0.000000 0.572765 0.512271
O O23 0.500000 0.615447 0.651246
#
# Coordination Sequence:
#
# PCOD8172640 Si02
#       8
#     8   8   8   8   8   8   8   8
#     4  10  19  32  48  69  95 128 164 200 242 288
#     4  10  20  34  48  63  93 135 170 202 242 284
#     4   8  15  30  49  68  94 126 159 199 245 289
#     4   9  18  32  50  69  92 121 158 202 247 287
#     4  10  19  35  54  72  96 124 161 206 250 292
#     4   9  18  31  47  70 100 131 162 199 241 285
#     4  10  20  33  50  72  98 129 165 205 247 290
#     4  12  23  33  48  71  98 131 167 201 243 292
#
# _framework density 16.382943999999998
#
# number of rings (size 3 to 8) (size 9 to 14) (size 15 to 20)
#    0.000    2.250    1.250    3.375    0.000    5.250 
#    0.000    1.250    0.000    0.000    0.000    0.875 
#    0.000    4.000    0.000    0.000    0.000    0.000 
#
# Total GULP energy -396813.080651 kJ/mol
# GULP energy per Si atom -12400.408770 kJ/mol
# Density = 1.634566 g / cm^3
# Si number density = 16.382944 Si / 1000 Ang^3
#
#
#
# Elastic Constant Matrix: (Units=GPa)
#
#
# Indices 1 2 3 4 5 6 
#
# 1 75.0950 35.5255 37.5977 0.0000 0.0000 0.0000
# 2 35.5255 67.5844 25.2263 0.0000 0.0000 0.0000
# 3 37.5977 25.2263 77.9365 0.0000 0.0000 0.0000
# 4 0.0000 0.0000 0.0000 9.0820 0.0000 0.0000
# 5 0.0000 0.0000 0.0000 0.0000 26.2794 0.0000
# 6 0.0000 0.0000 0.0000 0.0000 0.0000 27.4210
#
#
#
# Elastic Compliance Matrix: (Units=1/GPa)
#
#
# Indices 1 2 3 4 5 6 
#
# 1 0.020931 -0.008227 -0.007434 0.000000 0.000000 0.000000
# 2 -0.008227 0.020063 -0.002525 0.000000 0.000000 0.000000
# 3 -0.007434 -0.002525 0.017235 0.000000 0.000000 0.000000
# 4 0.000000 0.000000 0.000000 0.110108 0.000000 0.000000
# 5 0.000000 0.000000 0.000000 0.000000 0.038053 0.000000
# 6 0.000000 0.000000 0.000000 0.000000 0.000000 0.036468
#
#
# Mechanical properties :
#
#
# Convention : Reuss Voigt Hill
#
# Bulk Modulus (GPa) = 45.75511 46.36831 46.06171
# Shear Modulus (GPa) = 17.45099 20.70756 19.07927
#
# Velocity S-wave (km/s) = 3.26727 3.55909 3.41630
# Velocity P-wave (km/s) = 6.49789 6.72709 6.61348
#
# Compressibility (1/GPa) = 0.02185548
#
# Stress axis : x y z
#
# Youngs Moduli (GPa) = 47.77680 49.84188 58.02241
#
# Poissons Ratio (x) = 0.41006 0.43136
# Poissons Ratio (y) = 0.39307 0.14652
# Poissons Ratio (z) = 0.35519 0.12586
#
# Static dielectric constant tensor:
#      x y z
#    x 3.180460 0.000000 0.000000 
#    y 0.000000 3.081990 0.000000 
#    z 0.000000 0.000000 3.144160 
# 
# 
# High freq. dielectric constant tensor:
#      x y z
#    x 1.633130 0.000000 0.000000 
#    y 0.000000 1.613250 0.000000 
#    z 0.000000 0.000000 1.618190 
# 
# From -- ./inp_files/16201.got.cif
#   From: 2010.03.12/outbox.cif.g09.slc.cpg/sg35_9_cif.got.tgz:16201.got - 2010.04.14 02:02:04.
