data_PCOD8172360
_publ_section_title
;
Structure prediction by ZEFSAII (Michael W. Deem and Ramdas Pophale) SiO2 
 PCOD8172360
Probable space group: C M M 2
;
_chemical_formula_sum "Si O2"
_cell_formula_units_Z 64
_cell_length_a 28.484051
_cell_length_b 8.852133
_cell_length_c 15.648834
_cell_angle_alpha 90.000000
_cell_angle_beta 90.000000
_cell_angle_gamma 90.000000
_cell_volume 3945.769112
_symmetry_space_group_name_H-M "C M M 2"
_symmetry_group_IT_number 35
_symmetry_cell_setting 'orthorhombic'
loop_
_space_group_symop_operation_xyz
x,y,z
-x,-y,z
-x,y,z
x,-y,z
1/2+x,1/2+y,z
1/2-x,1/2-y,z
1/2-x,1/2+y,z
1/2+x,1/2-y,z
loop_
_atom_site_type_symbol
_atom_site_label
_atom_site_fract_x
_atom_site_fract_y
_atom_site_fract_z
Si Si1 0.947288 0.320522 0.013290
Si Si2 0.888596 0.820176 0.531142
Si Si3 0.394459 0.324942 0.861052
Si Si4 0.201034 0.319998 0.598851
Si Si5 0.447160 0.321949 0.369123
Si Si6 0.702622 0.676678 0.780972
Si Si7 0.947284 0.820350 0.693838
Si Si8 0.055743 0.332854 0.200344
O O1 0.947961 0.500000 0.012628
O O2 0.930039 0.265214 0.107433
O O3 0.000000 0.259677 0.992913
O O4 0.910224 0.261587 0.945149
O O5 0.838706 0.736677 0.533720
O O6 0.914344 0.763852 0.445475
O O7 0.919661 0.763111 0.610832
O O8 0.881262 0.000000 0.533196
O O9 0.406442 0.500000 0.872933
O O10 0.338897 0.298758 0.848849
O O11 0.421978 0.259209 0.779000
O O12 0.203975 0.500000 0.600151
O O13 0.250000 0.250000 0.566791
O O14 0.188874 0.258015 0.692952
O O15 0.500000 0.257859 0.382622
O O16 0.448717 0.500000 0.369550
O O17 0.425603 0.269065 0.278392
O O18 0.710468 0.500000 0.761432
O O19 0.750000 0.750000 0.819511
O O20 0.000000 0.755214 0.691101
O O21 0.947666 0.000000 0.694120
O O22 0.077116 0.500000 0.212434
O O23 0.000000 0.340691 0.202026
#
# Coordination Sequence:
#
# PCOD8172360 Si02
#       8
#     8   8   8   8   8   8   8   8
#     4   9  18  31  46  66  94 127 160 194 234 276
#     4  10  18  31  47  67  96 126 157 192 230 275
#     4  10  19  30  46  68  93 122 158 193 230 275
#     4  11  21  33  50  69  90 119 156 197 239 278
#     4   9  17  28  46  72  97 124 159 196 231 269
#     4  10  19  33  50  69  91 119 154 195 239 280
#     4   9  16  27  43  62  90 128 160 183 216 266
#     4   8  15  29  46  63  89 125 158 192 236 279
#
# _framework density 16.219905000000001
#
# number of rings (size 3 to 8) (size 9 to 14) (size 15 to 20)
#    0.000    2.500    1.250    3.750    0.000    4.250 
#    0.000    1.250    0.000    1.125    0.000    0.875 
#    0.000    4.000    0.000    0.000    0.000    0.000 
#
# Total GULP energy -396712.263082 kJ/mol
# GULP energy per Si atom -12397.258221 kJ/mol
# Density = 1.618299 g / cm^3
# Si number density = 16.219905 Si / 1000 Ang^3
#
#
#
# Elastic Constant Matrix: (Units=GPa)
#
#
# Indices 1 2 3 4 5 6 
#
# 1 101.7317 34.5828 62.3290 0.0000 0.0000 0.0000
# 2 34.5828 53.6461 35.2939 0.0000 0.0000 0.0000
# 3 62.3290 35.2939 136.6142 0.0000 0.0000 0.0000
# 4 0.0000 0.0000 0.0000 23.6164 0.0000 0.0000
# 5 0.0000 0.0000 0.0000 0.0000 13.5789 0.0000
# 6 0.0000 0.0000 0.0000 0.0000 0.0000 22.4740
#
#
#
# Elastic Compliance Matrix: (Units=1/GPa)
#
#
# Indices 1 2 3 4 5 6 
#
# 1 0.015238 -0.006324 -0.005318 0.000000 0.000000 0.000000
# 2 -0.006324 0.025082 -0.003595 0.000000 0.000000 0.000000
# 3 -0.005318 -0.003595 0.010675 0.000000 0.000000 0.000000
# 4 0.000000 0.000000 0.000000 0.042343 0.000000 0.000000
# 5 0.000000 0.000000 0.000000 0.000000 0.073644 0.000000
# 6 0.000000 0.000000 0.000000 0.000000 0.000000 0.044496
#
#
# Mechanical properties :
#
#
# Convention : Reuss Voigt Hill
#
# Bulk Modulus (GPa) = 48.73025 61.82258 55.27642
# Shear Modulus (GPa) = 20.09698 22.58628 21.34163
#
# Velocity S-wave (km/s) = 3.52381 3.73568 3.63129
# Velocity P-wave (km/s) = 6.83118 7.53691 7.19271
#
# Compressibility (1/GPa) = 0.02052113
#
# Stress axis : x y z
#
# Youngs Moduli (GPa) = 65.62488 39.86847 93.67656
#
# Poissons Ratio (x) = 0.25214 0.49821
# Poissons Ratio (y) = 0.41503 0.33673
# Poissons Ratio (z) = 0.34902 0.14331
#
# Static dielectric constant tensor:
#      x y z
#    x 3.076080 0.000000 0.000000 
#    y 0.000000 2.927600 0.000000 
#    z 0.000000 0.000000 3.165110 
# 
# 
# High freq. dielectric constant tensor:
#      x y z
#    x 1.607280 0.000000 0.000000 
#    y 0.000000 1.611250 0.000000 
#    z 0.000000 0.000000 1.613510 
# 
# From -- ./inp_files/16199.got.cif
#   From: 2010.03.12/outbox.cif.g09.slc.cpg/sg35_9_cif.got.tgz:16199.got - 2010.04.14 02:02:04.
