data_PCOD8172557
_publ_section_title
;
Structure prediction by ZEFSAII (Michael W. Deem and Ramdas Pophale) SiO2 
 PCOD8172557
Probable space group: C M M 2
;
_chemical_formula_sum "Si O2"
_cell_formula_units_Z 64
_cell_length_a 9.645350
_cell_length_b 18.458567
_cell_length_c 20.740504
_cell_angle_alpha 90.000000
_cell_angle_beta 90.000000
_cell_angle_gamma 90.000000
_cell_volume 3692.625627
_symmetry_space_group_name_H-M "C M M 2"
_symmetry_group_IT_number 35
_symmetry_cell_setting 'orthorhombic'
loop_
_space_group_symop_operation_xyz
x,y,z
-x,-y,z
-x,y,z
x,-y,z
1/2+x,1/2+y,z
1/2-x,1/2-y,z
1/2-x,1/2+y,z
1/2+x,1/2-y,z
loop_
_atom_site_type_symbol
_atom_site_label
_atom_site_fract_x
_atom_site_fract_y
_atom_site_fract_z
Si Si1 0.845662 0.586234 0.206260
Si Si2 0.665258 0.822911 0.465960
Si Si3 0.339281 0.416354 0.089493
Si Si4 0.160719 0.916354 0.842426
Si Si5 0.664443 0.080309 0.347419
Si Si6 0.335557 0.080308 0.584500
Si Si7 0.654338 0.086234 0.725659
Si Si8 0.337669 0.677336 0.965960
O O1 0.849413 0.500000 0.206432
O O2 0.744144 0.615130 0.150678
O O3 0.790777 0.611190 0.276943
O O4 0.000000 0.616942 0.192764
O O5 0.500000 0.809069 0.465960
O O6 0.750000 0.750000 0.465960
O O7 0.716065 0.866486 0.403100
O O8 0.716065 0.866486 0.528819
O O9 0.500000 0.407889 0.105982
O O10 0.301642 0.500000 0.075201
O O11 0.296252 0.369839 0.027824
O O12 0.244144 0.884870 0.781241
O O13 0.203749 0.869839 0.904095
O O14 0.000000 0.907889 0.825937
O O15 0.198358 0.000000 0.856718
O O16 0.500000 0.073994 0.348949
O O17 0.727609 0.000000 0.359359
O O18 0.500000 0.073994 0.582970
O O19 0.290777 0.111190 0.654976
O O20 0.272390 0.000000 0.572561
O O21 0.500000 0.116942 0.739155
O O22 0.650587 0.000000 0.725487
O O23 0.500000 0.696601 0.965960
O O24 0.250000 0.750000 0.965960
#
# Coordination Sequence:
#
# PCOD8172557 Si02
#       8
#     8   8   8   8   8   8   8   8
#     4   8  14  26  46  72  96 115 144 190 234 268
#     4  10  19  31  47  67  93 124 156 190 228 270
#     4   9  17  31  51  72  93 119 151 186 227 275
#     4   9  17  31  51  72  93 119 151 186 227 275
#     4   8  14  27  49  72  90 115 155 195 226 263
#     4   8  14  27  49  72  90 115 155 195 226 263
#     4   8  14  26  46  72  96 115 144 190 234 268
#     4  10  21  35  49  67  93 124 156 190 226 266
#
# _framework density 17.331841000000001
#
# number of rings (size 3 to 8) (size 9 to 14) (size 15 to 20)
#    0.000    3.250    0.000    2.250    0.000    4.000 
#    0.000    2.500    0.000   12.750    0.000    0.000 
#    0.000    0.000    0.000    0.000    0.000    0.000 
#
# Total GULP energy -396631.337342 kJ/mol
# GULP energy per Si atom -12394.729292 kJ/mol
# Density = 1.729239 g / cm^3
# Si number density = 17.331841 Si / 1000 Ang^3
#
#
#
# Elastic Constant Matrix: (Units=GPa)
#
#
# Indices 1 2 3 4 5 6 
#
# 1 50.3357 40.7259 65.6386 0.0000 0.0000 0.0000
# 2 40.7259 85.3419 76.1533 0.0000 0.0000 0.0000
# 3 65.6386 76.1533 197.1281 0.0000 0.0000 0.0000
# 4 0.0000 0.0000 0.0000 3.4096 0.0000 0.0000
# 5 0.0000 0.0000 0.0000 0.0000 24.7857 0.0000
# 6 0.0000 0.0000 0.0000 0.0000 0.0000 24.9550
#
#
#
# Elastic Compliance Matrix: (Units=1/GPa)
#
#
# Indices 1 2 3 4 5 6 
#
# 1 0.041227 -0.011330 -0.009351 0.000000 0.000000 0.000000
# 2 -0.011330 0.020996 -0.004338 0.000000 0.000000 0.000000
# 3 -0.009351 -0.004338 0.009862 0.000000 0.000000 0.000000
# 4 0.000000 0.000000 0.000000 0.293294 0.000000 0.000000
# 5 0.000000 0.000000 0.000000 0.000000 0.040346 0.000000
# 6 0.000000 0.000000 0.000000 0.000000 0.000000 0.040072
#
#
# Mechanical properties :
#
#
# Convention : Reuss Voigt Hill
#
# Bulk Modulus (GPa) = 45.35765 77.53793 61.44779
# Shear Modulus (GPa) = 9.93674 20.64924 15.29299
#
# Velocity S-wave (km/s) = 2.39701 3.45542 2.97368
# Velocity P-wave (km/s) = 5.82133 7.79450 6.87903
#
# Compressibility (1/GPa) = 0.02204700
#
# Stress axis : x y z
#
# Youngs Moduli (GPa) = 24.25601 47.62918 101.39662
#
# Poissons Ratio (x) = 0.53964 0.94811
# Poissons Ratio (y) = 0.27482 0.43988
# Poissons Ratio (z) = 0.22681 0.20663
#
# Static dielectric constant tensor:
#      x y z
#    x 3.031670 0.000000 0.000000 
#    y 0.000000 3.021980 0.000000 
#    z 0.000000 0.000000 3.744140 
# 
# 
# High freq. dielectric constant tensor:
#      x y z
#    x 1.638670 0.000000 0.000000 
#    y 0.000000 1.638780 0.000000 
#    z 0.000000 0.000000 1.689490 
# 
# From -- ./inp_files/18656.got.cif
#   From: 2010.03.12/outbox.cif.g09.slc.cpg/sg35_10_cif.got.tgz:18656.got - 2010.04.14 02:02:04.
