data_PCOD8172604
_publ_section_title
;
Structure prediction by ZEFSAII (Michael W. Deem and Ramdas Pophale) SiO2 
 PCOD8172604
Probable space group: C M M 2
;
_chemical_formula_sum "Si O2"
_cell_formula_units_Z 64
_cell_length_a 9.221172
_cell_length_b 29.305913
_cell_length_c 12.513018
_cell_angle_alpha 90.000000
_cell_angle_beta 90.000000
_cell_angle_gamma 90.000000
_cell_volume 3381.453722
_symmetry_space_group_name_H-M "C M M 2"
_symmetry_group_IT_number 35
_symmetry_cell_setting 'orthorhombic'
loop_
_space_group_symop_operation_xyz
x,y,z
-x,-y,z
-x,y,z
x,-y,z
1/2+x,1/2+y,z
1/2-x,1/2-y,z
1/2-x,1/2+y,z
1/2+x,1/2-y,z
loop_
_atom_site_type_symbol
_atom_site_label
_atom_site_fract_x
_atom_site_fract_y
_atom_site_fract_z
Si Si1 0.168906 0.705820 0.089810
Si Si2 0.828118 0.605362 0.602616
Si Si3 0.163928 0.449757 0.210638
Si Si4 0.672318 0.891252 0.014918
Si Si5 0.672212 0.947863 0.814571
Si Si6 0.163307 0.707031 0.556717
Si Si7 0.664719 0.175935 0.324764
Si Si8 0.171820 0.911712 0.392329
O O1 0.250000 0.750000 0.043476
O O2 0.222597 0.661530 0.022467
O O3 0.205485 0.701702 0.215854
O O4 0.000000 0.713323 0.071575
O O5 0.779216 0.579097 0.708758
O O6 0.780175 0.658783 0.604970
O O7 0.743766 0.580403 0.507492
O O8 0.000000 0.602176 0.581472
O O9 0.164524 0.500000 0.159409
O O10 0.227678 0.415508 0.122352
O O11 0.268106 0.450622 0.313743
O O12 0.000000 0.435823 0.243934
O O13 0.500000 0.894107 0.010338
O O14 0.737043 0.918135 0.912771
O O15 0.500000 0.949725 0.821400
O O16 0.733251 0.000000 0.815217
O O17 0.250000 0.750000 0.604667
O O18 0.176654 0.708495 0.427770
O O19 0.000000 0.714302 0.594515
O O20 0.500000 0.156458 0.316473
O O21 0.778236 0.135490 0.339256
O O22 0.000000 0.913885 0.403196
#
# Coordination Sequence:
#
# PCOD8172604 Si02
#       8
#     8   8   8   8   8   8   8   8
#     4  10  19  31  50  76 111 147 179 217 261 316
#     4   9  19  35  53  76 108 139 175 224 273 318
#     4  10  19  33  55  79 106 141 176 213 268 331
#     4   9  17  32  54  81 110 135 171 227 275 310
#     4   9  17  32  58  86 103 126 177 234 275 316
#     4   9  17  28  45  69 101 139 176 214 254 307
#     4   9  17  32  50  71 104 144 182 219 261 310
#     4  11  21  32  50  77 111 145 176 217 265 322
#
# _framework density 18.926770999999999
#
# number of rings (size 3 to 8) (size 9 to 14) (size 15 to 20)
#    0.000    2.500    1.250    2.625    0.000    4.750 
#    0.000    1.875    0.000    1.500    0.000    0.000 
#    0.000    0.000    0.000    0.000    0.000    0.000 
#
# Total GULP energy -396632.934809 kJ/mol
# GULP energy per Si atom -12394.779213 kJ/mol
# Density = 1.888369 g / cm^3
# Si number density = 18.926771 Si / 1000 Ang^3
#
#
#
# Elastic Constant Matrix: (Units=GPa)
#
#
# Indices 1 2 3 4 5 6 
#
# 1 52.5308 30.0982 35.8561 0.0000 0.0000 0.0000
# 2 30.0982 145.2633 71.3613 0.0000 0.0000 0.0000
# 3 35.8561 71.3613 118.7496 0.0000 0.0000 0.0000
# 4 0.0000 0.0000 0.0000 24.3498 0.0000 0.0000
# 5 0.0000 0.0000 0.0000 0.0000 7.8859 0.0000
# 6 0.0000 0.0000 0.0000 0.0000 0.0000 25.4958
#
#
#
# Elastic Compliance Matrix: (Units=1/GPa)
#
#
# Indices 1 2 3 4 5 6 
#
# 1 0.024396 -0.002038 -0.006142 0.000000 0.000000 0.000000
# 2 -0.002038 0.009938 -0.005357 0.000000 0.000000 0.000000
# 3 -0.006142 -0.005357 0.013495 0.000000 0.000000 0.000000
# 4 0.000000 0.000000 0.000000 0.041068 0.000000 0.000000
# 5 0.000000 0.000000 0.000000 0.000000 0.126809 0.000000
# 6 0.000000 0.000000 0.000000 0.000000 0.000000 0.039222
#
#
# Mechanical properties :
#
#
# Convention : Reuss Voigt Hill
#
# Bulk Modulus (GPa) = 48.17844 65.68611 56.93228
# Shear Modulus (GPa) = 17.30589 23.49484 20.40037
#
# Velocity S-wave (km/s) = 3.02712 3.52711 3.28664
# Velocity P-wave (km/s) = 6.14234 7.16715 6.67445
#
# Compressibility (1/GPa) = 0.02075617
#
# Stress axis : x y z
#
# Youngs Moduli (GPa) = 40.98999 100.62626 74.10321
#
# Poissons Ratio (x) = 0.20504 0.45513
# Poissons Ratio (y) = 0.08352 0.39695
# Poissons Ratio (z) = 0.25176 0.53903
#
# Static dielectric constant tensor:
#      x y z
#    x 3.061770 0.000000 0.000000 
#    y 0.000000 3.526830 0.000000 
#    z 0.000000 0.000000 3.466210 
# 
# 
# High freq. dielectric constant tensor:
#      x y z
#    x 1.690820 0.000000 0.000000 
#    y 0.000000 1.742830 0.000000 
#    z 0.000000 0.000000 1.720140 
# 
# From -- ./inp_files/11935.got.cif
#   From: 2010.03.12/outbox.cif.g09.slc.cpg/sg35_6_cif.got.tgz:11935.got - 2010.04.14 02:02:04.
