data_PCOD8172677
_publ_section_title
;
Structure prediction by ZEFSAII (Michael W. Deem and Ramdas Pophale) SiO2 
 PCOD8172677
Probable space group: C M M 2
;
_chemical_formula_sum "Si O2"
_cell_formula_units_Z 56
_cell_length_a 9.119590
_cell_length_b 18.492837
_cell_length_c 18.269055
_cell_angle_alpha 90.000000
_cell_angle_beta 90.000000
_cell_angle_gamma 90.000000
_cell_volume 3081.022988
_symmetry_space_group_name_H-M "C M M 2"
_symmetry_group_IT_number 35
_symmetry_cell_setting 'orthorhombic'
loop_
_space_group_symop_operation_xyz
x,y,z
-x,-y,z
-x,y,z
x,-y,z
1/2+x,1/2+y,z
1/2-x,1/2-y,z
1/2-x,1/2+y,z
1/2+x,1/2-y,z
loop_
_atom_site_type_symbol
_atom_site_label
_atom_site_fract_x
_atom_site_fract_y
_atom_site_fract_z
Si Si1 0.830105 0.416470 0.800800
Si Si2 0.327272 0.172626 0.069040
Si Si3 0.332283 0.176191 0.227779
Si Si4 0.173088 0.326682 0.658835
Si Si5 0.327913 0.173165 0.385854
Si Si6 0.174425 0.580981 0.521238
Si Si7 0.667123 0.414585 0.946081
O O1 0.797975 0.500000 0.782113
O O2 0.781547 0.369377 0.731687
O O3 0.734774 0.388939 0.869153
O O4 0.000000 0.404998 0.820368
O O5 0.500000 0.182021 0.054368
O O6 0.250000 0.250000 0.061297
O O7 0.296499 0.136943 0.150270
O O8 0.260588 0.117776 0.011572
O O9 0.500000 0.198271 0.227558
O O10 0.250000 0.250000 0.228681
O O11 0.295768 0.136385 0.305203
O O12 0.250000 0.250000 0.658392
O O13 0.231219 0.372968 0.590137
O O14 0.000000 0.314977 0.654308
O O15 0.500000 0.186591 0.397385
O O16 0.250000 0.250000 0.394809
O O17 0.267432 0.118151 0.446773
O O18 0.239771 0.500000 0.525656
O O19 0.000000 0.577200 0.521993
O O20 0.500000 0.387279 0.950331
O O21 0.678107 0.500000 0.953183
#
# Coordination Sequence:
#
# PCOD8172677 Si02
#       7
#     8   8   8   8   8   8   8
#     4   9  18  34  54  72  93 126 166 203 241 289
#     4  10  19  32  51  74 101 132 168 209 251 296
#     4   8  15  27  44  69  97 126 161 199 242 289
#     4  10  20  33  51  75 100 126 159 199 241 286
#     4   9  16  28  48  72  97 126 161 201 243 285
#     4   9  17  30  49  72  98 129 164 199 235 279
#     4  10  21  36  53  74 101 132 166 204 248 299
#
# _framework density 18.175782000000002
#
# number of rings (size 3 to 8) (size 9 to 14) (size 15 to 20)
#    0.000    2.714    0.000    1.714    0.000    4.286 
#    0.000    2.143    0.000    5.143    0.000    0.000 
#    0.000    0.000    0.000    0.000    0.000    0.000 
#
# Total GULP energy -346977.871124 kJ/mol
# GULP energy per Si atom -12392.066826 kJ/mol
# Density = 1.813441 g / cm^3
# Si number density = 18.175782 Si / 1000 Ang^3
#
#
#
# Elastic Constant Matrix: (Units=GPa)
#
#
# Indices 1 2 3 4 5 6 
#
# 1 58.1701 32.3296 59.0601 0.0000 0.0000 0.0000
# 2 32.3296 87.5100 77.5836 0.0000 0.0000 0.0000
# 3 59.0601 77.5836 198.2735 0.0000 0.0000 0.0000
# 4 0.0000 0.0000 0.0000 21.4307 0.0000 0.0000
# 5 0.0000 0.0000 0.0000 0.0000 19.7009 0.0000
# 6 0.0000 0.0000 0.0000 0.0000 0.0000 26.0664
#
#
#
# Elastic Compliance Matrix: (Units=1/GPa)
#
#
# Indices 1 2 3 4 5 6 
#
# 1 0.025582 -0.004127 -0.006005 0.000000 0.000000 0.000000
# 2 -0.004127 0.018163 -0.005878 0.000000 0.000000 0.000000
# 3 -0.006005 -0.005878 0.009132 0.000000 0.000000 0.000000
# 4 0.000000 0.000000 0.000000 0.046662 0.000000 0.000000
# 5 0.000000 0.000000 0.000000 0.000000 0.050759 0.000000
# 6 0.000000 0.000000 0.000000 0.000000 0.000000 0.038363
#
#
# Mechanical properties :
#
#
# Convention : Reuss Voigt Hill
#
# Bulk Modulus (GPa) = 47.94517 75.76670 61.85593
# Shear Modulus (GPa) = 21.96511 25.10497 23.53504
#
# Velocity S-wave (km/s) = 3.48009 3.72052 3.60232
# Velocity P-wave (km/s) = 6.52564 7.76095 7.16995
#
# Compressibility (1/GPa) = 0.02085716
#
# Stress axis : x y z
#
# Youngs Moduli (GPa) = 39.09050 55.05708 109.50134
#
# Poissons Ratio (x) = 0.22721 0.65758
# Poissons Ratio (y) = 0.16132 0.64363
# Poissons Ratio (z) = 0.23475 0.32362
#
# Static dielectric constant tensor:
#      x y z
#    x 3.269820 0.000000 0.000000 
#    y 0.000000 3.111350 0.000000 
#    z 0.000000 0.000000 4.005580 
# 
# 
# High freq. dielectric constant tensor:
#      x y z
#    x 1.690190 0.000000 0.000000 
#    y 0.000000 1.677620 0.000000 
#    z 0.000000 0.000000 1.731310 
# 
# From -- ./inp_files/18178.got.cif
#   From: 2010.03.12/outbox.cif.g09.slc.cpg/sg35_10_cif.got.tgz:18178.got - 2010.04.14 02:02:04.
