data_PCOD8172644
_publ_section_title
;
Structure prediction by ZEFSAII (Michael W. Deem and Ramdas Pophale) SiO2 
 PCOD8172644
Probable space group: C M M 2
;
_chemical_formula_sum "Si O2"
_cell_formula_units_Z 64
_cell_length_a 28.354985
_cell_length_b 8.708846
_cell_length_c 15.638097
_cell_angle_alpha 90.000000
_cell_angle_beta 90.000000
_cell_angle_gamma 90.000000
_cell_volume 3861.659127
_symmetry_space_group_name_H-M "C M M 2"
_symmetry_group_IT_number 35
_symmetry_cell_setting 'orthorhombic'
loop_
_space_group_symop_operation_xyz
x,y,z
-x,-y,z
-x,y,z
x,-y,z
1/2+x,1/2+y,z
1/2-x,1/2-y,z
1/2-x,1/2+y,z
1/2+x,1/2-y,z
loop_
_atom_site_type_symbol
_atom_site_label
_atom_site_fract_x
_atom_site_fract_y
_atom_site_fract_z
Si Si1 0.799848 0.323177 0.123310
Si Si2 0.351793 0.320998 0.780470
Si Si3 0.199024 0.681369 0.619012
Si Si4 0.053253 0.677642 0.518262
Si Si5 0.697899 0.180828 0.308495
Si Si6 0.302104 0.818143 0.937797
Si Si7 0.947641 0.824600 0.697684
Si Si8 0.143256 0.179295 0.463141
O O1 0.789552 0.500000 0.113946
O O2 0.750000 0.250000 0.134439
O O3 0.825954 0.289181 0.213849
O O4 0.822680 0.270906 0.032674
O O5 0.340012 0.500000 0.776926
O O6 0.320609 0.239870 0.708765
O O7 0.338818 0.254348 0.872349
O O8 0.407593 0.288332 0.767708
O O9 0.202923 0.500000 0.622113
O O10 0.250000 0.750000 0.600337
O O11 0.165055 0.730234 0.542579
O O12 0.065118 0.500000 0.503328
O O13 0.060588 0.713321 0.618091
O O14 0.087717 0.781273 0.460752
O O15 0.000000 0.717045 0.490113
O O16 0.750000 0.250000 0.316108
O O17 0.664721 0.266937 0.374287
O O18 0.700306 0.000000 0.329190
O O19 0.250000 0.750000 0.923665
O O20 0.299741 0.000000 0.923803
O O21 0.000000 0.797694 0.737524
O O22 0.942466 0.000000 0.665057
O O23 0.151908 0.000000 0.476207
#
# Coordination Sequence:
#
# PCOD8172644 Si02
#       8
#     8   8   8   8   8   8   8   8
#     4   8  16  30  49  70  94 125 161 203 247 288
#     4  11  21  33  49  72  99 129 164 201 244 294
#     4  12  24  37  50  66  95 133 170 204 239 284
#     4  10  20  34  53  75  97 124 162 206 249 290
#     4  10  19  33  51  73 100 130 165 205 247 294
#     4  10  19  32  49  71  99 131 166 203 243 289
#     4   9  18  33  52  71  94 125 161 203 248 292
#     4  12  23  35  50  72 100 132 166 200 243 294
#
# _framework density 16.573187999999998
#
# number of rings (size 3 to 8) (size 9 to 14) (size 15 to 20)
#    0.000    1.750    1.250    4.500    0.000    2.250 
#    0.000    0.000    0.000    0.000    0.000    0.875 
#    0.000    5.000    0.000    0.000    0.000    0.000 
#
# Total GULP energy -396621.991753 kJ/mol
# GULP energy per Si atom -12394.437242 kJ/mol
# Density = 1.653547 g / cm^3
# Si number density = 16.573188 Si / 1000 Ang^3
#
#
#
# Elastic Constant Matrix: (Units=GPa)
#
#
# Indices 1 2 3 4 5 6 
#
# 1 91.4744 36.4929 46.3006 0.0000 0.0000 0.0000
# 2 36.4929 89.4184 39.4874 0.0000 0.0000 0.0000
# 3 46.3006 39.4874 108.5014 0.0000 0.0000 0.0000
# 4 0.0000 0.0000 0.0000 23.0248 0.0000 0.0000
# 5 0.0000 0.0000 0.0000 0.0000 10.5350 0.0000
# 6 0.0000 0.0000 0.0000 0.0000 0.0000 22.9749
#
#
#
# Elastic Compliance Matrix: (Units=1/GPa)
#
#
# Indices 1 2 3 4 5 6 
#
# 1 0.015021 -0.003931 -0.004979 0.000000 0.000000 0.000000
# 2 -0.003931 0.014354 -0.003546 0.000000 0.000000 0.000000
# 3 -0.004979 -0.003546 0.012632 0.000000 0.000000 0.000000
# 4 0.000000 0.000000 0.000000 0.043431 0.000000 0.000000
# 5 0.000000 0.000000 0.000000 0.000000 0.094922 0.000000
# 6 0.000000 0.000000 0.000000 0.000000 0.000000 0.043526
#
#
# Mechanical properties :
#
#
# Convention : Reuss Voigt Hill
#
# Bulk Modulus (GPa) = 58.50338 59.32847 58.91593
# Shear Modulus (GPa) = 19.64668 22.44781 21.04725
#
# Velocity S-wave (km/s) = 3.44677 3.68430 3.56751
# Velocity P-wave (km/s) = 7.15660 7.34672 7.25229
#
# Compressibility (1/GPa) = 0.01709303
#
# Stress axis : x y z
#
# Youngs Moduli (GPa) = 66.57553 69.66769 79.16582
#
# Poissons Ratio (x) = 0.27389 0.39416
# Poissons Ratio (y) = 0.26173 0.28074
# Poissons Ratio (z) = 0.33147 0.24706
#
# Static dielectric constant tensor:
#      x y z
#    x 3.110780 0.000000 0.000000 
#    y 0.000000 3.204130 0.000000 
#    z 0.000000 0.000000 3.398330 
# 
# 
# High freq. dielectric constant tensor:
#      x y z
#    x 1.617570 0.000000 0.000000 
#    y 0.000000 1.656390 0.000000 
#    z 0.000000 0.000000 1.630730 
# 
# From -- ./inp_files/17772.got.cif
#   From: 2010.03.12/outbox.cif.g09.slc.cpg/sg35_9_cif.got.tgz:17772.got - 2010.04.14 02:02:04.
