data_PCOD8172479
_publ_section_title
;
Structure prediction by ZEFSAII (Michael W. Deem and Ramdas Pophale) SiO2 
 PCOD8172479
Probable space group: C M M 2
;
_chemical_formula_sum "Si O2"
_cell_formula_units_Z 36
_cell_length_a 18.435933
_cell_length_b 14.122897
_cell_length_c 7.638821
_cell_angle_alpha 90.000000
_cell_angle_beta 90.000000
_cell_angle_gamma 90.000000
_cell_volume 1988.910526
_symmetry_space_group_name_H-M "C M M 2"
_symmetry_group_IT_number 35
_symmetry_cell_setting 'orthorhombic'
loop_
_space_group_symop_operation_xyz
x,y,z
-x,-y,z
-x,y,z
x,-y,z
1/2+x,1/2+y,z
1/2-x,1/2-y,z
1/2-x,1/2+y,z
1/2+x,1/2-y,z
loop_
_atom_site_type_symbol
_atom_site_label
_atom_site_fract_x
_atom_site_fract_y
_atom_site_fract_z
Si Si1 0.226760 0.500000 0.611541
Si Si2 0.416608 0.700180 0.914246
Si Si3 0.866461 0.000000 0.417202
Si Si4 0.583391 0.700182 0.308855
Si Si5 0.366456 0.500000 0.805897
Si Si6 0.671309 0.203825 0.611552
O O1 0.278580 0.500000 0.438980
O O2 0.278575 0.500000 0.784108
O O3 0.174972 0.590780 0.611539
O O4 0.500000 0.707479 0.857098
O O5 0.391655 0.591531 0.910567
O O6 0.369932 0.764118 0.785150
O O7 0.405276 0.737864 0.111550
O O8 0.891666 0.091528 0.312532
O O9 0.902406 0.000000 0.611552
O O10 0.500000 0.707497 0.366010
O O11 0.630078 0.764108 0.437948
O O12 0.750000 0.250000 0.611571
#
# Coordination Sequence:
#
# PCOD8172479 Si02
#       6
#     4   8   4   8   4   8
#     4  10  22  38  58  92 116 150 202 234 292 352
#     4  11  23  38  61  91 120 155 196 241 296 350
#     4  10  18  36  61  88 124 150 186 244 301 348
#     4  11  23  38  61  91 120 155 196 241 296 350
#     4  10  18  36  61  88 124 150 186 244 301 348
#     4  12  21  42  61  84 121 157 195 241 291 346
#
# _framework density 18.100363000000002
#
# number of rings (size 3 to 8) (size 9 to 14) (size 15 to 20)
#    0.667    0.444    6.667    2.000    0.000    3.556 
#    0.000    3.333    0.000    2.667    0.000    0.000 
#    0.000    0.000    0.000    0.000    0.000    0.000 
#
# Total GULP energy -223200.715733 kJ/mol
# GULP energy per Si atom -12400.039763 kJ/mol
# Density = 1.805917 g / cm^3
# Si number density = 18.100363 Si / 1000 Ang^3
#
#
#
# Elastic Constant Matrix: (Units=GPa)
#
#
# Indices 1 2 3 4 5 6 
#
# 1 131.8575 74.4916 65.9511 0.0000 0.0000 0.0000
# 2 74.4916 143.7158 49.4057 0.0000 0.0000 0.0000
# 3 65.9511 49.4057 106.8682 0.0000 0.0000 0.0000
# 4 0.0000 0.0000 0.0000 4.0803 0.0000 0.0000
# 5 0.0000 0.0000 0.0000 0.0000 -4.9725 0.0000
# 6 0.0000 0.0000 0.0000 0.0000 0.0000 18.0535
#
#
#
# Elastic Compliance Matrix: (Units=1/GPa)
#
#
# Indices 1 2 3 4 5 6 
#
# 1 0.013309 -0.004845 -0.005973 0.000000 0.000000 0.000000
# 2 -0.004845 0.010037 -0.001650 0.000000 0.000000 0.000000
# 3 -0.005973 -0.001650 0.013807 0.000000 0.000000 0.000000
# 4 0.000000 0.000000 0.000000 0.245079 0.000000 0.000000
# 5 0.000000 0.000000 0.000000 0.000000 -0.201108 0.000000
# 6 0.000000 0.000000 0.000000 0.000000 0.000000 0.055391
#
#
# Mechanical properties :
#
#
# Convention : Reuss Voigt Hill
#
# Bulk Modulus (GPa) = 81.86489 84.68204 83.27347
# Shear Modulus (GPa) = 30.20742 16.27181 23.23961
#
# Velocity S-wave (km/s) = 4.08963 3.00155 3.58709
# Velocity P-wave (km/s) = 8.22354 7.67455 7.95378
#
# Compressibility (1/GPa) = 0.01221525
#
# Stress axis : x y z
#
# Youngs Moduli (GPa) = 75.13938 99.63527 72.42956
#
# Poissons Ratio (x) = 0.48270 0.43265
# Poissons Ratio (y) = 0.36403 0.11952
# Poissons Ratio (z) = 0.44883 0.16442
#
# Static dielectric constant tensor:
#      x y z
#    x 3.395990 0.000000 0.000000 
#    y 0.000000 3.245510 0.000000 
#    z 0.000000 0.000000 3.329960 
# 
# 
# High freq. dielectric constant tensor:
#      x y z
#    x 1.701540 0.000000 0.000000 
#    y 0.000000 1.687960 0.000000 
#    z 0.000000 0.000000 1.703790 
# 
# From -- ./inp_files/6950.got.cif
#   From: 2010.03.12/outbox.cif.g09.slc.cpg/sg35_4_cif.got.tgz:6950.got - 2010.04.14 02:02:04.
