data_PCOD8172700
_publ_section_title
;
Structure prediction by ZEFSAII (Michael W. Deem and Ramdas Pophale) SiO2 
 PCOD8172700
Probable space group: C M M 2
;
_chemical_formula_sum "Si O2"
_cell_formula_units_Z 56
_cell_length_a 8.865817
_cell_length_b 18.878492
_cell_length_c 18.191548
_cell_angle_alpha 90.000000
_cell_angle_beta 90.000000
_cell_angle_gamma 90.000000
_cell_volume 3044.778608
_symmetry_space_group_name_H-M "C M M 2"
_symmetry_group_IT_number 35
_symmetry_cell_setting 'orthorhombic'
loop_
_space_group_symop_operation_xyz
x,y,z
-x,-y,z
-x,y,z
x,-y,z
1/2+x,1/2+y,z
1/2-x,1/2-y,z
1/2-x,1/2+y,z
1/2+x,1/2-y,z
loop_
_atom_site_type_symbol
_atom_site_label
_atom_site_fract_x
_atom_site_fract_y
_atom_site_fract_z
Si Si1 0.177890 0.826953 0.690720
Si Si2 0.822576 0.826896 0.008670
Si Si3 0.674795 0.324583 0.849212
Si Si4 0.675335 0.081355 0.132313
Si Si5 0.177879 0.675738 0.270371
Si Si6 0.179042 0.079118 0.558037
Si Si7 0.179423 0.174930 0.423111
O O1 0.250000 0.750000 0.681199
O O2 0.215313 0.862847 0.771434
O O3 0.243992 0.879295 0.628860
O O4 0.000000 0.817272 0.680345
O O5 0.750000 0.750000 0.021740
O O6 0.766822 0.883245 0.067010
O O7 0.000000 0.817081 0.017824
O O8 0.778630 0.859744 0.927488
O O9 0.500000 0.309614 0.851940
O O10 0.750000 0.250000 0.844709
O O11 0.500000 0.089803 0.114276
O O12 0.716227 0.117870 0.209194
O O13 0.724443 0.000000 0.138434
O O14 0.250000 0.750000 0.245231
O O15 0.253249 0.648862 0.345681
O O16 0.000000 0.686046 0.281980
O O17 0.230015 0.118330 0.483888
O O18 0.000000 0.075877 0.562670
O O19 0.247348 0.000000 0.557484
O O20 0.250000 0.250000 0.445651
O O21 0.000000 0.182357 0.417202
#
# Coordination Sequence:
#
# PCOD8172700 Si02
#       7
#     8   8   8   8   8   8   8
#     4   9  16  29  50  72  96 127 162 201 242 284
#     4  10  19  32  52  77 103 131 167 209 251 296
#     4   8  15  27  45  72  99 124 159 201 244 286
#     4  10  22  38  53  72 101 135 168 203 247 298
#     4  10  20  35  55  76  98 125 160 201 244 292
#     4   9  18  31  47  70  99 130 163 197 236 284
#     4  10  19  32  52  75  98 124 158 200 242 286
#
# _framework density 18.392140000000001
#
# number of rings (size 3 to 8) (size 9 to 14) (size 15 to 20)
#    0.000    2.571    0.000    3.000    0.000    3.714 
#    0.000    1.429    0.000    6.000    0.000    0.000 
#    0.000    0.000    0.000    0.000    0.000    0.000 
#
# Total GULP energy -346965.204284 kJ/mol
# GULP energy per Si atom -12391.614439 kJ/mol
# Density = 1.835028 g / cm^3
# Si number density = 18.392140 Si / 1000 Ang^3
#
#
#
# Elastic Constant Matrix: (Units=GPa)
#
#
# Indices 1 2 3 4 5 6 
#
# 1 53.4192 38.4945 55.4600 0.0000 0.0000 0.0000
# 2 38.4945 124.9695 102.4886 0.0000 0.0000 0.0000
# 3 55.4600 102.4886 182.0291 0.0000 0.0000 0.0000
# 4 0.0000 0.0000 0.0000 4.0135 0.0000 0.0000
# 5 0.0000 0.0000 0.0000 0.0000 29.2861 0.0000
# 6 0.0000 0.0000 0.0000 0.0000 0.0000 19.6326
#
#
#
# Elastic Compliance Matrix: (Units=1/GPa)
#
#
# Indices 1 2 3 4 5 6 
#
# 1 0.027983 -0.003024 -0.006823 0.000000 0.000000 0.000000
# 2 -0.003024 0.015193 -0.007633 0.000000 0.000000 0.000000
# 3 -0.006823 -0.007633 0.011870 0.000000 0.000000 0.000000
# 4 0.000000 0.000000 0.000000 0.249158 0.000000 0.000000
# 5 0.000000 0.000000 0.000000 0.000000 0.034146 0.000000
# 6 0.000000 0.000000 0.000000 0.000000 0.000000 0.050936
#
#
# Mechanical properties :
#
#
# Convention : Reuss Voigt Hill
#
# Bulk Modulus (GPa) = 49.78571 83.70045 66.74308
# Shear Modulus (GPa) = 11.60252 21.51810 16.56031
#
# Velocity S-wave (km/s) = 2.51438 3.42418 3.00392
# Velocity P-wave (km/s) = 5.96299 7.82566 6.95695
#
# Compressibility (1/GPa) = 0.02008609
#
# Stress axis : x y z
#
# Youngs Moduli (GPa) = 35.73641 65.81823 84.24466
#
# Poissons Ratio (x) = 0.19902 0.57482
# Poissons Ratio (y) = 0.10806 0.64305
# Poissons Ratio (z) = 0.24384 0.50240
#
# Static dielectric constant tensor:
#      x y z
#    x 3.291180 0.000000 0.000000 
#    y 0.000000 3.232650 0.000000 
#    z 0.000000 0.000000 4.042230 
# 
# 
# High freq. dielectric constant tensor:
#      x y z
#    x 1.703910 0.000000 0.000000 
#    y 0.000000 1.685010 0.000000 
#    z 0.000000 0.000000 1.740180 
# 
# From -- ./inp_files/18221.got.cif
#   From: 2010.03.12/outbox.cif.g09.slc.cpg/sg35_10_cif.got.tgz:18221.got - 2010.04.14 02:02:04.
