data_PCOD8172490
_publ_section_title
;
Structure prediction by ZEFSAII (Michael W. Deem and Ramdas Pophale) SiO2 
 PCOD8172490
Probable space group: C M M 2
;
_chemical_formula_sum "Si O2"
_cell_formula_units_Z 56
_cell_length_a 30.479710
_cell_length_b 9.199725
_cell_length_c 12.742509
_cell_angle_alpha 90.000000
_cell_angle_beta 90.000000
_cell_angle_gamma 90.000000
_cell_volume 3573.062600
_symmetry_space_group_name_H-M "C M M 2"
_symmetry_group_IT_number 35
_symmetry_cell_setting 'orthorhombic'
loop_
_space_group_symop_operation_xyz
x,y,z
-x,-y,z
-x,y,z
x,-y,z
1/2+x,1/2+y,z
1/2-x,1/2-y,z
1/2-x,1/2+y,z
1/2+x,1/2-y,z
loop_
_atom_site_type_symbol
_atom_site_label
_atom_site_fract_x
_atom_site_fract_y
_atom_site_fract_z
Si Si1 0.552197 0.661203 0.727750
Si Si2 0.549721 0.830474 0.928808
Si Si3 0.289595 0.658731 0.336391
Si Si4 0.048814 0.826829 0.499190
Si Si5 0.208154 0.164279 0.087742
Si Si6 0.880342 0.672770 0.104332
Si Si7 0.114468 0.173951 0.321058
O O1 0.500000 0.655179 0.726820
O O2 0.571658 0.500000 0.744671
O O3 0.569252 0.759876 0.822855
O O4 0.566771 0.724703 0.613600
O O5 0.500000 0.776048 0.952826
O O6 0.550022 0.000000 0.908278
O O7 0.580559 0.787757 0.025234
O O8 0.284275 0.500000 0.385582
O O9 0.250000 0.750000 0.386642
O O10 0.285735 0.653633 0.211609
O O11 0.337615 0.720828 0.364774
O O12 0.079981 0.770095 0.406819
O O13 0.000000 0.765118 0.477596
O O14 0.047619 0.000000 0.499949
O O15 0.250000 0.250000 0.039102
O O16 0.164137 0.253905 0.061011
O O17 0.205448 0.000000 0.041087
O O18 0.873034 0.500000 0.116074
O O19 0.895548 0.741710 0.214050
O O20 0.112863 0.000000 0.300348
#
# Coordination Sequence:
#
# PCOD8172490 Si02
#       7
#     8   8   8   8   8   8   8
#     4   8  14  26  45  65  80  99 136 183 221 254
#     4   9  18  31  44  59  84 117 147 178 218 257
#     4   8  14  23  36  54  76 103 133 164 196 232
#     4   8  14  26  44  64  85 108 135 172 218 261
#     4   9  16  27  43  62  84 110 141 176 214 254
#     4  10  19  29  41  60  88 119 148 177 211 253
#     4   9  17  28  41  60  86 113 140 170 207 255
#
# _framework density 15.672829
#
# number of rings (size 3 to 8) (size 9 to 14) (size 15 to 20)
#    0.000    3.286    0.000    2.571    0.000    5.143 
#    0.000    0.714    0.000    0.857    0.000    1.000 
#    0.000    4.571    0.000    0.000    0.000    0.000 
#
# Total GULP energy -346971.321748 kJ/mol
# GULP energy per Si atom -12391.832920 kJ/mol
# Density = 1.563716 g / cm^3
# Si number density = 15.672829 Si / 1000 Ang^3
#
#
#
# Elastic Constant Matrix: (Units=GPa)
#
#
# Indices 1 2 3 4 5 6 
#
# 1 106.9323 44.4494 66.7164 0.0000 0.0000 0.0000
# 2 44.4494 60.3629 43.4756 0.0000 0.0000 0.0000
# 3 66.7164 43.4756 94.3276 0.0000 0.0000 0.0000
# 4 0.0000 0.0000 0.0000 15.2865 0.0000 0.0000
# 5 0.0000 0.0000 0.0000 0.0000 1.6255 0.0000
# 6 0.0000 0.0000 0.0000 0.0000 0.0000 21.3581
#
#
#
# Elastic Compliance Matrix: (Units=1/GPa)
#
#
# Indices 1 2 3 4 5 6 
#
# 1 0.018152 -0.006167 -0.009996 0.000000 0.000000 0.000000
# 2 -0.006167 0.026894 -0.008034 0.000000 0.000000 0.000000
# 3 -0.009996 -0.008034 0.021374 0.000000 0.000000 0.000000
# 4 0.000000 0.000000 0.000000 0.065417 0.000000 0.000000
# 5 0.000000 0.000000 0.000000 0.000000 0.615213 0.000000
# 6 0.000000 0.000000 0.000000 0.000000 0.000000 0.046821
#
#
# Mechanical properties :
#
#
# Convention : Reuss Voigt Hill
#
# Bulk Modulus (GPa) = 55.47414 63.43397 59.45406
# Shear Modulus (GPa) = 5.89433 14.78610 10.34022
#
# Velocity S-wave (km/s) = 1.94140 3.07485 2.57136
# Velocity P-wave (km/s) = 6.36375 7.29164 6.84344
#
# Compressibility (1/GPa) = 0.01802642
#
# Stress axis : x y z
#
# Youngs Moduli (GPa) = 55.09059 37.18350 46.78535
#
# Poissons Ratio (x) = 0.22931 0.46768
# Poissons Ratio (y) = 0.33974 0.37585
# Poissons Ratio (z) = 0.55070 0.29872
#
# Static dielectric constant tensor:
#      x y z
#    x 3.133630 0.000000 0.000000 
#    y 0.000000 3.039400 0.000000 
#    z 0.000000 0.000000 2.872740 
# 
# 
# High freq. dielectric constant tensor:
#      x y z
#    x 1.593990 0.000000 0.000000 
#    y 0.000000 1.593790 0.000000 
#    z 0.000000 0.000000 1.566680 
# 
# From -- ./inp_files/16037.got.cif
#   From: 2010.03.12/outbox.cif.g09.slc.cpg/sg35_9_cif.got.tgz:16037.got - 2010.04.14 02:02:04.
