data_PCOD8172619
_publ_section_title
;
Structure prediction by ZEFSAII (Michael W. Deem and Ramdas Pophale) SiO2 
 PCOD8172619
Probable space group: C M M 2
;
_chemical_formula_sum "Si O2"
_cell_formula_units_Z 40
_cell_length_a 19.027896
_cell_length_b 7.772050
_cell_length_c 14.361507
_cell_angle_alpha 90.000000
_cell_angle_beta 90.000000
_cell_angle_gamma 90.000000
_cell_volume 2123.862365
_symmetry_space_group_name_H-M "C M M 2"
_symmetry_group_IT_number 35
_symmetry_cell_setting 'orthorhombic'
loop_
_space_group_symop_operation_xyz
x,y,z
-x,-y,z
-x,y,z
x,-y,z
1/2+x,1/2+y,z
1/2-x,1/2-y,z
1/2-x,1/2+y,z
1/2+x,1/2-y,z
loop_
_atom_site_type_symbol
_atom_site_label
_atom_site_fract_x
_atom_site_fract_y
_atom_site_fract_z
Si Si1 0.084168 0.500000 0.523490
Si Si2 0.577176 0.805321 0.995194
Si Si3 0.416564 0.000000 0.310052
Si Si4 0.329471 0.702735 0.619377
Si Si5 0.083481 0.811470 0.188756
Si Si6 0.827403 0.198335 0.834412
O O1 0.107656 0.500000 0.416349
O O2 0.115584 0.675832 0.566075
O O3 0.000000 0.500000 0.537279
O O4 0.500000 0.728062 0.973628
O O5 0.612867 0.707619 0.082999
O O6 0.570626 0.000000 0.028957
O O7 0.620333 0.800446 0.900267
O O8 0.385212 0.169451 0.259163
O O9 0.500000 0.000000 0.304873
O O10 0.343991 0.500000 0.598877
O O11 0.250000 0.750000 0.589591
O O12 0.340727 0.747960 0.727559
O O13 0.000000 0.788755 0.183167
O O14 0.104727 0.000000 0.226845
O O15 0.750000 0.250000 0.865070
O O16 0.840609 0.000000 0.852140
#
# Coordination Sequence:
#
# PCOD8172619 Si02
#       6
#     4   8   4   8   8   8
#     4  11  24  38  61  95 124 148 195 266 311 337
#     4  10  19  31  51  81 114 148 186 229 277 330
#     4   9  18  34  51  79 115 146 185 236 294 347
#     4  10  21  40  64  86 114 161 208 238 290 372
#     4   9  16  29  51  76 107 148 188 224 276 347
#     4  10  21  35  54  80 109 147 194 230 272 341
#
# _framework density 18.833613
#
# number of rings (size 3 to 8) (size 9 to 14) (size 15 to 20)
#    0.000    2.200    2.000    1.200    2.800    3.200 
#    0.000    4.000    0.000    1.200    0.000    0.000 
#    0.000    0.000    0.000    0.000    0.000    0.000 
#
# Total GULP energy -247919.767402 kJ/mol
# GULP energy per Si atom -12395.988370 kJ/mol
# Density = 1.879075 g / cm^3
# Si number density = 18.833613 Si / 1000 Ang^3
#
#
#
# Elastic Constant Matrix: (Units=GPa)
#
#
# Indices 1 2 3 4 5 6 
#
# 1 72.3327 37.6899 54.3330 0.0000 0.0000 0.0000
# 2 37.6899 129.4935 59.4892 0.0000 0.0000 0.0000
# 3 54.3330 59.4892 118.9359 0.0000 0.0000 0.0000
# 4 0.0000 0.0000 0.0000 26.9355 0.0000 0.0000
# 5 0.0000 0.0000 0.0000 0.0000 1.3893 0.0000
# 6 0.0000 0.0000 0.0000 0.0000 0.0000 25.0699
#
#
#
# Elastic Compliance Matrix: (Units=1/GPa)
#
#
# Indices 1 2 3 4 5 6 
#
# 1 0.021550 -0.002272 -0.008708 0.000000 0.000000 0.000000
# 2 -0.002272 0.010266 -0.004097 0.000000 0.000000 0.000000
# 3 -0.008708 -0.004097 0.014435 0.000000 0.000000 0.000000
# 4 0.000000 0.000000 0.000000 0.037126 0.000000 0.000000
# 5 0.000000 0.000000 0.000000 0.000000 0.719796 0.000000
# 6 0.000000 0.000000 0.000000 0.000000 0.000000 0.039889
#
#
# Mechanical properties :
#
#
# Convention : Reuss Voigt Hill
#
# Bulk Modulus (GPa) = 62.12301 69.30958 65.71630
# Shear Modulus (GPa) = 5.69100 21.96227 13.82664
#
# Velocity S-wave (km/s) = 1.74020 3.41856 2.71245
# Velocity P-wave (km/s) = 6.09053 7.24313 6.69169
#
# Compressibility (1/GPa) = 0.01609709
#
# Stress axis : x y z
#
# Youngs Moduli (GPa) = 46.40374 97.41178 69.27469
#
# Poissons Ratio (x) = 0.22129 0.60327
# Poissons Ratio (y) = 0.10541 0.28381
# Poissons Ratio (z) = 0.40410 0.39909
#
# Static dielectric constant tensor:
#      x y z
#    x 3.083430 0.000000 0.000000 
#    y 0.000000 3.619780 0.000000 
#    z 0.000000 0.000000 3.463860 
# 
# 
# High freq. dielectric constant tensor:
#      x y z
#    x 1.689310 0.000000 0.000000 
#    y 0.000000 1.751220 0.000000 
#    z 0.000000 0.000000 1.730240 
# 
# From -- ./inp_files/11223.got.cif
#   From: 2010.03.12/outbox.cif.g09.slc.cpg/sg35_6_cif.got.tgz:11223.got - 2010.04.14 02:02:04.
