data_PCOD8172352
_publ_section_title
;
Structure prediction by ZEFSAII (Michael W. Deem and Ramdas Pophale) SiO2 
 PCOD8172352
Probable space group: C M M 2
;
_chemical_formula_sum "Si O2"
_cell_formula_units_Z 48
_cell_length_a 18.360704
_cell_length_b 15.945804
_cell_length_c 9.228135
_cell_angle_alpha 90.000000
_cell_angle_beta 90.000000
_cell_angle_gamma 90.000000
_cell_volume 2701.778181
_symmetry_space_group_name_H-M "C M M 2"
_symmetry_group_IT_number 35
_symmetry_cell_setting 'orthorhombic'
loop_
_space_group_symop_operation_xyz
x,y,z
-x,-y,z
-x,y,z
x,-y,z
1/2+x,1/2+y,z
1/2-x,1/2-y,z
1/2-x,1/2+y,z
1/2+x,1/2-y,z
loop_
_atom_site_type_symbol
_atom_site_label
_atom_site_fract_x
_atom_site_fract_y
_atom_site_fract_z
Si Si1 0.581810 0.231517 0.835250
Si Si2 0.668093 0.096337 0.004057
Si Si3 0.082849 0.745897 0.499539
Si Si4 0.211196 0.163008 0.810175
Si Si5 0.324719 0.594075 0.509083
Si Si6 0.705400 0.832479 0.308935
O O1 0.500000 0.254502 0.880922
O O2 0.588204 0.213406 0.664099
O O3 0.631806 0.312125 0.874205
O O4 0.606319 0.149489 0.922745
O O5 0.673504 0.120490 0.171050
O O6 0.645618 0.000000 0.989097
O O7 0.746876 0.112787 0.933755
O O8 0.108449 0.842398 0.485199
O O9 0.135305 0.687673 0.406145
O O10 0.000000 0.739680 0.442296
O O11 0.250000 0.250000 0.764435
O O12 0.207467 0.105113 0.669691
O O13 0.354895 0.500000 0.490904
O O14 0.259470 0.607246 0.395998
O O15 0.750000 0.750000 0.261264
#
# Coordination Sequence:
#
# PCOD8172352 Si02
#       6
#     8   8   8   8   8   8
#     4   9  18  34  53  72  97 129 164 198 237 291
#     4  11  21  32  50  75 101 126 160 208 249 282
#     4   9  19  35  53  72  97 131 166 197 236 291
#     4   9  17  32  51  73  97 130 167 195 235 291
#     4  10  18  30  52  78 102 125 156 202 246 285
#     4  10  19  33  51  72  98 131 167 198 237 290
#
# _framework density 17.766076999999999
#
# number of rings (size 3 to 8) (size 9 to 14) (size 15 to 20)
#    0.000    2.333    0.000    6.000    0.000    1.333 
#    0.000    0.833    0.000    5.000    0.000    0.000 
#    0.000    0.000    0.000    0.000    0.000    0.000 
#
# Total GULP energy -297596.668191 kJ/mol
# GULP energy per Si atom -12399.861175 kJ/mol
# Density = 1.772564 g / cm^3
# Si number density = 17.766077 Si / 1000 Ang^3
#
#
#
# Elastic Constant Matrix: (Units=GPa)
#
#
# Indices 1 2 3 4 5 6 
#
# 1 113.2596 15.8448 31.2321 0.0000 0.0000 0.0000
# 2 15.8448 77.2179 29.3525 0.0000 0.0000 0.0000
# 3 31.2321 29.3525 72.4810 0.0000 0.0000 0.0000
# 4 0.0000 0.0000 0.0000 18.4801 0.0000 0.0000
# 5 0.0000 0.0000 0.0000 0.0000 12.1220 0.0000
# 6 0.0000 0.0000 0.0000 0.0000 0.0000 14.1637
#
#
#
# Elastic Compliance Matrix: (Units=1/GPa)
#
#
# Indices 1 2 3 4 5 6 
#
# 1 0.010036 -0.000491 -0.004125 0.000000 0.000000 0.000000
# 2 -0.000491 0.015331 -0.005997 0.000000 0.000000 0.000000
# 3 -0.004125 -0.005997 0.018003 0.000000 0.000000 0.000000
# 4 0.000000 0.000000 0.000000 0.054112 0.000000 0.000000
# 5 0.000000 0.000000 0.000000 0.000000 0.082494 0.000000
# 6 0.000000 0.000000 0.000000 0.000000 0.000000 0.070603
#
#
# Mechanical properties :
#
#
# Convention : Reuss Voigt Hill
#
# Bulk Modulus (GPa) = 45.16213 46.20190 45.68201
# Shear Modulus (GPa) = 17.90919 21.38846 19.64883
#
# Velocity S-wave (km/s) = 3.17843 3.47348 3.32923
# Velocity P-wave (km/s) = 6.24064 6.49222 6.36767
#
# Compressibility (1/GPa) = 0.02214245
#
# Stress axis : x y z
#
# Youngs Moduli (GPa) = 99.64530 65.22863 55.54656
#
# Poissons Ratio (x) = 0.03203 0.22916
# Poissons Ratio (y) = 0.04893 0.33310
# Poissons Ratio (z) = 0.41108 0.39117
#
# Static dielectric constant tensor:
#      x y z
#    x 3.479120 0.000000 0.000000 
#    y 0.000000 3.143050 0.000000 
#    z 0.000000 0.000000 3.213990 
# 
# 
# High freq. dielectric constant tensor:
#      x y z
#    x 1.686210 0.000000 0.000000 
#    y 0.000000 1.672440 0.000000 
#    z 0.000000 0.000000 1.686260 
# 
# From -- ./inp_files/7329.got.cif
#   From: 2010.03.12/outbox.cif.g09.slc.cpg/sg35_4_cif.got.tgz:7329.got - 2010.04.14 02:02:04.
