data_PCOD8172212
_publ_section_title
;
Structure prediction by ZEFSAII (Michael W. Deem and Ramdas Pophale) SiO2 
 PCOD8172212
Probable space group: C M M 2
;
_chemical_formula_sum "Si O2"
_cell_formula_units_Z 64
_cell_length_a 23.349241
_cell_length_b 15.001769
_cell_length_c 9.739255
_cell_angle_alpha 90.000000
_cell_angle_beta 90.000000
_cell_angle_gamma 90.000000
_cell_volume 3411.465460
_symmetry_space_group_name_H-M "C M M 2"
_symmetry_group_IT_number 35
_symmetry_cell_setting 'orthorhombic'
loop_
_space_group_symop_operation_xyz
x,y,z
-x,-y,z
-x,y,z
x,-y,z
1/2+x,1/2+y,z
1/2-x,1/2-y,z
1/2-x,1/2+y,z
1/2+x,1/2-y,z
loop_
_atom_site_type_symbol
_atom_site_label
_atom_site_fract_x
_atom_site_fract_y
_atom_site_fract_z
Si Si1 0.565038 0.101628 0.792340
Si Si2 0.866898 0.096539 0.361187
Si Si3 0.339666 0.598046 0.041920
Si Si4 0.610364 0.780392 0.027086
Si Si5 0.371062 0.899716 0.523806
Si Si6 0.285358 0.897742 0.115019
Si Si7 0.066193 0.732928 0.330148
Si Si8 0.754506 0.648299 0.421843
O O1 0.500000 0.106263 0.739103
O O2 0.606479 0.135204 0.670495
O O3 0.580371 0.000000 0.837658
O O4 0.570877 0.169729 0.918031
O O5 0.850227 0.102945 0.203293
O O6 0.912477 0.173298 0.394662
O O7 0.807719 0.104904 0.446841
O O8 0.894315 0.000000 0.395827
O O9 0.359580 0.500000 0.985344
O O10 0.373770 0.680276 0.972455
O O11 0.271524 0.608927 0.021381
O O12 0.667895 0.836925 0.042640
O O13 0.574865 0.772645 0.167346
O O14 0.396941 0.844381 0.398546
O O15 0.301903 0.896481 0.520421
O O16 0.392974 0.000000 0.503495
O O17 0.275067 0.859691 0.265777
O O18 0.306472 0.000000 0.125487
O O19 0.000000 0.721521 0.366998
O O20 0.750000 0.750000 0.464240
#
# Coordination Sequence:
#
# PCOD8172212 Si02
#       8
#     8   8   8   8   8   8   8   8
#     4  10  23  41  56  73 106 150 185 219 279 346
#     4   9  17  31  52  80 115 147 176 220 277 328
#     4   8  16  29  49  79 113 144 175 218 278 334
#     4  11  19  33  55  81 109 142 185 234 272 316
#     4  11  22  38  58  80 108 144 183 226 276 337
#     4  10  17  27  49  83 117 146 175 219 279 337
#     4  11  22  34  54  84 112 143 188 232 267 315
#     4  11  17  31  54  85 113 140 177 228 281 328
#
# _framework density 18.760266999999999
#
# number of rings (size 3 to 8) (size 9 to 14) (size 15 to 20)
#    0.000    1.875    2.500    4.875    0.000    1.500 
#    0.000    1.250    0.000    1.875    0.000    0.000 
#    0.000    0.000    0.000    0.000    0.000    0.000 
#
# Total GULP energy -396717.596655 kJ/mol
# GULP energy per Si atom -12397.424895 kJ/mol
# Density = 1.871757 g / cm^3
# Si number density = 18.760267 Si / 1000 Ang^3
#
#
#
# Elastic Constant Matrix: (Units=GPa)
#
#
# Indices 1 2 3 4 5 6 
#
# 1 67.4090 26.4714 18.6679 0.0000 0.0000 0.0000
# 2 26.4714 111.6112 22.7533 0.0000 0.0000 0.0000
# 3 18.6679 22.7533 51.2212 0.0000 0.0000 0.0000
# 4 0.0000 0.0000 0.0000 9.3171 0.0000 0.0000
# 5 0.0000 0.0000 0.0000 0.0000 19.3643 0.0000
# 6 0.0000 0.0000 0.0000 0.0000 0.0000 24.9611
#
#
#
# Elastic Compliance Matrix: (Units=1/GPa)
#
#
# Indices 1 2 3 4 5 6 
#
# 1 0.017437 -0.003123 -0.004968 0.000000 0.000000 0.000000
# 2 -0.003123 0.010411 -0.003487 0.000000 0.000000 0.000000
# 3 -0.004968 -0.003487 0.022883 0.000000 0.000000 0.000000
# 4 0.000000 0.000000 0.000000 0.107330 0.000000 0.000000
# 5 0.000000 0.000000 0.000000 0.000000 0.051641 0.000000
# 6 0.000000 0.000000 0.000000 0.000000 0.000000 0.040062
#
#
# Mechanical properties :
#
#
# Convention : Reuss Voigt Hill
#
# Bulk Modulus (GPa) = 36.26340 40.66963 38.46652
# Shear Modulus (GPa) = 17.72356 21.55175 19.63765
#
# Velocity S-wave (km/s) = 3.07700 3.39307 3.23889
# Velocity P-wave (km/s) = 5.65648 6.08902 5.87673
#
# Compressibility (1/GPa) = 0.02757601
#
# Stress axis : x y z
#
# Youngs Moduli (GPa) = 57.34964 96.05098 43.70147
#
# Poissons Ratio (x) = 0.29995 0.21710
# Poissons Ratio (y) = 0.17910 0.15237
# Poissons Ratio (z) = 0.28490 0.33490
#
# Static dielectric constant tensor:
#      x y z
#    x 3.483800 0.000000 0.000000 
#    y 0.000000 3.822230 0.000000 
#    z 0.000000 0.000000 2.954330 
# 
# 
# High freq. dielectric constant tensor:
#      x y z
#    x 1.725060 0.000000 0.000000 
#    y 0.000000 1.746570 0.000000 
#    z 0.000000 0.000000 1.672260 
# 
# From -- ./inp_files/9921.got.cif
#   From: 2010.03.12/outbox.cif.g09.slc.cpg/sg35_5_cif.got.tgz:9921.got - 2010.04.14 02:02:04.
