data_PCOD8172599
_publ_section_title
;
Structure prediction by ZEFSAII (Michael W. Deem and Ramdas Pophale) SiO2 
 PCOD8172599
Probable space group: C M M 2
;
_chemical_formula_sum "Si O2"
_cell_formula_units_Z 48
_cell_length_a 18.788763
_cell_length_b 8.683037
_cell_length_c 15.470759
_cell_angle_alpha 90.000000
_cell_angle_beta 90.000000
_cell_angle_gamma 90.000000
_cell_volume 2523.954147
_symmetry_space_group_name_H-M "C M M 2"
_symmetry_group_IT_number 35
_symmetry_cell_setting 'orthorhombic'
loop_
_space_group_symop_operation_xyz
x,y,z
-x,-y,z
-x,y,z
x,-y,z
1/2+x,1/2+y,z
1/2-x,1/2-y,z
1/2-x,1/2+y,z
1/2+x,1/2-y,z
loop_
_atom_site_type_symbol
_atom_site_label
_atom_site_fract_x
_atom_site_fract_y
_atom_site_fract_z
Si Si1 0.082574 0.178805 0.199880
Si Si2 0.580123 0.183078 0.508172
Si Si3 0.327234 0.816841 0.855261
Si Si4 0.079274 0.317070 0.699033
Si Si5 0.327710 0.818889 0.350787
Si Si6 0.173488 0.819653 0.033542
O O1 0.122496 0.280059 0.270356
O O2 0.116518 0.216940 0.107326
O O3 0.000000 0.226081 0.197328
O O4 0.092489 0.000000 0.223192
O O5 0.500000 0.245443 0.490056
O O6 0.606133 0.236188 0.603783
O O7 0.634905 0.249573 0.437219
O O8 0.578314 0.000000 0.502681
O O9 0.250000 0.750000 0.841025
O O10 0.372767 0.749241 0.775636
O O11 0.326069 0.000000 0.856279
O O12 0.357884 0.756250 0.946309
O O13 0.079556 0.500000 0.703166
O O14 0.000000 0.253708 0.713686
O O15 0.250000 0.750000 0.338259
O O16 0.319160 0.000000 0.357494
O O17 0.250000 0.750000 0.059246
O O18 0.184124 0.000000 0.018276
#
# Coordination Sequence:
#
# PCOD8172599 Si02
#       6
#     8   8   8   8   8   8
#     4  10  22  39  57  78 105 136 169 210 262 314
#     4   8  15  30  51  74 101 133 170 211 254 302
#     4  10  19  31  50  75 102 133 168 208 253 299
#     4   8  15  29  49  73 101 133 169 209 252 298
#     4  11  22  35  54  80 107 138 175 214 257 305
#     4  10  20  35  54  74 100 135 171 208 253 304
#
# _framework density 19.017779000000001
#
# number of rings (size 3 to 8) (size 9 to 14) (size 15 to 20)
#    0.000    2.500    0.000    4.500    0.000    5.000 
#    0.000    0.000    0.000    4.500    0.000    9.333 
#    0.000    0.000    0.000    0.000    0.000    0.000 
#
# Total GULP energy -297537.074146 kJ/mol
# GULP energy per Si atom -12397.378089 kJ/mol
# Density = 1.897449 g / cm^3
# Si number density = 19.017779 Si / 1000 Ang^3
#
#
#
# Elastic Constant Matrix: (Units=GPa)
#
#
# Indices 1 2 3 4 5 6 
#
# 1 117.9082 29.7283 89.2892 0.0000 0.0000 0.0000
# 2 29.7283 53.1796 39.0104 0.0000 0.0000 0.0000
# 3 89.2892 39.0104 162.9996 0.0000 0.0000 0.0000
# 4 0.0000 0.0000 0.0000 4.7649 0.0000 0.0000
# 5 0.0000 0.0000 0.0000 0.0000 45.2687 0.0000
# 6 0.0000 0.0000 0.0000 0.0000 0.0000 9.7962
#
#
#
# Elastic Compliance Matrix: (Units=1/GPa)
#
#
# Indices 1 2 3 4 5 6 
#
# 1 0.014836 -0.002829 -0.007450 0.000000 0.000000 0.000000
# 2 -0.002829 0.023348 -0.004038 0.000000 0.000000 0.000000
# 3 -0.007450 -0.004038 0.011183 0.000000 0.000000 0.000000
# 4 0.000000 0.000000 0.000000 0.209868 0.000000 0.000000
# 5 0.000000 0.000000 0.000000 0.000000 0.022090 0.000000
# 6 0.000000 0.000000 0.000000 0.000000 0.000000 0.102080
#
#
# Mechanical properties :
#
#
# Convention : Reuss Voigt Hill
#
# Bulk Modulus (GPa) = 48.23351 72.23811 60.23581
# Shear Modulus (GPa) = 11.93458 23.70326 17.81892
#
# Velocity S-wave (km/s) = 2.50781 3.53423 3.06430
# Velocity P-wave (km/s) = 5.81402 7.39739 6.65298
#
# Compressibility (1/GPa) = 0.02073248
#
# Stress axis : x y z
#
# Youngs Moduli (GPa) = 67.40303 42.83065 89.42513
#
# Poissons Ratio (x) = 0.12115 0.66623
# Poissons Ratio (y) = 0.19065 0.36113
# Poissons Ratio (z) = 0.50216 0.17296
#
# Static dielectric constant tensor:
#      x y z
#    x 3.619310 0.000000 0.000000 
#    y 0.000000 3.206520 0.000000 
#    z 0.000000 0.000000 3.929540 
# 
# 
# High freq. dielectric constant tensor:
#      x y z
#    x 1.737280 0.000000 0.000000 
#    y 0.000000 1.712520 0.000000 
#    z 0.000000 0.000000 1.757730 
# 
# From -- ./inp_files/15144.got.cif
#   From: 2010.03.12/outbox.cif.g09.slc.cpg/sg35_8_cif.got.tgz:15144.got - 2010.04.14 02:02:04.
