data_PCOD8172674
_publ_section_title
;
Structure prediction by ZEFSAII (Michael W. Deem and Ramdas Pophale) SiO2 
 PCOD8172674
Probable space group: C M M 2
;
_chemical_formula_sum "Si O2"
_cell_formula_units_Z 64
_cell_length_a 9.081851
_cell_length_b 19.130149
_cell_length_c 20.778089
_cell_angle_alpha 90.000000
_cell_angle_beta 90.000000
_cell_angle_gamma 90.000000
_cell_volume 3609.926232
_symmetry_space_group_name_H-M "C M M 2"
_symmetry_group_IT_number 35
_symmetry_cell_setting 'orthorhombic'
loop_
_space_group_symop_operation_xyz
x,y,z
-x,-y,z
-x,y,z
x,-y,z
1/2+x,1/2+y,z
1/2-x,1/2-y,z
1/2-x,1/2+y,z
1/2+x,1/2-y,z
loop_
_atom_site_type_symbol
_atom_site_label
_atom_site_fract_x
_atom_site_fract_y
_atom_site_fract_z
Si Si1 0.174743 0.921562 0.238080
Si Si2 0.826152 0.175523 0.351550
Si Si3 0.326950 0.675828 0.984134
Si Si4 0.831389 0.178315 0.845560
Si Si5 0.829895 0.080245 0.471846
Si Si6 0.830270 0.418226 0.601708
Si Si7 0.326375 0.325101 0.705808
Si Si8 0.325119 0.577659 0.095090
O O1 0.236959 0.866117 0.289513
O O2 0.222587 0.896692 0.166449
O O3 0.000000 0.924368 0.243886
O O4 0.235801 0.000000 0.251826
O O5 0.750000 0.250000 0.356386
O O6 0.783670 0.129844 0.413452
O O7 0.000000 0.186832 0.346490
O O8 0.500000 0.686789 0.994960
O O9 0.250000 0.750000 0.989136
O O10 0.296443 0.638972 0.913533
O O11 0.258314 0.627396 0.039988
O O12 0.750000 0.250000 0.848310
O O13 0.792936 0.141250 0.777323
O O14 0.000000 0.199140 0.844149
O O15 0.731153 0.103024 0.532082
O O16 0.000000 0.090435 0.490780
O O17 0.799464 0.000000 0.451644
O O18 0.808429 0.500000 0.613909
O O19 0.738823 0.378842 0.655566
O O20 0.000000 0.395809 0.605321
O O21 0.500000 0.316266 0.693570
O O22 0.250000 0.250000 0.697988
O O23 0.500000 0.576342 0.090089
O O24 0.262777 0.500000 0.083240
#
# Coordination Sequence:
#
# PCOD8172674 Si02
#       8
#     8   8   8   8   8   8   8   8
#     4   8  14  27  47  68  90 121 161 196 225 266
#     4  10  20  32  48  72  99 123 150 191 237 277
#     4   9  16  27  44  67  93 121 155 193 234 278
#     4   8  15  27  43  65  92 122 156 192 231 277
#     4   9  18  34  54  71  89 121 163 198 229 273
#     4  10  21  36  53  74 100 128 158 195 239 287
#     4  10  19  32  51  73  97 127 163 202 243 287
#     4   8  14  25  43  67  93 121 155 195 233 269
#
# _framework density 17.728895000000001
#
# number of rings (size 3 to 8) (size 9 to 14) (size 15 to 20)
#    0.000    3.000    0.000    1.875    0.000    4.250 
#    0.000    1.875    0.000    3.750    0.000    1.750 
#    0.000    0.000    0.000    0.000    0.000    0.000 
#
# Total GULP energy -396475.539580 kJ/mol
# GULP energy per Si atom -12389.860612 kJ/mol
# Density = 1.768854 g / cm^3
# Si number density = 17.728895 Si / 1000 Ang^3
#
#
#
# Elastic Constant Matrix: (Units=GPa)
#
#
# Indices 1 2 3 4 5 6 
#
# 1 48.1165 33.3165 52.6897 0.0000 0.0000 0.0000
# 2 33.3165 89.8839 89.5338 0.0000 0.0000 0.0000
# 3 52.6897 89.5338 183.7603 0.0000 0.0000 0.0000
# 4 0.0000 0.0000 0.0000 30.9394 0.0000 0.0000
# 5 0.0000 0.0000 0.0000 0.0000 18.8556 0.0000
# 6 0.0000 0.0000 0.0000 0.0000 0.0000 24.1778
#
#
#
# Elastic Compliance Matrix: (Units=1/GPa)
#
#
# Indices 1 2 3 4 5 6 
#
# 1 0.031501 -0.005205 -0.006496 0.000000 0.000000 0.000000
# 2 -0.005205 0.022477 -0.009459 0.000000 0.000000 0.000000
# 3 -0.006496 -0.009459 0.011913 0.000000 0.000000 0.000000
# 4 0.000000 0.000000 0.000000 0.032321 0.000000 0.000000
# 5 0.000000 0.000000 0.000000 0.000000 0.053035 0.000000
# 6 0.000000 0.000000 0.000000 0.000000 0.000000 0.041360
#
#
# Mechanical properties :
#
#
# Convention : Reuss Voigt Hill
#
# Bulk Modulus (GPa) = 42.42657 74.76008 58.59332
# Shear Modulus (GPa) = 20.59442 24.54260 22.56851
#
# Velocity S-wave (km/s) = 3.41197 3.72469 3.57175
# Velocity P-wave (km/s) = 6.28528 7.79473 7.08034
#
# Compressibility (1/GPa) = 0.02357013
#
# Stress axis : x y z
#
# Youngs Moduli (GPa) = 31.74552 44.48983 83.94065
#
# Poissons Ratio (x) = 0.23159 0.54527
# Poissons Ratio (y) = 0.16525 0.79399
# Poissons Ratio (z) = 0.20622 0.42083
#
# Static dielectric constant tensor:
#      x y z
#    x 3.021420 0.000000 0.000000 
#    y 0.000000 3.139890 0.000000 
#    z 0.000000 0.000000 3.905600 
# 
# 
# High freq. dielectric constant tensor:
#      x y z
#    x 1.660110 0.000000 0.000000 
#    y 0.000000 1.662290 0.000000 
#    z 0.000000 0.000000 1.709660 
# 
# From -- ./inp_files/18368.got.cif
#   From: 2010.03.12/outbox.cif.g09.slc.cpg/sg35_10_cif.got.tgz:18368.got - 2010.04.14 02:02:04.
