data_PCOD8172351
_publ_section_title
;
Structure prediction by ZEFSAII (Michael W. Deem and Ramdas Pophale) SiO2 
 PCOD8172351
Probable space group: C M M 2
;
_chemical_formula_sum "Si O2"
_cell_formula_units_Z 56
_cell_length_a 18.499176
_cell_length_b 8.764238
_cell_length_c 18.132405
_cell_angle_alpha 90.000000
_cell_angle_beta 90.000000
_cell_angle_gamma 90.000000
_cell_volume 2939.828242
_symmetry_space_group_name_H-M "C M M 2"
_symmetry_group_IT_number 35
_symmetry_cell_setting 'orthorhombic'
loop_
_space_group_symop_operation_xyz
x,y,z
-x,-y,z
-x,y,z
x,-y,z
1/2+x,1/2+y,z
1/2-x,1/2-y,z
1/2-x,1/2+y,z
1/2+x,1/2-y,z
loop_
_atom_site_type_symbol
_atom_site_label
_atom_site_fract_x
_atom_site_fract_y
_atom_site_fract_z
Si Si1 0.670353 0.680743 0.530960
Si Si2 0.171049 0.819626 0.811089
Si Si3 0.084010 0.678040 0.942432
Si Si4 0.171386 0.677629 0.223549
Si Si5 0.918727 0.181404 0.671308
Si Si6 0.584812 0.673459 0.094057
Si Si7 0.827862 0.676853 0.386100
O O1 0.676044 0.500000 0.530652
O O2 0.750000 0.750000 0.540145
O O3 0.620870 0.740368 0.597752
O O4 0.632486 0.738401 0.454467
O O5 0.250000 0.750000 0.807255
O O6 0.131244 0.772125 0.885391
O O7 0.124841 0.757006 0.742053
O O8 0.178140 0.000000 0.808757
O O9 0.099152 0.500000 0.932384
O O10 0.000000 0.718782 0.929990
O O11 0.109369 0.728006 0.023711
O O12 0.177883 0.500000 0.204374
O O13 0.250000 0.750000 0.217666
O O14 0.119046 0.759324 0.167231
O O15 0.136134 0.700383 0.305525
O O16 0.000000 0.248376 0.673497
O O17 0.921237 0.000000 0.672428
O O18 0.500000 0.684138 0.105286
O O19 0.610412 0.500000 0.082049
O O20 0.821062 0.500000 0.406268
O O21 0.750000 0.750000 0.379960
#
# Coordination Sequence:
#
# PCOD8172351 Si02
#       7
#     8   8   8   8   8   8   8
#     4  10  18  30  52  77 103 135 173 218 263 312
#     4  11  22  37  58  82 110 141 177 221 266 315
#     4  10  21  38  59  82 109 140 176 218 265 318
#     4  10  20  34  54  79 108 142 180 224 271 318
#     4   9  19  35  54  77 105 139 177 216 262 315
#     4  10  21  37  57  81 109 142 180 219 263 318
#     4   9  17  30  49  74 104 137 174 216 263 314
#
# _framework density 19.048731
#
# number of rings (size 3 to 8) (size 9 to 14) (size 15 to 20)
#    0.000    2.143    0.000    4.286    0.000    4.571 
#    0.000    5.714    0.000    7.714    0.000    0.000 
#    0.000    0.000    0.000    0.000    0.000    0.000 
#
# Total GULP energy -347146.274406 kJ/mol
# GULP energy per Si atom -12398.081229 kJ/mol
# Density = 1.900537 g / cm^3
# Si number density = 19.048731 Si / 1000 Ang^3
#
#
#
# Elastic Constant Matrix: (Units=GPa)
#
#
# Indices 1 2 3 4 5 6 
#
# 1 79.3331 40.1551 69.2045 0.0000 0.0000 0.0000
# 2 40.1551 81.6380 41.0188 0.0000 0.0000 0.0000
# 3 69.2045 41.0188 158.5224 0.0000 0.0000 0.0000
# 4 0.0000 0.0000 0.0000 28.3756 0.0000 0.0000
# 5 0.0000 0.0000 0.0000 0.0000 19.5996 0.0000
# 6 0.0000 0.0000 0.0000 0.0000 0.0000 19.1051
#
#
#
# Elastic Compliance Matrix: (Units=1/GPa)
#
#
# Indices 1 2 3 4 5 6 
#
# 1 0.023724 -0.007431 -0.008434 0.000000 0.000000 0.000000
# 2 -0.007431 0.016408 -0.001001 0.000000 0.000000 0.000000
# 3 -0.008434 -0.001001 0.010249 0.000000 0.000000 0.000000
# 4 0.000000 0.000000 0.000000 0.035242 0.000000 0.000000
# 5 0.000000 0.000000 0.000000 0.000000 0.051021 0.000000
# 6 0.000000 0.000000 0.000000 0.000000 0.000000 0.052342
#
#
# Mechanical properties :
#
#
# Convention : Reuss Voigt Hill
#
# Bulk Modulus (GPa) = 60.06969 68.91671 64.49320
# Shear Modulus (GPa) = 21.90413 24.69041 23.29727
#
# Velocity S-wave (km/s) = 3.39470 3.60414 3.50099
# Velocity P-wave (km/s) = 6.85336 7.31967 7.09035
#
# Compressibility (1/GPa) = 0.01664733
#
# Stress axis : x y z
#
# Youngs Moduli (GPa) = 42.15209 60.94758 97.56813
#
# Poissons Ratio (x) = 0.45292 0.82288
# Poissons Ratio (y) = 0.31325 0.09770
# Poissons Ratio (z) = 0.35551 0.06103
#
# Static dielectric constant tensor:
#      x y z
#    x 3.328020 0.000000 0.000000 
#    y 0.000000 3.507690 0.000000 
#    z 0.000000 0.000000 4.050830 
# 
# 
# High freq. dielectric constant tensor:
#      x y z
#    x 1.715970 0.000000 0.000000 
#    y 0.000000 1.743240 0.000000 
#    z 0.000000 0.000000 1.763810 
# 
# From -- ./inp_files/15611.got.cif
#   From: 2010.03.12/outbox.cif.g09.slc.cpg/sg35_8_cif.got.tgz:15611.got - 2010.04.14 02:02:04.
