data_PCOD8172114
_publ_section_title
;
Structure prediction by ZEFSAII (Michael W. Deem and Ramdas Pophale) SiO2 
 PCOD8172114
Probable space group: P N N 2
;
_chemical_formula_sum "Si O2"
_cell_formula_units_Z 20
_cell_length_a 4.962337
_cell_length_b 27.944079
_cell_length_c 5.348015
_cell_angle_alpha 90.000000
_cell_angle_beta 90.000000
_cell_angle_gamma 90.000000
_cell_volume 741.598208
_symmetry_space_group_name_H-M "P N N 2"
_symmetry_group_IT_number 34
_symmetry_cell_setting 'orthorhombic'
loop_
_space_group_symop_operation_xyz
x,y,z
-x,-y,z
1/2-x,1/2+y,1/2+z
1/2+x,1/2-y,1/2+z
loop_
_atom_site_type_symbol
_atom_site_label
_atom_site_fract_x
_atom_site_fract_y
_atom_site_fract_z
Si Si1 0.239675 0.532075 0.401530
Si Si2 0.352848 0.296613 0.456900
Si Si3 0.581051 0.096216 0.591225
Si Si4 0.147992 0.694226 0.158228
Si Si5 0.595878 0.605468 0.615903
O O1 0.500000 0.500000 0.344712
O O2 0.313875 0.576588 0.586077
O O3 0.000000 0.500000 0.522109
O O4 0.137867 0.554412 0.137716
O O5 0.034844 0.302918 0.409818
O O6 0.445671 0.336983 0.661130
O O7 0.534150 0.308161 0.212274
O O8 0.434437 0.242434 0.515351
O O9 0.761256 0.081736 0.354550
O O10 0.432063 0.145815 0.514573
O O11 0.746640 0.099942 0.851767
#
# Coordination Sequence:
#
# PCOD8172114 Si02
#       5
#     4   4   4   4   4
#     4  12  26  56  80 120 154 214 272 342 412 488
#     4  11  23  43  71 114 157 207 261 317 393 478
#     4  11  26  52  79 115 160 206 264 334 400 481
#     4  11  23  43  71 114 157 207 261 317 393 478
#     4  11  26  52  79 115 160 206 264 334 400 481
#
# _framework density 26.968782999999998
#
# number of rings (size 3 to 8) (size 9 to 14) (size 15 to 20)
#    0.000    0.800    4.000    2.400    0.000    4.800 
#    7.200    0.000    0.000    0.000    0.000    0.000 
#    0.000    0.000    0.000    0.000    0.000    0.000 
#
# Total GULP energy -247858.398880 kJ/mol
# GULP energy per Si atom -12392.919944 kJ/mol
# Density = 2.690740 g / cm^3
# Si number density = 26.968783 Si / 1000 Ang^3
#
#
#
# Elastic Constant Matrix: (Units=GPa)
#
#
# Indices 1 2 3 4 5 6 
#
# 1 115.2428 25.8129 19.1996 0.0000 0.0000 0.0000
# 2 25.8129 154.8265 0.9184 0.0000 0.0000 0.0000
# 3 19.1996 0.9184 94.5759 0.0000 0.0000 0.0000
# 4 0.0000 0.0000 0.0000 22.7664 0.0000 0.0000
# 5 0.0000 0.0000 0.0000 0.0000 41.0237 0.0000
# 6 0.0000 0.0000 0.0000 0.0000 0.0000 45.8353
#
#
#
# Elastic Compliance Matrix: (Units=1/GPa)
#
#
# Indices 1 2 3 4 5 6 
#
# 1 0.009337 -0.001545 -0.001880 0.000000 0.000000 0.000000
# 2 -0.001545 0.006715 0.000249 0.000000 0.000000 0.000000
# 3 -0.001880 0.000249 0.010953 0.000000 0.000000 0.000000
# 4 0.000000 0.000000 0.000000 0.043924 0.000000 0.000000
# 5 0.000000 0.000000 0.000000 0.000000 0.024376 0.000000
# 6 0.000000 0.000000 0.000000 0.000000 0.000000 0.021817
#
#
# Mechanical properties :
#
#
# Convention : Reuss Voigt Hill
#
# Bulk Modulus (GPa) = 48.42636 50.72299 49.57467
# Shear Modulus (GPa) = 38.35515 43.17269 40.76392
#
# Velocity S-wave (km/s) = 3.77531 4.00539 3.89205
# Velocity P-wave (km/s) = 6.08271 6.34348 6.21446
#
# Compressibility (1/GPa) = 0.02064991
#
# Stress axis : x y z
#
# Youngs Moduli (GPa) = 107.10331 148.91954 91.30045
#
# Poissons Ratio (x) = 0.23015 0.17168
# Poissons Ratio (y) = 0.16553 -0.02269
# Poissons Ratio (z) = 0.20140 -0.03701
#
# Static dielectric constant tensor:
#      x y z
#    x 4.995740 0.000000 0.000000 
#    y 0.000000 5.865890 0.000000 
#    z 0.000000 0.000000 4.237830 
# 
# 
# High freq. dielectric constant tensor:
#      x y z
#    x 2.093980 0.000000 0.000000 
#    y 0.000000 2.115650 0.000000 
#    z 0.000000 0.000000 2.041130 
# 
# From -- ./inp_files/169.got.cif
#   From: 2010.03.12/outbox.cif.g09.slc.cpg/sg34_1_cif.got.tgz:169.got - 2010.04.14 01:56:33.
