data_PCOD8172020
_publ_section_title
;
Structure prediction by ZEFSAII (Michael W. Deem and Ramdas Pophale) SiO2 
 PCOD8172020
Probable space group: P N N 2
;
_chemical_formula_sum "Si O2"
_cell_formula_units_Z 18
_cell_length_a 9.647993
_cell_length_b 9.439543
_cell_length_c 8.910978
_cell_angle_alpha 90.000000
_cell_angle_beta 90.000000
_cell_angle_gamma 90.000000
_cell_volume 811.546334
_symmetry_space_group_name_H-M "P N N 2"
_symmetry_group_IT_number 34
_symmetry_cell_setting 'orthorhombic'
loop_
_space_group_symop_operation_xyz
x,y,z
-x,-y,z
1/2-x,1/2+y,1/2+z
1/2+x,1/2-y,1/2+z
loop_
_atom_site_type_symbol
_atom_site_label
_atom_site_fract_x
_atom_site_fract_y
_atom_site_fract_z
Si Si1 0.394698 0.622474 0.436830
Si Si2 0.194121 0.158409 0.621414
Si Si3 0.491707 0.221103 0.704850
Si Si4 0.000000 0.000000 0.399464
Si Si5 0.135666 0.437676 0.463068
O O1 0.500000 0.500000 0.478568
O O2 0.410584 0.667063 0.263184
O O3 0.426161 0.750315 0.550051
O O4 0.238420 0.569339 0.454824
O O5 0.353107 0.129119 0.669959
O O6 0.132398 0.044535 0.502866
O O7 0.206234 0.314752 0.555709
O O8 0.456104 0.366267 0.796740
O O9 0.593438 0.122226 0.800109
O O10 0.000000 0.500000 0.545792
#
# Coordination Sequence:
#
# PCOD8172020 Si02
#       5
#     4   4   4   2   4
#     4  12  23  43  67  95 135 175 224 274 333 398
#     4  11  23  41  67  97 131 181 218 274 342 391
#     4  11  23  44  66  98 135 173 220 283 335 390
#     4  10  22  40  68  94 134 176 226 270 336 404
#     4  11  24  43  67  97 135 173 224 281 330 396
#
# _framework density 22.179877000000001
#
# number of rings (size 3 to 8) (size 9 to 14) (size 15 to 20)
#    0.000    0.889    6.667    0.000    0.000    3.556 
#    4.000    0.000    0.000    0.000    0.000    0.000 
#    0.000    0.000    0.000    0.000    0.000    0.000 
#
# Total GULP energy -223128.005142 kJ/mol
# GULP energy per Si atom -12396.000286 kJ/mol
# Density = 2.212939 g / cm^3
# Si number density = 22.179877 Si / 1000 Ang^3
#
#
#
# Elastic Constant Matrix: (Units=GPa)
#
#
# Indices 1 2 3 4 5 6 
#
# 1 116.1620 15.4323 29.6059 0.0000 0.0000 0.0000
# 2 15.4323 57.7172 16.7626 0.0000 0.0000 0.0000
# 3 29.6059 16.7626 109.3227 0.0000 0.0000 0.0000
# 4 0.0000 0.0000 0.0000 -2.6334 0.0000 0.0000
# 5 0.0000 0.0000 0.0000 0.0000 33.1560 0.0000
# 6 0.0000 0.0000 0.0000 0.0000 0.0000 35.7941
#
#
#
# Elastic Compliance Matrix: (Units=1/GPa)
#
#
# Indices 1 2 3 4 5 6 
#
# 1 0.009435 -0.001864 -0.002269 0.000000 0.000000 0.000000
# 2 -0.001864 0.018501 -0.002332 0.000000 0.000000 0.000000
# 3 -0.002269 -0.002332 0.010119 0.000000 0.000000 0.000000
# 4 0.000000 0.000000 0.000000 -0.379733 0.000000 0.000000
# 5 0.000000 0.000000 0.000000 0.000000 0.030160 0.000000
# 6 0.000000 0.000000 0.000000 0.000000 0.000000 0.027938
#
#
# Mechanical properties :
#
#
# Convention : Reuss Voigt Hill
#
# Bulk Modulus (GPa) = 39.80029 45.20040 42.50034
# Shear Modulus (GPa) = -19.06402 28.02340 4.47969
#
# Velocity S-wave (km/s) = -2.93494 3.55838 1.42271
# Velocity P-wave (km/s) = 2.54915 6.10786 4.67996
#
# Compressibility (1/GPa) = 0.02512544
#
# Stress axis : x y z
#
# Youngs Moduli (GPa) = 105.99283 54.04979 98.82034
#
# Poissons Ratio (x) = 0.10072 0.22425
# Poissons Ratio (y) = 0.19752 0.23047
# Poissons Ratio (z) = 0.24053 0.12605
#
# Static dielectric constant tensor:
#      x y z
#    x 4.023230 0.000000 0.000000 
#    y 0.000000 4.282120 0.000000 
#    z 0.000000 0.000000 4.230780 
# 
# 
# High freq. dielectric constant tensor:
#      x y z
#    x 1.872150 0.000000 0.000000 
#    y 0.000000 1.872400 0.000000 
#    z 0.000000 0.000000 1.880980 
# 
# From -- ./inp_files/2405.got.cif
#   From: 2010.03.12/outbox.cif.g09.slc.cpg/sg34_2_cif.got.tgz:2405.got - 2010.04.14 01:56:33.
