data_PCOD8172859
_publ_section_title
;
Structure prediction by ZEFSAII (Michael W. Deem and Ramdas Pophale) SiO2 
 PCOD8172859
Probable space group: C M M 2
;
_chemical_formula_sum "Si O2"
_cell_formula_units_Z 48
_cell_length_a 8.790392
_cell_length_b 15.551793
_cell_length_c 17.000909
_cell_angle_alpha 90.000000
_cell_angle_beta 90.000000
_cell_angle_gamma 90.000000
_cell_volume 2324.132331
_symmetry_space_group_name_H-M "C M M 2"
_symmetry_group_IT_number 35
_symmetry_cell_setting 'orthorhombic'
loop_
_space_group_symop_operation_xyz
x,y,z
-x,-y,z
-x,y,z
x,-y,z
1/2+x,1/2+y,z
1/2-x,1/2-y,z
1/2-x,1/2+y,z
1/2+x,1/2-y,z
loop_
_atom_site_type_symbol
_atom_site_label
_atom_site_fract_x
_atom_site_fract_y
_atom_site_fract_z
Si Si1 0.173601 0.101687 0.907490
Si Si2 0.821020 0.598944 0.578422
Si Si3 0.820315 0.660669 0.061201
Si Si4 0.320604 0.336912 0.425384
Si Si5 0.680941 0.500000 0.150556
Si Si6 0.831354 0.602180 0.751960
Si Si7 0.819564 0.000000 0.330193
O O1 0.217423 0.134109 0.820014
O O2 0.000000 0.127335 0.924642
O O3 0.198570 0.000000 0.915526
O O4 0.281697 0.149099 0.969303
O O5 0.772460 0.500000 0.568381
O O6 0.727813 0.654468 0.516113
O O7 0.776041 0.633227 0.665730
O O8 0.000000 0.610383 0.564047
O O9 0.750000 0.750000 0.092168
O O10 0.746127 0.584474 0.110342
O O11 0.000000 0.660824 0.073486
O O12 0.500000 0.331472 0.419387
O O13 0.250000 0.250000 0.389783
O O14 0.254804 0.415855 0.374106
O O15 0.500000 0.500000 0.141305
O O16 0.735673 0.500000 0.240567
O O17 0.838298 0.500000 0.749513
O O18 0.000000 0.638076 0.770319
O O19 0.000000 0.000000 0.335038
#
# Coordination Sequence:
#
# PCOD8172859 Si02
#       7
#     8   8   8   8   4   8   4
#     4  10  19  33  56  86 122 162 206 253 304 360
#     4   9  17  32  55  84 118 159 204 252 303 355
#     4  12  25  42  65  94 127 165 207 252 306 366
#     4  11  22  39  61  90 123 160 202 247 300 359
#     4  11  23  45  71  96 127 158 197 251 308 373
#     4   8  15  28  49  79 116 157 204 253 302 354
#     4   9  22  43  67  92 123 158 193 243 304 363
#
# _framework density 20.65287
#
# number of rings (size 3 to 8) (size 9 to 14) (size 15 to 20)
#    0.000    2.000    1.667    3.750    0.000    2.000 
#    0.000    7.500    0.000    4.000    0.000    0.000 
#    0.000    0.000    0.000    0.000    0.000    0.000 
#
# Total GULP energy -297624.187353 kJ/mol
# GULP energy per Si atom -12401.007806 kJ/mol
# Density = 2.060586 g / cm^3
# Si number density = 20.652870 Si / 1000 Ang^3
#
#
#
# Elastic Constant Matrix: (Units=GPa)
#
#
# Indices 1 2 3 4 5 6 
#
# 1 100.3881 47.9600 44.3625 0.0000 0.0000 0.0000
# 2 47.9600 127.2297 60.8861 0.0000 0.0000 0.0000
# 3 44.3625 60.8861 138.6890 0.0000 0.0000 0.0000
# 4 0.0000 0.0000 0.0000 2.3447 0.0000 0.0000
# 5 0.0000 0.0000 0.0000 0.0000 25.7580 0.0000
# 6 0.0000 0.0000 0.0000 0.0000 0.0000 29.7871
#
#
#
# Elastic Compliance Matrix: (Units=1/GPa)
#
#
# Indices 1 2 3 4 5 6 
#
# 1 0.012800 -0.003628 -0.002502 0.000000 0.000000 0.000000
# 2 -0.003628 0.010978 -0.003659 0.000000 0.000000 0.000000
# 3 -0.002502 -0.003659 0.009617 0.000000 0.000000 0.000000
# 4 0.000000 0.000000 0.000000 0.426494 0.000000 0.000000
# 5 0.000000 0.000000 0.000000 0.000000 0.038823 0.000000
# 6 0.000000 0.000000 0.000000 0.000000 0.000000 0.033572
#
#
# Mechanical properties :
#
#
# Convention : Reuss Voigt Hill
#
# Bulk Modulus (GPa) = 72.36934 74.74711 73.55822
# Shear Modulus (GPa) = 8.98524 25.78451 17.38488
#
# Velocity S-wave (km/s) = 2.08807 3.53720 2.90447
# Velocity P-wave (km/s) = 6.39768 7.27689 6.85140
#
# Compressibility (1/GPa) = 0.01381801
#
# Stress axis : x y z
#
# Youngs Moduli (GPa) = 78.12461 91.08721 103.98218
#
# Poissons Ratio (x) = 0.33045 0.26013
# Poissons Ratio (y) = 0.28343 0.38050
# Poissons Ratio (z) = 0.19544 0.33331
#
# Static dielectric constant tensor:
#      x y z
#    x 3.606110 0.000000 0.000000 
#    y 0.000000 3.705470 0.000000 
#    z 0.000000 0.000000 3.930690 
# 
# 
# High freq. dielectric constant tensor:
#      x y z
#    x 1.799040 0.000000 0.000000 
#    y 0.000000 1.799600 0.000000 
#    z 0.000000 0.000000 1.809840 
# 
# From -- ./inp_files/17927.got.cif
#   From: 2010.03.12/outbox.cif.g09.slc.cpg/sg35_9_cif.got.tgz:17927.got - 2010.04.14 02:02:04.
