data_PCOD8172272
_publ_section_title
;
Structure prediction by ZEFSAII (Michael W. Deem and Ramdas Pophale) SiO2 
 PCOD8172272
Probable space group: C M M 2
;
_chemical_formula_sum "Si O2"
_cell_formula_units_Z 52
_cell_length_a 8.966992
_cell_length_b 23.417361
_cell_length_c 14.527505
_cell_angle_alpha 90.000000
_cell_angle_beta 90.000000
_cell_angle_gamma 90.000000
_cell_volume 3050.533277
_symmetry_space_group_name_H-M "C M M 2"
_symmetry_group_IT_number 35
_symmetry_cell_setting 'orthorhombic'
loop_
_space_group_symop_operation_xyz
x,y,z
-x,-y,z
-x,y,z
x,-y,z
1/2+x,1/2+y,z
1/2-x,1/2-y,z
1/2-x,1/2+y,z
1/2+x,1/2-y,z
loop_
_atom_site_type_symbol
_atom_site_label
_atom_site_fract_x
_atom_site_fract_y
_atom_site_fract_z
Si Si1 0.825288 0.436727 0.277780
Si Si2 0.676846 0.688560 0.957254
Si Si3 0.679204 0.186830 0.777515
Si Si4 0.250000 0.250000 0.271075
Si Si5 0.665879 0.154780 0.133524
Si Si6 0.664849 0.648898 0.398886
Si Si7 0.823782 0.811051 0.598760
O O1 0.752331 0.500000 0.274936
O O2 0.781813 0.402119 0.186263
O O3 0.773016 0.400504 0.364926
O O4 0.000000 0.442366 0.286752
O O5 0.500000 0.692692 0.942969
O O6 0.750000 0.750000 0.968024
O O7 0.754725 0.656637 0.869771
O O8 0.713526 0.657152 0.052402
O O9 0.500000 0.187646 0.778679
O O10 0.750000 0.250000 0.778040
O O11 0.743409 0.156338 0.685042
O O12 0.344138 0.209164 0.202907
O O13 0.339046 0.292438 0.339077
O O14 0.500000 0.148109 0.091833
O O15 0.500000 0.623521 0.394657
O O16 0.713183 0.657557 0.504111
O O17 0.750000 0.750000 0.589687
O O18 0.000000 0.805437 0.616836
#
# Coordination Sequence:
#
# PCOD8172272 Si02
#       7
#     8   8   8   4   8   8   8
#     4   9  20  37  53  70  95 128 166 206 246 288
#     4  11  20  30  45  66  96 128 161 195 236 285
#     4  10  18  29  44  63  92 128 163 194 232 280
#     4  10  18  30  46  68 100 128 158 194 238 288
#     4  10  19  30  48  70  96 127 160 198 239 287
#     4  10  20  31  48  73  99 130 164 200 242 288
#     4  10  18  29  44  67  98 129 162 195 235 284
#
# _framework density 17.046201
#
# number of rings (size 3 to 8) (size 9 to 14) (size 15 to 20)
#    0.000    2.000    1.538    5.538    0.000    4.615 
#    0.000    0.000    0.000    0.000    0.000    1.077 
#    0.000    6.154    0.000    0.000    0.000    0.000 
#
# Total GULP energy -322106.546513 kJ/mol
# GULP energy per Si atom -12388.713327 kJ/mol
# Density = 1.700740 g / cm^3
# Si number density = 17.046201 Si / 1000 Ang^3
#
#
#
# Elastic Constant Matrix: (Units=GPa)
#
#
# Indices 1 2 3 4 5 6 
#
# 1 102.8529 24.0839 68.4673 0.0000 0.0000 0.0000
# 2 24.0839 81.3212 44.4279 0.0000 0.0000 0.0000
# 3 68.4673 44.4279 147.7056 0.0000 0.0000 0.0000
# 4 0.0000 0.0000 0.0000 15.8745 0.0000 0.0000
# 5 0.0000 0.0000 0.0000 0.0000 30.6017 0.0000
# 6 0.0000 0.0000 0.0000 0.0000 0.0000 13.9376
#
#
#
# Elastic Compliance Matrix: (Units=1/GPa)
#
#
# Indices 1 2 3 4 5 6 
#
# 1 0.014097 -0.000724 -0.006317 0.000000 0.000000 0.000000
# 2 -0.000724 0.014752 -0.004102 0.000000 0.000000 0.000000
# 3 -0.006317 -0.004102 0.010932 0.000000 0.000000 0.000000
# 4 0.000000 0.000000 0.000000 0.062994 0.000000 0.000000
# 5 0.000000 0.000000 0.000000 0.000000 0.032678 0.000000
# 6 0.000000 0.000000 0.000000 0.000000 0.000000 0.071749
#
#
# Mechanical properties :
#
#
# Convention : Reuss Voigt Hill
#
# Bulk Modulus (GPa) = 57.15433 67.31529 62.23481
# Shear Modulus (GPa) = 21.24775 25.07612 23.16194
#
# Velocity S-wave (km/s) = 3.53438 3.83961 3.69015
# Velocity P-wave (km/s) = 7.08926 7.69626 7.39899
#
# Compressibility (1/GPa) = 0.01749649
#
# Stress axis : x y z
#
# Youngs Moduli (GPa) = 70.93644 67.78657 91.47413
#
# Poissons Ratio (x) = 0.04907 0.57783
# Poissons Ratio (y) = 0.05135 0.37520
# Poissons Ratio (z) = 0.44809 0.27804
#
# Static dielectric constant tensor:
#      x y z
#    x 3.173110 0.000000 0.000000 
#    y 0.000000 3.010040 0.000000 
#    z 0.000000 0.000000 4.623020 
# 
# 
# High freq. dielectric constant tensor:
#      x y z
#    x 1.666110 0.000000 0.000000 
#    y 0.000000 1.593600 0.000000 
#    z 0.000000 0.000000 1.679420 
# 
# From -- ./inp_files/15860.got.cif
#   From: 2010.03.12/outbox.cif.g09.slc.cpg/sg35_8_cif.got.tgz:15860.got - 2010.04.14 02:02:04.
