data_PCOD8172227
_publ_section_title
;
Structure prediction by ZEFSAII (Michael W. Deem and Ramdas Pophale) SiO2 
 PCOD8172227
Probable space group: C M M 2
;
_chemical_formula_sum "Si O2"
_cell_formula_units_Z 64
_cell_length_a 17.550434
_cell_length_b 17.742997
_cell_length_c 11.443335
_cell_angle_alpha 90.000000
_cell_angle_beta 90.000000
_cell_angle_gamma 90.000000
_cell_volume 3563.423597
_symmetry_space_group_name_H-M "C M M 2"
_symmetry_group_IT_number 35
_symmetry_cell_setting 'orthorhombic'
loop_
_space_group_symop_operation_xyz
x,y,z
-x,-y,z
-x,y,z
x,-y,z
1/2+x,1/2+y,z
1/2-x,1/2-y,z
1/2-x,1/2+y,z
1/2+x,1/2-y,z
loop_
_atom_site_type_symbol
_atom_site_label
_atom_site_fract_x
_atom_site_fract_y
_atom_site_fract_z
Si Si1 0.584230 0.911240 0.933550
Si Si2 0.684232 0.190083 0.473281
Si Si3 0.269456 0.086723 0.063984
Si Si4 0.587614 0.325419 0.701162
Si Si5 0.296443 0.413993 0.823166
Si Si6 0.587424 0.321825 0.426883
Si Si7 0.154302 0.332910 0.726092
Si Si8 0.717979 0.410240 0.312758
O O1 0.500000 0.889523 0.980117
O O2 0.594222 0.880556 0.801869
O O3 0.595072 0.000000 0.924660
O O4 0.649380 0.877623 0.020393
O O5 0.750000 0.250000 0.509810
O O6 0.619146 0.237142 0.404194
O O7 0.646598 0.151625 0.587405
O O8 0.716477 0.122783 0.395544
O O9 0.237118 0.122358 0.183308
O O10 0.284741 0.000000 0.091397
O O11 0.206260 0.097997 0.963056
O O12 0.500000 0.312909 0.733839
O O13 0.619488 0.397063 0.773279
O O14 0.597519 0.341027 0.563689
O O15 0.636673 0.254845 0.746542
O O16 0.273497 0.500000 0.792959
O O17 0.239298 0.355623 0.762256
O O18 0.500000 0.326440 0.386842
O O19 0.634588 0.381793 0.350596
O O20 0.718740 0.500000 0.320492
#
# Coordination Sequence:
#
# PCOD8172227 Si02
#       8
#     8   8   8   8   8   8   8   8
#     4   9  17  30  50  74 100 131 165 203 247 296
#     4   9  18  32  50  71  98 134 167 197 244 300
#     4   8  17  33  50  70  98 132 167 203 248 296
#     4  10  20  33  50  73 103 136 165 199 248 303
#     4  10  19  32  51  73  99 131 165 204 249 295
#     4   9  19  35  52  71 100 136 166 198 249 305
#     4  10  17  30  50  74 100 126 160 200 244 295
#     4  10  19  33  54  76  97 126 171 217 247 283
#
# _framework density 17.960256000000001
#
# number of rings (size 3 to 8) (size 9 to 14) (size 15 to 20)
#    0.000    2.625    0.000    4.125    0.000    3.500 
#    0.000   10.000    0.000    3.375    0.000    0.000 
#    0.000    0.000    0.000    0.000    0.000    0.000 
#
# Total GULP energy -396595.133443 kJ/mol
# GULP energy per Si atom -12393.597920 kJ/mol
# Density = 1.791938 g / cm^3
# Si number density = 17.960256 Si / 1000 Ang^3
#
#
#
# Elastic Constant Matrix: (Units=GPa)
#
#
# Indices 1 2 3 4 5 6 
#
# 1 121.3735 53.9910 65.3922 0.0000 0.0000 0.0000
# 2 53.9910 64.0181 47.0604 0.0000 0.0000 0.0000
# 3 65.3922 47.0604 91.4677 0.0000 0.0000 0.0000
# 4 0.0000 0.0000 0.0000 15.3930 0.0000 0.0000
# 5 0.0000 0.0000 0.0000 0.0000 23.0329 0.0000
# 6 0.0000 0.0000 0.0000 0.0000 0.0000 25.8067
#
#
#
# Elastic Compliance Matrix: (Units=1/GPa)
#
#
# Indices 1 2 3 4 5 6 
#
# 1 0.015571 -0.007959 -0.007037 0.000000 0.000000 0.000000
# 2 -0.007959 0.029190 -0.009329 0.000000 0.000000 0.000000
# 3 -0.007037 -0.009329 0.020763 0.000000 0.000000 0.000000
# 4 0.000000 0.000000 0.000000 0.064965 0.000000 0.000000
# 5 0.000000 0.000000 0.000000 0.000000 0.043416 0.000000
# 6 0.000000 0.000000 0.000000 0.000000 0.000000 0.038750
#
#
# Mechanical properties :
#
#
# Convention : Reuss Voigt Hill
#
# Bulk Modulus (GPa) = 59.25736 67.74961 63.50348
# Shear Modulus (GPa) = 18.73157 20.20756 19.46957
#
# Velocity S-wave (km/s) = 3.23297 3.35793 3.29604
# Velocity P-wave (km/s) = 6.85575 7.26898 7.06539
#
# Compressibility (1/GPa) = 0.01687554
#
# Stress axis : x y z
#
# Youngs Moduli (GPa) = 64.22308 34.25773 48.16212
#
# Poissons Ratio (x) = 0.27266 0.33891
# Poissons Ratio (y) = 0.51115 0.44928
# Poissons Ratio (z) = 0.45193 0.31957
#
# Static dielectric constant tensor:
#      x y z
#    x 3.464010 0.000000 0.000000 
#    y 0.000000 3.173140 0.000000 
#    z 0.000000 0.000000 3.374420 
# 
# 
# High freq. dielectric constant tensor:
#      x y z
#    x 1.692920 0.000000 0.000000 
#    y 0.000000 1.679930 0.000000 
#    z 0.000000 0.000000 1.683690 
# 
# From -- ./inp_files/13211.got.cif
#   From: 2010.03.12/outbox.cif.g09.slc.cpg/sg35_7_cif.got.tgz:13211.got - 2010.04.14 02:02:04.
