data_PCOD8172764
_publ_section_title
;
Structure prediction by ZEFSAII (Michael W. Deem and Ramdas Pophale) SiO2 
 PCOD8172764
Probable space group: C M M 2
;
_chemical_formula_sum "Si O2"
_cell_formula_units_Z 64
_cell_length_a 29.009576
_cell_length_b 8.830390
_cell_length_c 12.583787
_cell_angle_alpha 90.000000
_cell_angle_beta 90.000000
_cell_angle_gamma 90.000000
_cell_volume 3223.536742
_symmetry_space_group_name_H-M "C M M 2"
_symmetry_group_IT_number 35
_symmetry_cell_setting 'orthorhombic'
loop_
_space_group_symop_operation_xyz
x,y,z
-x,-y,z
-x,y,z
x,-y,z
1/2+x,1/2+y,z
1/2-x,1/2-y,z
1/2-x,1/2+y,z
1/2+x,1/2-y,z
loop_
_atom_site_type_symbol
_atom_site_label
_atom_site_fract_x
_atom_site_fract_y
_atom_site_fract_z
Si Si1 0.183355 0.328639 0.057050
Si Si2 0.891764 0.179122 0.742243
Si Si3 0.296974 0.680559 0.280141
Si Si4 0.295910 0.320994 0.832865
Si Si5 0.889843 0.319040 0.346254
Si Si6 0.419155 0.166760 0.120471
Si Si7 0.949262 0.166625 0.930929
Si Si8 0.554090 0.678989 0.536112
O O1 0.203469 0.500000 0.062679
O O2 0.200581 0.233983 0.158005
O O3 0.128575 0.334376 0.056824
O O4 0.199233 0.247778 0.950048
O O5 0.837909 0.222666 0.753234
O O6 0.917270 0.251822 0.844870
O O7 0.916091 0.240905 0.635939
O O8 0.899429 0.000000 0.743986
O O9 0.296471 0.500000 0.286452
O O10 0.250000 0.750000 0.329544
O O11 0.339284 0.743229 0.351829
O O12 0.291569 0.500000 0.843735
O O13 0.250000 0.250000 0.780253
O O14 0.883401 0.500000 0.345995
O O15 0.913324 0.261091 0.236880
O O16 0.924245 0.266213 0.437206
O O17 0.439704 0.000000 0.134039
O O18 0.453760 0.257893 0.046278
O O19 0.000000 0.159615 0.880507
O O20 0.928651 0.000000 0.950614
O O21 0.500000 0.720992 0.549093
O O22 0.560141 0.500000 0.519883
#
# Coordination Sequence:
#
# PCOD8172764 Si02
#       8
#     8   8   8   8   8   8   8   8
#     4  10  19  33  52  79 116 158 199 238 282 337
#     4   9  19  37  59  83 113 148 190 242 296 347
#     4  11  21  35  57  86 120 158 199 241 289 347
#     4  11  21  34  54  81 114 154 195 238 288 346
#     4  10  22  40  59  84 118 155 197 244 297 351
#     4   9  19  34  52  76 113 153 185 227 281 339
#     4  10  19  32  54  83 112 144 185 231 283 347
#     4  10  21  40  66  90 111 145 198 252 301 357
#
# _framework density 19.85397
#
# number of rings (size 3 to 8) (size 9 to 14) (size 15 to 20)
#    0.000    2.000    1.250    3.750    0.000    5.000 
#    0.000    5.000    0.000    3.000    0.000    0.000 
#    0.000    0.000    0.000    0.000    0.000    0.000 
#
# Total GULP energy -396643.773577 kJ/mol
# GULP energy per Si atom -12395.117924 kJ/mol
# Density = 1.980878 g / cm^3
# Si number density = 19.853970 Si / 1000 Ang^3
#
#
#
# Elastic Constant Matrix: (Units=GPa)
#
#
# Indices 1 2 3 4 5 6 
#
# 1 131.6150 45.1588 65.9976 0.0000 0.0000 0.0000
# 2 45.1588 91.1883 35.1238 0.0000 0.0000 0.0000
# 3 65.9976 35.1238 113.0857 0.0000 0.0000 0.0000
# 4 0.0000 0.0000 0.0000 18.2565 0.0000 0.0000
# 5 0.0000 0.0000 0.0000 0.0000 25.0692 0.0000
# 6 0.0000 0.0000 0.0000 0.0000 0.0000 28.3452
#
#
#
# Elastic Compliance Matrix: (Units=1/GPa)
#
#
# Indices 1 2 3 4 5 6 
#
# 1 0.011693 -0.003592 -0.005708 0.000000 0.000000 0.000000
# 2 -0.003592 0.013560 -0.002115 0.000000 0.000000 0.000000
# 3 -0.005708 -0.002115 0.012831 0.000000 0.000000 0.000000
# 4 0.000000 0.000000 0.000000 0.054775 0.000000 0.000000
# 5 0.000000 0.000000 0.000000 0.000000 0.039890 0.000000
# 6 0.000000 0.000000 0.000000 0.000000 0.000000 0.035279
#
#
# Mechanical properties :
#
#
# Convention : Reuss Voigt Hill
#
# Bulk Modulus (GPa) = 65.56186 69.82770 67.69478
# Shear Modulus (GPa) = 25.51757 26.97477 26.24617
#
# Velocity S-wave (km/s) = 3.58895 3.69000 3.63982
# Velocity P-wave (km/s) = 7.08998 7.30765 7.19964
#
# Compressibility (1/GPa) = 0.01525277
#
# Stress axis : x y z
#
# Youngs Moduli (GPa) = 85.52321 73.74696 77.93424
#
# Poissons Ratio (x) = 0.26488 0.44488
# Poissons Ratio (y) = 0.30718 0.16486
# Poissons Ratio (z) = 0.48820 0.15601
#
# Static dielectric constant tensor:
#      x y z
#    x 3.836780 0.000000 0.000000 
#    y 0.000000 3.513800 0.000000 
#    z 0.000000 0.000000 3.475020 
# 
# 
# High freq. dielectric constant tensor:
#      x y z
#    x 1.786940 0.000000 0.000000 
#    y 0.000000 1.761230 0.000000 
#    z 0.000000 0.000000 1.754190 
# 
# From -- ./inp_files/11859.got.cif
#   From: 2010.03.12/outbox.cif.g09.slc.cpg/sg35_6_cif.got.tgz:11859.got - 2010.04.14 02:02:04.
