data_PCOD8172676
_publ_section_title
;
Structure prediction by ZEFSAII (Michael W. Deem and Ramdas Pophale) SiO2 
 PCOD8172676
Probable space group: C M M 2
;
_chemical_formula_sum "Si O2"
_cell_formula_units_Z 56
_cell_length_a 9.249912
_cell_length_b 18.476506
_cell_length_c 18.108276
_cell_angle_alpha 90.000000
_cell_angle_beta 90.000000
_cell_angle_gamma 90.000000
_cell_volume 3094.814006
_symmetry_space_group_name_H-M "C M M 2"
_symmetry_group_IT_number 35
_symmetry_cell_setting 'orthorhombic'
loop_
_space_group_symop_operation_xyz
x,y,z
-x,-y,z
-x,y,z
x,-y,z
1/2+x,1/2+y,z
1/2-x,1/2-y,z
1/2-x,1/2+y,z
1/2+x,1/2-y,z
loop_
_atom_site_type_symbol
_atom_site_label
_atom_site_fract_x
_atom_site_fract_y
_atom_site_fract_z
Si Si1 0.337274 0.914407 0.443950
Si Si2 0.168934 0.324446 0.742310
Si Si3 0.671287 0.919622 0.608588
Si Si4 0.666042 0.084061 0.886662
Si Si5 0.664023 0.677707 0.166448
Si Si6 0.169022 0.826042 0.326222
Si Si7 0.669791 0.673253 0.005899
O O1 0.500000 0.886469 0.428018
O O2 0.288142 0.891668 0.526602
O O3 0.226366 0.881253 0.386453
O O4 0.331939 0.000000 0.436581
O O5 0.250000 0.250000 0.756042
O O6 0.231698 0.363196 0.668786
O O7 0.201755 0.377005 0.810183
O O8 0.000000 0.307735 0.734432
O O9 0.500000 0.925405 0.616365
O O10 0.736779 0.000000 0.622505
O O11 0.500000 0.096679 0.909858
O O12 0.700790 0.000000 0.875874
O O13 0.768771 0.114969 0.949767
O O14 0.500000 0.702810 0.166584
O O15 0.750000 0.750000 0.166944
O O16 0.697066 0.637200 0.244434
O O17 0.696928 0.638067 0.088275
O O18 0.250000 0.750000 0.333802
O O19 0.000000 0.812901 0.340192
O O20 0.500000 0.685540 0.990556
O O21 0.750000 0.750000 0.996223
#
# Coordination Sequence:
#
# PCOD8172676 Si02
#       7
#     8   8   8   8   8   8   8
#     4   9  18  33  52  74 101 133 169 207 248 296
#     4  10  20  34  53  76 101 129 163 203 246 293
#     4   8  15  31  54  74  94 127 168 204 241 290
#     4  10  21  36  53  74 101 133 169 207 247 293
#     4   8  16  30  48  71  97 128 165 204 247 295
#     4  10  19  32  51  74 101 132 168 209 251 296
#     4  10  19  33  54  77 101 130 166 207 251 298
#
# _framework density 18.094785999999999
#
# number of rings (size 3 to 8) (size 9 to 14) (size 15 to 20)
#    0.000    2.714    0.000    2.571    0.000    5.714 
#    0.000    2.857    0.000    6.429    0.000    0.000 
#    0.000    0.000    0.000    0.000    0.000    0.000 
#
# Total GULP energy -346955.345396 kJ/mol
# GULP energy per Si atom -12391.262336 kJ/mol
# Density = 1.805360 g / cm^3
# Si number density = 18.094786 Si / 1000 Ang^3
#
#
#
# Elastic Constant Matrix: (Units=GPa)
#
#
# Indices 1 2 3 4 5 6 
#
# 1 74.4191 43.5328 67.7970 0.0000 0.0000 0.0000
# 2 43.5328 86.3536 67.7104 0.0000 0.0000 0.0000
# 3 67.7970 67.7104 162.9408 0.0000 0.0000 0.0000
# 4 0.0000 0.0000 0.0000 -15.9853 0.0000 0.0000
# 5 0.0000 0.0000 0.0000 0.0000 25.9474 0.0000
# 6 0.0000 0.0000 0.0000 0.0000 0.0000 26.1351
#
#
#
# Elastic Compliance Matrix: (Units=1/GPa)
#
#
# Indices 1 2 3 4 5 6 
#
# 1 0.023721 -0.006258 -0.007269 0.000000 0.000000 0.000000
# 2 -0.006258 0.018828 -0.005220 0.000000 0.000000 0.000000
# 3 -0.007269 -0.005220 0.011331 0.000000 0.000000 0.000000
# 4 0.000000 0.000000 0.000000 -0.062558 0.000000 0.000000
# 5 0.000000 0.000000 0.000000 0.000000 0.038539 0.000000
# 6 0.000000 0.000000 0.000000 0.000000 0.000000 0.038263
#
#
# Mechanical properties :
#
#
# Convention : Reuss Voigt Hill
#
# Bulk Modulus (GPa) = 61.03223 75.75488 68.39355
# Shear Modulus (GPa) = 45.01195 16.86434 30.93814
#
# Velocity S-wave (km/s) = 4.99296 3.05618 4.13944
# Velocity P-wave (km/s) = 8.18791 7.37632 7.79269
#
# Compressibility (1/GPa) = 0.01638479
#
# Stress axis : x y z
#
# Youngs Moduli (GPa) = 42.15750 53.11100 88.25337
#
# Poissons Ratio (x) = 0.33239 0.64152
# Poissons Ratio (y) = 0.26384 0.46070
# Poissons Ratio (z) = 0.30645 0.27725
#
# Static dielectric constant tensor:
#      x y z
#    x 3.257980 0.000000 0.000000 
#    y 0.000000 3.199550 0.000000 
#    z 0.000000 0.000000 4.052960 
# 
# 
# High freq. dielectric constant tensor:
#      x y z
#    x 1.688890 0.000000 0.000000 
#    y 0.000000 1.673930 0.000000 
#    z 0.000000 0.000000 1.725100 
# 
# From -- ./inp_files/15614.got.cif
#   From: 2010.03.12/outbox.cif.g09.slc.cpg/sg35_8_cif.got.tgz:15614.got - 2010.04.14 02:02:04.
