data_PCOD8172980
_publ_section_title
;
Structure prediction by ZEFSAII (Michael W. Deem and Ramdas Pophale) SiO2 
 PCOD8172980
Probable space group: C M M 2
;
_chemical_formula_sum "Si O2"
_cell_formula_units_Z 64
_cell_length_a 9.243375
_cell_length_b 30.240360
_cell_length_c 15.293691
_cell_angle_alpha 90.000000
_cell_angle_beta 90.000000
_cell_angle_gamma 90.000000
_cell_volume 4274.938200
_symmetry_space_group_name_H-M "C M M 2"
_symmetry_group_IT_number 35
_symmetry_cell_setting 'orthorhombic'
loop_
_space_group_symop_operation_xyz
x,y,z
-x,-y,z
-x,y,z
x,-y,z
1/2+x,1/2+y,z
1/2-x,1/2-y,z
1/2-x,1/2+y,z
1/2+x,1/2-y,z
loop_
_atom_site_type_symbol
_atom_site_label
_atom_site_fract_x
_atom_site_fract_y
_atom_site_fract_z
Si Si1 0.828257 0.386244 0.494190
Si Si2 0.668419 0.447981 0.829964
Si Si3 0.836136 0.447418 0.002100
Si Si4 0.172321 0.610695 0.691111
Si Si5 0.168767 0.551228 0.340201
Si Si6 0.658826 0.790401 0.694506
Si Si7 0.663787 0.552646 0.169308
Si Si8 0.659641 0.790225 0.487005
O O1 0.777355 0.399139 0.591540
O O2 0.775206 0.422861 0.425608
O O3 0.767897 0.337902 0.465228
O O4 0.000000 0.381990 0.496451
O O5 0.500000 0.435690 0.837806
O O6 0.690339 0.500000 0.816092
O O7 0.740157 0.423835 0.748447
O O8 0.749199 0.431346 0.917094
O O9 0.839299 0.500000 0.006244
O O10 0.753262 0.428425 0.086982
O O11 0.000000 0.428725 0.999589
O O12 0.219241 0.660721 0.717893
O O13 0.000000 0.604160 0.702508
O O14 0.199659 0.500000 0.358323
O O15 0.258241 0.568978 0.257481
O O16 0.000000 0.559827 0.321618
O O17 0.500000 0.785622 0.735328
O O18 0.750000 0.750000 0.735733
O O19 0.651116 0.785579 0.590841
O O20 0.500000 0.570993 0.166509
O O21 0.663348 0.500000 0.165963
O O22 0.500000 0.786907 0.445931
O O23 0.750000 0.750000 0.445391
#
# Coordination Sequence:
#
# PCOD8172980 Si02
#       8
#     8   8   8   8   8   8   8   8
#     4   8  15  27  41  57  79 107 139 174 204 230
#     4  10  20  31  41  57  83 112 140 171 207 244
#     4   9  16  27  44  62  77  98 131 168 204 243
#     4   9  17  29  43  59  80 109 145 178 205 238
#     4   9  16  26  40  57  77 105 141 172 196 230
#     4   8  14  24  39  58  78 100 129 167 209 249
#     4   9  16  26  40  58  80 103 126 160 207 247
#     4   8  13  23  38  55  75  98 126 163 206 244
#
# _framework density 14.970977
#
# number of rings (size 3 to 8) (size 9 to 14) (size 15 to 20)
#    0.000    3.250    0.000    2.625    0.000    4.750 
#    0.000    4.375    0.000    1.500    0.000    0.000 
#    0.000    1.000    0.000    6.250    0.000    4.750 
#
# Total GULP energy -396590.305550 kJ/mol
# GULP energy per Si atom -12393.447048 kJ/mol
# Density = 1.493690 g / cm^3
# Si number density = 14.970977 Si / 1000 Ang^3
#
#
#
# Elastic Constant Matrix: (Units=GPa)
#
#
# Indices 1 2 3 4 5 6 
#
# 1 86.8130 38.9258 52.8848 0.0000 0.0000 0.0000
# 2 38.9258 60.9016 48.0097 0.0000 0.0000 0.0000
# 3 52.8848 48.0097 102.2439 0.0000 0.0000 0.0000
# 4 0.0000 0.0000 0.0000 0.7542 0.0000 0.0000
# 5 0.0000 0.0000 0.0000 0.0000 17.7746 0.0000
# 6 0.0000 0.0000 0.0000 0.0000 0.0000 20.2728
#
#
#
# Elastic Compliance Matrix: (Units=1/GPa)
#
#
# Indices 1 2 3 4 5 6 
#
# 1 0.018423 -0.006769 -0.006351 0.000000 0.000000 0.000000
# 2 -0.006769 0.028557 -0.009908 0.000000 0.000000 0.000000
# 3 -0.006351 -0.009908 0.017718 0.000000 0.000000 0.000000
# 4 0.000000 0.000000 0.000000 1.325913 0.000000 0.000000
# 5 0.000000 0.000000 0.000000 0.000000 0.056260 0.000000
# 6 0.000000 0.000000 0.000000 0.000000 0.000000 0.049327
#
#
# Mechanical properties :
#
#
# Convention : Reuss Voigt Hill
#
# Bulk Modulus (GPa) = 53.64106 58.84434 56.24270
# Shear Modulus (GPa) = 3.22900 15.10286 9.16593
#
# Velocity S-wave (km/s) = 1.47021 3.17962 2.47705
# Velocity P-wave (km/s) = 6.22815 7.27124 6.76981
#
# Compressibility (1/GPa) = 0.01864244
#
# Stress axis : x y z
#
# Youngs Moduli (GPa) = 54.28079 35.01774 56.44024
#
# Poissons Ratio (x) = 0.23702 0.35843
# Poissons Ratio (y) = 0.36741 0.55922
# Poissons Ratio (z) = 0.34472 0.34696
#
# Static dielectric constant tensor:
#      x y z
#    x 3.002640 0.000000 0.000000 
#    y 0.000000 2.813650 0.000000 
#    z 0.000000 0.000000 2.784360 
# 
# 
# High freq. dielectric constant tensor:
#      x y z
#    x 1.570690 0.000000 0.000000 
#    y 0.000000 1.544360 0.000000 
#    z 0.000000 0.000000 1.547950 
# 
# From -- ./inp_files/16257.got.cif
#   From: 2010.03.12/outbox.cif.g09.slc.cpg/sg35_9_cif.got.tgz:16257.got - 2010.04.14 02:02:04.
