data_PCOD8172827
_publ_section_title
;
Structure prediction by ZEFSAII (Michael W. Deem and Ramdas Pophale) SiO2 
 PCOD8172827
Probable space group: C M M 2
;
_chemical_formula_sum "Si O2"
_cell_formula_units_Z 48
_cell_length_a 18.782918
_cell_length_b 14.128163
_cell_length_c 9.769278
_cell_angle_alpha 90.000000
_cell_angle_beta 90.000000
_cell_angle_gamma 90.000000
_cell_volume 2592.455006
_symmetry_space_group_name_H-M "C M M 2"
_symmetry_group_IT_number 35
_symmetry_cell_setting 'orthorhombic'
loop_
_space_group_symop_operation_xyz
x,y,z
-x,-y,z
-x,y,z
x,-y,z
1/2+x,1/2+y,z
1/2-x,1/2-y,z
1/2-x,1/2+y,z
1/2+x,1/2-y,z
loop_
_atom_site_type_symbol
_atom_site_label
_atom_site_fract_x
_atom_site_fract_y
_atom_site_fract_z
Si Si1 0.579620 0.892272 0.407140
Si Si2 0.801908 0.107295 0.813777
Si Si3 0.274234 0.392834 0.129524
Si Si4 0.918420 0.255835 0.865497
Si Si5 0.864713 0.719221 0.167299
Si Si6 0.340934 0.889620 0.677089
O O1 0.500000 0.885804 0.469590
O O2 0.582311 0.815056 0.285635
O O3 0.637992 0.864164 0.521630
O O4 0.593639 0.000000 0.355083
O O5 0.872000 0.170603 0.801655
O O6 0.739443 0.145559 0.712731
O O7 0.823547 0.000000 0.777317
O O8 0.771996 0.115662 0.966443
O O9 0.288755 0.500000 0.179363
O O10 0.197696 0.358017 0.177040
O O11 0.335129 0.325461 0.193972
O O12 0.899567 0.348003 0.779116
O O13 0.000000 0.226737 0.846128
O O14 0.904741 0.279810 0.023394
O O15 0.344349 0.000000 0.704258
#
# Coordination Sequence:
#
# PCOD8172827 Si02
#       6
#     8   8   8   8   8   8
#     4  10  21  36  53  78 113 146 179 227 286 340
#     4   9  18  35  57  78 105 143 185 229 267 315
#     4   9  17  32  54  79 107 139 183 231 267 312
#     4  11  21  33  54  84 113 142 179 225 279 335
#     4  10  19  33  54  79 109 145 180 223 277 333
#     4  10  20  36  57  77 105 146 186 227 273 323
#
# _framework density 18.515269
#
# number of rings (size 3 to 8) (size 9 to 14) (size 15 to 20)
#    0.000    2.167    1.667    2.000    0.000    2.000 
#    6.000    0.000    0.000    1.500    0.000    0.000 
#    0.000    0.000    0.000    0.000    0.000    0.000 
#
# Total GULP energy -297539.249946 kJ/mol
# GULP energy per Si atom -12397.468748 kJ/mol
# Density = 1.847313 g / cm^3
# Si number density = 18.515269 Si / 1000 Ang^3
#
#
#
# Elastic Constant Matrix: (Units=GPa)
#
#
# Indices 1 2 3 4 5 6 
#
# 1 103.5369 52.9278 59.3267 0.0000 0.0000 0.0000
# 2 52.9278 101.5492 46.9238 0.0000 0.0000 0.0000
# 3 59.3267 46.9238 75.1635 0.0000 0.0000 0.0000
# 4 0.0000 0.0000 0.0000 22.5457 0.0000 0.0000
# 5 0.0000 0.0000 0.0000 0.0000 22.6099 0.0000
# 6 0.0000 0.0000 0.0000 0.0000 0.0000 26.7224
#
#
#
# Elastic Compliance Matrix: (Units=1/GPa)
#
#
# Indices 1 2 3 4 5 6 
#
# 1 0.018792 -0.004133 -0.012252 0.000000 0.000000 0.000000
# 2 -0.004133 0.014749 -0.005945 0.000000 0.000000 0.000000
# 3 -0.012252 -0.005945 0.026687 0.000000 0.000000 0.000000
# 4 0.000000 0.000000 0.000000 0.044354 0.000000 0.000000
# 5 0.000000 0.000000 0.000000 0.000000 0.044228 0.000000
# 6 0.000000 0.000000 0.000000 0.000000 0.000000 0.037422
#
#
# Mechanical properties :
#
#
# Convention : Reuss Voigt Hill
#
# Bulk Modulus (GPa) = 64.24193 66.51179 65.37686
# Shear Modulus (GPa) = 21.17915 22.44701 21.81308
#
# Velocity S-wave (km/s) = 3.38579 3.48566 3.43609
# Velocity P-wave (km/s) = 7.07509 7.22499 7.15043
#
# Compressibility (1/GPa) = 0.01556616
#
# Stress axis : x y z
#
# Youngs Moduli (GPa) = 53.21542 67.80240 37.47185
#
# Poissons Ratio (x) = 0.28021 0.45911
# Poissons Ratio (y) = 0.21993 0.22279
# Poissons Ratio (z) = 0.65200 0.40312
#
# Static dielectric constant tensor:
#      x y z
#    x 3.369060 0.000000 0.000000 
#    y 0.000000 3.546080 0.000000 
#    z 0.000000 0.000000 3.224090 
# 
# 
# High freq. dielectric constant tensor:
#      x y z
#    x 1.713260 0.000000 0.000000 
#    y 0.000000 1.721100 0.000000 
#    z 0.000000 0.000000 1.697840 
# 
# From -- ./inp_files/7298.got.cif
#   From: 2010.03.12/outbox.cif.g09.slc.cpg/sg35_4_cif.got.tgz:7298.got - 2010.04.14 02:02:04.
