data_PCOD8172804
_publ_section_title
;
Structure prediction by ZEFSAII (Michael W. Deem and Ramdas Pophale) SiO2 
 PCOD8172804
Probable space group: C M M 2
;
_chemical_formula_sum "Si O2"
_cell_formula_units_Z 64
_cell_length_a 28.942259
_cell_length_b 8.920072
_cell_length_c 12.576737
_cell_angle_alpha 90.000000
_cell_angle_beta 90.000000
_cell_angle_gamma 90.000000
_cell_volume 3246.898890
_symmetry_space_group_name_H-M "C M M 2"
_symmetry_group_IT_number 35
_symmetry_cell_setting 'orthorhombic'
loop_
_space_group_symop_operation_xyz
x,y,z
-x,-y,z
-x,y,z
x,-y,z
1/2+x,1/2+y,z
1/2-x,1/2-y,z
1/2-x,1/2+y,z
1/2+x,1/2-y,z
loop_
_atom_site_type_symbol
_atom_site_label
_atom_site_fract_x
_atom_site_fract_y
_atom_site_fract_z
Si Si1 0.891881 0.676555 0.519540
Si Si2 0.183420 0.169717 0.202142
Si Si3 0.550871 0.164961 0.327801
Si Si4 0.296642 0.179098 0.980349
Si Si5 0.080423 0.835050 0.139138
Si Si6 0.388693 0.321976 0.914938
Si Si7 0.295563 0.176695 0.424891
Si Si8 0.446900 0.323107 0.709619
O O1 0.901428 0.500000 0.530001
O O2 0.916584 0.744538 0.414483
O O3 0.837623 0.712688 0.505789
O O4 0.913990 0.755542 0.620389
O O5 0.128536 0.162761 0.201401
O O6 0.198788 0.250562 0.309234
O O7 0.203731 0.000000 0.196831
O O8 0.200718 0.264825 0.101808
O O9 0.500000 0.159677 0.378294
O O10 0.546410 0.242342 0.213378
O O11 0.571200 0.000000 0.306799
O O12 0.250000 0.250000 0.930109
O O13 0.339458 0.238027 0.908585
O O14 0.295214 0.000000 0.976220
O O15 0.059239 0.000000 0.127494
O O16 0.085710 0.764936 0.021907
O O17 0.378936 0.500000 0.921494
O O18 0.422726 0.276928 0.819957
O O19 0.250000 0.250000 0.477908
O O20 0.289774 0.000000 0.410115
O O21 0.500000 0.262065 0.705823
O O22 0.447534 0.500000 0.695690
#
# Coordination Sequence:
#
# PCOD8172804 Si02
#       8
#     8   8   8   8   8   8   8   8
#     4  10  22  40  60  82 115 154 194 241 292 346
#     4  10  19  33  53  80 116 157 197 237 282 336
#     4  10  20  34  53  79 113 150 186 230 286 345
#     4  11  21  34  55  84 119 158 199 239 284 341
#     4   9  18  32  53  80 113 150 186 230 280 337
#     4   9  20  39  59  84 117 151 192 241 294 345
#     4  11  22  36  56  83 115 154 195 239 290 345
#     4  10  22  41  66  91 114 147 193 245 297 350
#
# _framework density 19.711117000000002
#
# number of rings (size 3 to 8) (size 9 to 14) (size 15 to 20)
#    0.000    2.000    1.250    3.375    0.000    5.500 
#    0.000    1.875    0.000    1.500    0.000    0.000 
#    0.000    0.000    0.000    0.000    0.000    0.000 
#
# Total GULP energy -396668.093202 kJ/mol
# GULP energy per Si atom -12395.877913 kJ/mol
# Density = 1.966625 g / cm^3
# Si number density = 19.711117 Si / 1000 Ang^3
#
#
#
# Elastic Constant Matrix: (Units=GPa)
#
#
# Indices 1 2 3 4 5 6 
#
# 1 133.2631 48.8532 68.6841 0.0000 0.0000 0.0000
# 2 48.8532 86.9158 41.5603 0.0000 0.0000 0.0000
# 3 68.6841 41.5603 117.8002 0.0000 0.0000 0.0000
# 4 0.0000 0.0000 0.0000 25.7160 0.0000 0.0000
# 5 0.0000 0.0000 0.0000 0.0000 23.7234 0.0000
# 6 0.0000 0.0000 0.0000 0.0000 0.0000 24.4913
#
#
#
# Elastic Compliance Matrix: (Units=1/GPa)
#
#
# Indices 1 2 3 4 5 6 
#
# 1 0.011789 -0.004017 -0.005456 0.000000 0.000000 0.000000
# 2 -0.004017 0.015209 -0.003024 0.000000 0.000000 0.000000
# 3 -0.005456 -0.003024 0.012737 0.000000 0.000000 0.000000
# 4 0.000000 0.000000 0.000000 0.038886 0.000000 0.000000
# 5 0.000000 0.000000 0.000000 0.000000 0.042152 0.000000
# 6 0.000000 0.000000 0.000000 0.000000 0.000000 0.040831
#
#
# Mechanical properties :
#
#
# Convention : Reuss Voigt Hill
#
# Bulk Modulus (GPa) = 67.83870 72.90829 70.37349
# Shear Modulus (GPa) = 26.10804 26.71160 26.40982
#
# Velocity S-wave (km/s) = 3.64336 3.68524 3.66436
# Velocity P-wave (km/s) = 7.22426 7.42810 7.32689
#
# Compressibility (1/GPa) = 0.01474085
#
# Stress axis : x y z
#
# Youngs Moduli (GPa) = 84.82634 65.75002 78.51155
#
# Poissons Ratio (x) = 0.26413 0.42838
# Poissons Ratio (y) = 0.34076 0.23739
# Poissons Ratio (z) = 0.46283 0.19880
#
# Static dielectric constant tensor:
#      x y z
#    x 3.841820 0.000000 0.000000 
#    y 0.000000 3.561330 0.000000 
#    z 0.000000 0.000000 3.411610 
# 
# 
# High freq. dielectric constant tensor:
#      x y z
#    x 1.780900 0.000000 0.000000 
#    y 0.000000 1.761840 0.000000 
#    z 0.000000 0.000000 1.747120 
# 
# From -- ./inp_files/11827.got.cif
#   From: 2010.03.12/outbox.cif.g09.slc.cpg/sg35_6_cif.got.tgz:11827.got - 2010.04.14 02:02:04.
