data_PCOD8172273
_publ_section_title
;
Structure prediction by ZEFSAII (Michael W. Deem and Ramdas Pophale) SiO2 
 PCOD8172273
Probable space group: C M M 2
;
_chemical_formula_sum "Si O2"
_cell_formula_units_Z 64
_cell_length_a 9.340157
_cell_length_b 28.664664
_cell_length_c 15.526969
_cell_angle_alpha 90.000000
_cell_angle_beta 90.000000
_cell_angle_gamma 90.000000
_cell_volume 4157.073640
_symmetry_space_group_name_H-M "C M M 2"
_symmetry_group_IT_number 35
_symmetry_cell_setting 'orthorhombic'
loop_
_space_group_symop_operation_xyz
x,y,z
-x,-y,z
-x,y,z
x,-y,z
1/2+x,1/2+y,z
1/2-x,1/2-y,z
1/2-x,1/2+y,z
1/2+x,1/2-y,z
loop_
_atom_site_type_symbol
_atom_site_label
_atom_site_fract_x
_atom_site_fract_y
_atom_site_fract_z
Si Si1 0.829545 0.392651 0.030050
Si Si2 0.168215 0.605513 0.696337
Si Si3 0.329645 0.947639 0.865927
Si Si4 0.840960 0.555298 0.381541
Si Si5 0.832660 0.704861 0.962101
Si Si6 0.170367 0.552203 0.192915
Si Si7 0.668003 0.554429 0.546135
Si Si8 0.834765 0.705326 0.763829
O O1 0.768098 0.413266 0.119523
O O2 0.000000 0.395469 0.027928
O O3 0.767232 0.422950 0.951010
O O4 0.780840 0.339098 0.018899
O O5 0.223277 0.579625 0.781807
O O6 0.257007 0.585644 0.617444
O O7 0.201835 0.660380 0.706008
O O8 0.000000 0.596482 0.680878
O O9 0.500000 0.947257 0.868989
O O10 0.269056 0.000000 0.862098
O O11 0.851444 0.500000 0.377540
O O12 0.785431 0.572047 0.287259
O O13 0.729759 0.571397 0.454273
O O14 0.000000 0.575554 0.401816
O O15 0.750000 0.750000 0.996939
O O16 0.793487 0.694411 0.862703
O O17 0.000000 0.714100 0.973117
O O18 0.232019 0.500000 0.177354
O O19 0.000000 0.550019 0.187749
O O20 0.500000 0.564009 0.546775
O O21 0.703160 0.500000 0.562705
O O22 0.750000 0.750000 0.727835
O O23 0.000000 0.718129 0.756988
#
# Coordination Sequence:
#
# PCOD8172273 Si02
#       8
#     8   8   8   8   8   8   8   8
#     4   9  14  22  37  60  88 114 140 173 210 248
#     4  10  18  29  44  64  87 114 148 182 215 254
#     4   9  15  22  35  57  86 117 144 169 202 245
#     4   8  14  26  43  62  84 110 141 178 217 255
#     4   9  16  27  42  60  84 112 144 180 213 247
#     4   8  13  21  37  63  90 112 137 173 216 256
#     4  10  20  31  43  62  88 117 148 180 216 260
#     4   9  17  29  44  62  85 112 146 184 219 256
#
# _framework density 15.395445
#
# number of rings (size 3 to 8) (size 9 to 14) (size 15 to 20)
#    0.000    3.000    1.250    1.875    0.000    3.250 
#    0.000    0.000    0.000    0.750    0.000    0.875 
#    0.000    7.000    0.000    0.000    0.000    0.000 
#
# Total GULP energy -396655.033546 kJ/mol
# GULP energy per Si atom -12395.469798 kJ/mol
# Density = 1.536040 g / cm^3
# Si number density = 15.395445 Si / 1000 Ang^3
#
#
#
# Elastic Constant Matrix: (Units=GPa)
#
#
# Indices 1 2 3 4 5 6 
#
# 1 40.9031 39.7264 41.5573 0.0000 0.0000 0.0000
# 2 39.7264 109.0476 66.1376 0.0000 0.0000 0.0000
# 3 41.5573 66.1376 130.5480 0.0000 0.0000 0.0000
# 4 0.0000 0.0000 0.0000 11.7489 0.0000 0.0000
# 5 0.0000 0.0000 0.0000 0.0000 8.0782 0.0000
# 6 0.0000 0.0000 0.0000 0.0000 0.0000 19.8253
#
#
#
# Elastic Compliance Matrix: (Units=1/GPa)
#
#
# Indices 1 2 3 4 5 6 
#
# 1 0.043368 -0.010720 -0.008374 0.000000 0.000000 0.000000
# 2 -0.010720 0.015888 -0.004636 0.000000 0.000000 0.000000
# 3 -0.008374 -0.004636 0.012675 0.000000 0.000000 0.000000
# 4 0.000000 0.000000 0.000000 0.085114 0.000000 0.000000
# 5 0.000000 0.000000 0.000000 0.000000 0.123789 0.000000
# 6 0.000000 0.000000 0.000000 0.000000 0.000000 0.050441
#
#
# Mechanical properties :
#
#
# Convention : Reuss Voigt Hill
#
# Bulk Modulus (GPa) = 40.86860 63.92680 52.39770
# Shear Modulus (GPa) = 12.92350 16.80233 14.86291
#
# Velocity S-wave (km/s) = 2.90045 3.30719 3.11048
# Velocity P-wave (km/s) = 6.14982 7.49645 6.85628
#
# Compressibility (1/GPa) = 0.02446866
#
# Stress axis : x y z
#
# Youngs Moduli (GPa) = 23.05853 62.94198 78.89731
#
# Poissons Ratio (x) = 0.67474 0.66071
# Poissons Ratio (y) = 0.24719 0.36580
# Poissons Ratio (z) = 0.19310 0.29183
#
# Static dielectric constant tensor:
#      x y z
#    x 2.627930 0.000000 0.000000 
#    y 0.000000 2.944330 0.000000 
#    z 0.000000 0.000000 3.130490 
# 
# 
# High freq. dielectric constant tensor:
#      x y z
#    x 1.552930 0.000000 0.000000 
#    y 0.000000 1.574950 0.000000 
#    z 0.000000 0.000000 1.583770 
# 
# From -- ./inp_files/16235.got.cif
#   From: 2010.03.12/outbox.cif.g09.slc.cpg/sg35_9_cif.got.tgz:16235.got - 2010.04.14 02:02:04.
