data_PCOD8172093
_publ_section_title
;
Structure prediction by ZEFSAII (Michael W. Deem and Ramdas Pophale) SiO2 
 PCOD8172093
Probable space group: P N N 2
;
_chemical_formula_sum "Si O2"
_cell_formula_units_Z 24
_cell_length_a 4.895730
_cell_length_b 12.221615
_cell_length_c 20.892200
_cell_angle_alpha 90.000000
_cell_angle_beta 90.000000
_cell_angle_gamma 90.000000
_cell_volume 1250.058195
_symmetry_space_group_name_H-M "P N N 2"
_symmetry_group_IT_number 34
_symmetry_cell_setting 'orthorhombic'
loop_
_space_group_symop_operation_xyz
x,y,z
-x,-y,z
1/2-x,1/2+y,1/2+z
1/2+x,1/2-y,1/2+z
loop_
_atom_site_type_symbol
_atom_site_label
_atom_site_fract_x
_atom_site_fract_y
_atom_site_fract_z
Si Si1 0.447910 0.876221 0.550000
Si Si2 0.746195 0.572863 0.589233
Si Si3 0.249928 0.572544 0.252338
Si Si4 0.925842 0.798720 0.632454
Si Si5 0.598740 0.694504 0.461293
Si Si6 0.407966 0.121714 0.887746
O O1 0.692219 0.858437 0.596468
O O2 0.477123 0.811178 0.483089
O O3 0.190777 0.835878 0.592316
O O4 0.500000 0.000000 0.529037
O O5 0.500000 0.500000 0.621079
O O6 0.867439 0.667912 0.635575
O O7 0.628094 0.624675 0.525349
O O8 0.000000 0.500000 0.569346
O O9 0.500000 0.500000 0.279828
O O10 0.404921 0.654755 0.204135
O O11 0.111812 0.639328 0.311077
O O12 0.000000 0.500000 0.221393
O O13 0.391814 0.635163 0.414941
O O14 0.882571 0.706373 0.421875
O O15 0.500000 0.000000 0.904661
#
# Coordination Sequence:
#
# PCOD8172093 Si02
#       6
#     4   4   4   4   4   4
#     4  11  22  36  56  82 112 145 183 229 283 339
#     4  11  21  34  54  80 109 141 178 223 277 333
#     4  11  22  36  56  82 111 145 185 231 282 336
#     4  11  22  36  56  82 111 145 183 229 282 338
#     4  11  21  34  54  80 110 141 177 224 276 332
#     4  11  21  34  54  80 109 141 178 224 276 330
#
# _framework density 19.199104999999999
#
# number of rings (size 3 to 8) (size 9 to 14) (size 15 to 20)
#    0.000    1.000    0.000   12.000    0.000    0.000 
#    0.000    0.000    0.000    3.000    0.000    0.000 
#    0.000    0.000    0.000    0.000    0.000    0.000 
#
# Total GULP energy -297331.499766 kJ/mol
# GULP energy per Si atom -12388.812490 kJ/mol
# Density = 1.915541 g / cm^3
# Si number density = 19.199105 Si / 1000 Ang^3
#
#
#
# Elastic Constant Matrix: (Units=GPa)
#
#
# Indices 1 2 3 4 5 6 
#
# 1 123.7630 37.9971 30.6079 0.0000 0.0000 0.0000
# 2 37.9971 118.2910 40.2896 0.0000 0.0000 0.0000
# 3 30.6079 40.2896 94.1499 0.0000 0.0000 0.0000
# 4 0.0000 0.0000 0.0000 18.4776 0.0000 0.0000
# 5 0.0000 0.0000 0.0000 0.0000 4.9869 0.0000
# 6 0.0000 0.0000 0.0000 0.0000 0.0000 28.5634
#
#
#
# Elastic Compliance Matrix: (Units=1/GPa)
#
#
# Indices 1 2 3 4 5 6 
#
# 1 0.009287 -0.002288 -0.002040 0.000000 0.000000 0.000000
# 2 -0.002288 0.010460 -0.003732 0.000000 0.000000 0.000000
# 3 -0.002040 -0.003732 0.012882 0.000000 0.000000 0.000000
# 4 0.000000 0.000000 0.000000 0.054120 0.000000 0.000000
# 5 0.000000 0.000000 0.000000 0.000000 0.200525 0.000000
# 6 0.000000 0.000000 0.000000 0.000000 0.000000 0.035010
#
#
# Mechanical properties :
#
#
# Convention : Reuss Voigt Hill
#
# Bulk Modulus (GPa) = 60.57788 61.55477 61.06633
# Shear Modulus (GPa) = 14.53882 25.55952 20.04917
#
# Velocity S-wave (km/s) = 2.75483 3.65264 3.23503
# Velocity P-wave (km/s) = 6.46063 7.06540 6.76977
#
# Compressibility (1/GPa) = 0.01650768
#
# Stress axis : x y z
#
# Youngs Moduli (GPa) = 107.67727 95.60264 77.62983
#
# Poissons Ratio (x) = 0.21877 0.15836
# Poissons Ratio (y) = 0.24640 0.28973
# Poissons Ratio (z) = 0.21965 0.35681
#
# Static dielectric constant tensor:
#      x y z
#    x 3.801770 0.000000 0.000000 
#    y 0.000000 8.327740 0.000000 
#    z 0.000000 0.000000 3.413820 
# 
# 
# High freq. dielectric constant tensor:
#      x y z
#    x 1.778600 0.000000 0.000000 
#    y 0.000000 1.729240 0.000000 
#    z 0.000000 0.000000 1.724170 
# 
# From -- ./inp_files/7910.got.cif
#   From: 2010.03.12/outbox.cif.g09.slc.cpg/sg34_4_cif.got.tgz:7910.got - 2010.04.14 01:56:33.
