data_PCOD8172585
_publ_section_title
;
Structure prediction by ZEFSAII (Michael W. Deem and Ramdas Pophale) SiO2 
 PCOD8172585
Probable space group: C M M 2
;
_chemical_formula_sum "Si O2"
_cell_formula_units_Z 56
_cell_length_a 9.160343
_cell_length_b 18.613171
_cell_length_c 18.093170
_cell_angle_alpha 90.000000
_cell_angle_beta 90.000000
_cell_angle_gamma 90.000000
_cell_volume 3084.940320
_symmetry_space_group_name_H-M "C M M 2"
_symmetry_group_IT_number 35
_symmetry_cell_setting 'orthorhombic'
loop_
_space_group_symop_operation_xyz
x,y,z
-x,-y,z
-x,y,z
x,-y,z
1/2+x,1/2+y,z
1/2-x,1/2-y,z
1/2-x,1/2+y,z
1/2+x,1/2-y,z
loop_
_atom_site_type_symbol
_atom_site_label
_atom_site_fract_x
_atom_site_fract_y
_atom_site_fract_z
Si Si1 0.673150 0.419607 0.975000
Si Si2 0.668988 0.083008 0.715218
Si Si3 0.667298 0.676763 0.269937
Si Si4 0.170364 0.825624 0.429556
Si Si5 0.336660 0.916016 0.545681
Si Si6 0.328477 0.673809 0.110189
Si Si7 0.826487 0.173629 0.835312
O O1 0.500000 0.424231 0.977038
O O2 0.739643 0.500000 0.970449
O O3 0.725054 0.374280 0.904488
O O4 0.732608 0.381253 0.049139
O O5 0.500000 0.097928 0.734785
O O6 0.700480 0.102445 0.630229
O O7 0.774458 0.133834 0.761637
O O8 0.707569 0.000000 0.731158
O O9 0.500000 0.698399 0.270099
O O10 0.750000 0.750000 0.269172
O O11 0.703850 0.637563 0.348222
O O12 0.703264 0.637397 0.191658
O O13 0.250000 0.750000 0.437505
O O14 0.221555 0.878719 0.492827
O O15 0.000000 0.811883 0.440410
O O16 0.500000 0.889303 0.526783
O O17 0.324341 0.000000 0.532220
O O18 0.500000 0.687254 0.098214
O O19 0.250000 0.750000 0.100965
O O20 0.750000 0.250000 0.842601
O O21 0.000000 0.184074 0.832566
#
# Coordination Sequence:
#
# PCOD8172585 Si02
#       7
#     8   8   8   8   8   8   8
#     4   9  18  32  50  73 100 130 164 201 243 293
#     4   9  19  37  58  77  99 129 165 204 248 300
#     4   8  15  27  44  69  97 127 163 201 244 290
#     4  10  19  31  49  74 103 133 169 211 251 294
#     4   9  19  36  55  74  99 132 167 203 248 301
#     4   9  16  29  50  72  96 127 163 203 245 289
#     4  11  22  35  53  77 104 132 166 207 248 293
#
# _framework density 18.152702000000001
#
# number of rings (size 3 to 8) (size 9 to 14) (size 15 to 20)
#    0.000    2.714    0.000    2.571    0.000    2.857 
#    0.000    2.857    0.000    4.714    0.000    0.000 
#    0.000    0.000    0.000    0.000    0.000    0.000 
#
# Total GULP energy -346955.844679 kJ/mol
# GULP energy per Si atom -12391.280167 kJ/mol
# Density = 1.811139 g / cm^3
# Si number density = 18.152702 Si / 1000 Ang^3
#
#
#
# Elastic Constant Matrix: (Units=GPa)
#
#
# Indices 1 2 3 4 5 6 
#
# 1 61.6061 40.9632 54.6995 0.0000 0.0000 0.0000
# 2 40.9632 99.2793 78.0965 0.0000 0.0000 0.0000
# 3 54.6995 78.0965 156.2793 0.0000 0.0000 0.0000
# 4 0.0000 0.0000 0.0000 14.0034 0.0000 0.0000
# 5 0.0000 0.0000 0.0000 0.0000 28.1294 0.0000
# 6 0.0000 0.0000 0.0000 0.0000 0.0000 22.0076
#
#
#
# Elastic Compliance Matrix: (Units=1/GPa)
#
#
# Indices 1 2 3 4 5 6 
#
# 1 0.025395 -0.005744 -0.006018 0.000000 0.000000 0.000000
# 2 -0.005744 0.017896 -0.006933 0.000000 0.000000 0.000000
# 3 -0.006018 -0.006933 0.011970 0.000000 0.000000 0.000000
# 4 0.000000 0.000000 0.000000 0.071411 0.000000 0.000000
# 5 0.000000 0.000000 0.000000 0.000000 0.035550 0.000000
# 6 0.000000 0.000000 0.000000 0.000000 0.000000 0.045439
#
#
# Mechanical properties :
#
#
# Convention : Reuss Voigt Hill
#
# Bulk Modulus (GPa) = 55.95633 73.85366 64.90500
# Shear Modulus (GPa) = 19.91977 22.38845 21.15411
#
# Velocity S-wave (km/s) = 3.31621 3.51570 3.41741
# Velocity P-wave (km/s) = 6.74947 7.56659 7.16968
#
# Compressibility (1/GPa) = 0.01787108
#
# Stress axis : x y z
#
# Youngs Moduli (GPa) = 39.37804 55.87827 83.54534
#
# Poissons Ratio (x) = 0.32097 0.50278
# Poissons Ratio (y) = 0.22619 0.57919
# Poissons Ratio (z) = 0.23698 0.38738
#
# Static dielectric constant tensor:
#      x y z
#    x 3.207700 0.000000 0.000000 
#    y 0.000000 3.123840 0.000000 
#    z 0.000000 0.000000 3.915990 
# 
# 
# High freq. dielectric constant tensor:
#      x y z
#    x 1.692150 0.000000 0.000000 
#    y 0.000000 1.678260 0.000000 
#    z 0.000000 0.000000 1.727430 
# 
# From -- ./inp_files/18270.got.cif
#   From: 2010.03.12/outbox.cif.g09.slc.cpg/sg35_10_cif.got.tgz:18270.got - 2010.04.14 02:02:04.
