data_PCOD8172651
_publ_section_title
;
Structure prediction by ZEFSAII (Michael W. Deem and Ramdas Pophale) SiO2 
 PCOD8172651
Probable space group: C M M 2
;
_chemical_formula_sum "Si O2"
_cell_formula_units_Z 64
_cell_length_a 30.975397
_cell_length_b 13.169876
_cell_length_c 10.023740
_cell_angle_alpha 90.000000
_cell_angle_beta 90.000000
_cell_angle_gamma 90.000000
_cell_volume 4089.105922
_symmetry_space_group_name_H-M "C M M 2"
_symmetry_group_IT_number 35
_symmetry_cell_setting 'orthorhombic'
loop_
_space_group_symop_operation_xyz
x,y,z
-x,-y,z
-x,y,z
x,-y,z
1/2+x,1/2+y,z
1/2-x,1/2-y,z
1/2-x,1/2+y,z
1/2+x,1/2-y,z
loop_
_atom_site_type_symbol
_atom_site_label
_atom_site_fract_x
_atom_site_fract_y
_atom_site_fract_z
Si Si1 0.222753 0.615619 0.511040
Si Si2 0.269721 0.886654 0.822334
Si Si3 0.682491 0.300917 0.917361
Si Si4 0.860262 0.119749 0.174298
Si Si5 0.629719 0.617699 0.689698
Si Si6 0.047250 0.880190 0.544701
Si Si7 0.314796 0.680956 0.444468
Si Si8 0.546968 0.379584 0.246457
O O1 0.206477 0.500000 0.488878
O O2 0.230489 0.640801 0.666360
O O3 0.267103 0.633445 0.430785
O O4 0.187438 0.695819 0.456193
O O5 0.302219 0.814988 0.903300
O O6 0.221319 0.875876 0.877542
O O7 0.286133 0.000000 0.847369
O O8 0.641922 0.320837 0.821854
O O9 0.668029 0.318820 0.068538
O O10 0.843493 0.148855 0.319895
O O11 0.910929 0.153540 0.161403
O O12 0.855102 0.000000 0.149442
O O13 0.626089 0.500000 0.728401
O O14 0.584038 0.664742 0.640965
O O15 0.665070 0.631737 0.575708
O O16 0.051788 0.834690 0.395942
O O17 0.000000 0.853316 0.603686
O O18 0.054351 0.000000 0.536457
O O19 0.500000 0.343473 0.186435
O O20 0.546611 0.500000 0.256776
#
# Coordination Sequence:
#
# PCOD8172651 Si02
#       8
#     8   8   8   8   8   8   8   8
#     4  10  19  32  50  70  92 119 157 204 241 268
#     4  10  19  34  51  66  91 124 158 197 240 277
#     4  11  21  33  46  70  93 126 163 191 225 278
#     4  11  21  31  45  70 101 128 155 190 228 272
#     4  11  17  27  47  67  91 121 157 193 224 267
#     4   8  14  24  41  66  92 120 153 188 227 271
#     4  11  19  31  47  70  90 120 161 194 228 273
#     4   8  14  26  43  63  90 124 154 181 225 280
#
# _framework density 15.651343000000001
#
# number of rings (size 3 to 8) (size 9 to 14) (size 15 to 20)
#    0.000    2.000    3.750    3.750    0.000    2.000 
#    0.000    2.500    0.000    3.000    0.000    0.000 
#    0.000    6.000    0.000    0.000    0.000    0.000 
#
# Total GULP energy -396647.542769 kJ/mol
# GULP energy per Si atom -12395.235712 kJ/mol
# Density = 1.561572 g / cm^3
# Si number density = 15.651343 Si / 1000 Ang^3
#
#
#
# Elastic Constant Matrix: (Units=GPa)
#
#
# Indices 1 2 3 4 5 6 
#
# 1 80.9252 23.6299 14.9787 0.0000 0.0000 0.0000
# 2 23.6299 72.4474 15.0053 0.0000 0.0000 0.0000
# 3 14.9787 15.0053 43.5235 0.0000 0.0000 0.0000
# 4 0.0000 0.0000 0.0000 20.1435 0.0000 0.0000
# 5 0.0000 0.0000 0.0000 0.0000 18.8879 0.0000
# 6 0.0000 0.0000 0.0000 0.0000 0.0000 11.7740
#
#
#
# Elastic Compliance Matrix: (Units=1/GPa)
#
#
# Indices 1 2 3 4 5 6 
#
# 1 0.014144 -0.003882 -0.003529 0.000000 0.000000 0.000000
# 2 -0.003882 0.015930 -0.004156 0.000000 0.000000 0.000000
# 3 -0.003529 -0.004156 0.025624 0.000000 0.000000 0.000000
# 4 0.000000 0.000000 0.000000 0.049644 0.000000 0.000000
# 5 0.000000 0.000000 0.000000 0.000000 0.052944 0.000000
# 6 0.000000 0.000000 0.000000 0.000000 0.000000 0.084933
#
#
# Mechanical properties :
#
#
# Convention : Reuss Voigt Hill
#
# Bulk Modulus (GPa) = 30.71008 33.79154 32.25081
# Shear Modulus (GPa) = 18.03700 19.71320 18.87510
#
# Velocity S-wave (km/s) = 3.39842 3.55282 3.47648
# Velocity P-wave (km/s) = 5.92140 6.20219 6.06342
#
# Compressibility (1/GPa) = 0.03256259
#
# Stress axis : x y z
#
# Youngs Moduli (GPa) = 70.70161 62.77384 39.02663
#
# Poissons Ratio (x) = 0.24371 0.13773
# Poissons Ratio (y) = 0.27449 0.16220
# Poissons Ratio (z) = 0.24952 0.26089
#
# Static dielectric constant tensor:
#      x y z
#    x 3.221820 0.000000 0.000000 
#    y 0.000000 2.782720 0.000000 
#    z 0.000000 0.000000 2.846680 
# 
# 
# High freq. dielectric constant tensor:
#      x y z
#    x 1.599870 0.000000 0.000000 
#    y 0.000000 1.563840 0.000000 
#    z 0.000000 0.000000 1.586810 
# 
# From -- ./inp_files/8016.got.cif
#   From: 2010.03.12/outbox.cif.g09.slc.cpg/sg35_5_cif.got.tgz:8016.got - 2010.04.14 02:02:04.
