data_PCOD8172781
_publ_section_title
;
Structure prediction by ZEFSAII (Michael W. Deem and Ramdas Pophale) SiO2 
 PCOD8172781
Probable space group: C M M 2
;
_chemical_formula_sum "Si O2"
_cell_formula_units_Z 48
_cell_length_a 8.749226
_cell_length_b 19.650850
_cell_length_c 15.432312
_cell_angle_alpha 90.000000
_cell_angle_beta 90.000000
_cell_angle_gamma 90.000000
_cell_volume 2653.273201
_symmetry_space_group_name_H-M "C M M 2"
_symmetry_group_IT_number 35
_symmetry_cell_setting 'orthorhombic'
loop_
_space_group_symop_operation_xyz
x,y,z
-x,-y,z
-x,y,z
x,-y,z
1/2+x,1/2+y,z
1/2-x,1/2-y,z
1/2-x,1/2+y,z
1/2+x,1/2-y,z
loop_
_atom_site_type_symbol
_atom_site_label
_atom_site_fract_x
_atom_site_fract_y
_atom_site_fract_z
Si Si1 0.819406 0.822322 0.576940
Si Si2 0.817807 0.575703 0.247048
Si Si3 0.830549 0.080715 0.888385
Si Si4 0.830075 0.418937 0.057812
Si Si5 0.317705 0.822439 0.393924
Si Si6 0.823514 0.420282 0.713130
O O1 0.750000 0.750000 0.606249
O O2 0.746661 0.846280 0.486317
O O3 0.781628 0.879525 0.646863
O O4 0.000000 0.814396 0.566403
O O5 0.754251 0.500000 0.266391
O O6 0.761119 0.601647 0.152103
O O7 0.757229 0.625072 0.321878
O O8 0.000000 0.573870 0.245166
O O9 0.720122 0.103016 0.810193
O O10 0.000000 0.109523 0.870732
O O11 0.833756 0.000000 0.895294
O O12 0.771342 0.111315 0.979617
O O13 0.837018 0.500000 0.053005
O O14 0.000000 0.388842 0.046430
O O15 0.500000 0.819071 0.398402
O O16 0.250000 0.750000 0.367576
O O17 0.790128 0.500000 0.699661
O O18 0.000000 0.402757 0.696857
#
# Coordination Sequence:
#
# PCOD8172781 Si02
#       6
#     8   8   8   8   8   8
#     4  11  22  37  55  74  99 131 168 207 250 301
#     4   8  15  28  48  73  97 124 162 205 244 284
#     4   9  16  26  42  68 101 132 161 197 243 292
#     4   8  13  24  43  66  92 123 160 200 241 287
#     4  10  19  33  52  72  96 128 165 202 244 296
#     4  10  20  34  53  77 103 132 167 206 249 296
#
# _framework density 18.090862999999999
#
# number of rings (size 3 to 8) (size 9 to 14) (size 15 to 20)
#    0.000    2.667    0.000    5.000    0.000    3.667 
#    0.000    3.333    0.000    4.500    0.000    4.667 
#    0.000    0.000    0.000    0.000    0.000    0.000 
#
# Total GULP energy -297515.494212 kJ/mol
# GULP energy per Si atom -12396.478926 kJ/mol
# Density = 1.804969 g / cm^3
# Si number density = 18.090863 Si / 1000 Ang^3
#
#
#
# Elastic Constant Matrix: (Units=GPa)
#
#
# Indices 1 2 3 4 5 6 
#
# 1 87.8358 24.8130 40.2459 0.0000 0.0000 0.0000
# 2 24.8130 53.2232 61.9340 0.0000 0.0000 0.0000
# 3 40.2459 61.9340 147.2153 0.0000 0.0000 0.0000
# 4 0.0000 0.0000 0.0000 2.6319 0.0000 0.0000
# 5 0.0000 0.0000 0.0000 0.0000 25.9041 0.0000
# 6 0.0000 0.0000 0.0000 0.0000 0.0000 20.5147
#
#
#
# Elastic Compliance Matrix: (Units=1/GPa)
#
#
# Indices 1 2 3 4 5 6 
#
# 1 0.013414 -0.003892 -0.002030 0.000000 0.000000 0.000000
# 2 -0.003892 0.037938 -0.014897 0.000000 0.000000 0.000000
# 3 -0.002030 -0.014897 0.013615 0.000000 0.000000 0.000000
# 4 0.000000 0.000000 0.000000 0.379953 0.000000 0.000000
# 5 0.000000 0.000000 0.000000 0.000000 0.038604 0.000000
# 6 0.000000 0.000000 0.000000 0.000000 0.000000 0.048745
#
#
# Mechanical properties :
#
#
# Convention : Reuss Voigt Hill
#
# Bulk Modulus (GPa) = 42.86248 60.25110 51.55679
# Shear Modulus (GPa) = 8.59575 20.56223 14.57899
#
# Velocity S-wave (km/s) = 2.18214 3.37502 2.84188
# Velocity P-wave (km/s) = 5.48574 6.96884 6.27128
#
# Compressibility (1/GPa) = 0.02333043
#
# Stress axis : x y z
#
# Youngs Moduli (GPa) = 74.54684 26.35889 73.44929
#
# Poissons Ratio (x) = 0.10258 0.14910
# Poissons Ratio (y) = 0.29011 1.09415
# Poissons Ratio (z) = 0.15133 0.39266
#
# Static dielectric constant tensor:
#      x y z
#    x 3.332900 0.000000 0.000000 
#    y 0.000000 3.025890 0.000000 
#    z 0.000000 0.000000 3.654580 
# 
# 
# High freq. dielectric constant tensor:
#      x y z
#    x 1.696070 0.000000 0.000000 
#    y 0.000000 1.655010 0.000000 
#    z 0.000000 0.000000 1.717100 
# 
# From -- ./inp_files/15374.got.cif
#   From: 2010.03.12/outbox.cif.g09.slc.cpg/sg35_8_cif.got.tgz:15374.got - 2010.04.14 02:02:04.
