data_PCOD8172456
_publ_section_title
;
Structure prediction by ZEFSAII (Michael W. Deem and Ramdas Pophale) SiO2 
 PCOD8172456
Probable space group: C M M 2
;
_chemical_formula_sum "Si O2"
_cell_formula_units_Z 48
_cell_length_a 33.952297
_cell_length_b 8.878424
_cell_length_c 7.718682
_cell_angle_alpha 90.000000
_cell_angle_beta 90.000000
_cell_angle_gamma 90.000000
_cell_volume 2326.741798
_symmetry_space_group_name_H-M "C M M 2"
_symmetry_group_IT_number 35
_symmetry_cell_setting 'orthorhombic'
loop_
_space_group_symop_operation_xyz
x,y,z
-x,-y,z
-x,y,z
x,-y,z
1/2+x,1/2+y,z
1/2-x,1/2-y,z
1/2-x,1/2+y,z
1/2+x,1/2-y,z
loop_
_atom_site_type_symbol
_atom_site_label
_atom_site_fract_x
_atom_site_fract_y
_atom_site_fract_z
Si Si1 0.500000 0.671655 0.346750
Si Si2 0.156641 0.177381 0.223340
Si Si3 0.920874 0.677553 0.345952
Si Si4 0.208046 0.177901 0.555636
Si Si5 0.000000 0.831213 0.758953
Si Si6 0.578165 0.175033 0.745739
Si Si7 0.836808 0.678238 0.873395
O O1 0.500000 0.500000 0.280791
O O2 0.537985 0.758517 0.273808
O O3 0.500000 0.680150 0.553002
O O4 0.112925 0.242245 0.237750
O O5 0.180945 0.221617 0.393301
O O6 0.155162 0.000000 0.193735
O O7 0.177076 0.255917 0.057744
O O8 0.918804 0.500000 0.313430
O O9 0.915579 0.721387 0.546465
O O10 0.250000 0.250000 0.518765
O O11 0.189939 0.247371 0.727999
O O12 0.212025 0.000000 0.578809
O O13 0.040015 0.754996 0.829446
O O14 0.000000 0.000000 0.828341
O O15 0.617464 0.223180 0.846601
O O16 0.569648 0.000000 0.761217
O O17 0.830606 0.500000 0.866341
#
# Coordination Sequence:
#
# PCOD8172456 Si02
#       7
#     4   8   8   8   4   8   8
#     4   9  17  29  48  81 120 160 207 257 312 365
#     4  11  24  41  63  94 129 166 207 256 311 369
#     4  10  18  33  57  85 119 162 211 259 310 366
#     4  11  25  45  70  96 126 161 201 250 308 372
#     4   9  17  27  48  81 116 158 205 253 304 357
#     4   9  18  33  55  83 118 160 205 253 306 362
#     4  11  23  41  66  95 127 165 208 256 309 370
#
# _framework density 20.629705999999999
#
# number of rings (size 3 to 8) (size 9 to 14) (size 15 to 20)
#    0.000    1.833    1.667    2.500    0.000    6.667 
#    0.000    2.500    0.000    3.000    0.000    0.000 
#    0.000    0.000    0.000    0.000    0.000    0.000 
#
# Total GULP energy -297681.126236 kJ/mol
# GULP energy per Si atom -12403.380260 kJ/mol
# Density = 2.058275 g / cm^3
# Si number density = 20.629706 Si / 1000 Ang^3
#
#
#
# Elastic Constant Matrix: (Units=GPa)
#
#
# Indices 1 2 3 4 5 6 
#
# 1 118.3893 48.5972 38.3220 0.0000 0.0000 0.0000
# 2 48.5972 85.9420 34.1431 0.0000 0.0000 0.0000
# 3 38.3220 34.1431 90.3503 0.0000 0.0000 0.0000
# 4 0.0000 0.0000 0.0000 28.8748 0.0000 0.0000
# 5 0.0000 0.0000 0.0000 0.0000 4.4127 0.0000
# 6 0.0000 0.0000 0.0000 0.0000 0.0000 36.3925
#
#
#
# Elastic Compliance Matrix: (Units=1/GPa)
#
#
# Indices 1 2 3 4 5 6 
#
# 1 0.011601 -0.005419 -0.002873 0.000000 0.000000 0.000000
# 2 -0.005419 0.016222 -0.003832 0.000000 0.000000 0.000000
# 3 -0.002873 -0.003832 0.013735 0.000000 0.000000 0.000000
# 4 0.000000 0.000000 0.000000 0.034632 0.000000 0.000000
# 5 0.000000 0.000000 0.000000 0.000000 0.226618 0.000000
# 6 0.000000 0.000000 0.000000 0.000000 0.000000 0.027478
#
#
# Mechanical properties :
#
#
# Convention : Reuss Voigt Hill
#
# Bulk Modulus (GPa) = 57.76733 59.64513 58.70623
# Shear Modulus (GPa) = 13.87719 25.51063 19.69391
#
# Velocity S-wave (km/s) = 2.59642 3.52034 3.09307
# Velocity P-wave (km/s) = 6.08698 6.74528 6.42457
#
# Compressibility (1/GPa) = 0.01731082
#
# Stress axis : x y z
#
# Youngs Moduli (GPa) = 86.20032 61.64408 72.80856
#
# Poissons Ratio (x) = 0.33402 0.20917
# Poissons Ratio (y) = 0.46708 0.27900
# Poissons Ratio (z) = 0.24764 0.23622
#
# Static dielectric constant tensor:
#      x y z
#    x 3.751190 0.000000 0.000000 
#    y 0.000000 3.761870 0.000000 
#    z 0.000000 0.000000 3.645760 
# 
# 
# High freq. dielectric constant tensor:
#      x y z
#    x 1.810090 0.000000 0.000000 
#    y 0.000000 1.814950 0.000000 
#    z 0.000000 0.000000 1.799090 
# 
# From -- ./inp_files/10520.got.cif
#   From: 2010.03.12/outbox.cif.g09.slc.cpg/sg35_6_cif.got.tgz:10520.got - 2010.04.14 02:02:04.
