data_PCOD8172214
_publ_section_title
;
Structure prediction by ZEFSAII (Michael W. Deem and Ramdas Pophale) SiO2 
 PCOD8172214
Probable space group: C M M 2
;
_chemical_formula_sum "Si O2"
_cell_formula_units_Z 64
_cell_length_a 8.650931
_cell_length_b 18.700171
_cell_length_c 20.866640
_cell_angle_alpha 90.000000
_cell_angle_beta 90.000000
_cell_angle_gamma 90.000000
_cell_volume 3375.677503
_symmetry_space_group_name_H-M "C M M 2"
_symmetry_group_IT_number 35
_symmetry_cell_setting 'orthorhombic'
loop_
_space_group_symop_operation_xyz
x,y,z
-x,-y,z
-x,y,z
x,-y,z
1/2+x,1/2+y,z
1/2-x,1/2-y,z
1/2-x,1/2+y,z
1/2+x,1/2-y,z
loop_
_atom_site_type_symbol
_atom_site_label
_atom_site_fract_x
_atom_site_fract_y
_atom_site_fract_z
Si Si1 0.816845 0.329561 0.000000
Si Si2 0.826354 0.585055 0.500663
Si Si3 0.818867 0.672069 0.743097
Si Si4 0.816845 0.170439 0.872316
Si Si5 0.823027 0.915707 0.631819
Si Si6 0.826354 0.914945 0.371653
Si Si7 0.818867 0.827931 0.129219
Si Si8 0.176973 0.415707 0.240497
O O1 0.750000 0.250000 0.001130
O O2 0.757729 0.365160 0.066069
O O3 0.000000 0.329664 0.997224
O O4 0.750000 0.368975 0.936158
O O5 0.827777 0.500000 0.497176
O O6 0.727230 0.610981 0.561481
O O7 0.750000 0.616666 0.436158
O O8 0.000000 0.614966 0.506853
O O9 0.750000 0.750000 0.729154
O O10 0.742271 0.634840 0.806247
O O11 0.786145 0.621391 0.683383
O O12 0.000000 0.679612 0.754628
O O13 0.750000 0.250000 0.871186
O O14 0.000000 0.170336 0.875092
O O15 0.000000 0.893342 0.643354
O O16 0.799092 0.000000 0.638309
O O17 0.727230 0.889019 0.310836
O O18 0.000000 0.885034 0.365463
O O19 0.827777 0.000000 0.375140
O O20 0.750000 0.750000 0.143162
O O21 0.786145 0.878609 0.188933
O O22 0.000000 0.820388 0.117688
O O23 0.200908 0.500000 0.234007
O O24 0.000000 0.393342 0.228963
#
# Coordination Sequence:
#
# PCOD8172214 Si02
#       8
#     8   8   8   8   8   8   8   8
#     4  10  17  28  46  70  98 127 163 205 249 292
#     4   9  16  27  45  70  98 128 164 206 249 291
#     4  11  21  34  52  75 103 134 169 207 250 298
#     4  10  17  28  46  70  98 127 163 205 249 292
#     4  10  20  34  52  75 103 134 168 207 251 298
#     4   9  16  27  45  70  98 128 164 206 249 291
#     4  11  21  34  52  75 103 134 169 207 250 298
#     4  10  20  34  52  75 103 134 168 207 251 298
#
# _framework density 18.959157000000001
#
# number of rings (size 3 to 8) (size 9 to 14) (size 15 to 20)
#    0.000    2.000    0.000    8.250    0.000    4.500 
#    0.000    0.000    0.000    1.500    0.000    5.250 
#    0.000    0.000    0.000    0.000    0.000    0.000 
#
# Total GULP energy -396745.802252 kJ/mol
# GULP energy per Si atom -12398.306320 kJ/mol
# Density = 1.891601 g / cm^3
# Si number density = 18.959157 Si / 1000 Ang^3
#
#
#
# Elastic Constant Matrix: (Units=GPa)
#
#
# Indices 1 2 3 4 5 6 
#
# 1 164.5993 21.8875 56.2418 0.0000 0.0000 0.0000
# 2 21.8875 18.8872 28.9525 0.0000 0.0000 0.0000
# 3 56.2418 28.9525 168.3364 0.0000 0.0000 0.0000
# 4 0.0000 0.0000 0.0000 19.8240 0.0000 0.0000
# 5 0.0000 0.0000 0.0000 0.0000 42.3277 0.0000
# 6 0.0000 0.0000 0.0000 0.0000 0.0000 18.6867
#
#
#
# Elastic Compliance Matrix: (Units=1/GPa)
#
#
# Indices 1 2 3 4 5 6 
#
# 1 0.007403 -0.006502 -0.001355 0.000000 0.000000 0.000000
# 2 -0.006502 0.077613 -0.011177 0.000000 0.000000 0.000000
# 3 -0.001355 -0.011177 0.008316 0.000000 0.000000 0.000000
# 4 0.000000 0.000000 0.000000 0.050444 0.000000 0.000000
# 5 0.000000 0.000000 0.000000 0.000000 0.023625 0.000000
# 6 0.000000 0.000000 0.000000 0.000000 0.000000 0.053514
#
#
# Mechanical properties :
#
#
# Convention : Reuss Voigt Hill
#
# Bulk Modulus (GPa) = 18.09471 62.88739 40.49105
# Shear Modulus (GPa) = 18.02435 32.48378 25.25406
#
# Velocity S-wave (km/s) = 3.08668 4.14376 3.65365
# Velocity P-wave (km/s) = 4.71892 7.49241 6.26117
#
# Compressibility (1/GPa) = 0.05526476
#
# Stress axis : x y z
#
# Youngs Moduli (GPa) = 135.08153 12.88446 120.25710
#
# Poissons Ratio (x) = 0.08377 0.16296
# Poissons Ratio (y) = 0.87825 1.34406
# Poissons Ratio (z) = 0.18305 0.14400
#
# Static dielectric constant tensor:
#      x y z
#    x 3.629690 0.000000 0.000000 
#    y 0.000000 2.787750 0.000000 
#    z 0.000000 0.000000 4.291310 
# 
# 
# High freq. dielectric constant tensor:
#      x y z
#    x 1.759570 0.000000 0.000000 
#    y 0.000000 1.659060 0.000000 
#    z 0.000000 0.000000 1.766010 
# 
# From -- ./inp_files/18366.got.cif
#   From: 2010.03.12/outbox.cif.g09.slc.cpg/sg35_10_cif.got.tgz:18366.got - 2010.04.14 02:02:04.
