data_PCOD8172163
_publ_section_title
;
Structure prediction by ZEFSAII (Michael W. Deem and Ramdas Pophale) SiO2 
 PCOD8172163
Probable space group: C M M 2
;
_chemical_formula_sum "Si O2"
_cell_formula_units_Z 64
_cell_length_a 30.996195
_cell_length_b 21.891468
_cell_length_c 5.203214
_cell_angle_alpha 90.000000
_cell_angle_beta 90.000000
_cell_angle_gamma 90.000000
_cell_volume 3530.652364
_symmetry_space_group_name_H-M "C M M 2"
_symmetry_group_IT_number 35
_symmetry_cell_setting 'orthorhombic'
loop_
_space_group_symop_operation_xyz
x,y,z
-x,-y,z
-x,y,z
x,-y,z
1/2+x,1/2+y,z
1/2-x,1/2-y,z
1/2-x,1/2+y,z
1/2+x,1/2-y,z
loop_
_atom_site_type_symbol
_atom_site_label
_atom_site_fract_x
_atom_site_fract_y
_atom_site_fract_z
Si Si1 0.453697 0.070581 0.135880
Si Si2 0.905275 0.430176 0.647858
Si Si3 0.949303 0.068404 0.527732
Si Si4 0.744384 0.179722 0.570914
Si Si5 0.625837 0.255931 0.016426
Si Si6 0.448435 0.645050 0.026987
Si Si7 0.280295 0.690874 0.070990
Si Si8 0.644873 0.818827 0.513166
O O1 0.500000 0.102908 0.099526
O O2 0.441930 0.078182 0.432821
O O3 0.457493 0.000000 0.060868
O O4 0.421000 0.097232 0.922541
O O5 0.889204 0.500000 0.666580
O O6 0.866440 0.389281 0.551685
O O7 0.934838 0.105864 0.778513
O O8 0.000000 0.060689 0.531365
O O9 0.928601 0.000000 0.527998
O O10 0.935413 0.105114 0.274152
O O11 0.750000 0.250000 0.649354
O O12 0.774721 0.154596 0.340687
O O13 0.695401 0.172982 0.495950
O O14 0.761125 0.149113 0.838113
O O15 0.581568 0.294723 0.030395
O O16 0.627079 0.222221 0.743998
O O17 0.669143 0.296393 0.033149
O O18 0.625326 0.207601 0.249595
O O19 0.500000 0.662123 0.026028
O O20 0.250000 0.750000 0.126820
#
# Coordination Sequence:
#
# PCOD8172163 Si02
#       8
#     8   8   8   8   8   8   8   8
#     4   9  17  33  54  70  90 123 167 223 271 304
#     4  10  21  35  51  76 101 128 177 231 271 312
#     4   9  17  33  57  79 100 137 189 227 247 281
#     4  10  16  30  49  74 101 119 155 221 261 301
#     4  12  21  33  53  77 111 138 175 210 269 319
#     4  10  21  35  50  77 116 148 172 212 260 308
#     4  10  16  30  49  75 101 118 164 222 256 298
#     4  12  21  33  52  76 104 138 171 218 272 327
#
# _framework density 18.126963
#
# number of rings (size 3 to 8) (size 9 to 14) (size 15 to 20)
#    0.000    1.750    5.000    2.250    0.000    3.000 
#    0.000    3.750    0.000    0.000    0.000    5.250 
#    0.000    0.000    0.000    0.000    0.000    0.000 
#
# Total GULP energy -396437.249875 kJ/mol
# GULP energy per Si atom -12388.664059 kJ/mol
# Density = 1.808571 g / cm^3
# Si number density = 18.126963 Si / 1000 Ang^3
#
#
#
# Elastic Constant Matrix: (Units=GPa)
#
#
# Indices 1 2 3 4 5 6 
#
# 1 77.0917 31.2032 9.6636 0.0000 0.0000 0.0000
# 2 31.2032 46.6235 19.0225 0.0000 0.0000 0.0000
# 3 9.6636 19.0225 140.0942 0.0000 0.0000 0.0000
# 4 0.0000 0.0000 0.0000 4.4203 0.0000 0.0000
# 5 0.0000 0.0000 0.0000 0.0000 21.6337 0.0000
# 6 0.0000 0.0000 0.0000 0.0000 0.0000 10.1126
#
#
#
# Elastic Compliance Matrix: (Units=1/GPa)
#
#
# Indices 1 2 3 4 5 6 
#
# 1 0.017813 -0.012090 0.000413 0.000000 0.000000 0.000000
# 2 -0.012090 0.030912 -0.003363 0.000000 0.000000 0.000000
# 3 0.000413 -0.003363 0.007566 0.000000 0.000000 0.000000
# 4 0.000000 0.000000 0.000000 0.226231 0.000000 0.000000
# 5 0.000000 0.000000 0.000000 0.000000 0.046224 0.000000
# 6 0.000000 0.000000 0.000000 0.000000 0.000000 0.098886
#
#
# Mechanical properties :
#
#
# Convention : Reuss Voigt Hill
#
# Bulk Modulus (GPa) = 38.15283 42.62089 40.38686
# Shear Modulus (GPa) = 10.71923 20.82799 15.77361
#
# Velocity S-wave (km/s) = 2.43439 3.39338 2.95307
# Velocity P-wave (km/s) = 5.38469 6.23833 5.82717
#
# Compressibility (1/GPa) = 0.02621038
#
# Stress axis : x y z
#
# Youngs Moduli (GPa) = 56.13758 32.34975 132.16560
#
# Poissons Ratio (x) = 0.39112 -0.05457
# Poissons Ratio (y) = 0.67872 0.44452
# Poissons Ratio (z) = -0.02318 0.10880
#
# Static dielectric constant tensor:
#      x y z
#    x 3.220570 0.000000 0.000000 
#    y 0.000000 3.013310 0.000000 
#    z 0.000000 0.000000 3.979270 
# 
# 
# High freq. dielectric constant tensor:
#      x y z
#    x 1.687790 0.000000 0.000000 
#    y 0.000000 1.647680 0.000000 
#    z 0.000000 0.000000 1.740310 
# 
# From -- ./inp_files/3782.got.cif
#   From: 2010.03.12/outbox.cif.g09.slc.cpg/sg35_2_cif.got.tgz:3782.got - 2010.04.14 02:02:04.
