data_PCOD8172200
_publ_section_title
;
Structure prediction by ZEFSAII (Michael W. Deem and Ramdas Pophale) SiO2 
 PCOD8172200
Probable space group: C M M 2
;
_chemical_formula_sum "Si O2"
_cell_formula_units_Z 48
_cell_length_a 8.695307
_cell_length_b 19.367616
_cell_length_c 15.618553
_cell_angle_alpha 90.000000
_cell_angle_beta 90.000000
_cell_angle_gamma 90.000000
_cell_volume 2630.279387
_symmetry_space_group_name_H-M "C M M 2"
_symmetry_group_IT_number 35
_symmetry_cell_setting 'orthorhombic'
loop_
_space_group_symop_operation_xyz
x,y,z
-x,-y,z
-x,y,z
x,-y,z
1/2+x,1/2+y,z
1/2-x,1/2-y,z
1/2-x,1/2+y,z
1/2+x,1/2-y,z
loop_
_atom_site_type_symbol
_atom_site_label
_atom_site_fract_x
_atom_site_fract_y
_atom_site_fract_z
Si Si1 0.818022 0.673340 0.060720
Si Si2 0.819884 0.824947 0.415768
Si Si3 0.678178 0.919665 0.746407
Si Si4 0.180889 0.825458 0.887873
Si Si5 0.820958 0.920673 0.567628
Si Si6 0.319811 0.325522 0.228243
O O1 0.750000 0.750000 0.063404
O O2 0.760223 0.634413 0.147860
O O3 0.000000 0.673527 0.057275
O O4 0.752130 0.639401 0.973867
O O5 0.750000 0.750000 0.429581
O O6 0.756732 0.876593 0.487907
O O7 0.783011 0.858212 0.321678
O O8 0.000000 0.815579 0.425320
O O9 0.500000 0.902364 0.761353
O O10 0.781858 0.875554 0.809911
O O11 0.723987 0.898589 0.650369
O O12 0.714188 0.000000 0.762359
O O13 0.250000 0.750000 0.869908
O O14 0.000000 0.817739 0.899220
O O15 0.000000 0.906351 0.586086
O O16 0.792224 0.000000 0.543937
O O17 0.500000 0.321840 0.209809
O O18 0.250000 0.250000 0.232461
#
# Coordination Sequence:
#
# PCOD8172200 Si02
#       6
#     8   8   8   8   8   8
#     4  10  17  27  44  68  98 130 163 199 243 291
#     4   9  18  30  47  72  99 127 160 202 247 288
#     4  10  21  37  55  75 100 131 167 206 250 301
#     4  11  21  34  53  77 104 132 166 207 251 296
#     4   9  18  34  53  71  94 128 168 204 242 293
#     4   9  15  25  41  64  94 126 160 197 240 289
#
# _framework density 18.249012
#
# number of rings (size 3 to 8) (size 9 to 14) (size 15 to 20)
#    0.000    2.333    0.000    6.000    0.000    3.000 
#    0.000    1.667    0.000    1.000    0.000    2.333 
#    0.000    0.000    0.000    0.000    0.000    0.000 
#
# Total GULP energy -297456.038011 kJ/mol
# GULP energy per Si atom -12394.001584 kJ/mol
# Density = 1.820748 g / cm^3
# Si number density = 18.249012 Si / 1000 Ang^3
#
#
#
# Elastic Constant Matrix: (Units=GPa)
#
#
# Indices 1 2 3 4 5 6 
#
# 1 113.3013 27.8113 59.0634 0.0000 0.0000 0.0000
# 2 27.8113 47.2098 58.4287 0.0000 0.0000 0.0000
# 3 59.0634 58.4287 166.6775 0.0000 0.0000 0.0000
# 4 0.0000 0.0000 0.0000 1.4804 0.0000 0.0000
# 5 0.0000 0.0000 0.0000 0.0000 32.2989 0.0000
# 6 0.0000 0.0000 0.0000 0.0000 0.0000 19.6246
#
#
#
# Elastic Compliance Matrix: (Units=1/GPa)
#
#
# Indices 1 2 3 4 5 6 
#
# 1 0.011052 -0.002939 -0.002886 0.000000 0.000000 0.000000
# 2 -0.002939 0.038196 -0.012348 0.000000 0.000000 0.000000
# 3 -0.002886 -0.012348 0.011351 0.000000 0.000000 0.000000
# 4 0.000000 0.000000 0.000000 0.675491 0.000000 0.000000
# 5 0.000000 0.000000 0.000000 0.000000 0.030961 0.000000
# 6 0.000000 0.000000 0.000000 0.000000 0.000000 0.050957
#
#
# Mechanical properties :
#
#
# Convention : Reuss Voigt Hill
#
# Bulk Modulus (GPa) = 41.23252 68.64393 54.93823
# Shear Modulus (GPa) = 5.79752 22.80646 14.30199
#
# Velocity S-wave (km/s) = 1.78432 3.53900 2.80252
# Velocity P-wave (km/s) = 5.18541 7.37537 6.37513
#
# Compressibility (1/GPa) = 0.02425270
#
# Stress axis : x y z
#
# Youngs Moduli (GPa) = 90.48210 26.18088 88.09798
#
# Poissons Ratio (x) = 0.07694 0.25427
# Poissons Ratio (y) = 0.26589 1.08785
# Poissons Ratio (z) = 0.26115 0.32329
#
# Static dielectric constant tensor:
#      x y z
#    x 3.413460 0.000000 0.000000 
#    y 0.000000 2.966430 0.000000 
#    z 0.000000 0.000000 4.518760 
# 
# 
# High freq. dielectric constant tensor:
#      x y z
#    x 1.717730 0.000000 0.000000 
#    y 0.000000 1.650510 0.000000 
#    z 0.000000 0.000000 1.735820 
# 
# From -- ./inp_files/15399.got.cif
#   From: 2010.03.12/outbox.cif.g09.slc.cpg/sg35_8_cif.got.tgz:15399.got - 2010.04.14 02:02:04.
