data_PCOD8172579
_publ_section_title
;
Structure prediction by ZEFSAII (Michael W. Deem and Ramdas Pophale) SiO2 
 PCOD8172579
Probable space group: C M M 2
;
_chemical_formula_sum "Si O2"
_cell_formula_units_Z 64
_cell_length_a 8.820096
_cell_length_b 28.319960
_cell_length_c 15.739525
_cell_angle_alpha 90.000000
_cell_angle_beta 90.000000
_cell_angle_gamma 90.000000
_cell_volume 3931.493568
_symmetry_space_group_name_H-M "C M M 2"
_symmetry_group_IT_number 35
_symmetry_cell_setting 'orthorhombic'
loop_
_space_group_symop_operation_xyz
x,y,z
-x,-y,z
-x,y,z
x,-y,z
1/2+x,1/2+y,z
1/2-x,1/2-y,z
1/2-x,1/2+y,z
1/2+x,1/2-y,z
loop_
_atom_site_type_symbol
_atom_site_label
_atom_site_fract_x
_atom_site_fract_y
_atom_site_fract_z
Si Si1 0.824657 0.446460 0.172560
Si Si2 0.178456 0.801249 0.261298
Si Si3 0.321456 0.198783 0.578898
Si Si4 0.323142 0.446494 0.353107
Si Si5 0.179144 0.301894 0.946318
Si Si6 0.675333 0.799895 0.761869
Si Si7 0.178227 0.139336 0.094955
Si Si8 0.820696 0.642506 0.416602
O O1 0.803115 0.500000 0.139843
O O2 0.730490 0.437475 0.257632
O O3 0.759310 0.411510 0.101432
O O4 0.000000 0.435403 0.191399
O O5 0.250000 0.750000 0.254871
O O6 0.221217 0.829031 0.175962
O O7 0.244983 0.828873 0.340783
O O8 0.000000 0.796236 0.273280
O O9 0.500000 0.205271 0.570431
O O10 0.250000 0.250000 0.565611
O O11 0.276100 0.175875 0.671834
O O12 0.262868 0.163816 0.505829
O O13 0.500000 0.434715 0.356845
O O14 0.288241 0.500000 0.381869
O O15 0.233367 0.411808 0.415871
O O16 0.250000 0.250000 0.955489
O O17 0.212807 0.324956 0.852128
O O18 0.000000 0.298509 0.964751
O O19 0.258819 0.336532 0.011157
O O20 0.500000 0.789585 0.757470
O O21 0.750000 0.750000 0.765549
O O22 0.000000 0.131786 0.086445
O O23 0.000000 0.645217 0.406497
#
# Coordination Sequence:
#
# PCOD8172579 Si02
#       8
#     8   8   8   8   8   8   8   8
#     4  10  20  34  53  74  95 121 157 201 243 284
#     4  11  23  35  46  63  93 132 167 197 231 275
#     4   9  18  31  47  70  97 127 161 197 238 283
#     4  10  20  34  51  70  94 124 159 200 243 285
#     4  10  19  31  49  71  97 129 163 202 241 285
#     4   8  15  29  47  67  93 123 157 198 242 282
#     4  11  22  34  49  70  97 130 163 198 237 283
#     4  11  21  32  49  71  96 127 162 200 238 284
#
# _framework density 16.2788
#
# number of rings (size 3 to 8) (size 9 to 14) (size 15 to 20)
#    0.000    2.000    1.250    3.000    0.000    6.500 
#    0.000    0.000    0.000    0.000    0.000    0.875 
#    0.000    3.000    0.000    0.000    0.000    0.000 
#
# Total GULP energy -396619.578144 kJ/mol
# GULP energy per Si atom -12394.361817 kJ/mol
# Density = 1.624175 g / cm^3
# Si number density = 16.278800 Si / 1000 Ang^3
#
#
#
# Elastic Constant Matrix: (Units=GPa)
#
#
# Indices 1 2 3 4 5 6 
#
# 1 48.4262 34.1203 38.8901 0.0000 0.0000 0.0000
# 2 34.1203 98.1603 57.9752 0.0000 0.0000 0.0000
# 3 38.8901 57.9752 131.9669 0.0000 0.0000 0.0000
# 4 0.0000 0.0000 0.0000 8.9524 0.0000 0.0000
# 5 0.0000 0.0000 0.0000 0.0000 16.0137 0.0000
# 6 0.0000 0.0000 0.0000 0.0000 0.0000 28.0833
#
#
#
# Elastic Compliance Matrix: (Units=1/GPa)
#
#
# Indices 1 2 3 4 5 6 
#
# 1 0.030328 -0.007107 -0.005815 0.000000 0.000000 0.000000
# 2 -0.007107 0.015423 -0.004681 0.000000 0.000000 0.000000
# 3 -0.005815 -0.004681 0.011348 0.000000 0.000000 0.000000
# 4 0.000000 0.000000 0.000000 0.111702 0.000000 0.000000
# 5 0.000000 0.000000 0.000000 0.000000 0.062446 0.000000
# 6 0.000000 0.000000 0.000000 0.000000 0.000000 0.035608
#
#
# Mechanical properties :
#
#
# Convention : Reuss Voigt Hill
#
# Bulk Modulus (GPa) = 45.68017 60.05830 52.86924
# Shear Modulus (GPa) = 16.16249 20.44773 18.30511
#
# Velocity S-wave (km/s) = 3.15438 3.54799 3.35696
# Velocity P-wave (km/s) = 6.43342 7.33198 6.89735
#
# Compressibility (1/GPa) = 0.02189134
#
# Stress axis : x y z
#
# Youngs Moduli (GPa) = 32.97323 64.84031 88.12352
#
# Poissons Ratio (x) = 0.46084 0.51244
# Poissons Ratio (y) = 0.23435 0.41249
# Poissons Ratio (z) = 0.19174 0.30351
#
# Static dielectric constant tensor:
#      x y z
#    x 2.754360 0.000000 0.000000 
#    y 0.000000 3.187800 0.000000 
#    z 0.000000 0.000000 3.521260 
# 
# 
# High freq. dielectric constant tensor:
#      x y z
#    x 1.643100 0.000000 0.000000 
#    y 0.000000 1.605180 0.000000 
#    z 0.000000 0.000000 1.622600 
# 
# From -- ./inp_files/16197.got.cif
#   From: 2010.03.12/outbox.cif.g09.slc.cpg/sg35_9_cif.got.tgz:16197.got - 2010.04.14 02:02:04.
