data_PCOD8172053
_publ_section_title
;
Structure prediction by ZEFSAII (Michael W. Deem and Ramdas Pophale) SiO2 
 PCOD8172053
Probable space group: P N N 2
;
_chemical_formula_sum "Si O2"
_cell_formula_units_Z 22
_cell_length_a 6.237983
_cell_length_b 10.724862
_cell_length_c 13.682117
_cell_angle_alpha 90.000000
_cell_angle_beta 90.000000
_cell_angle_gamma 90.000000
_cell_volume 915.354244
_symmetry_space_group_name_H-M "P N N 2"
_symmetry_group_IT_number 34
_symmetry_cell_setting 'orthorhombic'
loop_
_space_group_symop_operation_xyz
x,y,z
-x,-y,z
1/2-x,1/2+y,1/2+z
1/2+x,1/2-y,1/2+z
loop_
_atom_site_type_symbol
_atom_site_label
_atom_site_fract_x
_atom_site_fract_y
_atom_site_fract_z
Si Si1 0.447561 0.369734 0.192180
Si Si2 0.677823 0.709273 0.750071
Si Si3 0.687825 0.178005 0.866560
Si Si4 0.980802 0.639480 0.918731
Si Si5 0.151393 0.185083 0.092073
Si Si6 0.500000 0.000000 0.021978
O O1 0.500000 0.500000 0.140076
O O2 0.657728 0.286552 0.184654
O O3 0.367002 0.394887 0.303149
O O4 0.252781 0.307658 0.137443
O O5 0.536590 0.806234 0.811506
O O6 0.812154 0.625241 0.827878
O O7 0.536104 0.637478 0.666910
O O8 0.781843 0.318013 0.884112
O O9 0.642028 0.097897 0.962162
O O10 0.000000 0.500000 0.965644
O O11 0.922337 0.758169 0.988130
O O12 0.324772 0.073903 0.086117
#
# Coordination Sequence:
#
# PCOD8172053 Si02
#       6
#     4   4   4   4   4   2
#     4  10  23  43  72 103 140 188 252 303 366 445
#     4  10  23  50  67 106 142 191 244 300 384 431
#     4  10  23  45  72 101 137 194 237 304 367 433
#     4  11  26  48  71 107 147 193 251 303 383 455
#     4  11  27  44  72 108 144 196 248 307 379 447
#     4  12  24  48  72 110 148 186 260 302 370 468
#
# _framework density 24.034410000000001
#
# number of rings (size 3 to 8) (size 9 to 14) (size 15 to 20)
#    0.000    1.455    1.818    1.091    7.636    2.182 
#   18.000    0.000    0.000    0.000    0.000    0.000 
#    0.000    0.000    0.000    0.000    0.000    0.000 
#
# Total GULP energy -272578.786789 kJ/mol
# GULP energy per Si atom -12389.944854 kJ/mol
# Density = 2.397971 g / cm^3
# Si number density = 24.034410 Si / 1000 Ang^3
#
#
#
# Elastic Constant Matrix: (Units=GPa)
#
#
# Indices 1 2 3 4 5 6 
#
# 1 112.3977 25.4729 36.0464 0.0000 0.0000 0.0000
# 2 25.4729 88.3793 20.6987 0.0000 0.0000 0.0000
# 3 36.0464 20.6987 95.5846 0.0000 0.0000 0.0000
# 4 0.0000 0.0000 0.0000 21.7802 0.0000 0.0000
# 5 0.0000 0.0000 0.0000 0.0000 34.3884 0.0000
# 6 0.0000 0.0000 0.0000 0.0000 0.0000 32.8189
#
#
#
# Elastic Compliance Matrix: (Units=1/GPa)
#
#
# Indices 1 2 3 4 5 6 
#
# 1 0.010517 -0.002215 -0.003487 0.000000 0.000000 0.000000
# 2 -0.002215 0.012386 -0.001847 0.000000 0.000000 0.000000
# 3 -0.003487 -0.001847 0.012177 0.000000 0.000000 0.000000
# 4 0.000000 0.000000 0.000000 0.045913 0.000000 0.000000
# 5 0.000000 0.000000 0.000000 0.000000 0.029080 0.000000
# 6 0.000000 0.000000 0.000000 0.000000 0.000000 0.030470
#
#
# Mechanical properties :
#
#
# Convention : Reuss Voigt Hill
#
# Bulk Modulus (GPa) = 50.04205 51.19972 50.62089
# Shear Modulus (GPa) = 30.80714 32.07374 31.44044
#
# Velocity S-wave (km/s) = 3.58410 3.65703 3.62075
# Velocity P-wave (km/s) = 6.16392 6.25946 6.21187
#
# Compressibility (1/GPa) = 0.01998319
#
# Stress axis : x y z
#
# Youngs Moduli (GPa) = 95.08370 80.73796 82.12392
#
# Poissons Ratio (x) = 0.17881 0.28633
# Poissons Ratio (y) = 0.21058 0.15168
# Poissons Ratio (z) = 0.33151 0.14912
#
# Static dielectric constant tensor:
#      x y z
#    x 4.597020 0.000000 0.000000 
#    y 0.000000 4.014780 0.000000 
#    z 0.000000 0.000000 4.446440 
# 
# 
# High freq. dielectric constant tensor:
#      x y z
#    x 1.974880 0.000000 0.000000 
#    y 0.000000 1.935130 0.000000 
#    z 0.000000 0.000000 1.948180 
# 
# From -- ./inp_files/6056.got.cif
#   From: 2010.03.12/outbox.cif.g09.slc.cpg/sg34_4_cif.got.tgz:6056.got - 2010.04.14 01:56:33.
