data_PCOD8172012
_publ_section_title
;
Structure prediction by ZEFSAII (Michael W. Deem and Ramdas Pophale) SiO2 
 PCOD8172012
Probable space group: P N N 2
;
_chemical_formula_sum "Si O2"
_cell_formula_units_Z 28
_cell_length_a 13.396117
_cell_length_b 20.614955
_cell_length_c 5.119530
_cell_angle_alpha 90.000000
_cell_angle_beta 90.000000
_cell_angle_gamma 90.000000
_cell_volume 1413.811192
_symmetry_space_group_name_H-M "P N N 2"
_symmetry_group_IT_number 34
_symmetry_cell_setting 'orthorhombic'
loop_
_space_group_symop_operation_xyz
x,y,z
-x,-y,z
1/2-x,1/2+y,1/2+z
1/2+x,1/2-y,1/2+z
loop_
_atom_site_type_symbol
_atom_site_label
_atom_site_fract_x
_atom_site_fract_y
_atom_site_fract_z
Si Si1 0.532019 0.888967 0.379440
Si Si2 0.954855 0.267300 0.204284
Si Si3 0.672371 0.057070 0.188850
Si Si4 0.315475 0.748506 0.706474
Si Si5 0.658141 0.973310 0.679485
Si Si6 0.188548 0.639474 0.499334
Si Si7 0.726069 0.686155 0.703887
O O1 0.539813 0.812915 0.448746
O O2 0.427310 0.902603 0.248087
O O3 0.548439 0.940741 0.617403
O O4 0.628447 0.906357 0.201472
O O5 0.895809 0.307965 0.422539
O O6 0.892653 0.200338 0.183538
O O7 0.067467 0.248855 0.269208
O O8 0.759529 0.110094 0.147657
O O9 0.703372 0.009749 0.426400
O O10 0.652658 0.023422 0.914682
O O11 0.283413 0.675535 0.624590
O O12 0.278919 0.797865 0.481342
O O13 0.269740 0.766764 0.983534
O O14 0.724475 0.909680 0.767842
#
# Coordination Sequence:
#
# PCOD8172012 Si02
#       7
#     4   4   4   4   4   4   4
#     4  11  21  37  58  86 122 153 191 239 298 358
#     4  10  22  38  63  91 121 153 200 246 298 362
#     4  12  24  36  57  85 124 156 192 241 298 359
#     4  11  22  40  62  88 119 159 194 246 302 353
#     4  11  25  36  55  86 118 161 198 234 293 362
#     4  10  22  39  60  87 122 157 198 244 293 358
#     4  11  23  39  59  91 121 157 194 245 303 352
#
# _framework density 19.804625999999999
#
# number of rings (size 3 to 8) (size 9 to 14) (size 15 to 20)
#    0.000    1.143    4.286    2.143    6.000    0.000 
#    0.000    0.000    0.000    0.857    3.714    0.000 
#    0.000    0.000    0.000    0.000    0.000    0.000 
#
# Total GULP energy -346885.156298 kJ/mol
# GULP energy per Si atom -12388.755582 kJ/mol
# Density = 1.975955 g / cm^3
# Si number density = 19.804626 Si / 1000 Ang^3
#
#
#
# Elastic Constant Matrix: (Units=GPa)
#
#
# Indices 1 2 3 4 5 6 
#
# 1 74.1824 19.6220 2.4771 0.0000 0.0000 0.0000
# 2 19.6220 90.4251 10.2021 0.0000 0.0000 0.0000
# 3 2.4771 10.2021 66.1804 0.0000 0.0000 0.0000
# 4 0.0000 0.0000 0.0000 37.1030 0.0000 0.0000
# 5 0.0000 0.0000 0.0000 0.0000 16.5925 0.0000
# 6 0.0000 0.0000 0.0000 0.0000 0.0000 26.5264
#
#
#
# Elastic Compliance Matrix: (Units=1/GPa)
#
#
# Indices 1 2 3 4 5 6 
#
# 1 0.014301 -0.003097 -0.000058 0.000000 0.000000 0.000000
# 2 -0.003097 0.011925 -0.001722 0.000000 0.000000 0.000000
# 3 -0.000058 -0.001722 0.015378 0.000000 0.000000 0.000000
# 4 0.000000 0.000000 0.000000 0.026952 0.000000 0.000000
# 5 0.000000 0.000000 0.000000 0.000000 0.060268 0.000000
# 6 0.000000 0.000000 0.000000 0.000000 0.000000 0.037698
#
#
# Mechanical properties :
#
#
# Convention : Reuss Voigt Hill
#
# Bulk Modulus (GPa) = 31.39701 32.82115 32.10908
# Shear Modulus (GPa) = 26.75313 29.27682 28.01497
#
# Velocity S-wave (km/s) = 3.67938 3.84901 3.76515
# Velocity P-wave (km/s) = 5.82565 6.03006 5.92874
#
# Compressibility (1/GPa) = 0.03185017
#
# Stress axis : x y z
#
# Youngs Moduli (GPa) = 69.92337 83.85598 65.02834
#
# Poissons Ratio (x) = 0.25969 0.00377
# Poissons Ratio (y) = 0.21654 0.11201
# Poissons Ratio (z) = 0.00405 0.14444
#
# Static dielectric constant tensor:
#      x y z
#    x 3.365560 0.000000 0.000000 
#    y 0.000000 3.840160 0.000000 
#    z 0.000000 0.000000 3.853500 
# 
# 
# High freq. dielectric constant tensor:
#      x y z
#    x 1.723370 0.000000 0.000000 
#    y 0.000000 1.777350 0.000000 
#    z 0.000000 0.000000 1.792450 
# 
# From -- ./inp_files/1010.got.cif
#   From: 2010.03.12/outbox.cif.g09.slc.cpg/sg34_1_cif.got.tgz:1010.got - 2010.04.14 01:56:33.
