data_PCOD8172848
_publ_section_title
;
Structure prediction by ZEFSAII (Michael W. Deem and Ramdas Pophale) SiO2 
 PCOD8172848
Probable space group: C M M 2
;
_chemical_formula_sum "Si O2"
_cell_formula_units_Z 64
_cell_length_a 32.721834
_cell_length_b 8.703877
_cell_length_c 11.606224
_cell_angle_alpha 90.000000
_cell_angle_beta 90.000000
_cell_angle_gamma 90.000000
_cell_volume 3305.531731
_symmetry_space_group_name_H-M "C M M 2"
_symmetry_group_IT_number 35
_symmetry_cell_setting 'orthorhombic'
loop_
_space_group_symop_operation_xyz
x,y,z
-x,-y,z
-x,y,z
x,-y,z
1/2+x,1/2+y,z
1/2-x,1/2-y,z
1/2-x,1/2+y,z
1/2+x,1/2-y,z
loop_
_atom_site_type_symbol
_atom_site_label
_atom_site_fract_x
_atom_site_fract_y
_atom_site_fract_z
Si Si1 0.348666 0.326897 0.291700
Si Si2 0.543386 0.828673 0.386986
Si Si3 0.376077 0.817653 0.774627
Si Si4 0.452267 0.682250 0.914300
Si Si5 0.290154 0.177766 0.127968
Si Si6 0.435542 0.328301 0.169525
Si Si7 0.378828 0.817964 0.511190
Si Si8 0.206085 0.181758 0.883285
O O1 0.330648 0.500000 0.286978
O O2 0.323281 0.198494 0.225827
O O3 0.390761 0.320637 0.223074
O O4 0.348785 0.272612 0.424863
O O5 0.500000 0.822075 0.452656
O O6 0.536192 0.752756 0.262843
O O7 0.576491 0.756183 0.472182
O O8 0.558110 0.000000 0.360520
O O9 0.418583 0.755474 0.828595
O O10 0.373785 0.765929 0.641856
O O11 0.333975 0.751062 0.823870
O O12 0.376233 0.000000 0.790064
O O13 0.500000 0.728225 0.885913
O O14 0.446997 0.500000 0.905742
O O15 0.440157 0.745156 0.042071
O O16 0.250000 0.250000 0.184549
O O17 0.285489 0.000000 0.092727
O O18 0.300297 0.279018 0.016478
O O19 0.451757 0.500000 0.156532
O O20 0.372406 0.000000 0.498841
O O21 0.250000 0.250000 0.838872
O O22 0.206974 0.000000 0.863842
#
# Coordination Sequence:
#
# PCOD8172848 Si02
#       8
#     8   8   8   8   8   8   8   8
#     4  10  19  33  55  82 110 142 181 224 276 333
#     4   9  17  30  50  75 102 134 174 223 276 326
#     4  11  23  39  59  82 111 151 197 242 291 343
#     4  10  21  36  54  79 114 154 193 236 289 346
#     4  11  21  35  57  86 118 146 176 216 267 329
#     4   9  18  32  51  75 104 138 175 220 275 333
#     4   9  20  37  54  74 104 143 187 232 277 330
#     4  11  22  39  63  90 119 148 185 232 284 343
#
# _framework density 19.361484000000001
#
# number of rings (size 3 to 8) (size 9 to 14) (size 15 to 20)
#    0.000    2.000    0.000    4.875    0.000    4.500 
#    0.000    1.875    0.000    3.000    0.000    0.000 
#    0.000    0.000    0.000    0.000    0.000    0.000 
#
# Total GULP energy -396426.431968 kJ/mol
# GULP energy per Si atom -12388.325999 kJ/mol
# Density = 1.931742 g / cm^3
# Si number density = 19.361484 Si / 1000 Ang^3
#
#
#
# Elastic Constant Matrix: (Units=GPa)
#
#
# Indices 1 2 3 4 5 6 
#
# 1 111.0931 41.9616 55.8469 0.0000 0.0000 0.0000
# 2 41.9616 76.2751 29.6092 0.0000 0.0000 0.0000
# 3 55.8469 29.6092 88.1260 0.0000 0.0000 0.0000
# 4 0.0000 0.0000 0.0000 28.5343 0.0000 0.0000
# 5 0.0000 0.0000 0.0000 0.0000 13.7215 0.0000
# 6 0.0000 0.0000 0.0000 0.0000 0.0000 16.8953
#
#
#
# Elastic Compliance Matrix: (Units=1/GPa)
#
#
# Indices 1 2 3 4 5 6 
#
# 1 0.014795 -0.005175 -0.007637 0.000000 0.000000 0.000000
# 2 -0.005175 0.016887 -0.002394 0.000000 0.000000 0.000000
# 3 -0.007637 -0.002394 0.016992 0.000000 0.000000 0.000000
# 4 0.000000 0.000000 0.000000 0.035046 0.000000 0.000000
# 5 0.000000 0.000000 0.000000 0.000000 0.072878 0.000000
# 6 0.000000 0.000000 0.000000 0.000000 0.000000 0.059188
#
#
# Mechanical properties :
#
#
# Convention : Reuss Voigt Hill
#
# Bulk Modulus (GPa) = 54.76206 58.92552 56.84379
# Shear Modulus (GPa) = 19.81878 21.70199 20.76038
#
# Velocity S-wave (km/s) = 3.20288 3.35159 3.27808
# Velocity P-wave (km/s) = 6.48254 6.74374 6.61443
#
# Compressibility (1/GPa) = 0.01826082
#
# Stress axis : x y z
#
# Youngs Moduli (GPa) = 67.58856 59.21821 58.85163
#
# Poissons Ratio (x) = 0.30644 0.44948
# Poissons Ratio (y) = 0.34975 0.14092
# Poissons Ratio (z) = 0.51621 0.14179
#
# Static dielectric constant tensor:
#      x y z
#    x 3.824250 0.000000 0.000000 
#    y 0.000000 3.568530 0.000000 
#    z 0.000000 0.000000 3.524650 
# 
# 
# High freq. dielectric constant tensor:
#      x y z
#    x 1.761210 0.000000 0.000000 
#    y 0.000000 1.753530 0.000000 
#    z 0.000000 0.000000 1.743050 
# 
# From -- ./inp_files/14601.got.cif
#   From: 2010.03.12/outbox.cif.g09.slc.cpg/sg35_8_cif.got.tgz:14601.got - 2010.04.14 02:02:04.
