data_PCOD8172710
_publ_section_title
;
Structure prediction by ZEFSAII (Michael W. Deem and Ramdas Pophale) SiO2 
 PCOD8172710
Probable space group: C M M 2
;
_chemical_formula_sum "Si O2"
_cell_formula_units_Z 56
_cell_length_a 9.311488
_cell_length_b 18.417851
_cell_length_c 18.211808
_cell_angle_alpha 90.000000
_cell_angle_beta 90.000000
_cell_angle_gamma 90.000000
_cell_volume 3123.281338
_symmetry_space_group_name_H-M "C M M 2"
_symmetry_group_IT_number 35
_symmetry_cell_setting 'orthorhombic'
loop_
_space_group_symop_operation_xyz
x,y,z
-x,-y,z
-x,y,z
x,-y,z
1/2+x,1/2+y,z
1/2-x,1/2-y,z
1/2-x,1/2+y,z
1/2+x,1/2-y,z
loop_
_atom_site_type_symbol
_atom_site_label
_atom_site_fract_x
_atom_site_fract_y
_atom_site_fract_z
Si Si1 0.167807 0.825042 0.626920
Si Si2 0.167132 0.416217 0.909450
Si Si3 0.831508 0.083462 0.766938
Si Si4 0.332361 0.825132 0.046752
Si Si5 0.169184 0.673170 0.364654
Si Si6 0.663162 0.822250 0.204729
Si Si7 0.334448 0.415423 0.482974
O O1 0.250000 0.750000 0.619504
O O2 0.220116 0.868038 0.698859
O O3 0.205497 0.874896 0.557781
O O4 0.000000 0.807909 0.631074
O O5 0.202134 0.500000 0.921073
O O6 0.251929 0.386031 0.838990
O O7 0.000000 0.401781 0.895791
O O8 0.224459 0.377459 0.982871
O O9 0.000000 0.090636 0.780198
O O10 0.788270 0.000000 0.751073
O O11 0.500000 0.809263 0.035786
O O12 0.250000 0.750000 0.040624
O O13 0.304784 0.863905 0.127322
O O14 0.250000 0.750000 0.374572
O O15 0.195951 0.638446 0.282611
O O16 0.232352 0.614110 0.419397
O O17 0.000000 0.684984 0.380396
O O18 0.500000 0.797000 0.205350
O O19 0.750000 0.750000 0.202661
O O20 0.500000 0.401910 0.461256
O O21 0.302876 0.500000 0.494786
#
# Coordination Sequence:
#
# PCOD8172710 Si02
#       7
#     8   8   8   8   8   8   8
#     4  10  21  36  54  76 100 127 161 200 242 290
#     4   9  18  32  49  70  97 128 161 197 239 287
#     4   9  18  34  54  72  93 125 163 199 237 285
#     4   9  17  30  48  70  96 127 163 201 241 285
#     4  10  19  32  52  77 103 131 167 209 251 296
#     4   8  15  28  46  69  96 127 162 199 241 287
#     4  10  21  37  55  74 100 134 168 203 247 297
#
# _framework density 17.929860999999999
#
# number of rings (size 3 to 8) (size 9 to 14) (size 15 to 20)
#    0.000    2.714    0.000    1.286    0.000    6.000 
#    0.000    3.571    0.000    5.143    0.000    2.000 
#    0.000    0.000    0.000    0.000    0.000    0.000 
#
# Total GULP energy -346985.228129 kJ/mol
# GULP energy per Si atom -12392.329576 kJ/mol
# Density = 1.788905 g / cm^3
# Si number density = 17.929861 Si / 1000 Ang^3
#
#
#
# Elastic Constant Matrix: (Units=GPa)
#
#
# Indices 1 2 3 4 5 6 
#
# 1 54.4144 41.4064 64.8594 0.0000 0.0000 0.0000
# 2 41.4064 90.8552 78.2098 0.0000 0.0000 0.0000
# 3 64.8594 78.2098 192.0896 0.0000 0.0000 0.0000
# 4 0.0000 0.0000 0.0000 17.4584 0.0000 0.0000
# 5 0.0000 0.0000 0.0000 0.0000 31.8108 0.0000
# 6 0.0000 0.0000 0.0000 0.0000 0.0000 25.7837
#
#
#
# Elastic Compliance Matrix: (Units=1/GPa)
#
#
# Indices 1 2 3 4 5 6 
#
# 1 0.034840 -0.008855 -0.008158 0.000000 0.000000 0.000000
# 2 -0.008855 0.019196 -0.004826 0.000000 0.000000 0.000000
# 3 -0.008158 -0.004826 0.009926 0.000000 0.000000 0.000000
# 4 0.000000 0.000000 0.000000 0.057279 0.000000 0.000000
# 5 0.000000 0.000000 0.000000 0.000000 0.031436 0.000000
# 6 0.000000 0.000000 0.000000 0.000000 0.000000 0.038784
#
#
# Mechanical properties :
#
#
# Convention : Reuss Voigt Hill
#
# Bulk Modulus (GPa) = 49.30209 78.47894 63.89051
# Shear Modulus (GPa) = 20.66956 25.20282 22.93619
#
# Velocity S-wave (km/s) = 3.39898 3.75325 3.58050
# Velocity P-wave (km/s) = 6.55446 7.91501 7.26665
#
# Compressibility (1/GPa) = 0.02028311
#
# Stress axis : x y z
#
# Youngs Moduli (GPa) = 28.70231 52.09302 100.75046
#
# Poissons Ratio (x) = 0.46130 0.82197
# Poissons Ratio (y) = 0.25417 0.48621
# Poissons Ratio (z) = 0.23417 0.25140
#
# Static dielectric constant tensor:
#      x y z
#    x 3.263760 0.000000 0.000000 
#    y 0.000000 3.033240 0.000000 
#    z 0.000000 0.000000 4.000420 
# 
# 
# High freq. dielectric constant tensor:
#      x y z
#    x 1.691820 0.000000 0.000000 
#    y 0.000000 1.665120 0.000000 
#    z 0.000000 0.000000 1.719520 
# 
# From -- ./inp_files/18222.got.cif
#   From: 2010.03.12/outbox.cif.g09.slc.cpg/sg35_10_cif.got.tgz:18222.got - 2010.04.14 02:02:04.
