data_PCOD8172034
_publ_section_title
;
Structure prediction by ZEFSAII (Michael W. Deem and Ramdas Pophale) SiO2 
 PCOD8172034
Probable space group: P N N 2
;
_chemical_formula_sum "Si O2"
_cell_formula_units_Z 20
_cell_length_a 8.631984
_cell_length_b 18.294214
_cell_length_c 5.306882
_cell_angle_alpha 90.000000
_cell_angle_beta 90.000000
_cell_angle_gamma 90.000000
_cell_volume 838.038195
_symmetry_space_group_name_H-M "P N N 2"
_symmetry_group_IT_number 34
_symmetry_cell_setting 'orthorhombic'
loop_
_space_group_symop_operation_xyz
x,y,z
-x,-y,z
1/2-x,1/2+y,1/2+z
1/2+x,1/2-y,1/2+z
loop_
_atom_site_type_symbol
_atom_site_label
_atom_site_fract_x
_atom_site_fract_y
_atom_site_fract_z
Si Si1 0.000000 0.500000 0.254230
Si Si2 0.853070 0.765892 0.158554
Si Si3 0.250321 0.575673 0.581194
Si Si4 0.000000 0.000000 0.762948
Si Si5 0.747730 0.552849 0.926252
Si Si6 0.784381 0.196890 0.160384
O O1 0.099040 0.555154 0.423286
O O2 0.096242 0.440744 0.090148
O O3 0.755041 0.840340 0.160447
O O4 0.795483 0.719015 0.398380
O O5 0.037403 0.778120 0.173663
O O6 0.812015 0.726432 0.898243
O O7 0.402679 0.555783 0.427728
O O8 0.249156 0.530822 0.837581
O O9 0.902096 0.058864 0.603002
O O10 0.731974 0.608773 0.692514
#
# Coordination Sequence:
#
# PCOD8172034 Si02
#       6
#     2   4   4   2   4   4
#     4  10  26  42  80 112 148 194 256 330 378 462
#     4  12  30  50  78 113 158 206 257 321 391 462
#     4  11  25  46  76 107 149 194 262 311 392 454
#     4  10  22  42  80 108 140 194 260 322 382 462
#     4  11  25  46  76 107 149 194 262 311 392 454
#     4  12  30  50  78 113 158 206 257 321 391 462
#
# _framework density 23.865258000000001
#
# number of rings (size 3 to 8) (size 9 to 14) (size 15 to 20)
#    0.000    0.800    0.000    4.800   19.600    3.200 
#    0.000    0.000    0.000    0.000    0.000    0.000 
#    0.000    0.000    0.000    0.000    0.000    0.000 
#
# Total GULP energy -248015.137715 kJ/mol
# GULP energy per Si atom -12400.756886 kJ/mol
# Density = 2.381094 g / cm^3
# Si number density = 23.865258 Si / 1000 Ang^3
#
#
#
# Elastic Constant Matrix: (Units=GPa)
#
#
# Indices 1 2 3 4 5 6 
#
# 1 147.7616 -0.5211 30.1714 0.0000 0.0000 0.0000
# 2 -0.5211 71.2933 8.3283 0.0000 0.0000 0.0000
# 3 30.1714 8.3283 101.3489 0.0000 0.0000 0.0000
# 4 0.0000 0.0000 0.0000 51.1496 0.0000 0.0000
# 5 0.0000 0.0000 0.0000 0.0000 21.8292 0.0000
# 6 0.0000 0.0000 0.0000 0.0000 0.0000 23.9621
#
#
#
# Elastic Compliance Matrix: (Units=1/GPa)
#
#
# Indices 1 2 3 4 5 6 
#
# 1 0.007212 0.000306 -0.002172 0.000000 0.000000 0.000000
# 2 0.000306 0.014176 -0.001256 0.000000 0.000000 0.000000
# 3 -0.002172 -0.001256 0.010617 0.000000 0.000000 0.000000
# 4 0.000000 0.000000 0.000000 0.019551 0.000000 0.000000
# 5 0.000000 0.000000 0.000000 0.000000 0.045810 0.000000
# 6 0.000000 0.000000 0.000000 0.000000 0.000000 0.041733
#
#
# Mechanical properties :
#
#
# Convention : Reuss Voigt Hill
#
# Bulk Modulus (GPa) = 38.81863 44.04013 41.42938
# Shear Modulus (GPa) = 32.48257 38.21652 35.34954
#
# Velocity S-wave (km/s) = 3.69329 4.00602 3.85283
# Velocity P-wave (km/s) = 5.87267 6.31596 6.09834
#
# Compressibility (1/GPa) = 0.02576082
#
# Stress axis : x y z
#
# Youngs Moduli (GPa) = 138.65216 70.54405 94.19027
#
# Poissons Ratio (x) = -0.02162 0.20461
# Poissons Ratio (y) = -0.04249 0.11831
# Poissons Ratio (z) = 0.30119 0.08861
#
# Static dielectric constant tensor:
#      x y z
#    x 4.580220 0.000000 0.000000 
#    y 0.000000 4.280570 0.000000 
#    z 0.000000 0.000000 4.430920 
# 
# 
# High freq. dielectric constant tensor:
#      x y z
#    x 1.968310 0.000000 0.000000 
#    y 0.000000 1.939780 0.000000 
#    z 0.000000 0.000000 1.964790 
# 
# From -- ./inp_files/390.got.cif
#   From: 2010.03.12/outbox.cif.g09.slc.cpg/sg34_1_cif.got.tgz:390.got - 2010.04.14 01:56:33.
