data_PCOD8172088
_publ_section_title
;
Structure prediction by ZEFSAII (Michael W. Deem and Ramdas Pophale) SiO2 
 PCOD8172088
Probable space group: P N N 2
;
_chemical_formula_sum "Si O2"
_cell_formula_units_Z 18
_cell_length_a 8.142644
_cell_length_b 19.001135
_cell_length_c 5.008179
_cell_angle_alpha 90.000000
_cell_angle_beta 90.000000
_cell_angle_gamma 90.000000
_cell_volume 774.862840
_symmetry_space_group_name_H-M "P N N 2"
_symmetry_group_IT_number 34
_symmetry_cell_setting 'orthorhombic'
loop_
_space_group_symop_operation_xyz
x,y,z
-x,-y,z
1/2-x,1/2+y,1/2+z
1/2+x,1/2-y,1/2+z
loop_
_atom_site_type_symbol
_atom_site_label
_atom_site_fract_x
_atom_site_fract_y
_atom_site_fract_z
Si Si1 0.935468 0.200140 0.649210
Si Si2 0.562259 0.865758 0.130480
Si Si3 0.000000 0.000000 0.365250
Si Si4 0.306009 0.373405 0.658709
Si Si5 0.235780 0.104016 0.628126
O O1 0.936203 0.282332 0.597614
O O2 0.806190 0.165013 0.445491
O O3 0.118622 0.171809 0.594591
O O4 0.883001 0.180558 0.947492
O O5 0.378979 0.894597 0.081349
O O6 0.613867 0.887858 0.425679
O O7 0.688689 0.901458 0.923823
O O8 0.135050 0.033363 0.563182
O O9 0.917881 0.056997 0.169423
#
# Coordination Sequence:
#
# PCOD8172088 Si02
#       5
#     4   4   2   4   4
#     4  11  22  42  67  99 133 170 210 270 347 398
#     4  12  23  41  68 104 126 165 224 280 330 381
#     4  10  26  50  62  92 134 190 228 256 340 396
#     4  11  25  42  69  94 135 176 216 276 326 400
#     4  11  25  42  69  94 135 176 216 274 323 401
#
# _framework density 23.229918999999999
#
# number of rings (size 3 to 8) (size 9 to 14) (size 15 to 20)
#    0.000    0.889    0.000    8.000    0.000    8.889 
#    0.000    4.444    0.000    0.000    0.000    0.000 
#    0.000    0.000    0.000    0.000    0.000    0.000 
#
# Total GULP energy -223353.726581 kJ/mol
# GULP energy per Si atom -12408.540366 kJ/mol
# Density = 2.317705 g / cm^3
# Si number density = 23.229919 Si / 1000 Ang^3
#
#
#
# Elastic Constant Matrix: (Units=GPa)
#
#
# Indices 1 2 3 4 5 6 
#
# 1 132.4601 31.1998 27.2918 0.0000 0.0000 0.0000
# 2 31.1998 72.2099 15.4793 0.0000 0.0000 0.0000
# 3 27.2918 15.4793 99.4557 0.0000 0.0000 0.0000
# 4 0.0000 0.0000 0.0000 24.7888 0.0000 0.0000
# 5 0.0000 0.0000 0.0000 0.0000 43.5723 0.0000
# 6 0.0000 0.0000 0.0000 0.0000 0.0000 22.8805
#
#
#
# Elastic Compliance Matrix: (Units=1/GPa)
#
#
# Indices 1 2 3 4 5 6 
#
# 1 0.008729 -0.003370 -0.001871 0.000000 0.000000 0.000000
# 2 -0.003370 0.015628 -0.001507 0.000000 0.000000 0.000000
# 3 -0.001871 -0.001507 0.010803 0.000000 0.000000 0.000000
# 4 0.000000 0.000000 0.000000 0.040341 0.000000 0.000000
# 5 0.000000 0.000000 0.000000 0.000000 0.022950 0.000000
# 6 0.000000 0.000000 0.000000 0.000000 0.000000 0.043705
#
#
# Mechanical properties :
#
#
# Convention : Reuss Voigt Hill
#
# Bulk Modulus (GPa) = 46.16329 50.22969 48.19649
# Shear Modulus (GPa) = 30.69860 33.59196 32.14528
#
# Velocity S-wave (km/s) = 3.63920 3.80684 3.72397
# Velocity P-wave (km/s) = 6.12975 6.40254 6.26763
#
# Compressibility (1/GPa) = 0.02166223
#
# Stress axis : x y z
#
# Youngs Moduli (GPa) = 114.56387 63.98801 92.56955
#
# Poissons Ratio (x) = 0.21567 0.17317
# Poissons Ratio (y) = 0.38613 0.13954
# Poissons Ratio (z) = 0.21431 0.09646
#
# Static dielectric constant tensor:
#      x y z
#    x 4.282760 0.000000 0.000000 
#    y 0.000000 4.129710 0.000000 
#    z 0.000000 0.000000 4.151860 
# 
# 
# High freq. dielectric constant tensor:
#      x y z
#    x 1.928490 0.000000 0.000000 
#    y 0.000000 1.912850 0.000000 
#    z 0.000000 0.000000 1.927270 
# 
# From -- ./inp_files/379.got.cif
#   From: 2010.03.12/outbox.cif.g09.slc.cpg/sg34_1_cif.got.tgz:379.got - 2010.04.14 01:56:33.
