data_PCOD8172921
_publ_section_title
;
Structure prediction by ZEFSAII (Michael W. Deem and Ramdas Pophale) SiO2 
 PCOD8172921
Probable space group: C M M 2
;
_chemical_formula_sum "Si O2"
_cell_formula_units_Z 64
_cell_length_a 8.788506
_cell_length_b 29.472840
_cell_length_c 12.440103
_cell_angle_alpha 90.000000
_cell_angle_beta 90.000000
_cell_angle_gamma 90.000000
_cell_volume 3222.263235
_symmetry_space_group_name_H-M "C M M 2"
_symmetry_group_IT_number 35
_symmetry_cell_setting 'orthorhombic'
loop_
_space_group_symop_operation_xyz
x,y,z
-x,-y,z
-x,y,z
x,-y,z
1/2+x,1/2+y,z
1/2-x,1/2-y,z
1/2-x,1/2+y,z
1/2+x,1/2-y,z
loop_
_atom_site_type_symbol
_atom_site_label
_atom_site_fract_x
_atom_site_fract_y
_atom_site_fract_z
Si Si1 0.326220 0.049614 0.053680
Si Si2 0.320893 0.144845 0.549577
Si Si3 0.321511 0.423569 0.839918
Si Si4 0.676631 0.950523 0.629014
Si Si5 0.318828 0.800164 0.346822
Si Si6 0.676580 0.856677 0.140862
Si Si7 0.322484 0.831119 0.784223
Si Si8 0.177028 0.794024 0.977380
O O1 0.500000 0.055133 0.013651
O O2 0.290931 0.088995 0.142059
O O3 0.302168 0.000000 0.108344
O O4 0.216297 0.051180 0.950658
O O5 0.500000 0.145162 0.535038
O O6 0.266812 0.091692 0.554010
O O7 0.250808 0.173439 0.451027
O O8 0.272090 0.170164 0.659488
O O9 0.500000 0.411510 0.836201
O O10 0.276178 0.453835 0.737277
O O11 0.218210 0.379168 0.835355
O O12 0.500000 0.941669 0.659921
O O13 0.694620 0.000000 0.570954
O O14 0.500000 0.795578 0.351485
O O15 0.250000 0.750000 0.337882
O O16 0.264638 0.831723 0.247969
O O17 0.500000 0.845840 0.124568
O O18 0.767342 0.838683 0.038080
O O19 0.500000 0.821340 0.797751
O O20 0.229431 0.794209 0.852585
O O21 0.250000 0.750000 0.034514
O O22 0.000000 0.789875 0.985979
#
# Coordination Sequence:
#
# PCOD8172921 Si02
#       8
#     8   8   8   8   8   8   8   8
#     4  10  20  34  53  77 109 151 191 227 277 338
#     4   8  17  34  56  81 110 141 180 231 281 330
#     4  11  20  30  48  78 113 151 189 231 275 325
#     4   9  17  31  52  77 108 150 191 226 273 333
#     4  10  21  39  61  84 107 140 186 236 286 335
#     4  10  21  38  59  81 112 148 186 234 283 336
#     4  10  19  35  56  79 113 152 185 227 282 338
#     4  12  24  37  56  83 114 148 186 230 283 344
#
# _framework density 19.861816000000001
#
# number of rings (size 3 to 8) (size 9 to 14) (size 15 to 20)
#    0.000    2.000    1.250    4.125    0.000    4.000 
#    0.000    5.000    0.000    3.750    0.000    0.000 
#    0.000    5.000    0.000    0.000    0.000    0.000 
#
# Total GULP energy -396599.701342 kJ/mol
# GULP energy per Si atom -12393.740667 kJ/mol
# Density = 1.981661 g / cm^3
# Si number density = 19.861816 Si / 1000 Ang^3
#
#
#
# Elastic Constant Matrix: (Units=GPa)
#
#
# Indices 1 2 3 4 5 6 
#
# 1 55.5716 27.1832 30.3075 0.0000 0.0000 0.0000
# 2 27.1832 150.4141 69.4211 0.0000 0.0000 0.0000
# 3 30.3075 69.4211 115.0488 0.0000 0.0000 0.0000
# 4 0.0000 0.0000 0.0000 26.4032 0.0000 0.0000
# 5 0.0000 0.0000 0.0000 0.0000 12.7689 0.0000
# 6 0.0000 0.0000 0.0000 0.0000 0.0000 22.3517
#
#
#
# Elastic Compliance Matrix: (Units=1/GPa)
#
#
# Indices 1 2 3 4 5 6 
#
# 1 0.021341 -0.001749 -0.004566 0.000000 0.000000 0.000000
# 2 -0.001749 0.009358 -0.005186 0.000000 0.000000 0.000000
# 3 -0.004566 -0.005186 0.013024 0.000000 0.000000 0.000000
# 4 0.000000 0.000000 0.000000 0.037874 0.000000 0.000000
# 5 0.000000 0.000000 0.000000 0.000000 0.078316 0.000000
# 6 0.000000 0.000000 0.000000 0.000000 0.000000 0.044739
#
#
# Mechanical properties :
#
#
# Convention : Reuss Voigt Hill
#
# Bulk Modulus (GPa) = 48.26262 63.87311 56.06787
# Shear Modulus (GPa) = 21.31641 25.24627 23.28134
#
# Velocity S-wave (km/s) = 3.27958 3.56911 3.42740
# Velocity P-wave (km/s) = 6.22036 7.01522 6.62971
#
# Compressibility (1/GPa) = 0.02071997
#
# Stress axis : x y z
#
# Youngs Moduli (GPa) = 46.85849 106.86221 76.78130
#
# Poissons Ratio (x) = 0.18693 0.35061
# Poissons Ratio (y) = 0.08197 0.39817
# Poissons Ratio (z) = 0.21397 0.55416
#
# Static dielectric constant tensor:
#      x y z
#    x 3.366170 0.000000 0.000000 
#    y 0.000000 3.897280 0.000000 
#    z 0.000000 0.000000 3.630100 
# 
# 
# High freq. dielectric constant tensor:
#      x y z
#    x 1.751790 0.000000 0.000000 
#    y 0.000000 1.790310 0.000000 
#    z 0.000000 0.000000 1.746630 
# 
# From -- ./inp_files/11877.got.cif
#   From: 2010.03.12/outbox.cif.g09.slc.cpg/sg35_6_cif.got.tgz:11877.got - 2010.04.14 02:02:04.
