data_PCOD8172594
_publ_section_title
;
Structure prediction by ZEFSAII (Michael W. Deem and Ramdas Pophale) SiO2 
 PCOD8172594
Probable space group: C M M 2
;
_chemical_formula_sum "Si O2"
_cell_formula_units_Z 64
_cell_length_a 8.988710
_cell_length_b 18.887881
_cell_length_c 20.833277
_cell_angle_alpha 90.000000
_cell_angle_beta 90.000000
_cell_angle_gamma 90.000000
_cell_volume 3537.025536
_symmetry_space_group_name_H-M "C M M 2"
_symmetry_group_IT_number 35
_symmetry_cell_setting 'orthorhombic'
loop_
_space_group_symop_operation_xyz
x,y,z
-x,-y,z
-x,y,z
x,-y,z
1/2+x,1/2+y,z
1/2-x,1/2-y,z
1/2-x,1/2+y,z
1/2+x,1/2-y,z
loop_
_atom_site_type_symbol
_atom_site_label
_atom_site_fract_x
_atom_site_fract_y
_atom_site_fract_z
Si Si1 0.672850 0.674819 0.051360
Si Si2 0.167682 0.084326 0.679695
Si Si3 0.167857 0.415509 0.553895
Si Si4 0.823468 0.326669 0.928373
Si Si5 0.667740 0.415707 0.427815
Si Si6 0.326240 0.918882 0.807078
Si Si7 0.671319 0.083616 0.299956
Si Si8 0.326892 0.325799 0.193524
O O1 0.500000 0.682742 0.033757
O O2 0.750000 0.750000 0.055428
O O3 0.693847 0.640649 0.121873
O O4 0.757081 0.634830 0.992739
O O5 0.254727 0.114531 0.618024
O O6 0.242971 0.112307 0.744868
O O7 0.000000 0.112867 0.676832
O O8 0.173040 0.000000 0.678531
O O9 0.170492 0.500000 0.553894
O O10 0.254627 0.385819 0.491899
O O11 0.000000 0.386927 0.551532
O O12 0.750000 0.250000 0.919336
O O13 0.775699 0.374312 0.868442
O O14 0.000000 0.319850 0.934456
O O15 0.500000 0.386370 0.424560
O O16 0.668389 0.500000 0.429327
O O17 0.757685 0.388094 0.366084
O O18 0.500000 0.911733 0.793380
O O19 0.281040 0.000000 0.819999
O O20 0.500000 0.106421 0.299088
O O21 0.755632 0.117968 0.240764
O O22 0.690884 0.000000 0.293737
O O23 0.500000 0.315676 0.209427
O O24 0.250000 0.250000 0.201205
#
# Coordination Sequence:
#
# PCOD8172594 Si02
#       8
#     8   8   8   8   8   8   8   8
#     4   9  17  30  49  71  94 120 153 194 236 278
#     4   9  16  25  39  61  88 118 152 191 234 276
#     4   9  15  23  37  58  86 120 156 193 232 276
#     4  10  19  31  50  72  94 121 154 193 233 277
#     4   9  16  26  41  62  90 123 158 197 239 281
#     4   9  18  32  47  65  92 125 157 189 230 278
#     4  10  20  33  49  71 100 132 164 199 242 291
#     4  10  20  34  53  75  98 126 161 201 243 288
#
# _framework density 18.094298999999999
#
# number of rings (size 3 to 8) (size 9 to 14) (size 15 to 20)
#    0.000    2.625    0.000    3.375    0.000    7.750 
#    0.000    0.625    0.000    2.250    0.000    0.875 
#    0.000    2.000    0.000    0.000    0.000    0.000 
#
# Total GULP energy -396677.099982 kJ/mol
# GULP energy per Si atom -12396.159374 kJ/mol
# Density = 1.805312 g / cm^3
# Si number density = 18.094299 Si / 1000 Ang^3
#
#
#
# Elastic Constant Matrix: (Units=GPa)
#
#
# Indices 1 2 3 4 5 6 
#
# 1 149.8196 26.6852 97.4881 0.0000 0.0000 0.0000
# 2 26.6852 22.7987 35.2967 0.0000 0.0000 0.0000
# 3 97.4881 35.2967 194.5947 0.0000 0.0000 0.0000
# 4 0.0000 0.0000 0.0000 -1.3805 0.0000 0.0000
# 5 0.0000 0.0000 0.0000 0.0000 41.1401 0.0000
# 6 0.0000 0.0000 0.0000 0.0000 0.0000 17.9383
#
#
#
# Elastic Compliance Matrix: (Units=1/GPa)
#
#
# Indices 1 2 3 4 5 6 
#
# 1 0.010413 -0.005717 -0.004180 0.000000 0.000000 0.000000
# 2 -0.005717 0.064128 -0.008768 0.000000 0.000000 0.000000
# 3 -0.004180 -0.008768 0.008823 0.000000 0.000000 0.000000
# 4 0.000000 0.000000 0.000000 -0.724358 0.000000 0.000000
# 5 0.000000 0.000000 0.000000 0.000000 0.024307 0.000000
# 6 0.000000 0.000000 0.000000 0.000000 0.000000 0.055746
#
#
# Mechanical properties :
#
#
# Convention : Reuss Voigt Hill
#
# Bulk Modulus (GPa) = 21.72254 76.23922 48.98088
# Shear Modulus (GPa) = -9.83734 25.38911 7.77588
#
# Velocity S-wave (km/s) = -2.33420 3.74994 2.07527
# Velocity P-wave (km/s) = 2.18325 7.80866 5.73331
#
# Compressibility (1/GPa) = 0.04603513
#
# Stress axis : x y z
#
# Youngs Moduli (GPa) = 96.03738 15.59380 113.33871
#
# Poissons Ratio (x) = 0.08915 0.47370
# Poissons Ratio (y) = 0.54904 0.99373
# Poissons Ratio (z) = 0.40139 0.13672
#
# Static dielectric constant tensor:
#      x y z
#    x 3.539810 0.000000 0.000000 
#    y 0.000000 2.731370 0.000000 
#    z 0.000000 0.000000 3.894050 
# 
# 
# High freq. dielectric constant tensor:
#      x y z
#    x 1.719750 0.000000 0.000000 
#    y 0.000000 1.628060 0.000000 
#    z 0.000000 0.000000 1.725090 
# 
# From -- ./inp_files/18451.got.cif
#   From: 2010.03.12/outbox.cif.g09.slc.cpg/sg35_10_cif.got.tgz:18451.got - 2010.04.14 02:02:04.
