data_PCOD8172934
_publ_section_title
;
Structure prediction by ZEFSAII (Michael W. Deem and Ramdas Pophale) SiO2 
 PCOD8172934
Probable space group: C M M 2
;
_chemical_formula_sum "Si O2"
_cell_formula_units_Z 64
_cell_length_a 23.280617
_cell_length_b 14.939943
_cell_length_c 8.953218
_cell_angle_alpha 90.000000
_cell_angle_beta 90.000000
_cell_angle_gamma 90.000000
_cell_volume 3114.028520
_symmetry_space_group_name_H-M "C M M 2"
_symmetry_group_IT_number 35
_symmetry_cell_setting 'orthorhombic'
loop_
_space_group_symop_operation_xyz
x,y,z
-x,-y,z
-x,y,z
x,-y,z
1/2+x,1/2+y,z
1/2-x,1/2-y,z
1/2-x,1/2+y,z
1/2+x,1/2-y,z
loop_
_atom_site_type_symbol
_atom_site_label
_atom_site_fract_x
_atom_site_fract_y
_atom_site_fract_z
Si Si1 0.296474 0.321570 0.846650
Si Si2 0.066841 0.767288 0.369337
Si Si3 0.882689 0.720997 0.056152
Si Si4 0.719156 0.100925 0.086792
Si Si5 0.647482 0.393498 0.559163
Si Si6 0.240576 0.394188 0.401637
Si Si7 0.063996 0.600231 0.829813
Si Si8 0.882007 0.603683 0.520539
O O1 0.250000 0.250000 0.780281
O O2 0.339619 0.369314 0.731503
O O3 0.339308 0.285930 0.971653
O O4 0.255082 0.390004 0.935109
O O5 0.092250 0.771764 0.200953
O O6 0.095235 0.839409 0.483147
O O7 0.074211 0.666369 0.429654
O O8 0.000000 0.791755 0.362028
O O9 0.845997 0.633122 0.088567
O O10 0.932608 0.680105 0.951062
O O11 0.747806 0.145149 0.234073
O O12 0.712548 0.000000 0.129842
O O13 0.635840 0.500000 0.542536
O O14 0.704687 0.354745 0.484124
O O15 0.244427 0.500000 0.414573
O O16 0.182040 0.362787 0.482026
O O17 0.075377 0.500000 0.895870
O O18 0.109438 0.618789 0.697378
O O19 0.000000 0.604173 0.761518
O O20 0.893214 0.500000 0.476504
#
# Coordination Sequence:
#
# PCOD8172934 Si02
#       8
#     8   8   8   8   8   8   8   8
#     4  10  23  36  60  95 129 165 205 259 332 399
#     4  12  26  42  66  92 124 173 224 276 325 378
#     4  11  22  38  57  87 125 166 212 262 319 386
#     4  10  19  35  57  87 129 169 204 245 306 387
#     4  11  25  44  67  93 123 164 217 276 334 387
#     4   9  19  35  60  92 123 164 204 250 316 380
#     4  10  21  36  55  82 124 174 216 257 306 375
#     4  10  21  38  61  95 133 169 210 255 317 388
#
# _framework density 20.552157000000001
#
# number of rings (size 3 to 8) (size 9 to 14) (size 15 to 20)
#    0.000    1.625    1.250    3.000    5.250    1.500 
#    0.000    1.250    0.000    0.000    0.000    0.000 
#    0.000    0.000    0.000    0.000    0.000    0.000 
#
# Total GULP energy -396462.990133 kJ/mol
# GULP energy per Si atom -12389.468442 kJ/mol
# Density = 2.050538 g / cm^3
# Si number density = 20.552157 Si / 1000 Ang^3
#
#
#
# Elastic Constant Matrix: (Units=GPa)
#
#
# Indices 1 2 3 4 5 6 
#
# 1 120.3706 37.3961 48.8405 0.0000 0.0000 0.0000
# 2 37.3961 75.4393 34.3409 0.0000 0.0000 0.0000
# 3 48.8405 34.3409 109.3376 0.0000 0.0000 0.0000
# 4 0.0000 0.0000 0.0000 6.1446 0.0000 0.0000
# 5 0.0000 0.0000 0.0000 0.0000 21.4300 0.0000
# 6 0.0000 0.0000 0.0000 0.0000 0.0000 22.9480
#
#
#
# Elastic Compliance Matrix: (Units=1/GPa)
#
#
# Indices 1 2 3 4 5 6 
#
# 1 0.010985 -0.003748 -0.003730 0.000000 0.000000 0.000000
# 2 -0.003748 0.016746 -0.003585 0.000000 0.000000 0.000000
# 3 -0.003730 -0.003585 0.011938 0.000000 0.000000 0.000000
# 4 0.000000 0.000000 0.000000 0.162745 0.000000 0.000000
# 5 0.000000 0.000000 0.000000 0.000000 0.046664 0.000000
# 6 0.000000 0.000000 0.000000 0.000000 0.000000 0.043577
#
#
# Mechanical properties :
#
#
# Convention : Reuss Voigt Hill
#
# Bulk Modulus (GPa) = 57.00264 60.70028 58.85146
# Shear Modulus (GPa) = 15.59436 22.40917 19.00177
#
# Velocity S-wave (km/s) = 2.75757 3.30564 3.04396
# Velocity P-wave (km/s) = 6.15912 6.64594 6.40715
#
# Compressibility (1/GPa) = 0.01754305
#
# Stress axis : x y z
#
# Youngs Moduli (GPa) = 91.02952 59.71734 83.76396
#
# Poissons Ratio (x) = 0.22380 0.31245
# Poissons Ratio (y) = 0.34114 0.30033
# Poissons Ratio (z) = 0.33955 0.21411
#
# Static dielectric constant tensor:
#      x y z
#    x 4.547940 0.000000 0.000000 
#    y 0.000000 3.540160 0.000000 
#    z 0.000000 0.000000 3.964060 
# 
# 
# High freq. dielectric constant tensor:
#      x y z
#    x 1.796210 0.000000 0.000000 
#    y 0.000000 1.793140 0.000000 
#    z 0.000000 0.000000 1.812070 
# 
# From -- ./inp_files/9925.got.cif
#   From: 2010.03.12/outbox.cif.g09.slc.cpg/sg35_5_cif.got.tgz:9925.got - 2010.04.14 02:02:04.
