data_PCOD8172204
_publ_section_title
;
Structure prediction by ZEFSAII (Michael W. Deem and Ramdas Pophale) SiO2 
 PCOD8172204
Probable space group: C M M 2
;
_chemical_formula_sum "Si O2"
_cell_formula_units_Z 48
_cell_length_a 19.558105
_cell_length_b 8.794754
_cell_length_c 15.425764
_cell_angle_alpha 90.000000
_cell_angle_beta 90.000000
_cell_angle_gamma 90.000000
_cell_volume 2653.365954
_symmetry_space_group_name_H-M "C M M 2"
_symmetry_group_IT_number 35
_symmetry_cell_setting 'orthorhombic'
loop_
_space_group_symop_operation_xyz
x,y,z
-x,-y,z
-x,y,z
x,-y,z
1/2+x,1/2+y,z
1/2-x,1/2-y,z
1/2-x,1/2+y,z
1/2+x,1/2-y,z
loop_
_atom_site_type_symbol
_atom_site_label
_atom_site_fract_x
_atom_site_fract_y
_atom_site_fract_z
Si Si1 0.920846 0.325312 0.847000
Si Si2 0.823126 0.824166 0.180021
Si Si3 0.422087 0.825062 0.046342
Si Si4 0.324211 0.321995 0.370106
Si Si5 0.674298 0.180727 0.538269
Si Si6 0.675759 0.320827 0.712136
O O1 0.906003 0.500000 0.821654
O O2 0.874067 0.213144 0.791718
O O3 0.000000 0.286125 0.830158
O O4 0.901723 0.297059 0.946886
O O5 0.750000 0.750000 0.165288
O O6 0.875359 0.775963 0.106783
O O7 0.856708 0.789243 0.275232
O O8 0.808679 0.000000 0.171057
O O9 0.500000 0.775461 0.061703
O O10 0.411594 0.000000 0.071324
O O11 0.319582 0.500000 0.390667
O O12 0.250000 0.250000 0.364976
O O13 0.364211 0.239807 0.450377
O O14 0.750000 0.250000 0.535805
O O15 0.640756 0.247043 0.626018
O O16 0.674636 0.000000 0.541141
O O17 0.684036 0.500000 0.699417
O O18 0.750000 0.250000 0.730956
#
# Coordination Sequence:
#
# PCOD8172204 Si02
#       6
#     8   8   8   8   8   8
#     4   9  19  37  57  75  98 130 167 206 251 303
#     4  10  20  32  50  76 105 135 167 208 251 293
#     4   9  19  36  56  75  98 131 168 206 250 302
#     4   9  16  27  43  67  98 130 164 201 244 292
#     4  10  17  27  45  69  98 131 165 202 246 294
#     4  11  21  33  51  76 105 134 167 207 250 294
#
# _framework density 18.090230999999999
#
# number of rings (size 3 to 8) (size 9 to 14) (size 15 to 20)
#    0.000    2.333    0.000    7.000    0.000    4.000 
#    0.000    1.667    0.000    1.000    0.000    4.667 
#    0.000    0.000    0.000    0.000    0.000    0.000 
#
# Total GULP energy -297444.745340 kJ/mol
# GULP energy per Si atom -12393.531056 kJ/mol
# Density = 1.804906 g / cm^3
# Si number density = 18.090231 Si / 1000 Ang^3
#
#
#
# Elastic Constant Matrix: (Units=GPa)
#
#
# Indices 1 2 3 4 5 6 
#
# 1 49.4146 33.5973 50.6901 0.0000 0.0000 0.0000
# 2 33.5973 124.4972 62.5372 0.0000 0.0000 0.0000
# 3 50.6901 62.5372 129.9401 0.0000 0.0000 0.0000
# 4 0.0000 0.0000 0.0000 35.4168 0.0000 0.0000
# 5 0.0000 0.0000 0.0000 0.0000 -8.6257 0.0000
# 6 0.0000 0.0000 0.0000 0.0000 0.0000 24.5897
#
#
#
# Elastic Compliance Matrix: (Units=1/GPa)
#
#
# Indices 1 2 3 4 5 6 
#
# 1 0.034791 -0.003391 -0.011940 0.000000 0.000000 0.000000
# 2 -0.003391 0.010924 -0.003934 0.000000 0.000000 0.000000
# 3 -0.011940 -0.003934 0.014247 0.000000 0.000000 0.000000
# 4 0.000000 0.000000 0.000000 0.028235 0.000000 0.000000
# 5 0.000000 0.000000 0.000000 0.000000 -0.115933 0.000000
# 6 0.000000 0.000000 0.000000 0.000000 0.000000 0.040667
#
#
# Mechanical properties :
#
#
# Convention : Reuss Voigt Hill
#
# Bulk Modulus (GPa) = 46.66201 66.38898 56.52550
# Shear Modulus (GPa) = 85.31563 20.74465 53.03014
#
# Velocity S-wave (km/s) = 6.87485 3.39002 5.42014
# Velocity P-wave (km/s) = 9.42699 7.21813 8.39552
#
# Compressibility (1/GPa) = 0.02143071
#
# Stress axis : x y z
#
# Youngs Moduli (GPa) = 28.74334 91.54310 70.18910
#
# Poissons Ratio (x) = 0.31043 0.83805
# Poissons Ratio (y) = 0.09747 0.27616
# Poissons Ratio (z) = 0.34319 0.36018
#
# Static dielectric constant tensor:
#      x y z
#    x 2.887970 0.000000 0.000000 
#    y 0.000000 3.362860 0.000000 
#    z 0.000000 0.000000 4.354050 
# 
# 
# High freq. dielectric constant tensor:
#      x y z
#    x 1.646230 0.000000 0.000000 
#    y 0.000000 1.712260 0.000000 
#    z 0.000000 0.000000 1.726130 
# 
# From -- ./inp_files/15135.got.cif
#   From: 2010.03.12/outbox.cif.g09.slc.cpg/sg35_8_cif.got.tgz:15135.got - 2010.04.14 02:02:04.
