data_PCOD8172634
_publ_section_title
;
Structure prediction by ZEFSAII (Michael W. Deem and Ramdas Pophale) SiO2 
 PCOD8172634
Probable space group: C M M 2
;
_chemical_formula_sum "Si O2"
_cell_formula_units_Z 64
_cell_length_a 8.960000
_cell_length_b 28.393197
_cell_length_c 15.583728
_cell_angle_alpha 90.000000
_cell_angle_beta 90.000000
_cell_angle_gamma 90.000000
_cell_volume 3964.547858
_symmetry_space_group_name_H-M "C M M 2"
_symmetry_group_IT_number 35
_symmetry_cell_setting 'orthorhombic'
loop_
_space_group_symop_operation_xyz
x,y,z
-x,-y,z
-x,y,z
x,-y,z
1/2+x,1/2+y,z
1/2-x,1/2-y,z
1/2-x,1/2+y,z
1/2+x,1/2-y,z
loop_
_atom_site_type_symbol
_atom_site_label
_atom_site_fract_x
_atom_site_fract_y
_atom_site_fract_z
Si Si1 0.174765 0.699599 0.408900
Si Si2 0.673597 0.199888 0.220328
Si Si3 0.328115 0.853707 0.726199
Si Si4 0.323077 0.698714 0.575268
Si Si5 0.674211 0.800111 0.900331
Si Si6 0.829283 0.552729 0.812704
Si Si7 0.174540 0.053268 0.989733
Si Si8 0.823436 0.639629 0.061681
O O1 0.250000 0.750000 0.404053
O O2 0.201834 0.676661 0.314909
O O3 0.258103 0.673822 0.488252
O O4 0.000000 0.703736 0.430166
O O5 0.500000 0.209563 0.206272
O O6 0.750000 0.250000 0.208386
O O7 0.734089 0.163559 0.149526
O O8 0.500000 0.843800 0.700739
O O9 0.218514 0.835047 0.653446
O O10 0.286145 0.828380 0.814708
O O11 0.297763 0.909657 0.737385
O O12 0.500000 0.704093 0.569353
O O13 0.250000 0.750000 0.589490
O O14 0.500000 0.791641 0.909934
O O15 0.750000 0.750000 0.896898
O O16 0.734455 0.829295 0.981772
O O17 0.798189 0.500000 0.777061
O O18 0.726881 0.564483 0.893516
O O19 0.000000 0.558180 0.844335
O O20 0.000000 0.061669 0.993822
O O21 0.218253 0.000000 0.015183
O O22 0.252833 0.087804 0.057330
O O23 0.000000 0.634102 0.060236
#
# Coordination Sequence:
#
# PCOD8172634 Si02
#       8
#     8   8   8   8   8   8   8   8
#     4   9  16  29  47  68  92 121 153 194 237 275
#     4   9  18  30  48  71  97 125 157 193 232 275
#     4  10  19  32  47  68  94 123 157 193 230 275
#     4  11  21  32  47  68  93 126 160 195 234 276
#     4  10  20  31  43  62  91 127 159 187 220 264
#     4   9  17  32  53  71  90 120 155 192 236 280
#     4  10  20  32  47  69  94 120 155 198 239 276
#     4  10  19  33  48  67  93 125 161 193 229 276
#
# _framework density 16.143077000000002
#
# number of rings (size 3 to 8) (size 9 to 14) (size 15 to 20)
#    0.000    2.250    1.250    3.375    0.000    4.250 
#    0.000    0.000    0.000    0.000    0.000    0.875 
#    0.000    3.000    0.000    0.000    0.000    0.000 
#
# Total GULP energy -396691.290649 kJ/mol
# GULP energy per Si atom -12396.602833 kJ/mol
# Density = 1.610634 g / cm^3
# Si number density = 16.143077 Si / 1000 Ang^3
#
#
#
# Elastic Constant Matrix: (Units=GPa)
#
#
# Indices 1 2 3 4 5 6 
#
# 1 67.6186 39.2893 48.3015 0.0000 0.0000 0.0000
# 2 39.2893 96.5472 53.8193 0.0000 0.0000 0.0000
# 3 48.3015 53.8193 124.3962 0.0000 0.0000 0.0000
# 4 0.0000 0.0000 0.0000 6.7746 0.0000 0.0000
# 5 0.0000 0.0000 0.0000 0.0000 21.5149 0.0000
# 6 0.0000 0.0000 0.0000 0.0000 0.0000 23.4419
#
#
#
# Elastic Compliance Matrix: (Units=1/GPa)
#
#
# Indices 1 2 3 4 5 6 
#
# 1 0.022601 -0.005674 -0.006321 0.000000 0.000000 0.000000
# 2 -0.005674 0.015074 -0.004319 0.000000 0.000000 0.000000
# 3 -0.006321 -0.004319 0.012362 0.000000 0.000000 0.000000
# 4 0.000000 0.000000 0.000000 0.147610 0.000000 0.000000
# 5 0.000000 0.000000 0.000000 0.000000 0.046479 0.000000
# 6 0.000000 0.000000 0.000000 0.000000 0.000000 0.042659
#
#
# Mechanical properties :
#
#
# Convention : Reuss Voigt Hill
#
# Bulk Modulus (GPa) = 57.43903 63.48692 60.46297
# Shear Modulus (GPa) = 15.37450 20.15641 17.76546
#
# Velocity S-wave (km/s) = 3.08943 3.53740 3.32098
# Velocity P-wave (km/s) = 6.95590 7.48981 7.22779
#
# Compressibility (1/GPa) = 0.01740976
#
# Stress axis : x y z
#
# Youngs Moduli (GPa) = 44.24657 66.34001 80.89594
#
# Poissons Ratio (x) = 0.37639 0.51133
# Poissons Ratio (y) = 0.25104 0.34936
# Poissons Ratio (z) = 0.27968 0.28650
#
# Static dielectric constant tensor:
#      x y z
#    x 3.074120 0.000000 0.000000 
#    y 0.000000 3.017440 0.000000 
#    z 0.000000 0.000000 3.450610 
# 
# 
# High freq. dielectric constant tensor:
#      x y z
#    x 1.624690 0.000000 0.000000 
#    y 0.000000 1.598920 0.000000 
#    z 0.000000 0.000000 1.614070 
# 
# From -- ./inp_files/16168.got.cif
#   From: 2010.03.12/outbox.cif.g09.slc.cpg/sg35_9_cif.got.tgz:16168.got - 2010.04.14 02:02:04.
