data_PCOD8172250
_publ_section_title
;
Structure prediction by ZEFSAII (Michael W. Deem and Ramdas Pophale) SiO2 
 PCOD8172250
Probable space group: C M M 2
;
_chemical_formula_sum "Si O2"
_cell_formula_units_Z 64
_cell_length_a 8.792528
_cell_length_b 28.677889
_cell_length_c 15.680690
_cell_angle_alpha 90.000000
_cell_angle_beta 90.000000
_cell_angle_gamma 90.000000
_cell_volume 3953.903891
_symmetry_space_group_name_H-M "C M M 2"
_symmetry_group_IT_number 35
_symmetry_cell_setting 'orthorhombic'
loop_
_space_group_symop_operation_xyz
x,y,z
-x,-y,z
-x,y,z
x,-y,z
1/2+x,1/2+y,z
1/2-x,1/2-y,z
1/2-x,1/2+y,z
1/2+x,1/2-y,z
loop_
_atom_site_type_symbol
_atom_site_label
_atom_site_fract_x
_atom_site_fract_y
_atom_site_fract_z
Si Si1 0.822530 0.800144 0.735910
Si Si2 0.680761 0.949356 0.146266
Si Si3 0.678636 0.300661 0.549076
Si Si4 0.319943 0.800309 0.047298
Si Si5 0.819281 0.353464 0.214295
Si Si6 0.680653 0.198707 0.381412
Si Si7 0.178802 0.141609 0.896424
Si Si8 0.676495 0.052640 0.951624
O O1 0.750000 0.750000 0.751271
O O2 0.784837 0.822520 0.642285
O O3 0.765642 0.836059 0.807316
O O4 0.000000 0.791268 0.743346
O O5 0.500000 0.949919 0.148638
O O6 0.744531 0.906415 0.202847
O O7 0.741527 0.000000 0.179627
O O8 0.732552 0.941981 0.048954
O O9 0.500000 0.298116 0.531013
O O10 0.750000 0.250000 0.551081
O O11 0.759603 0.326258 0.468822
O O12 0.500000 0.796102 0.045629
O O13 0.250000 0.750000 0.031670
O O14 0.268345 0.834494 0.972963
O O15 0.260894 0.820874 0.137239
O O16 0.759544 0.332892 0.303335
O O17 0.000000 0.354663 0.212588
O O18 0.500000 0.202337 0.382575
O O19 0.750000 0.250000 0.370547
O O20 0.223749 0.087185 0.893489
O O21 0.000000 0.147987 0.909915
O O22 0.500000 0.066175 0.943705
O O23 0.704629 0.000000 0.919289
#
# Coordination Sequence:
#
# PCOD8172250 Si02
#       8
#     8   8   8   8   8   8   8   8
#     4   9  19  32  46  65  90 120 153 187 226 271
#     4   8  13  25  46  67  85 110 147 186 223 263
#     4   9  16  29  46  63  85 113 147 186 225 266
#     4  11  21  33  45  61  91 127 161 189 219 265
#     4   9  17  28  43  64  90 119 150 185 221 264
#     4  10  18  28  43  64  90 117 148 184 221 264
#     4  11  21  32  46  68  94 122 154 190 230 270
#     4   9  17  31  51  70  89 118 155 192 231 273
#
# _framework density 16.186534000000002
#
# number of rings (size 3 to 8) (size 9 to 14) (size 15 to 20)
#    0.000    2.500    1.250    3.750    0.000    2.750 
#    0.000    1.875    0.000    0.000    0.000    0.875 
#    0.000    3.000    0.000    0.000    0.000    0.000 
#
# Total GULP energy -396578.909120 kJ/mol
# GULP energy per Si atom -12393.090910 kJ/mol
# Density = 1.614969 g / cm^3
# Si number density = 16.186534 Si / 1000 Ang^3
#
#
#
# Elastic Constant Matrix: (Units=GPa)
#
#
# Indices 1 2 3 4 5 6 
#
# 1 45.6515 23.8672 34.0279 0.0000 0.0000 0.0000
# 2 23.8672 100.1272 54.9753 0.0000 0.0000 0.0000
# 3 34.0279 54.9753 133.2492 0.0000 0.0000 0.0000
# 4 0.0000 0.0000 0.0000 12.6797 0.0000 0.0000
# 5 0.0000 0.0000 0.0000 0.0000 20.1016 0.0000
# 6 0.0000 0.0000 0.0000 0.0000 0.0000 18.1622
#
#
#
# Elastic Compliance Matrix: (Units=1/GPa)
#
#
# Indices 1 2 3 4 5 6 
#
# 1 0.028000 -0.003553 -0.005684 0.000000 0.000000 0.000000
# 2 -0.003553 0.013363 -0.004606 0.000000 0.000000 0.000000
# 3 -0.005684 -0.004606 0.010857 0.000000 0.000000 0.000000
# 4 0.000000 0.000000 0.000000 0.078866 0.000000 0.000000
# 5 0.000000 0.000000 0.000000 0.000000 0.049747 0.000000
# 6 0.000000 0.000000 0.000000 0.000000 0.000000 0.055059
#
#
# Mechanical properties :
#
#
# Convention : Reuss Voigt Hill
#
# Bulk Modulus (GPa) = 40.76211 56.08542 48.42377
# Shear Modulus (GPa) = 18.39881 21.26589 19.83235
#
# Velocity S-wave (km/s) = 3.37512 3.62857 3.50414
# Velocity P-wave (km/s) = 6.35814 7.23049 6.80830
#
# Compressibility (1/GPa) = 0.02453259
#
# Stress axis : x y z
#
# Youngs Moduli (GPa) = 35.71452 74.83245 92.10964
#
# Poissons Ratio (x) = 0.26590 0.52358
# Poissons Ratio (y) = 0.12690 0.42425
# Poissons Ratio (z) = 0.20301 0.34467
#
# Static dielectric constant tensor:
#      x y z
#    x 2.906970 0.000000 0.000000 
#    y 0.000000 3.196840 0.000000 
#    z 0.000000 0.000000 3.648540 
# 
# 
# High freq. dielectric constant tensor:
#      x y z
#    x 1.610470 0.000000 0.000000 
#    y 0.000000 1.603700 0.000000 
#    z 0.000000 0.000000 1.617160 
# 
# From -- ./inp_files/16221.got.cif
#   From: 2010.03.12/outbox.cif.g09.slc.cpg/sg35_9_cif.got.tgz:16221.got - 2010.04.14 02:02:04.
