data_PCOD8172907
_publ_section_title
;
Structure prediction by ZEFSAII (Michael W. Deem and Ramdas Pophale) SiO2 
 PCOD8172907
Probable space group: C M M 2
;
_chemical_formula_sum "Si O2"
_cell_formula_units_Z 64
_cell_length_a 8.866543
_cell_length_b 30.729913
_cell_length_c 11.844774
_cell_angle_alpha 90.000000
_cell_angle_beta 90.000000
_cell_angle_gamma 90.000000
_cell_volume 3227.323007
_symmetry_space_group_name_H-M "C M M 2"
_symmetry_group_IT_number 35
_symmetry_cell_setting 'orthorhombic'
loop_
_space_group_symop_operation_xyz
x,y,z
-x,-y,z
-x,y,z
x,-y,z
1/2+x,1/2+y,z
1/2-x,1/2-y,z
1/2-x,1/2+y,z
1/2+x,1/2-y,z
loop_
_atom_site_type_symbol
_atom_site_label
_atom_site_fract_x
_atom_site_fract_y
_atom_site_fract_z
Si Si1 0.177868 0.706633 0.512930
Si Si2 0.822614 0.205482 0.985682
Si Si3 0.826701 0.411838 0.747105
Si Si4 0.176611 0.821036 0.735588
Si Si5 0.672490 0.950531 0.508607
Si Si6 0.676194 0.373231 0.385935
Si Si7 0.677189 0.623257 0.125629
Si Si8 0.322422 0.951087 0.984976
O O1 0.250000 0.750000 0.457372
O O2 0.228446 0.704949 0.643076
O O3 0.231571 0.664041 0.448293
O O4 0.000000 0.709807 0.505054
O O5 0.750000 0.250000 0.030754
O O6 0.775580 0.197862 0.856444
O O7 0.000000 0.209233 0.000719
O O8 0.759067 0.165377 0.059473
O O9 0.715947 0.371654 0.729204
O O10 0.805468 0.444172 0.642321
O O11 0.775448 0.436844 0.859287
O O12 0.000000 0.395507 0.755692
O O13 0.000000 0.815157 0.711125
O O14 0.500000 0.940177 0.474900
O O15 0.781883 0.919874 0.437066
O O16 0.715050 0.000000 0.478784
O O17 0.500000 0.364553 0.403926
O O18 0.722122 0.372109 0.255533
O O19 0.500000 0.619467 0.107647
O O20 0.749299 0.579513 0.078274
O O21 0.500000 0.948723 0.999799
O O22 0.263141 0.000000 0.005163
#
# Coordination Sequence:
#
# PCOD8172907 Si02
#       8
#     8   8   8   8   8   8   8   8
#     4  12  25  42  64  91 124 158 198 244 299 361
#     4  10  22  39  60  87 119 152 191 238 292 351
#     4  10  19  34  59  89 122 158 195 242 301 360
#     4  11  21  36  61  91 124 157 194 241 295 359
#     4  10  21  38  61  89 122 159 198 244 302 362
#     4  11  24  42  63  86 118 158 206 256 302 354
#     4  10  23  43  61  83 117 158 202 251 301 350
#     4  10  21  37  60  91 123 157 200 246 295 357
#
# _framework density 19.830676
#
# number of rings (size 3 to 8) (size 9 to 14) (size 15 to 20)
#    0.000    1.500    2.500    2.625    0.000    6.500 
#    0.000    3.750    0.000    2.250    0.000    0.000 
#    0.000    0.000    0.000    0.000    0.000    0.000 
#
# Total GULP energy -396959.818746 kJ/mol
# GULP energy per Si atom -12404.994336 kJ/mol
# Density = 1.978554 g / cm^3
# Si number density = 19.830676 Si / 1000 Ang^3
#
#
#
# Elastic Constant Matrix: (Units=GPa)
#
#
# Indices 1 2 3 4 5 6 
#
# 1 73.6798 42.4139 45.3929 0.0000 0.0000 0.0000
# 2 42.4139 145.1931 45.8745 0.0000 0.0000 0.0000
# 3 45.3929 45.8745 103.2839 0.0000 0.0000 0.0000
# 4 0.0000 0.0000 0.0000 2.7088 0.0000 0.0000
# 5 0.0000 0.0000 0.0000 0.0000 21.7492 0.0000
# 6 0.0000 0.0000 0.0000 0.0000 0.0000 36.4875
#
#
#
# Elastic Compliance Matrix: (Units=1/GPa)
#
#
# Indices 1 2 3 4 5 6 
#
# 1 0.020095 -0.003583 -0.007241 0.000000 0.000000 0.000000
# 2 -0.003583 0.008650 -0.002268 0.000000 0.000000 0.000000
# 3 -0.007241 -0.002268 0.013871 0.000000 0.000000 0.000000
# 4 0.000000 0.000000 0.000000 0.369163 0.000000 0.000000
# 5 0.000000 0.000000 0.000000 0.000000 0.045979 0.000000
# 6 0.000000 0.000000 0.000000 0.000000 0.000000 0.027407
#
#
# Mechanical properties :
#
#
# Convention : Reuss Voigt Hill
#
# Bulk Modulus (GPa) = 60.84347 65.50215 63.17281
# Shear Modulus (GPa) = 9.67444 24.75415 17.21430
#
# Velocity S-wave (km/s) = 2.21113 3.53693 2.94949
# Velocity P-wave (km/s) = 6.10466 7.05565 6.59732
#
# Compressibility (1/GPa) = 0.01643562
#
# Stress axis : x y z
#
# Youngs Moduli (GPa) = 49.76270 115.60172 72.09048
#
# Poissons Ratio (x) = 0.41415 0.52198
# Poissons Ratio (y) = 0.17828 0.16347
# Poissons Ratio (z) = 0.36031 0.26214
#
# Static dielectric constant tensor:
#      x y z
#    x 3.503410 0.000000 0.000000 
#    y 0.000000 4.461140 0.000000 
#    z 0.000000 0.000000 3.701330 
# 
# 
# High freq. dielectric constant tensor:
#      x y z
#    x 1.766960 0.000000 0.000000 
#    y 0.000000 1.787160 0.000000 
#    z 0.000000 0.000000 1.772540 
# 
# From -- ./inp_files/11836.got.cif
#   From: 2010.03.12/outbox.cif.g09.slc.cpg/sg35_6_cif.got.tgz:11836.got - 2010.04.14 02:02:04.
