data_PCOD8172426
_publ_section_title
;
Structure prediction by ZEFSAII (Michael W. Deem and Ramdas Pophale) SiO2 
 PCOD8172426
Probable space group: C M M 2
;
_chemical_formula_sum "Si O2"
_cell_formula_units_Z 48
_cell_length_a 15.602088
_cell_length_b 8.697847
_cell_length_c 17.177549
_cell_angle_alpha 90.000000
_cell_angle_beta 90.000000
_cell_angle_gamma 90.000000
_cell_volume 2331.071975
_symmetry_space_group_name_H-M "C M M 2"
_symmetry_group_IT_number 35
_symmetry_cell_setting 'orthorhombic'
loop_
_space_group_symop_operation_xyz
x,y,z
-x,-y,z
-x,y,z
x,-y,z
1/2+x,1/2+y,z
1/2-x,1/2-y,z
1/2-x,1/2+y,z
1/2+x,1/2-y,z
loop_
_atom_site_type_symbol
_atom_site_label
_atom_site_fract_x
_atom_site_fract_y
_atom_site_fract_z
Si Si1 0.500000 0.820794 0.035090
Si Si2 0.000000 0.181549 0.202788
Si Si3 0.161746 0.817861 0.296822
Si Si4 0.656916 0.179880 0.610430
Si Si5 0.402855 0.671782 0.460248
Si Si6 0.156073 0.681188 0.923657
Si Si7 0.344625 0.317515 0.764607
O O1 0.500000 0.724053 0.112944
O O2 0.500000 0.000000 0.054793
O O3 0.413167 0.776523 0.989202
O O4 0.084682 0.249800 0.244373
O O5 0.000000 0.000000 0.211607
O O6 0.250000 0.750000 0.263666
O O7 0.151279 0.766248 0.386888
O O8 0.163695 0.000000 0.290892
O O9 0.750000 0.250000 0.596339
O O10 0.603247 0.213792 0.533011
O O11 0.609433 0.257457 0.685592
O O12 0.663355 0.000000 0.625573
O O13 0.500000 0.665820 0.430759
O O14 0.372302 0.500000 0.484868
O O15 0.167125 0.500000 0.913220
O O16 0.250000 0.750000 0.944023
O O17 0.115694 0.750973 0.844076
O O18 0.346074 0.500000 0.767538
O O19 0.250000 0.250000 0.758832
#
# Coordination Sequence:
#
# PCOD8172426 Si02
#       7
#     4   4   8   8   8   8   8
#     4  10  24  42  62  89 122 155 190 237 296 351
#     4  10  22  42  64  87 120 155 192 237 292 353
#     4  10  21  39  63  90 118 156 196 240 293 351
#     4  11  21  34  53  80 114 153 199 246 293 345
#     4  10  20  37  58  80 115 156 196 244 297 350
#     4  10  20  38  61  87 119 156 195 242 294 350
#     4  10  18  32  55  82 112 151 196 243 292 343
#
# _framework density 20.591383
#
# number of rings (size 3 to 8) (size 9 to 14) (size 15 to 20)
#    0.000    1.833    0.833    6.000    0.000    5.000 
#    1.500    3.333    0.000    0.000    0.000    0.000 
#    0.000    0.000    0.000    0.000    0.000    0.000 
#
# Total GULP energy -297550.966621 kJ/mol
# GULP energy per Si atom -12397.956943 kJ/mol
# Density = 2.054452 g / cm^3
# Si number density = 20.591383 Si / 1000 Ang^3
#
#
#
# Elastic Constant Matrix: (Units=GPa)
#
#
# Indices 1 2 3 4 5 6 
#
# 1 113.3245 35.2612 60.6818 0.0000 0.0000 0.0000
# 2 35.2612 108.0890 52.1313 0.0000 0.0000 0.0000
# 3 60.6818 52.1313 140.6442 0.0000 0.0000 0.0000
# 4 0.0000 0.0000 0.0000 32.3763 0.0000 0.0000
# 5 0.0000 0.0000 0.0000 0.0000 27.2374 0.0000
# 6 0.0000 0.0000 0.0000 0.0000 0.0000 24.7612
#
#
#
# Elastic Compliance Matrix: (Units=1/GPa)
#
#
# Indices 1 2 3 4 5 6 
#
# 1 0.011722 -0.001686 -0.004433 0.000000 0.000000 0.000000
# 2 -0.001686 0.011508 -0.003538 0.000000 0.000000 0.000000
# 3 -0.004433 -0.003538 0.010334 0.000000 0.000000 0.000000
# 4 0.000000 0.000000 0.000000 0.030887 0.000000 0.000000
# 5 0.000000 0.000000 0.000000 0.000000 0.036714 0.000000
# 6 0.000000 0.000000 0.000000 0.000000 0.000000 0.040386
#
#
# Mechanical properties :
#
#
# Convention : Reuss Voigt Hill
#
# Bulk Modulus (GPa) = 70.17230 73.13401 71.65316
# Shear Modulus (GPa) = 30.19038 31.14056 30.66547
#
# Velocity S-wave (km/s) = 3.83321 3.89306 3.86325
# Velocity P-wave (km/s) = 7.33101 7.47006 7.40086
#
# Compressibility (1/GPa) = 0.01425064
#
# Stress axis : x y z
#
# Youngs Moduli (GPa) = 85.30622 86.89502 96.76725
#
# Poissons Ratio (x) = 0.14653 0.42894
# Poissons Ratio (y) = 0.14385 0.34237
# Poissons Ratio (z) = 0.37814 0.30744
#
# Static dielectric constant tensor:
#      x y z
#    x 3.761150 0.000000 0.000000 
#    y 0.000000 3.623800 0.000000 
#    z 0.000000 0.000000 4.064620 
# 
# 
# High freq. dielectric constant tensor:
#      x y z
#    x 1.793620 0.000000 0.000000 
#    y 0.000000 1.801000 0.000000 
#    z 0.000000 0.000000 1.812900 
# 
# From -- ./inp_files/17899.got.cif
#   From: 2010.03.12/outbox.cif.g09.slc.cpg/sg35_9_cif.got.tgz:17899.got - 2010.04.14 02:02:04.
