data_PCOD8172120
_publ_section_title
;
Structure prediction by ZEFSAII (Michael W. Deem and Ramdas Pophale) SiO2 
 PCOD8172120
Probable space group: P N N 2
;
_chemical_formula_sum "Si O2"
_cell_formula_units_Z 30
_cell_length_a 16.190379
_cell_length_b 13.876680
_cell_length_c 5.439091
_cell_angle_alpha 90.000000
_cell_angle_beta 90.000000
_cell_angle_gamma 90.000000
_cell_volume 1221.993550
_symmetry_space_group_name_H-M "P N N 2"
_symmetry_group_IT_number 34
_symmetry_cell_setting 'orthorhombic'
loop_
_space_group_symop_operation_xyz
x,y,z
-x,-y,z
1/2-x,1/2+y,1/2+z
1/2+x,1/2-y,1/2+z
loop_
_atom_site_type_symbol
_atom_site_label
_atom_site_fract_x
_atom_site_fract_y
_atom_site_fract_z
Si Si1 0.610398 0.345516 0.548990
Si Si2 0.705803 0.389995 0.046629
Si Si3 0.166200 0.736597 0.813278
Si Si4 0.563360 0.650921 0.673564
Si Si5 0.604787 0.142851 0.351043
Si Si6 0.280453 0.397747 0.950873
Si Si7 0.000000 0.500000 0.138132
Si Si8 0.536459 0.834660 0.985343
O O1 0.647689 0.367886 0.278801
O O2 0.522696 0.401536 0.595424
O O3 0.592498 0.230647 0.545292
O O4 0.668366 0.375395 0.773294
O O5 0.782242 0.314481 0.034336
O O6 0.733904 0.500351 0.086602
O O7 0.219082 0.806538 0.636245
O O8 0.114908 0.653864 0.668955
O O9 0.096261 0.803912 0.924856
O O10 0.636201 0.585523 0.789710
O O11 0.541395 0.729110 0.875875
O O12 0.700969 0.125648 0.280044
O O13 0.554194 0.160882 0.104013
O O14 0.570855 0.046331 0.473711
O O15 0.951996 0.420360 0.294845
#
# Coordination Sequence:
#
# PCOD8172120 Si02
#       8
#     4   4   4   4   4   4   2   4
#     4  12  26  53  79 108 158 209 268 319 399 480
#     4  12  30  50  79 119 154 213 267 332 398 488
#     4  11  25  50  76 110 158 203 259 335 402 469
#     4  11  25  49  76 106 152 209 259 327 400 466
#     4  12  25  49  73 117 156 204 263 333 408 484
#     4  11  29  48  76 116 159 207 264 339 402 483
#     4  12  26  38  74 118 148 210 260 332 402 492
#     4  11  24  44  74 112 155 204 257 322 404 489
#
# _framework density 24.550048
#
# number of rings (size 3 to 8) (size 9 to 14) (size 15 to 20)
#    0.000    0.533    4.000    2.000   11.200    1.600 
#    0.000    0.000    0.000    0.000    0.000    0.000 
#    0.000    0.000    0.000    0.000    0.000    0.000 
#
# Total GULP energy -371878.216901 kJ/mol
# GULP energy per Si atom -12395.940563 kJ/mol
# Density = 2.449417 g / cm^3
# Si number density = 24.550048 Si / 1000 Ang^3
#
#
#
# Elastic Constant Matrix: (Units=GPa)
#
#
# Indices 1 2 3 4 5 6 
#
# 1 104.8793 0.9439 20.0059 0.0000 0.0000 0.0000
# 2 0.9439 49.8834 -1.3366 0.0000 0.0000 0.0000
# 3 20.0059 -1.3366 100.5883 0.0000 0.0000 0.0000
# 4 0.0000 0.0000 0.0000 7.9449 0.0000 0.0000
# 5 0.0000 0.0000 0.0000 0.0000 27.8054 0.0000
# 6 0.0000 0.0000 0.0000 0.0000 0.0000 27.9589
#
#
#
# Elastic Compliance Matrix: (Units=1/GPa)
#
#
# Indices 1 2 3 4 5 6 
#
# 1 0.009914 -0.000241 -0.001975 0.000000 0.000000 0.000000
# 2 -0.000241 0.020060 0.000314 0.000000 0.000000 0.000000
# 3 -0.001975 0.000314 0.010338 0.000000 0.000000 0.000000
# 4 0.000000 0.000000 0.000000 0.125867 0.000000 0.000000
# 5 0.000000 0.000000 0.000000 0.000000 0.035964 0.000000
# 6 0.000000 0.000000 0.000000 0.000000 0.000000 0.035767
#
#
# Mechanical properties :
#
#
# Convention : Reuss Voigt Hill
#
# Bulk Modulus (GPa) = 27.38993 32.73082 30.06038
# Shear Modulus (GPa) = 19.69424 28.45770 24.07597
#
# Velocity S-wave (km/s) = 2.83540 3.40835 3.13499
# Velocity P-wave (km/s) = 4.67978 5.37126 5.03740
#
# Compressibility (1/GPa) = 0.03650977
#
# Stress axis : x y z
#
# Youngs Moduli (GPa) = 100.87104 49.85117 96.72600
#
# Poissons Ratio (x) = 0.01199 0.19103
# Poissons Ratio (y) = 0.02426 -0.03041
# Poissons Ratio (z) = 0.19921 -0.01567
#
# Static dielectric constant tensor:
#      x y z
#    x 4.864010 0.000000 0.000000 
#    y 0.000000 4.480570 0.000000 
#    z 0.000000 0.000000 4.255230 
# 
# 
# High freq. dielectric constant tensor:
#      x y z
#    x 1.993360 0.000000 0.000000 
#    y 0.000000 1.971780 0.000000 
#    z 0.000000 0.000000 1.971840 
# 
# From -- ./inp_files/1484.got.cif
#   From: 2010.03.12/outbox.cif.g09.slc.cpg/sg34_1_cif.got.tgz:1484.got - 2010.04.14 01:56:33.
