data_PCOD8172522
_publ_section_title
;
Structure prediction by ZEFSAII (Michael W. Deem and Ramdas Pophale) SiO2 
 PCOD8172522
Probable space group: C M M 2
;
_chemical_formula_sum "Si O2"
_cell_formula_units_Z 64
_cell_length_a 9.099122
_cell_length_b 18.730447
_cell_length_c 20.590547
_cell_angle_alpha 90.000000
_cell_angle_beta 90.000000
_cell_angle_gamma 90.000000
_cell_volume 3509.259740
_symmetry_space_group_name_H-M "C M M 2"
_symmetry_group_IT_number 35
_symmetry_cell_setting 'orthorhombic'
loop_
_space_group_symop_operation_xyz
x,y,z
-x,-y,z
-x,y,z
x,-y,z
1/2+x,1/2+y,z
1/2-x,1/2-y,z
1/2-x,1/2+y,z
1/2+x,1/2-y,z
loop_
_atom_site_type_symbol
_atom_site_label
_atom_site_fract_x
_atom_site_fract_y
_atom_site_fract_z
Si Si1 0.674944 0.174063 0.250000
Si Si2 0.174489 0.420235 0.368173
Si Si3 0.827609 0.322986 0.013671
Si Si4 0.825056 0.674063 0.630635
Si Si5 0.172391 0.677014 0.866964
Si Si6 0.825511 0.420235 0.512461
Si Si7 0.325684 0.079552 0.129340
Si Si8 0.325684 0.079552 0.751295
O O1 0.500000 0.183553 0.250122
O O2 0.750000 0.250000 0.244117
O O3 0.733890 0.135854 0.315467
O O4 0.729589 0.126217 0.189852
O O5 0.233958 0.500000 0.352577
O O6 0.226751 0.396565 0.440317
O O7 0.000000 0.422203 0.364915
O O8 0.750000 0.250000 0.033959
O O9 0.772381 0.384780 0.062016
O O10 0.000000 0.309905 0.021060
O O11 0.785740 0.345830 0.940317
O O12 0.750000 0.750000 0.636518
O O13 0.766110 0.635854 0.565168
O O14 0.770411 0.626217 0.690782
O O15 0.000000 0.683553 0.630513
O O16 0.250000 0.750000 0.846676
O O17 0.227619 0.615220 0.818619
O O18 0.000000 0.690095 0.859575
O O19 0.766041 0.500000 0.528058
O O20 0.000000 0.422203 0.515720
O O21 0.500000 0.074634 0.131048
O O22 0.257825 0.000000 0.133641
O O23 0.500000 0.074634 0.749586
O O24 0.257825 0.000000 0.746994
#
# Coordination Sequence:
#
# PCOD8172522 Si02
#       8
#     8   8   8   8   8   8   8   8
#     4  10  19  30  46  67  90 116 145 179 219 260
#     4   8  14  26  45  67  88 112 146 184 216 250
#     4   9  17  29  46  67  90 116 144 176 216 260
#     4  10  19  30  46  67  90 116 145 179 219 260
#     4   9  17  29  46  67  90 116 144 176 216 260
#     4   8  14  26  45  67  88 112 146 184 216 250
#     4   9  17  29  46  67  88 112 147 187 219 250
#     4   9  17  29  46  67  88 112 147 187 219 250
#
# _framework density 18.237463999999999
#
# number of rings (size 3 to 8) (size 9 to 14) (size 15 to 20)
#    0.000    3.000    0.000    2.250    0.000    4.000 
#    0.000    2.500    0.000    5.250    0.000    5.250 
#    0.000    0.000    0.000    0.000    0.000    0.000 
#
# Total GULP energy -396682.485197 kJ/mol
# GULP energy per Si atom -12396.327662 kJ/mol
# Density = 1.819595 g / cm^3
# Si number density = 18.237464 Si / 1000 Ang^3
#
#
#
# Elastic Constant Matrix: (Units=GPa)
#
#
# Indices 1 2 3 4 5 6 
#
# 1 13.2950 24.3361 19.6306 0.0000 0.0000 0.0000
# 2 24.3361 182.8281 114.7010 0.0000 0.0000 0.0000
# 3 19.6306 114.7010 163.6709 0.0000 0.0000 0.0000
# 4 0.0000 0.0000 0.0000 39.3137 0.0000 0.0000
# 5 0.0000 0.0000 0.0000 0.0000 9.9820 0.0000
# 6 0.0000 0.0000 0.0000 0.0000 0.0000 24.4514
#
#
#
# Elastic Compliance Matrix: (Units=1/GPa)
#
#
# Indices 1 2 3 4 5 6 
#
# 1 0.101543 -0.010486 -0.004831 0.000000 0.000000 0.000000
# 2 -0.010486 0.010844 -0.006342 0.000000 0.000000 0.000000
# 3 -0.004831 -0.006342 0.011134 0.000000 0.000000 0.000000
# 4 0.000000 0.000000 0.000000 0.025436 0.000000 0.000000
# 5 0.000000 0.000000 0.000000 0.000000 0.100181 0.000000
# 6 0.000000 0.000000 0.000000 0.000000 0.000000 0.040897
#
#
# Mechanical properties :
#
#
# Convention : Reuss Voigt Hill
#
# Bulk Modulus (GPa) = 12.46817 75.23659 43.85238
# Shear Modulus (GPa) = 13.88555 28.15783 21.02169
#
# Velocity S-wave (km/s) = 2.76230 3.93358 3.39878
# Velocity P-wave (km/s) = 4.12615 7.87237 6.28487
#
# Compressibility (1/GPa) = 0.08020422
#
# Stress axis : x y z
#
# Youngs Moduli (GPa) = 9.84805 92.21606 89.81790
#
# Poissons Ratio (x) = 0.96695 0.43388
# Poissons Ratio (y) = 0.10326 0.56962
# Poissons Ratio (z) = 0.04757 0.58483
#
# Static dielectric constant tensor:
#      x y z
#    x 2.796250 0.000000 0.000000 
#    y 0.000000 3.541870 0.000000 
#    z 0.000000 0.000000 3.771520 
# 
# 
# High freq. dielectric constant tensor:
#      x y z
#    x 1.643270 0.000000 0.000000 
#    y 0.000000 1.710820 0.000000 
#    z 0.000000 0.000000 1.726860 
# 
# From -- ./inp_files/18688.got.cif
#   From: 2010.03.12/outbox.cif.g09.slc.cpg/sg35_10_cif.got.tgz:18688.got - 2010.04.14 02:02:04.
