data_PCOD8172134
_publ_section_title
;
Structure prediction by ZEFSAII (Michael W. Deem and Ramdas Pophale) SiO2 
 PCOD8172134
Probable space group: P N N 2
;
_chemical_formula_sum "Si O2"
_cell_formula_units_Z 24
_cell_length_a 9.011438
_cell_length_b 23.831302
_cell_length_c 4.950800
_cell_angle_alpha 90.000000
_cell_angle_beta 90.000000
_cell_angle_gamma 90.000000
_cell_volume 1063.205591
_symmetry_space_group_name_H-M "P N N 2"
_symmetry_group_IT_number 34
_symmetry_cell_setting 'orthorhombic'
loop_
_space_group_symop_operation_xyz
x,y,z
-x,-y,z
1/2-x,1/2+y,1/2+z
1/2+x,1/2-y,1/2+z
loop_
_atom_site_type_symbol
_atom_site_label
_atom_site_fract_x
_atom_site_fract_y
_atom_site_fract_z
Si Si1 0.688151 0.732518 0.135450
Si Si2 0.190877 0.600767 0.201876
Si Si3 0.845989 0.475574 0.696956
Si Si4 0.406552 0.446481 0.625307
Si Si5 0.541373 0.786949 0.631518
Si Si6 0.019933 0.879088 0.623291
O O1 0.619295 0.777717 0.341760
O O2 0.617805 0.673192 0.217545
O O3 0.867414 0.729558 0.139440
O O4 0.633125 0.748870 0.838932
O O5 0.208795 0.572964 0.495364
O O6 0.059406 0.646881 0.199231
O O7 0.344600 0.633403 0.143133
O O8 0.157261 0.550594 0.994936
O O9 0.759294 0.534027 0.675750
O O10 0.000000 0.500000 0.606100
O O11 0.500000 0.500000 0.716265
O O12 0.436083 0.431048 0.314602
O O13 0.444734 0.393712 0.813621
#
# Coordination Sequence:
#
# PCOD8172134 Si02
#       6
#     4   4   4   4   4   4
#     4  12  27  48  74 105 136 183 227 294 343 420
#     4  12  24  45  68  99 134 180 222 282 335 402
#     4  12  27  41  66  97 141 177 225 274 336 394
#     4  12  23  43  66  99 135 179 223 270 329 409
#     4  12  27  48  74 102 142 176 235 284 355 407
#     4  12  24  42  72  98 134 176 228 274 342 399
#
# _framework density 22.573245
#
# number of rings (size 3 to 8) (size 9 to 14) (size 15 to 20)
#    0.000    0.000    3.333    7.000    4.667    0.000 
#    0.000    0.000    0.000    0.000    0.000    0.000 
#    0.000    0.000    0.000    0.000    0.000    0.000 
#
# Total GULP energy -297707.149451 kJ/mol
# GULP energy per Si atom -12404.464560 kJ/mol
# Density = 2.252187 g / cm^3
# Si number density = 22.573245 Si / 1000 Ang^3
#
#
#
# Elastic Constant Matrix: (Units=GPa)
#
#
# Indices 1 2 3 4 5 6 
#
# 1 157.3821 23.0342 18.9170 0.0000 0.0000 0.0000
# 2 23.0342 71.1591 10.3413 0.0000 0.0000 0.0000
# 3 18.9170 10.3413 90.1099 0.0000 0.0000 0.0000
# 4 0.0000 0.0000 0.0000 28.8439 0.0000 0.0000
# 5 0.0000 0.0000 0.0000 0.0000 27.9892 0.0000
# 6 0.0000 0.0000 0.0000 0.0000 0.0000 36.8417
#
#
#
# Elastic Compliance Matrix: (Units=1/GPa)
#
#
# Indices 1 2 3 4 5 6 
#
# 1 0.006794 -0.002026 -0.001194 0.000000 0.000000 0.000000
# 2 -0.002026 0.014895 -0.001284 0.000000 0.000000 0.000000
# 3 -0.001194 -0.001284 0.011496 0.000000 0.000000 0.000000
# 4 0.000000 0.000000 0.000000 0.034669 0.000000 0.000000
# 5 0.000000 0.000000 0.000000 0.000000 0.035728 0.000000
# 6 0.000000 0.000000 0.000000 0.000000 0.000000 0.027143
#
#
# Mechanical properties :
#
#
# Convention : Reuss Voigt Hill
#
# Bulk Modulus (GPa) = 41.36077 47.02623 44.19350
# Shear Modulus (GPa) = 33.83136 36.49221 35.16179
#
# Velocity S-wave (km/s) = 3.87555 4.02508 3.95102
# Velocity P-wave (km/s) = 6.19591 6.51764 6.35881
#
# Compressibility (1/GPa) = 0.02417750
#
# Stress axis : x y z
#
# Youngs Moduli (GPa) = 147.19008 67.13502 86.99013
#
# Poissons Ratio (x) = 0.13600 0.10385
# Poissons Ratio (y) = 0.29816 0.11171
# Poissons Ratio (z) = 0.17571 0.08621
#
# Static dielectric constant tensor:
#      x y z
#    x 4.048460 0.000000 0.000000 
#    y 0.000000 3.411120 0.000000 
#    z 0.000000 0.000000 3.994090 
# 
# 
# High freq. dielectric constant tensor:
#      x y z
#    x 1.901700 0.000000 0.000000 
#    y 0.000000 1.891390 0.000000 
#    z 0.000000 0.000000 1.901430 
# 
# From -- ./inp_files/472.got.cif
#   From: 2010.03.12/outbox.cif.g09.slc.cpg/sg34_1_cif.got.tgz:472.got - 2010.04.14 01:56:33.
