data_PCOD8172647
_publ_section_title
;
Structure prediction by ZEFSAII (Michael W. Deem and Ramdas Pophale) SiO2 
 PCOD8172647
Probable space group: C M M 2
;
_chemical_formula_sum "Si O2"
_cell_formula_units_Z 56
_cell_length_a 22.179838
_cell_length_b 16.094090
_cell_length_c 8.274917
_cell_angle_alpha 90.000000
_cell_angle_beta 90.000000
_cell_angle_gamma 90.000000
_cell_volume 2953.850029
_symmetry_space_group_name_H-M "C M M 2"
_symmetry_group_IT_number 35
_symmetry_cell_setting 'orthorhombic'
loop_
_space_group_symop_operation_xyz
x,y,z
-x,-y,z
-x,y,z
x,-y,z
1/2+x,1/2+y,z
1/2-x,1/2-y,z
1/2-x,1/2+y,z
1/2+x,1/2-y,z
loop_
_atom_site_type_symbol
_atom_site_label
_atom_site_fract_x
_atom_site_fract_y
_atom_site_fract_z
Si Si1 0.338684 0.403767 0.950400
Si Si2 0.850190 0.287886 0.525924
Si Si3 0.214389 0.404918 0.774392
Si Si4 0.313723 0.717920 0.206960
Si Si5 0.114917 0.348781 0.012286
Si Si6 0.569091 0.717077 0.789280
Si Si7 0.066469 0.593371 0.325366
O O1 0.354387 0.500000 0.957565
O O2 0.281882 0.384564 0.833981
O O3 0.397140 0.356358 0.883855
O O4 0.323563 0.374558 0.134464
O O5 0.802032 0.336161 0.639037
O O6 0.817410 0.224107 0.401921
O O7 0.897357 0.230543 0.619933
O O8 0.884320 0.357979 0.426128
O O9 0.210948 0.500000 0.708406
O O10 0.168742 0.397790 0.924920
O O11 0.250000 0.750000 0.144666
O O12 0.363569 0.774696 0.126114
O O13 0.079412 0.409709 0.132258
O O14 0.071119 0.305817 0.881396
O O15 0.500000 0.690631 0.760894
O O16 0.068133 0.500000 0.390829
O O17 0.000000 0.632060 0.354360
#
# Coordination Sequence:
#
# PCOD8172647 Si02
#       7
#     8   8   8   8   8   8   8
#     4  10  22  39  60  85 111 143 187 237 284 332
#     4  10  22  33  55  82 115 147 187 224 279 341
#     4  10  19  34  54  83 118 145 178 229 285 338
#     4  10  19  35  56  82 111 144 175 222 278 340
#     4   9  18  32  55  79 107 145 193 230 271 326
#     4  10  21  37  58  80 108 149 195 239 280 328
#     4  10  19  32  49  76 115 154 190 227 269 324
#
# _framework density 18.958309
#
# number of rings (size 3 to 8) (size 9 to 14) (size 15 to 20)
#    0.000    2.143    1.429    1.714    2.000    0.286 
#    0.000    2.143    0.000    6.857    0.000    0.000 
#    0.000    0.000    0.000    0.000    0.000    0.000 
#
# Total GULP energy -347066.433666 kJ/mol
# GULP energy per Si atom -12395.229774 kJ/mol
# Density = 1.891516 g / cm^3
# Si number density = 18.958309 Si / 1000 Ang^3
#
#
#
# Elastic Constant Matrix: (Units=GPa)
#
#
# Indices 1 2 3 4 5 6 
#
# 1 90.6628 38.9073 24.3570 0.0000 0.0000 0.0000
# 2 38.9073 89.0471 40.7531 0.0000 0.0000 0.0000
# 3 24.3570 40.7531 96.4499 0.0000 0.0000 0.0000
# 4 0.0000 0.0000 0.0000 23.2747 0.0000 0.0000
# 5 0.0000 0.0000 0.0000 0.0000 16.7059 0.0000
# 6 0.0000 0.0000 0.0000 0.0000 0.0000 23.3149
#
#
#
# Elastic Compliance Matrix: (Units=1/GPa)
#
#
# Indices 1 2 3 4 5 6 
#
# 1 0.013678 -0.005449 -0.001152 0.000000 0.000000 0.000000
# 2 -0.005449 0.016093 -0.005424 0.000000 0.000000 0.000000
# 3 -0.001152 -0.005424 0.012951 0.000000 0.000000 0.000000
# 4 0.000000 0.000000 0.000000 0.042965 0.000000 0.000000
# 5 0.000000 0.000000 0.000000 0.000000 0.059859 0.000000
# 6 0.000000 0.000000 0.000000 0.000000 0.000000 0.042891
#
#
# Mechanical properties :
#
#
# Convention : Reuss Voigt Hill
#
# Bulk Modulus (GPa) = 53.55511 53.79940 53.67726
# Shear Modulus (GPa) = 22.86131 24.13525 23.49828
#
# Velocity S-wave (km/s) = 3.47634 3.57188 3.52443
# Velocity P-wave (km/s) = 6.66509 6.74170 6.70350
#
# Compressibility (1/GPa) = 0.01867235
#
# Stress axis : x y z
#
# Youngs Moduli (GPa) = 73.11148 62.13838 77.21641
#
# Poissons Ratio (x) = 0.33860 0.08893
# Poissons Ratio (y) = 0.39839 0.41880
# Poissons Ratio (z) = 0.08420 0.33702
#
# Static dielectric constant tensor:
#      x y z
#    x 3.406420 0.000000 0.000000 
#    y 0.000000 3.340580 0.000000 
#    z 0.000000 0.000000 3.692810 
# 
# 
# High freq. dielectric constant tensor:
#      x y z
#    x 1.736210 0.000000 0.000000 
#    y 0.000000 1.721400 0.000000 
#    z 0.000000 0.000000 1.737100 
# 
# From -- ./inp_files/9380.got.cif
#   From: 2010.03.12/outbox.cif.g09.slc.cpg/sg35_5_cif.got.tgz:9380.got - 2010.04.14 02:02:04.
