data_PCOD8172261
_publ_section_title
;
Structure prediction by ZEFSAII (Michael W. Deem and Ramdas Pophale) SiO2 
 PCOD8172261
Probable space group: C M M 2
;
_chemical_formula_sum "Si O2"
_cell_formula_units_Z 56
_cell_length_a 8.859460
_cell_length_b 18.748074
_cell_length_c 18.200670
_cell_angle_alpha 90.000000
_cell_angle_beta 90.000000
_cell_angle_gamma 90.000000
_cell_volume 3023.091458
_symmetry_space_group_name_H-M "C M M 2"
_symmetry_group_IT_number 35
_symmetry_cell_setting 'orthorhombic'
loop_
_space_group_symop_operation_xyz
x,y,z
-x,-y,z
-x,y,z
x,-y,z
1/2+x,1/2+y,z
1/2-x,1/2-y,z
1/2-x,1/2+y,z
1/2+x,1/2-y,z
loop_
_atom_site_type_symbol
_atom_site_label
_atom_site_fract_x
_atom_site_fract_y
_atom_site_fract_z
Si Si1 0.177397 0.581894 0.726170
Si Si2 0.679374 0.919861 0.000323
Si Si3 0.821279 0.327046 0.866502
Si Si4 0.679183 0.079458 0.162841
Si Si5 0.179661 0.672076 0.297082
Si Si6 0.175086 0.172952 0.601997
Si Si7 0.175328 0.173576 0.439283
O O1 0.227458 0.500000 0.735687
O O2 0.229269 0.624614 0.798176
O O3 0.257871 0.614428 0.655705
O O4 0.000000 0.588317 0.714088
O O5 0.500000 0.921806 0.995065
O O6 0.743466 0.864918 0.940050
O O7 0.740481 0.000000 0.985009
O O8 0.731014 0.894104 0.081740
O O9 0.750000 0.250000 0.857593
O O10 0.000000 0.318813 0.870089
O O11 0.500000 0.078476 0.166440
O O12 0.743505 0.130261 0.226315
O O13 0.741940 0.000000 0.176630
O O14 0.250000 0.750000 0.292764
O O15 0.239792 0.632928 0.371981
O O16 0.000000 0.675258 0.298240
O O17 0.250000 0.250000 0.613259
O O18 0.199108 0.139599 0.519998
O O19 0.000000 0.184283 0.618910
O O20 0.250000 0.250000 0.444740
O O21 0.000000 0.180370 0.419207
#
# Coordination Sequence:
#
# PCOD8172261 Si02
#       7
#     8   8   8   8   8   8   8
#     4  10  21  36  53  74 101 132 167 206 247 294
#     4   8  14  28  50  71  93 125 164 202 238 280
#     4  10  20  33  51  76 102 128 161 200 243 289
#     4   8  15  28  46  69  95 125 163 202 238 280
#     4  10  18  28  46  71  98 126 159 200 242 286
#     4  10  20  34  54  77 100 129 166 207 250 298
#     4   9  17  30  48  70  96 126 161 199 240 288
#
# _framework density 18.524083999999998
#
# number of rings (size 3 to 8) (size 9 to 14) (size 15 to 20)
#    0.000    2.714    0.000    3.857    0.000    6.000 
#    0.000    0.714    0.000    6.429    0.000    4.000 
#    0.000    0.000    0.000    0.000    0.000    0.000 
#
# Total GULP energy -347005.576444 kJ/mol
# GULP energy per Si atom -12393.056302 kJ/mol
# Density = 1.848192 g / cm^3
# Si number density = 18.524084 Si / 1000 Ang^3
#
#
#
# Elastic Constant Matrix: (Units=GPa)
#
#
# Indices 1 2 3 4 5 6 
#
# 1 48.6453 34.7983 48.2532 0.0000 0.0000 0.0000
# 2 34.7983 111.8081 89.0077 0.0000 0.0000 0.0000
# 3 48.2532 89.0077 188.7379 0.0000 0.0000 0.0000
# 4 0.0000 0.0000 0.0000 17.2469 0.0000 0.0000
# 5 0.0000 0.0000 0.0000 0.0000 14.8523 0.0000
# 6 0.0000 0.0000 0.0000 0.0000 0.0000 19.7610
#
#
#
# Elastic Compliance Matrix: (Units=1/GPa)
#
#
# Indices 1 2 3 4 5 6 
#
# 1 0.029212 -0.005038 -0.005093 0.000000 0.000000 0.000000
# 2 -0.005038 0.015189 -0.005875 0.000000 0.000000 0.000000
# 3 -0.005093 -0.005875 0.009371 0.000000 0.000000 0.000000
# 4 0.000000 0.000000 0.000000 0.057981 0.000000 0.000000
# 5 0.000000 0.000000 0.000000 0.000000 0.067330 0.000000
# 6 0.000000 0.000000 0.000000 0.000000 0.000000 0.050605
#
#
# Mechanical properties :
#
#
# Convention : Reuss Voigt Hill
#
# Bulk Modulus (GPa) = 45.95314 77.03442 61.49378
# Shear Modulus (GPa) = 18.59067 22.18085 20.38576
#
# Velocity S-wave (km/s) = 3.17139 3.46411 3.32098
# Velocity P-wave (km/s) = 6.18639 7.59450 6.92632
#
# Compressibility (1/GPa) = 0.02176130
#
# Stress axis : x y z
#
# Youngs Moduli (GPa) = 34.23214 65.83859 106.71219
#
# Poissons Ratio (x) = 0.33166 0.54347
# Poissons Ratio (y) = 0.17245 0.62693
# Poissons Ratio (z) = 0.17434 0.38680
#
# Static dielectric constant tensor:
#      x y z
#    x 3.157730 0.000000 0.000000 
#    y 0.000000 3.293870 0.000000 
#    z 0.000000 0.000000 4.226630 
# 
# 
# High freq. dielectric constant tensor:
#      x y z
#    x 1.692360 0.000000 0.000000 
#    y 0.000000 1.694750 0.000000 
#    z 0.000000 0.000000 1.744580 
# 
# From -- ./inp_files/18277.got.cif
#   From: 2010.03.12/outbox.cif.g09.slc.cpg/sg35_10_cif.got.tgz:18277.got - 2010.04.14 02:02:04.
