data_PCOD8172973
_publ_section_title
;
Structure prediction by ZEFSAII (Michael W. Deem and Ramdas Pophale) SiO2 
 PCOD8172973
Probable space group: C M M 2
;
_chemical_formula_sum "Si O2"
_cell_formula_units_Z 64
_cell_length_a 8.601243
_cell_length_b 30.480158
_cell_length_c 11.799540
_cell_angle_alpha 90.000000
_cell_angle_beta 90.000000
_cell_angle_gamma 90.000000
_cell_volume 3093.452902
_symmetry_space_group_name_H-M "C M M 2"
_symmetry_group_IT_number 35
_symmetry_cell_setting 'orthorhombic'
loop_
_space_group_symop_operation_xyz
x,y,z
-x,-y,z
-x,y,z
x,-y,z
1/2+x,1/2+y,z
1/2-x,1/2-y,z
1/2-x,1/2+y,z
1/2+x,1/2-y,z
loop_
_atom_site_type_symbol
_atom_site_label
_atom_site_fract_x
_atom_site_fract_y
_atom_site_fract_z
Si Si1 0.178572 0.075444 0.947180
Si Si2 0.677047 0.049774 0.174155
Si Si3 0.320000 0.873628 0.558466
Si Si4 0.682534 0.704255 0.700357
Si Si5 0.819471 0.125025 0.314546
Si Si6 0.820535 0.821167 0.948404
Si Si7 0.319702 0.550389 0.698390
Si Si8 0.317798 0.795571 0.176072
O O1 0.199571 0.127097 0.957143
O O2 0.240029 0.059141 0.825586
O O3 0.000000 0.061263 0.963910
O O4 0.281287 0.051959 0.041739
O O5 0.500000 0.065830 0.190490
O O6 0.790609 0.080092 0.247088
O O7 0.697249 0.000000 0.216691
O O8 0.500000 0.864577 0.577142
O O9 0.227245 0.834570 0.616795
O O10 0.283498 0.874231 0.426268
O O11 0.276093 0.920507 0.610700
O O12 0.500000 0.707603 0.702082
O O13 0.750000 0.750000 0.654608
O O14 0.743954 0.694504 0.826921
O O15 0.774289 0.165463 0.235627
O O16 0.000000 0.127887 0.346673
O O17 0.000000 0.807650 0.967554
O O18 0.713521 0.797972 0.041704
O O19 0.500000 0.563888 0.689734
O O20 0.292513 0.500000 0.664914
O O21 0.500000 0.798925 0.201830
O O22 0.250000 0.750000 0.224315
#
# Coordination Sequence:
#
# PCOD8172973 Si02
#       8
#     8   8   8   8   8   8   8   8
#     4  10  19  36  64  95 129 169 210 254 309 372
#     4  11  24  41  63  95 132 167 207 258 315 374
#     4  12  26  44  66  92 125 165 211 261 317 371
#     4  11  23  42  66  95 130 166 211 258 310 371
#     4  12  26  46  69  91 121 163 214 264 315 371
#     4  10  20  37  64  96 131 168 208 255 310 371
#     4  10  21  40  66  95 128 168 212 258 311 371
#     4  12  25  42  66  96 131 166 208 256 313 374
#
# _framework density 20.688856000000001
#
# number of rings (size 3 to 8) (size 9 to 14) (size 15 to 20)
#    0.000    1.000    2.500    4.875    0.000    5.250 
#    0.000    2.500    0.000    0.000    0.000    0.000 
#    0.000    0.000    0.000    0.000    0.000    0.000 
#
# Total GULP energy -397033.088128 kJ/mol
# GULP energy per Si atom -12407.284004 kJ/mol
# Density = 2.064177 g / cm^3
# Si number density = 20.688856 Si / 1000 Ang^3
#
#
#
# Elastic Constant Matrix: (Units=GPa)
#
#
# Indices 1 2 3 4 5 6 
#
# 1 68.2535 24.5502 9.1782 0.0000 0.0000 0.0000
# 2 24.5502 110.4958 32.0333 0.0000 0.0000 0.0000
# 3 9.1782 32.0333 98.8380 0.0000 0.0000 0.0000
# 4 0.0000 0.0000 0.0000 0.2896 0.0000 0.0000
# 5 0.0000 0.0000 0.0000 0.0000 33.4030 0.0000
# 6 0.0000 0.0000 0.0000 0.0000 0.0000 32.1411
#
#
#
# Elastic Compliance Matrix: (Units=1/GPa)
#
#
# Indices 1 2 3 4 5 6 
#
# 1 0.015936 -0.003434 -0.000367 0.000000 0.000000 0.000000
# 2 -0.003434 0.010729 -0.003158 0.000000 0.000000 0.000000
# 3 -0.000367 -0.003158 0.011175 0.000000 0.000000 0.000000
# 4 0.000000 0.000000 0.000000 3.452956 0.000000 0.000000
# 5 0.000000 0.000000 0.000000 0.000000 0.029937 0.000000
# 6 0.000000 0.000000 0.000000 0.000000 0.000000 0.031113
#
#
# Mechanical properties :
#
#
# Convention : Reuss Voigt Hill
#
# Bulk Modulus (GPa) = 41.80405 45.45674 43.63040
# Shear Modulus (GPa) = 1.39910 27.28845 14.34377
#
# Velocity S-wave (km/s) = 0.82324 3.63573 2.63593
# Velocity P-wave (km/s) = 4.59930 6.29635 5.51351
#
# Compressibility (1/GPa) = 0.02392113
#
# Stress axis : x y z
#
# Youngs Moduli (GPa) = 62.75148 93.20737 89.48375
#
# Poissons Ratio (x) = 0.32011 0.03282
# Poissons Ratio (y) = 0.21551 0.28261
# Poissons Ratio (z) = 0.02301 0.29437
#
# Static dielectric constant tensor:
#      x y z
#    x 3.680760 0.000000 0.000000 
#    y 0.000000 3.859650 0.000000 
#    z 0.000000 0.000000 3.731380 
# 
# 
# High freq. dielectric constant tensor:
#      x y z
#    x 1.808230 0.000000 0.000000 
#    y 0.000000 1.825200 0.000000 
#    z 0.000000 0.000000 1.807090 
# 
# From -- ./inp_files/11950.got.cif
#   From: 2010.03.12/outbox.cif.g09.slc.cpg/sg35_6_cif.got.tgz:11950.got - 2010.04.14 02:02:04.
