data_PCOD8172852
_publ_section_title
;
Structure prediction by ZEFSAII (Michael W. Deem and Ramdas Pophale) SiO2 
 PCOD8172852
Probable space group: C M M 2
;
_chemical_formula_sum "Si O2"
_cell_formula_units_Z 56
_cell_length_a 10.416125
_cell_length_b 19.440310
_cell_length_c 13.933077
_cell_angle_alpha 90.000000
_cell_angle_beta 90.000000
_cell_angle_gamma 90.000000
_cell_volume 2821.346367
_symmetry_space_group_name_H-M "C M M 2"
_symmetry_group_IT_number 35
_symmetry_cell_setting 'orthorhombic'
loop_
_space_group_symop_operation_xyz
x,y,z
-x,-y,z
-x,y,z
x,-y,z
1/2+x,1/2+y,z
1/2-x,1/2-y,z
1/2-x,1/2+y,z
1/2+x,1/2-y,z
loop_
_atom_site_type_symbol
_atom_site_label
_atom_site_fract_x
_atom_site_fract_y
_atom_site_fract_z
Si Si1 0.357880 0.697912 0.113310
Si Si2 0.000000 0.418630 0.279226
Si Si3 0.142012 0.580898 0.630811
Si Si4 0.728747 0.580595 0.986143
Si Si5 0.142423 0.198183 0.335218
Si Si6 0.000000 0.419746 0.065395
Si Si7 0.355915 0.418495 0.773951
Si Si8 0.273232 0.920025 0.416925
O O1 0.500000 0.730397 0.098147
O O2 0.250000 0.750000 0.072202
O O3 0.331356 0.682037 0.224093
O O4 0.355292 0.624798 0.059458
O O5 0.874854 0.394936 0.336903
O O6 0.000000 0.500000 0.275562
O O7 0.000000 0.384923 0.172191
O O8 0.139039 0.500000 0.648576
O O9 0.253820 0.613351 0.698017
O O10 0.171092 0.597381 0.520809
O O11 0.000000 0.610858 0.656519
O O12 0.701558 0.500000 0.005086
O O13 0.690977 0.602615 0.879277
O O14 0.876939 0.600865 0.003149
O O15 0.250000 0.250000 0.375861
O O16 0.149480 0.126832 0.395252
O O17 0.000000 0.229460 0.350363
O O18 0.000000 0.500000 0.085851
O O19 0.500000 0.389190 0.754961
O O20 0.359636 0.500000 0.763497
O O21 0.235986 0.000000 0.408123
#
# Coordination Sequence:
#
# PCOD8172852 Si02
#       8
#     8   4   8   8   8   4   8   8
#     4  10  22  39  57  79 111 150 189 229 278 338
#     4   9  16  28  47  77 113 143 175 217 276 327
#     4   9  17  30  50  78 110 145 184 226 277 335
#     4  10  20  34  55  83 112 146 189 235 284 330
#     4  10  23  39  56  80 111 151 189 228 280 336
#     4   9  18  28  45  79 113 141 175 225 274 321
#     4   9  18  31  49  75 109 145 181 230 288 336
#     4  10  19  33  56  84 112 145 186 232 281 334
#
# _framework density 19.848679000000001
#
# number of rings (size 3 to 8) (size 9 to 14) (size 15 to 20)
#    0.000    2.429    0.714    1.286    3.000    3.429 
#    0.000    2.857    0.000    0.857    0.000    2.000 
#    0.000    0.000    0.000    0.000    0.000    0.000 
#
# Total GULP energy -347098.539718 kJ/mol
# GULP energy per Si atom -12396.376419 kJ/mol
# Density = 1.980350 g / cm^3
# Si number density = 19.848679 Si / 1000 Ang^3
#
#
#
# Elastic Constant Matrix: (Units=GPa)
#
#
# Indices 1 2 3 4 5 6 
#
# 1 163.5176 39.6352 75.5989 0.0000 0.0000 0.0000
# 2 39.6352 54.9916 28.5453 0.0000 0.0000 0.0000
# 3 75.5989 28.5453 88.4566 0.0000 0.0000 0.0000
# 4 0.0000 0.0000 0.0000 14.6742 0.0000 0.0000
# 5 0.0000 0.0000 0.0000 0.0000 27.8108 0.0000
# 6 0.0000 0.0000 0.0000 0.0000 0.0000 22.7315
#
#
#
# Elastic Compliance Matrix: (Units=1/GPa)
#
#
# Indices 1 2 3 4 5 6 
#
# 1 0.010657 -0.003547 -0.007963 0.000000 0.000000 0.000000
# 2 -0.003547 0.023024 -0.004398 0.000000 0.000000 0.000000
# 3 -0.007963 -0.004398 0.019530 0.000000 0.000000 0.000000
# 4 0.000000 0.000000 0.000000 0.068147 0.000000 0.000000
# 5 0.000000 0.000000 0.000000 0.000000 0.035957 0.000000
# 6 0.000000 0.000000 0.000000 0.000000 0.000000 0.043992
#
#
# Mechanical properties :
#
#
# Convention : Reuss Voigt Hill
#
# Bulk Modulus (GPa) = 46.74278 66.05828 56.40053
# Shear Modulus (GPa) = 20.81109 23.92239 22.36674
#
# Velocity S-wave (km/s) = 3.24155 3.47542 3.36052
# Velocity P-wave (km/s) = 6.13277 7.03263 6.59806
#
# Compressibility (1/GPa) = 0.02139368
#
# Stress axis : x y z
#
# Youngs Moduli (GPa) = 93.83467 43.43201 51.20325
#
# Poissons Ratio (x) = 0.15407 0.40774
# Poissons Ratio (y) = 0.33288 0.22520
# Poissons Ratio (z) = 0.74722 0.19103
#
# Static dielectric constant tensor:
#      x y z
#    x 3.940720 0.000000 0.000000 
#    y 0.000000 3.181530 0.000000 
#    z 0.000000 0.000000 3.584600 
# 
# 
# High freq. dielectric constant tensor:
#      x y z
#    x 1.787730 0.000000 0.000000 
#    y 0.000000 1.728930 0.000000 
#    z 0.000000 0.000000 1.764760 
# 
# From -- ./inp_files/15776.got.cif
#   From: 2010.03.12/outbox.cif.g09.slc.cpg/sg35_8_cif.got.tgz:15776.got - 2010.04.14 02:02:04.
