data_PCOD8172856
_publ_section_title
;
Structure prediction by ZEFSAII (Michael W. Deem and Ramdas Pophale) SiO2 
 PCOD8172856
Probable space group: C M M 2
;
_chemical_formula_sum "Si O2"
_cell_formula_units_Z 40
_cell_length_a 8.968097
_cell_length_b 28.625713
_cell_length_c 7.788702
_cell_angle_alpha 90.000000
_cell_angle_beta 90.000000
_cell_angle_gamma 90.000000
_cell_volume 1999.501331
_symmetry_space_group_name_H-M "C M M 2"
_symmetry_group_IT_number 35
_symmetry_cell_setting 'orthorhombic'
loop_
_space_group_symop_operation_xyz
x,y,z
-x,-y,z
-x,y,z
x,-y,z
1/2+x,1/2+y,z
1/2-x,1/2-y,z
1/2-x,1/2+y,z
1/2+x,1/2-y,z
loop_
_atom_site_type_symbol
_atom_site_label
_atom_site_fract_x
_atom_site_fract_y
_atom_site_fract_z
Si Si1 0.827804 0.605647 0.846140
Si Si2 0.672661 0.945336 0.186247
Si Si3 0.326440 0.204423 0.991069
Si Si4 0.174069 0.895418 0.499344
Si Si5 0.675714 0.296551 0.355169
O O1 0.739918 0.587687 0.680329
O O2 0.000000 0.592930 0.819184
O O3 0.765453 0.579341 0.014269
O O4 0.802993 0.661070 0.864904
O O5 0.500000 0.932439 0.211674
O O6 0.759870 0.926902 0.349738
O O7 0.699490 0.000000 0.166843
O O8 0.500000 0.214081 0.026220
O O9 0.250000 0.250000 0.905161
O O10 0.246563 0.193465 0.170220
O O11 0.213074 0.840835 0.473608
O O12 0.000000 0.904328 0.501180
O O13 0.500000 0.288796 0.335134
O O14 0.750000 0.250000 0.437084
#
# Coordination Sequence:
#
# PCOD8172856 Si02
#       5
#     8   8   8   8   8
#     4  10  22  39  61  89 120 157 201 245 292 350
#     4  10  22  43  68  89 114 152 199 249 299 355
#     4  10  19  33  56  85 118 157 198 243 291 345
#     4  11  24  39  60  91 125 158 195 244 300 355
#     4  10  20  34  55  84 118 159 200 241 289 346
#
# _framework density 20.004987
#
# number of rings (size 3 to 8) (size 9 to 14) (size 15 to 20)
#    0.000    1.800    2.000    3.000    0.000    6.800 
#    0.000    6.000    0.000    0.000    0.000    0.000 
#    0.000    0.000    0.000    0.000    0.000    0.000 
#
# Total GULP energy -248047.544534 kJ/mol
# GULP energy per Si atom -12402.377227 kJ/mol
# Density = 1.995945 g / cm^3
# Si number density = 20.004987 Si / 1000 Ang^3
#
#
#
# Elastic Constant Matrix: (Units=GPa)
#
#
# Indices 1 2 3 4 5 6 
#
# 1 91.9060 43.3668 47.9016 0.0000 0.0000 0.0000
# 2 43.3668 82.2514 48.1992 0.0000 0.0000 0.0000
# 3 47.9016 48.1992 133.2881 0.0000 0.0000 0.0000
# 4 0.0000 0.0000 0.0000 11.7780 0.0000 0.0000
# 5 0.0000 0.0000 0.0000 0.0000 26.4354 0.0000
# 6 0.0000 0.0000 0.0000 0.0000 0.0000 29.2080
#
#
#
# Elastic Compliance Matrix: (Units=1/GPa)
#
#
# Indices 1 2 3 4 5 6 
#
# 1 0.015570 -0.006256 -0.003333 0.000000 0.000000 0.000000
# 2 -0.006256 0.017940 -0.004239 0.000000 0.000000 0.000000
# 3 -0.003333 -0.004239 0.010234 0.000000 0.000000 0.000000
# 4 0.000000 0.000000 0.000000 0.084904 0.000000 0.000000
# 5 0.000000 0.000000 0.000000 0.000000 0.037828 0.000000
# 6 0.000000 0.000000 0.000000 0.000000 0.000000 0.034237
#
#
# Mechanical properties :
#
#
# Convention : Reuss Voigt Hill
#
# Bulk Modulus (GPa) = 62.16262 65.15340 63.65801
# Shear Modulus (GPa) = 21.39198 24.68281 23.03739
#
# Velocity S-wave (km/s) = 3.27361 3.51641 3.39718
# Velocity P-wave (km/s) = 6.74016 7.00900 6.87589
#
# Compressibility (1/GPa) = 0.01608684
#
# Stress axis : x y z
#
# Youngs Moduli (GPa) = 64.22632 55.73992 97.71814
#
# Poissons Ratio (x) = 0.34870 0.32573
# Poissons Ratio (y) = 0.40179 0.41426
# Poissons Ratio (z) = 0.21409 0.23630
#
# Static dielectric constant tensor:
#      x y z
#    x 3.670090 0.000000 0.000000 
#    y 0.000000 3.848560 0.000000 
#    z 0.000000 0.000000 3.470080 
# 
# 
# High freq. dielectric constant tensor:
#      x y z
#    x 1.782210 0.000000 0.000000 
#    y 0.000000 1.784290 0.000000 
#    z 0.000000 0.000000 1.774540 
# 
# From -- ./inp_files/4985.got.cif
#   From: 2010.03.12/outbox.cif.g09.slc.cpg/sg35_3_cif.got.tgz:4985.got - 2010.04.14 02:02:04.
