data_PCOD8172531
_publ_section_title
;
Structure prediction by ZEFSAII (Michael W. Deem and Ramdas Pophale) SiO2 
 PCOD8172531
Probable space group: C M M 2
;
_chemical_formula_sum "Si O2"
_cell_formula_units_Z 64
_cell_length_a 17.570195
_cell_length_b 14.625355
_cell_length_c 12.591717
_cell_angle_alpha 90.000000
_cell_angle_beta 90.000000
_cell_angle_gamma 90.000000
_cell_volume 3235.697790
_symmetry_space_group_name_H-M "C M M 2"
_symmetry_group_IT_number 35
_symmetry_cell_setting 'orthorhombic'
loop_
_space_group_symop_operation_xyz
x,y,z
-x,-y,z
-x,y,z
x,-y,z
1/2+x,1/2+y,z
1/2-x,1/2-y,z
1/2-x,1/2+y,z
1/2+x,1/2-y,z
loop_
_atom_site_type_symbol
_atom_site_label
_atom_site_fract_x
_atom_site_fract_y
_atom_site_fract_z
Si Si1 0.409661 0.104287 0.476200
Si Si2 0.912361 0.898497 0.781949
Si Si3 0.339885 0.354725 0.001202
Si Si4 0.829744 0.648926 0.049613
Si Si5 0.909934 0.281630 0.673751
Si Si6 0.087990 0.901280 0.210254
Si Si7 0.583796 0.099045 0.859481
Si Si8 0.590854 0.201321 0.259753
O O1 0.500000 0.101466 0.482121
O O2 0.375610 0.171172 0.567917
O O3 0.384135 0.149982 0.366037
O O4 0.377884 0.000000 0.485514
O O5 0.857808 0.892525 0.884412
O O6 0.889026 0.825803 0.689417
O O7 0.000000 0.880173 0.816760
O O8 0.903221 0.000000 0.732854
O O9 0.257607 0.383596 0.048187
O O10 0.343108 0.246407 0.995099
O O11 0.401204 0.394376 0.083384
O O12 0.864468 0.647112 0.167520
O O13 0.873929 0.582727 0.970573
O O14 0.875086 0.333262 0.776424
O O15 0.000000 0.296500 0.669561
O O16 0.120205 0.807854 0.264768
O O17 0.000000 0.904678 0.236661
O O18 0.123227 0.000000 0.250104
O O19 0.500000 0.137830 0.885157
O O20 0.579146 0.000000 0.803404
O O21 0.500000 0.197064 0.239013
#
# Coordination Sequence:
#
# PCOD8172531 Si02
#       8
#     8   8   8   8   8   8   8   8
#     4   9  17  31  52  76 102 137 178 217 259 305
#     4  10  19  31  51  78 106 139 175 212 262 316
#     4  10  19  31  48  73 104 140 176 211 255 310
#     4  10  20  32  47  73 107 141 175 210 261 309
#     4   9  17  31  50  73 103 132 167 215 257 301
#     4   9  17  30  49  73 101 136 175 211 255 309
#     4  10  19  30  47  72 102 136 169 206 257 312
#     4   9  18  32  51  76 108 140 175 218 260 305
#
# _framework density 19.779350999999998
#
# number of rings (size 3 to 8) (size 9 to 14) (size 15 to 20)
#    0.000    2.500    1.250    1.500    0.000    5.000 
#    0.000    1.875    0.000    3.750   13.000    0.000 
#    0.000    0.000    0.000    0.000    0.000    0.000 
#
# Total GULP energy -396433.967894 kJ/mol
# GULP energy per Si atom -12388.561497 kJ/mol
# Density = 1.973433 g / cm^3
# Si number density = 19.779351 Si / 1000 Ang^3
#
#
#
# Elastic Constant Matrix: (Units=GPa)
#
#
# Indices 1 2 3 4 5 6 
#
# 1 37.1258 15.8911 25.2155 0.0000 0.0000 0.0000
# 2 15.8911 146.1709 71.4889 0.0000 0.0000 0.0000
# 3 25.2155 71.4889 136.6499 0.0000 0.0000 0.0000
# 4 0.0000 0.0000 0.0000 21.5124 0.0000 0.0000
# 5 0.0000 0.0000 0.0000 0.0000 9.9979 0.0000
# 6 0.0000 0.0000 0.0000 0.0000 0.0000 6.7215
#
#
#
# Elastic Compliance Matrix: (Units=1/GPa)
#
#
# Indices 1 2 3 4 5 6 
#
# 1 0.030859 -0.000766 -0.005294 0.000000 0.000000 0.000000
# 2 -0.000766 0.009213 -0.004678 0.000000 0.000000 0.000000
# 3 -0.005294 -0.004678 0.010742 0.000000 0.000000 0.000000
# 4 0.000000 0.000000 0.000000 0.046485 0.000000 0.000000
# 5 0.000000 0.000000 0.000000 0.000000 0.100021 0.000000
# 6 0.000000 0.000000 0.000000 0.000000 0.000000 0.148777
#
#
# Mechanical properties :
#
#
# Convention : Reuss Voigt Hill
#
# Bulk Modulus (GPa) = 34.08547 60.57086 47.32816
# Shear Modulus (GPa) = 13.25027 21.46976 17.36001
#
# Velocity S-wave (km/s) = 2.59106 3.29821 2.96579
# Velocity P-wave (km/s) = 5.12071 6.72265 5.97561
#
# Compressibility (1/GPa) = 0.02933802
#
# Stress axis : x y z
#
# Youngs Moduli (GPa) = 32.40589 108.54679 93.09052
#
# Poissons Ratio (x) = 0.08313 0.49278
# Poissons Ratio (y) = 0.02482 0.43550
# Poissons Ratio (z) = 0.17154 0.50781
#
# Static dielectric constant tensor:
#      x y z
#    x 3.221220 0.000000 0.000000 
#    y 0.000000 4.035560 0.000000 
#    z 0.000000 0.000000 3.411750 
# 
# 
# High freq. dielectric constant tensor:
#      x y z
#    x 1.723910 0.000000 0.000000 
#    y 0.000000 1.792410 0.000000 
#    z 0.000000 0.000000 1.743850 
# 
# From -- ./inp_files/13609.got.cif
#   From: 2010.03.12/outbox.cif.g09.slc.cpg/sg35_7_cif.got.tgz:13609.got - 2010.04.14 02:02:04.
