data_PCOD8172025
_publ_section_title
;
Structure prediction by ZEFSAII (Michael W. Deem and Ramdas Pophale) SiO2 
 PCOD8172025
Probable space group: P N N 2
;
_chemical_formula_sum "Si O2"
_cell_formula_units_Z 16
_cell_length_a 7.702943
_cell_length_b 8.758618
_cell_length_c 12.705397
_cell_angle_alpha 90.000000
_cell_angle_beta 90.000000
_cell_angle_gamma 90.000000
_cell_volume 857.196737
_symmetry_space_group_name_H-M "P N N 2"
_symmetry_group_IT_number 34
_symmetry_cell_setting 'orthorhombic'
loop_
_space_group_symop_operation_xyz
x,y,z
-x,-y,z
1/2-x,1/2+y,1/2+z
1/2+x,1/2-y,1/2+z
loop_
_atom_site_type_symbol
_atom_site_label
_atom_site_fract_x
_atom_site_fract_y
_atom_site_fract_z
Si Si1 0.718268 0.862306 0.256650
Si Si2 0.085752 0.154609 0.460211
Si Si3 0.851006 0.692096 0.674733
Si Si4 0.035429 0.674453 0.276710
O O1 0.748360 0.883506 0.383429
O O2 0.532959 0.783817 0.235248
O O3 0.873983 0.753881 0.213068
O O4 0.724271 0.022682 0.194370
O O5 0.133477 0.273291 0.551273
O O6 0.942016 0.239846 0.388513
O O7 0.000000 0.000000 0.506097
O O8 0.714863 0.815794 0.715236
O O9 0.000000 0.500000 0.298108
#
# Coordination Sequence:
#
# PCOD8172025 Si02
#       4
#     4   4   4   4
#     4   9  22  43  62  93 127 166 219 271 314 398
#     4  10  22  42  64  95 133 170 217 274 322 389
#     4  11  21  41  67  88 129 175 209 266 344 368
#     4  10  22  42  58  94 136 158 220 274 306 399
#
# _framework density 18.665490999999999
#
# number of rings (size 3 to 8) (size 9 to 14) (size 15 to 20)
#    1.500    0.500    2.500    0.750    7.000    0.000 
#    9.000    2.500    0.000    0.000    0.000    0.000 
#    0.000    0.000    0.000    0.000    0.000    0.000 
#
# Total GULP energy -198224.599575 kJ/mol
# GULP energy per Si atom -12389.037473 kJ/mol
# Density = 1.862301 g / cm^3
# Si number density = 18.665491 Si / 1000 Ang^3
#
#
#
# Elastic Constant Matrix: (Units=GPa)
#
#
# Indices 1 2 3 4 5 6 
#
# 1 104.5934 38.3363 40.5138 0.0000 0.0000 0.0000
# 2 38.3363 95.3183 26.4294 0.0000 0.0000 0.0000
# 3 40.5138 26.4294 99.2504 0.0000 0.0000 0.0000
# 4 0.0000 0.0000 0.0000 36.4960 0.0000 0.0000
# 5 0.0000 0.0000 0.0000 0.0000 22.9053 0.0000
# 6 0.0000 0.0000 0.0000 0.0000 0.0000 25.1882
#
#
#
# Elastic Compliance Matrix: (Units=1/GPa)
#
#
# Indices 1 2 3 4 5 6 
#
# 1 0.012585 -0.003927 -0.004091 0.000000 0.000000 0.000000
# 2 -0.003927 0.012553 -0.001740 0.000000 0.000000 0.000000
# 3 -0.004091 -0.001740 0.012209 0.000000 0.000000 0.000000
# 4 0.000000 0.000000 0.000000 0.027400 0.000000 0.000000
# 5 0.000000 0.000000 0.000000 0.000000 0.043658 0.000000
# 6 0.000000 0.000000 0.000000 0.000000 0.000000 0.039701
#
#
# Mechanical properties :
#
#
# Convention : Reuss Voigt Hill
#
# Bulk Modulus (GPa) = 56.08396 56.63569 56.35982
# Shear Modulus (GPa) = 28.80742 29.84340 29.32541
#
# Velocity S-wave (km/s) = 3.93281 4.00291 3.96801
# Velocity P-wave (km/s) = 7.12284 7.19532 7.15917
#
# Compressibility (1/GPa) = 0.01783041
#
# Stress axis : x y z
#
# Youngs Moduli (GPa) = 79.45945 79.66209 81.90755
#
# Poissons Ratio (x) = 0.31285 0.33512
# Poissons Ratio (y) = 0.31205 0.14249
# Poissons Ratio (z) = 0.32510 0.13859
#
# Static dielectric constant tensor:
#      x y z
#    x 3.456020 0.000000 0.000000 
#    y 0.000000 3.338430 0.000000 
#    z 0.000000 0.000000 3.202370 
# 
# 
# High freq. dielectric constant tensor:
#      x y z
#    x 1.719130 0.000000 0.000000 
#    y 0.000000 1.731150 0.000000 
#    z 0.000000 0.000000 1.702600 
# 
# From -- ./inp_files/4657.got.cif
#   From: 2010.03.12/outbox.cif.g09.slc.cpg/sg34_3_cif.got.tgz:4657.got - 2010.04.14 01:56:33.
