data_PCOD8172933
_publ_section_title
;
Structure prediction by ZEFSAII (Michael W. Deem and Ramdas Pophale) SiO2 
 PCOD8172933
Probable space group: C M M 2
;
_chemical_formula_sum "Si O2"
_cell_formula_units_Z 56
_cell_length_a 15.601465
_cell_length_b 20.887242
_cell_length_c 8.631683
_cell_angle_alpha 90.000000
_cell_angle_beta 90.000000
_cell_angle_gamma 90.000000
_cell_volume 2812.820134
_symmetry_space_group_name_H-M "C M M 2"
_symmetry_group_IT_number 35
_symmetry_cell_setting 'orthorhombic'
loop_
_space_group_symop_operation_xyz
x,y,z
-x,-y,z
-x,y,z
x,-y,z
1/2+x,1/2+y,z
1/2-x,1/2-y,z
1/2-x,1/2+y,z
1/2+x,1/2-y,z
loop_
_atom_site_type_symbol
_atom_site_label
_atom_site_fract_x
_atom_site_fract_y
_atom_site_fract_z
Si Si1 0.902744 0.792295 0.250000
Si Si2 0.239655 0.320337 0.770111
Si Si3 0.103105 0.000000 0.493147
Si Si4 0.155560 0.886988 0.012607
Si Si5 0.182687 0.427063 0.193632
Si Si6 0.208514 0.875665 0.452357
Si Si7 0.907396 0.000000 0.824447
Si Si8 0.902089 0.321177 0.023371
O O1 0.902608 0.855193 0.142876
O O2 0.839721 0.809940 0.394486
O O3 0.867896 0.732857 0.145659
O O4 0.000000 0.779155 0.308709
O O5 0.250000 0.250000 0.700480
O O6 0.254605 0.368652 0.626570
O O7 0.314099 0.331890 0.895086
O O8 0.148991 0.325543 0.860598
O O9 0.142491 0.934765 0.422856
O O10 0.146051 0.000000 0.666393
O O11 0.000000 0.000000 0.467513
O O12 0.236459 0.925229 0.079083
O O13 0.098205 0.937223 0.925197
O O14 0.154115 0.500000 0.224162
O O15 0.206988 0.390764 0.352196
O O16 0.105096 0.388954 0.112513
O O17 0.000000 0.000000 0.747756
O O18 0.000000 0.306767 0.979652
#
# Coordination Sequence:
#
# PCOD8172933 Si02
#       8
#     8   8   4   8   8   8   4   8
#     4  10  21  38  58  88 126 157 197 249 303 358
#     4  11  22  39  62  88 119 159 201 249 298 364
#     4  11  22  37  55  89 136 170 193 238 303 363
#     4  10  19  35  57  84 115 162 207 242 291 352
#     4  10  21  37  62  86 116 156 207 251 300 358
#     4  11  23  37  61  92 124 165 202 239 298 370
#     4  11  20  31  51  85 122 162 201 244 289 347
#     4  10  23  43  65  90 119 154 203 262 309 350
#
# _framework density 19.908844999999999
#
# number of rings (size 3 to 8) (size 9 to 14) (size 15 to 20)
#    0.000    1.571    4.286    0.857    2.000    0.286 
#    0.000    4.286    0.000    0.000    0.000    0.000 
#    0.000    0.000    0.000    0.000    0.000    0.000 
#
# Total GULP energy -346955.031762 kJ/mol
# GULP energy per Si atom -12391.251134 kJ/mol
# Density = 1.986353 g / cm^3
# Si number density = 19.908845 Si / 1000 Ang^3
#
#
#
# Elastic Constant Matrix: (Units=GPa)
#
#
# Indices 1 2 3 4 5 6 
#
# 1 66.1167 29.0629 30.8171 0.0000 0.0000 0.0000
# 2 29.0629 88.5015 22.6399 0.0000 0.0000 0.0000
# 3 30.8171 22.6399 98.6574 0.0000 0.0000 0.0000
# 4 0.0000 0.0000 0.0000 24.2511 0.0000 0.0000
# 5 0.0000 0.0000 0.0000 0.0000 23.5273 0.0000
# 6 0.0000 0.0000 0.0000 0.0000 0.0000 52.4009
#
#
#
# Elastic Compliance Matrix: (Units=1/GPa)
#
#
# Indices 1 2 3 4 5 6 
#
# 1 0.019730 -0.005208 -0.004968 0.000000 0.000000 0.000000
# 2 -0.005208 0.013379 -0.001443 0.000000 0.000000 0.000000
# 3 -0.004968 -0.001443 0.012019 0.000000 0.000000 0.000000
# 4 0.000000 0.000000 0.000000 0.041235 0.000000 0.000000
# 5 0.000000 0.000000 0.000000 0.000000 0.042504 0.000000
# 6 0.000000 0.000000 0.000000 0.000000 0.000000 0.019084
#
#
# Mechanical properties :
#
#
# Convention : Reuss Voigt Hill
#
# Bulk Modulus (GPa) = 45.68487 46.47948 46.08218
# Shear Modulus (GPa) = 28.01361 31.41958 29.71659
#
# Velocity S-wave (km/s) = 3.75519 3.97693 3.86765
# Velocity P-wave (km/s) = 6.46520 6.66969 6.56824
#
# Compressibility (1/GPa) = 0.02188908
#
# Stress axis : x y z
#
# Youngs Moduli (GPa) = 50.68532 74.74527 83.20144
#
# Poissons Ratio (x) = 0.38929 0.41332
# Poissons Ratio (y) = 0.26398 0.12008
# Poissons Ratio (z) = 0.25179 0.10788
#
# Static dielectric constant tensor:
#      x y z
#    x 3.296680 0.000000 0.000000 
#    y 0.000000 3.884060 0.000000 
#    z 0.000000 0.000000 3.584590 
# 
# 
# High freq. dielectric constant tensor:
#      x y z
#    x 1.749390 0.000000 0.000000 
#    y 0.000000 1.781930 0.000000 
#    z 0.000000 0.000000 1.776950 
# 
# From -- ./inp_files/7694.got.cif
#   From: 2010.03.12/outbox.cif.g09.slc.cpg/sg35_4_cif.got.tgz:7694.got - 2010.04.14 02:02:04.
