data_PCOD8172573
_publ_section_title
;
Structure prediction by ZEFSAII (Michael W. Deem and Ramdas Pophale) SiO2 
 PCOD8172573
Probable space group: C M M 2
;
_chemical_formula_sum "Si O2"
_cell_formula_units_Z 64
_cell_length_a 9.108398
_cell_length_b 19.428344
_cell_length_c 20.881793
_cell_angle_alpha 90.000000
_cell_angle_beta 90.000000
_cell_angle_gamma 90.000000
_cell_volume 3695.264843
_symmetry_space_group_name_H-M "C M M 2"
_symmetry_group_IT_number 35
_symmetry_cell_setting 'orthorhombic'
loop_
_space_group_symop_operation_xyz
x,y,z
-x,-y,z
-x,y,z
x,-y,z
1/2+x,1/2+y,z
1/2-x,1/2-y,z
1/2-x,1/2+y,z
1/2+x,1/2-y,z
loop_
_atom_site_type_symbol
_atom_site_label
_atom_site_fract_x
_atom_site_fract_y
_atom_site_fract_z
Si Si1 0.675066 0.576492 0.131710
Si Si2 0.336611 0.582001 0.272138
Si Si3 0.335012 0.581905 0.517451
Si Si4 0.828968 0.578712 0.643526
Si Si5 0.664709 0.082177 0.394099
Si Si6 0.671772 0.677170 0.882966
Si Si7 0.829101 0.177745 0.023869
Si Si8 0.325565 0.175958 0.760866
O O1 0.500000 0.573547 0.129405
O O2 0.738869 0.500000 0.119620
O O3 0.723954 0.604333 0.201980
O O4 0.737870 0.626047 0.076514
O O5 0.500000 0.611498 0.283538
O O6 0.342167 0.500000 0.274139
O O7 0.233502 0.611346 0.328241
O O8 0.500000 0.610646 0.517482
O O9 0.332311 0.500000 0.515260
O O10 0.255171 0.607701 0.581563
O O11 0.253742 0.611490 0.454805
O O12 0.783813 0.500000 0.659197
O O13 0.784104 0.626105 0.702814
O O14 0.000000 0.583564 0.627891
O O15 0.500000 0.110180 0.399069
O O16 0.668522 0.000000 0.393924
O O17 0.500000 0.684752 0.866213
O O18 0.750000 0.750000 0.887112
O O19 0.756044 0.639045 0.824526
O O20 0.693581 0.643153 0.953205
O O21 0.750000 0.250000 0.030839
O O22 0.000000 0.191326 0.036129
O O23 0.500000 0.184694 0.768588
O O24 0.250000 0.250000 0.749316
#
# Coordination Sequence:
#
# PCOD8172573 Si02
#       8
#     8   8   8   8   8   8   8   8
#     4   8  14  26  44  64  87 116 148 181 218 261
#     4   8  13  22  37  56  78 106 141 179 215 252
#     4   9  16  25  39  60  85 113 145 181 218 255
#     4   9  18  32  47  64  89 120 149 177 216 264
#     4   9  15  22  34  54  82 114 144 175 213 258
#     4   9  16  27  44  65  88 113 144 182 220 258
#     4   9  17  29  46  67  88 113 146 182 220 261
#     4  10  19  31  49  69  89 115 147 183 219 259
#
# _framework density 17.319462999999999
#
# number of rings (size 3 to 8) (size 9 to 14) (size 15 to 20)
#    0.000    3.125    0.000    3.000    0.000    4.500 
#    0.000    1.250    0.000    1.875    0.000    0.875 
#    0.000    4.000    0.000    0.000    0.000    0.000 
#
# Total GULP energy -396533.019564 kJ/mol
# GULP energy per Si atom -12391.656861 kJ/mol
# Density = 1.728004 g / cm^3
# Si number density = 17.319463 Si / 1000 Ang^3
#
#
#
# Elastic Constant Matrix: (Units=GPa)
#
#
# Indices 1 2 3 4 5 6 
#
# 1 92.4626 24.3678 75.8206 0.0000 0.0000 0.0000
# 2 24.3678 38.4269 50.3605 0.0000 0.0000 0.0000
# 3 75.8206 50.3605 196.6061 0.0000 0.0000 0.0000
# 4 0.0000 0.0000 0.0000 8.1789 0.0000 0.0000
# 5 0.0000 0.0000 0.0000 0.0000 27.9076 0.0000
# 6 0.0000 0.0000 0.0000 0.0000 0.0000 11.4978
#
#
#
# Elastic Compliance Matrix: (Units=1/GPa)
#
#
# Indices 1 2 3 4 5 6 
#
# 1 0.016061 -0.003112 -0.005397 0.000000 0.000000 0.000000
# 2 -0.003112 0.039777 -0.008989 0.000000 0.000000 0.000000
# 3 -0.005397 -0.008989 0.009470 0.000000 0.000000 0.000000
# 4 0.000000 0.000000 0.000000 0.122265 0.000000 0.000000
# 5 0.000000 0.000000 0.000000 0.000000 0.035833 0.000000
# 6 0.000000 0.000000 0.000000 0.000000 0.000000 0.086973
#
#
# Mechanical properties :
#
#
# Convention : Reuss Voigt Hill
#
# Bulk Modulus (GPa) = 32.98922 69.84372 51.41647
# Shear Modulus (GPa) = 14.06558 21.31331 17.68945
#
# Velocity S-wave (km/s) = 2.85287 3.51179 3.19934
# Velocity P-wave (km/s) = 5.47181 7.54042 6.58781
#
# Compressibility (1/GPa) = 0.03031293
#
# Stress axis : x y z
#
# Youngs Moduli (GPa) = 62.26411 25.14008 105.59723
#
# Poissons Ratio (x) = 0.07824 0.56986
# Poissons Ratio (y) = 0.19377 0.94918
# Poissons Ratio (z) = 0.33601 0.22598
#
# Static dielectric constant tensor:
#      x y z
#    x 3.243650 0.000000 0.000000 
#    y 0.000000 2.699760 0.000000 
#    z 0.000000 0.000000 3.857620 
# 
# 
# High freq. dielectric constant tensor:
#      x y z
#    x 1.664840 0.000000 0.000000 
#    y 0.000000 1.598930 0.000000 
#    z 0.000000 0.000000 1.693300 
# 
# From -- ./inp_files/18512.got.cif
#   From: 2010.03.12/outbox.cif.g09.slc.cpg/sg35_10_cif.got.tgz:18512.got - 2010.04.14 02:02:04.
