data_PCOD8172097
_publ_section_title
;
Structure prediction by ZEFSAII (Michael W. Deem and Ramdas Pophale) SiO2 
 PCOD8172097
Probable space group: P N N 2
;
_chemical_formula_sum "Si O2"
_cell_formula_units_Z 24
_cell_length_a 7.332103
_cell_length_b 9.400259
_cell_length_c 17.022118
_cell_angle_alpha 90.000000
_cell_angle_beta 90.000000
_cell_angle_gamma 90.000000
_cell_volume 1173.226796
_symmetry_space_group_name_H-M "P N N 2"
_symmetry_group_IT_number 34
_symmetry_cell_setting 'orthorhombic'
loop_
_space_group_symop_operation_xyz
x,y,z
-x,-y,z
1/2-x,1/2+y,1/2+z
1/2+x,1/2-y,1/2+z
loop_
_atom_site_type_symbol
_atom_site_label
_atom_site_fract_x
_atom_site_fract_y
_atom_site_fract_z
Si Si1 0.663770 0.341129 0.182310
Si Si2 0.514514 0.342493 0.694983
Si Si3 0.014514 0.157507 0.507801
Si Si4 0.203870 0.867569 0.761243
Si Si5 0.663770 0.341129 0.520474
Si Si6 0.796130 0.132431 0.941541
O O1 0.606936 0.352116 0.092360
O O2 0.489424 0.300119 0.235329
O O3 0.745591 0.493299 0.208674
O O4 0.811763 0.219061 0.191214
O O5 0.500000 0.500000 0.731542
O O6 0.636797 0.246569 0.751711
O O7 0.606936 0.352116 0.610424
O O8 0.136797 0.253431 0.451073
O O9 0.811763 0.219061 0.511570
O O10 0.000000 0.000000 0.471242
O O11 0.193647 0.915009 0.851392
O O12 0.745590 0.493299 0.494110
O O13 0.489424 0.300119 0.467456
#
# Coordination Sequence:
#
# PCOD8172097 Si02
#       6
#     4   4   4   4   4   4
#     4  11  21  42  67  92 128 172 218 260 310 387
#     4  12  23  39  66  98 129 168 217 264 322 378
#     4  12  23  39  66  98 129 168 217 264 322 378
#     4  11  25  44  67  96 129 170 218 264 317 381
#     4  11  21  42  67  92 128 172 218 260 310 387
#     4  11  25  44  67  96 129 170 218 264 317 381
#
# _framework density 20.456403999999999
#
# number of rings (size 3 to 8) (size 9 to 14) (size 15 to 20)
#    0.000    0.667    6.667    3.000    0.000    6.000 
#    0.000    1.667    0.000    0.000    0.000    0.000 
#    0.000    0.000    0.000    0.000    0.000    0.000 
#
# Total GULP energy -297713.020749 kJ/mol
# GULP energy per Si atom -12404.709198 kJ/mol
# Density = 2.040984 g / cm^3
# Si number density = 20.456404 Si / 1000 Ang^3
#
#
#
# Elastic Constant Matrix: (Units=GPa)
#
#
# Indices 1 2 3 4 5 6 
#
# 1 87.8044 58.6292 3.7432 0.0000 0.0000 0.0000
# 2 58.6292 114.0520 7.9682 0.0000 0.0000 0.0000
# 3 3.7432 7.9682 83.3912 0.0000 0.0000 0.0000
# 4 0.0000 0.0000 0.0000 108.5094 0.0000 0.0000
# 5 0.0000 0.0000 0.0000 0.0000 23.1525 0.0000
# 6 0.0000 0.0000 0.0000 0.0000 0.0000 36.7315
#
#
#
# Elastic Compliance Matrix: (Units=1/GPa)
#
#
# Indices 1 2 3 4 5 6 
#
# 1 0.017342 -0.008920 0.000074 0.000000 0.000000 0.000000
# 2 -0.008920 0.013415 -0.000881 0.000000 0.000000 0.000000
# 3 0.000074 -0.000881 0.012073 0.000000 0.000000 0.000000
# 4 0.000000 0.000000 0.000000 0.009216 0.000000 0.000000
# 5 0.000000 0.000000 0.000000 0.000000 0.043192 0.000000
# 6 0.000000 0.000000 0.000000 0.000000 0.000000 0.027225
#
#
# Mechanical properties :
#
#
# Convention : Reuss Voigt Hill
#
# Bulk Modulus (GPa) = 42.78177 47.32541 45.05359
# Shear Modulus (GPa) = 33.39845 48.00583 40.70214
#
# Velocity S-wave (km/s) = 4.04501 4.84957 4.46545
# Velocity P-wave (km/s) = 6.54027 7.38531 6.97560
#
# Compressibility (1/GPa) = 0.02337444
#
# Stress axis : x y z
#
# Youngs Moduli (GPa) = 57.66421 74.54452 82.83233
#
# Poissons Ratio (x) = 0.66492 -0.00612
# Poissons Ratio (y) = 0.51435 0.07301
# Poissons Ratio (z) = -0.00426 0.06571
#
# Static dielectric constant tensor:
#      x y z
#    x 4.027500 0.000000 0.000000 
#    y 0.000000 3.832350 0.000000 
#    z 0.000000 0.000000 3.670450 
# 
# 
# High freq. dielectric constant tensor:
#      x y z
#    x 1.812160 0.000000 0.000000 
#    y 0.000000 1.797320 0.000000 
#    z 0.000000 0.000000 1.796640 
# 
# From -- ./inp_files/7474.got.cif
#   From: 2010.03.12/outbox.cif.g09.slc.cpg/sg34_4_cif.got.tgz:7474.got - 2010.04.14 01:56:33.
