data_PCOD8172075
_publ_section_title
;
Structure prediction by ZEFSAII (Michael W. Deem and Ramdas Pophale) SiO2 
 PCOD8172075
Probable space group: P N N 2
;
_chemical_formula_sum "Si O2"
_cell_formula_units_Z 20
_cell_length_a 13.465636
_cell_length_b 6.750032
_cell_length_c 9.653034
_cell_angle_alpha 90.000000
_cell_angle_beta 90.000000
_cell_angle_gamma 90.000000
_cell_volume 877.397794
_symmetry_space_group_name_H-M "P N N 2"
_symmetry_group_IT_number 34
_symmetry_cell_setting 'orthorhombic'
loop_
_space_group_symop_operation_xyz
x,y,z
-x,-y,z
1/2-x,1/2+y,1/2+z
1/2+x,1/2-y,1/2+z
loop_
_atom_site_type_symbol
_atom_site_label
_atom_site_fract_x
_atom_site_fract_y
_atom_site_fract_z
Si Si1 0.602099 0.573840 0.480450
Si Si2 0.433597 0.178762 0.216343
Si Si3 0.433597 0.321238 0.930647
Si Si4 0.102099 0.573840 0.166540
Si Si5 0.753353 0.750000 0.073495
O O1 0.500000 0.500000 0.551654
O O2 0.574213 0.644117 0.326244
O O3 0.646780 0.750000 0.573495
O O4 0.680768 0.395195 0.478880
O O5 0.318903 0.121917 0.176360
O O6 0.500000 0.000000 0.278539
O O7 0.487575 0.250000 0.073495
O O8 0.500000 0.500000 0.868450
O O9 0.425787 0.144117 0.820746
O O10 0.318903 0.378083 0.970630
O O11 0.180768 0.395195 0.168110
O O12 0.000000 0.500000 0.095335
#
# Coordination Sequence:
#
# PCOD8172075 Si02
#       5
#     4   4   4   4   4
#     4  12  24  45  72 102 143 187 239 290 354 420
#     4  10  24  46  71 103 143 184 237 295 352 419
#     4  10  24  46  71 103 143 184 237 295 352 419
#     4  12  24  45  72 102 143 187 239 290 354 420
#     4  10  26  46  72 106 138 192 232 296 346 436
#
# _framework density 22.79468
#
# number of rings (size 3 to 8) (size 9 to 14) (size 15 to 20)
#    1.200    0.000    2.000    3.600    0.000    3.200 
#    0.000    0.000    0.000    0.000    0.000    0.000 
#    0.000    0.000    0.000    0.000    0.000    0.000 
#
# Total GULP energy -247790.906588 kJ/mol
# GULP energy per Si atom -12389.545329 kJ/mol
# Density = 2.274280 g / cm^3
# Si number density = 22.794680 Si / 1000 Ang^3
#
#
#
# Elastic Constant Matrix: (Units=GPa)
#
#
# Indices 1 2 3 4 5 6 
#
# 1 156.1625 77.6837 18.6944 0.0000 0.0000 0.0000
# 2 77.6837 126.2422 59.0874 0.0000 0.0000 0.0000
# 3 18.6944 59.0874 118.3032 0.0000 0.0000 0.0000
# 4 0.0000 0.0000 0.0000 36.6737 0.0000 0.0000
# 5 0.0000 0.0000 0.0000 0.0000 56.2292 0.0000
# 6 0.0000 0.0000 0.0000 0.0000 0.0000 52.0828
#
#
#
# Elastic Compliance Matrix: (Units=1/GPa)
#
#
# Indices 1 2 3 4 5 6 
#
# 1 0.009531 -0.006735 0.001857 0.000000 0.000000 0.000000
# 2 -0.006735 0.015096 -0.006476 0.000000 0.000000 0.000000
# 3 0.001857 -0.006476 0.011394 0.000000 0.000000 0.000000
# 4 0.000000 0.000000 0.000000 0.027267 0.000000 0.000000
# 5 0.000000 0.000000 0.000000 0.000000 0.017784 0.000000
# 6 0.000000 0.000000 0.000000 0.000000 0.000000 0.019200
#
#
# Mechanical properties :
#
#
# Convention : Reuss Voigt Hill
#
# Bulk Modulus (GPa) = 75.09928 79.07098 77.08513
# Shear Modulus (GPa) = 39.24098 45.34664 42.29381
#
# Velocity S-wave (km/s) = 4.15359 4.46505 4.31214
# Velocity P-wave (km/s) = 7.48469 7.83236 7.66050
#
# Compressibility (1/GPa) = 0.01331571
#
# Stress axis : x y z
#
# Youngs Moduli (GPa) = 104.91693 66.24102 87.76762
#
# Poissons Ratio (x) = 0.44610 -0.16302
# Poissons Ratio (y) = 0.70657 0.56837
# Poissons Ratio (z) = -0.19488 0.42896
#
# Static dielectric constant tensor:
#      x y z
#    x 4.104410 0.000000 0.000000 
#    y 0.000000 3.857680 0.000000 
#    z 0.000000 0.000000 3.878660 
# 
# 
# High freq. dielectric constant tensor:
#      x y z
#    x 1.899000 0.000000 0.000000 
#    y 0.000000 1.882030 0.000000 
#    z 0.000000 0.000000 1.897250 
# 
# From -- ./inp_files/5541.got.cif
#   From: 2010.03.12/outbox.cif.g09.slc.cpg/sg34_3_cif.got.tgz:5541.got - 2010.04.14 01:56:33.
