data_PCOD8172375
_publ_section_title
;
Structure prediction by ZEFSAII (Michael W. Deem and Ramdas Pophale) SiO2 
 PCOD8172375
Probable space group: C M M 2
;
_chemical_formula_sum "Si O2"
_cell_formula_units_Z 64
_cell_length_a 8.627919
_cell_length_b 18.846396
_cell_length_c 20.700058
_cell_angle_alpha 90.000000
_cell_angle_beta 90.000000
_cell_angle_gamma 90.000000
_cell_volume 3365.936618
_symmetry_space_group_name_H-M "C M M 2"
_symmetry_group_IT_number 35
_symmetry_cell_setting 'orthorhombic'
loop_
_space_group_symop_operation_xyz
x,y,z
-x,-y,z
-x,y,z
x,-y,z
1/2+x,1/2+y,z
1/2-x,1/2-y,z
1/2-x,1/2+y,z
1/2+x,1/2-y,z
loop_
_atom_site_type_symbol
_atom_site_label
_atom_site_fract_x
_atom_site_fract_y
_atom_site_fract_z
Si Si1 0.318493 0.827466 0.353390
Si Si2 0.816961 0.919712 0.867986
Si Si3 0.321902 0.417087 0.242068
Si Si4 0.683614 0.671161 0.483588
Si Si5 0.681830 0.918495 0.105306
Si Si6 0.816877 0.419743 0.734376
Si Si7 0.315690 0.671515 0.989293
Si Si8 0.316051 0.171695 0.614252
O O1 0.500000 0.820223 0.364855
O O2 0.250000 0.750000 0.339928
O O3 0.284919 0.876579 0.292589
O O4 0.242444 0.864745 0.417095
O O5 0.750595 0.888564 0.801046
O O6 0.000000 0.918932 0.864052
O O7 0.755433 0.000000 0.879572
O O8 0.757742 0.870266 0.925873
O O9 0.500000 0.394225 0.250857
O O10 0.297996 0.500000 0.254012
O O11 0.267138 0.395928 0.170790
O O12 0.500000 0.670492 0.486594
O O13 0.750000 0.750000 0.481844
O O14 0.751692 0.634804 0.548453
O O15 0.500000 0.906640 0.114397
O O16 0.746362 0.867888 0.050544
O O17 0.720166 0.000000 0.087341
O O18 0.757695 0.500000 0.724389
O O19 0.754743 0.373923 0.674516
O O20 0.000000 0.416141 0.738193
O O21 0.500000 0.672869 0.994617
O O22 0.250000 0.750000 0.985562
O O23 0.500000 0.174425 0.610899
O O24 0.250000 0.250000 0.622685
#
# Coordination Sequence:
#
# PCOD8172375 Si02
#       8
#     8   8   8   8   8   8   8   8
#     4  11  21  35  56  81 110 143 182 225 270 320
#     4   9  19  36  57  78 102 137 178 217 261 317
#     4  10  21  38  59  83 112 144 179 221 268 318
#     4  10  18  31  51  75 104 138 178 220 265 317
#     4  10  21  38  60  84 109 141 181 220 263 320
#     4   9  19  35  54  76 103 136 174 216 261 311
#     4  11  23  38  56  81 113 144 178 222 271 317
#     4  10  19  32  51  75 103 135 173 217 264 315
#
# _framework density 19.014023999999999
#
# number of rings (size 3 to 8) (size 9 to 14) (size 15 to 20)
#    0.000    2.000    0.000    5.625    0.000    5.000 
#    0.000    6.875    0.000    2.250    0.000    0.000 
#    0.000    0.000    0.000    0.000    0.000    0.000 
#
# Total GULP energy -396827.754301 kJ/mol
# GULP energy per Si atom -12400.867322 kJ/mol
# Density = 1.897075 g / cm^3
# Si number density = 19.014024 Si / 1000 Ang^3
#
#
#
# Elastic Constant Matrix: (Units=GPa)
#
#
# Indices 1 2 3 4 5 6 
#
# 1 82.5923 26.1561 35.6612 0.0000 0.0000 0.0000
# 2 26.1561 74.0152 69.6138 0.0000 0.0000 0.0000
# 3 35.6612 69.6138 160.1260 0.0000 0.0000 0.0000
# 4 0.0000 0.0000 0.0000 71.2347 0.0000 0.0000
# 5 0.0000 0.0000 0.0000 0.0000 38.1030 0.0000
# 6 0.0000 0.0000 0.0000 0.0000 0.0000 23.3365
#
#
#
# Elastic Compliance Matrix: (Units=1/GPa)
#
#
# Indices 1 2 3 4 5 6 
#
# 1 0.013878 -0.003379 -0.001622 0.000000 0.000000 0.000000
# 2 -0.003379 0.023679 -0.009542 0.000000 0.000000 0.000000
# 3 -0.001622 -0.009542 0.010755 0.000000 0.000000 0.000000
# 4 0.000000 0.000000 0.000000 0.014038 0.000000 0.000000
# 5 0.000000 0.000000 0.000000 0.000000 0.026245 0.000000
# 6 0.000000 0.000000 0.000000 0.000000 0.000000 0.042851
#
#
# Mechanical properties :
#
#
# Convention : Reuss Voigt Hill
#
# Bulk Modulus (GPa) = 52.01146 64.39954 58.20550
# Shear Modulus (GPa) = 29.95085 38.88833 34.41959
#
# Velocity S-wave (km/s) = 3.97318 4.52734 4.25929
# Velocity P-wave (km/s) = 6.96146 7.82765 7.40723
#
# Compressibility (1/GPa) = 0.01922653
#
# Stress axis : x y z
#
# Youngs Moduli (GPa) = 72.05652 42.23090 92.98404
#
# Poissons Ratio (x) = 0.14270 0.15079
# Poissons Ratio (y) = 0.24348 0.88725
# Poissons Ratio (z) = 0.11685 0.40296
#
# Static dielectric constant tensor:
#      x y z
#    x 3.521290 0.000000 0.000000 
#    y 0.000000 3.238490 0.000000 
#    z 0.000000 0.000000 4.003920 
# 
# 
# High freq. dielectric constant tensor:
#      x y z
#    x 1.749650 0.000000 0.000000 
#    y 0.000000 1.714050 0.000000 
#    z 0.000000 0.000000 1.760530 
# 
# From -- ./inp_files/18314.got.cif
#   From: 2010.03.12/outbox.cif.g09.slc.cpg/sg35_10_cif.got.tgz:18314.got - 2010.04.14 02:02:04.
