data_PCOD8172982
_publ_section_title
;
Structure prediction by ZEFSAII (Michael W. Deem and Ramdas Pophale) SiO2 
 PCOD8172982
Probable space group: C M M 2
;
_chemical_formula_sum "Si O2"
_cell_formula_units_Z 56
_cell_length_a 9.500222
_cell_length_b 30.278788
_cell_length_c 12.700079
_cell_angle_alpha 90.000000
_cell_angle_beta 90.000000
_cell_angle_gamma 90.000000
_cell_volume 3653.243865
_symmetry_space_group_name_H-M "C M M 2"
_symmetry_group_IT_number 35
_symmetry_cell_setting 'orthorhombic'
loop_
_space_group_symop_operation_xyz
x,y,z
-x,-y,z
-x,y,z
x,-y,z
1/2+x,1/2+y,z
1/2-x,1/2-y,z
1/2-x,1/2+y,z
1/2+x,1/2-y,z
loop_
_atom_site_type_symbol
_atom_site_label
_atom_site_fract_x
_atom_site_fract_y
_atom_site_fract_z
Si Si1 0.167612 0.114947 0.397580
Si Si2 0.667100 0.388588 0.158989
Si Si3 0.155669 0.211343 0.402850
Si Si4 0.663728 0.052172 0.999747
Si Si5 0.345025 0.289160 0.153052
Si Si6 0.656575 0.552432 0.803201
Si Si7 0.332683 0.549072 0.571667
O O1 0.213299 0.102340 0.279491
O O2 0.223212 0.163643 0.429906
O O3 0.231618 0.080132 0.480567
O O4 0.000000 0.116693 0.401595
O O5 0.500000 0.396044 0.143613
O O6 0.755322 0.423410 0.092671
O O7 0.709803 0.338536 0.125390
O O8 0.250000 0.250000 0.452893
O O9 0.147166 0.215857 0.277779
O O10 0.000000 0.216117 0.451615
O O11 0.500000 0.065182 0.999792
O O12 0.684923 0.000000 0.015559
O O13 0.731559 0.068480 0.889708
O O14 0.500000 0.282888 0.104436
O O15 0.250000 0.250000 0.103855
O O16 0.500000 0.571087 0.830125
O O17 0.648041 0.500000 0.799429
O O18 0.706938 0.568404 0.687180
O O19 0.500000 0.547088 0.561897
O O20 0.269476 0.500000 0.555484
#
# Coordination Sequence:
#
# PCOD8172982 Si02
#       7
#     8   8   8   8   8   8   8
#     4   8  14  24  38  60  88 111 132 162 199 239
#     4   9  17  28  42  62  87 113 141 169 199 243
#     4   8  13  22  36  54  78 106 134 163 193 227
#     4  10  20  31  42  58  82 111 141 173 209 247
#     4   8  14  24  38  57  80 106 136 168 200 236
#     4   8  14  26  44  62  77  97 132 176 212 241
#     4   8  13  22  39  63  85 103 129 167 206 241
#
# _framework density 15.328842
#
# number of rings (size 3 to 8) (size 9 to 14) (size 15 to 20)
#    0.000    3.571    0.000    3.000    0.000    2.000 
#    0.000    3.571    0.000    1.714    0.000    3.000 
#    0.000    2.286    0.000    0.000    0.000    0.000 
#
# Total GULP energy -346932.040439 kJ/mol
# GULP energy per Si atom -12390.430016 kJ/mol
# Density = 1.529395 g / cm^3
# Si number density = 15.328842 Si / 1000 Ang^3
#
#
#
# Elastic Constant Matrix: (Units=GPa)
#
#
# Indices 1 2 3 4 5 6 
#
# 1 61.5082 42.2716 40.3873 0.0000 0.0000 0.0000
# 2 42.2716 87.3560 55.7283 0.0000 0.0000 0.0000
# 3 40.3873 55.7283 90.8845 0.0000 0.0000 0.0000
# 4 0.0000 0.0000 0.0000 1.8655 0.0000 0.0000
# 5 0.0000 0.0000 0.0000 0.0000 8.7898 0.0000
# 6 0.0000 0.0000 0.0000 0.0000 0.0000 22.9289
#
#
#
# Elastic Compliance Matrix: (Units=1/GPa)
#
#
# Indices 1 2 3 4 5 6 
#
# 1 0.026456 -0.008709 -0.006417 0.000000 0.000000 0.000000
# 2 -0.008709 0.021669 -0.009417 0.000000 0.000000 0.000000
# 3 -0.006417 -0.009417 0.019629 0.000000 0.000000 0.000000
# 4 0.000000 0.000000 0.000000 0.536045 0.000000 0.000000
# 5 0.000000 0.000000 0.000000 0.000000 0.113768 0.000000
# 6 0.000000 0.000000 0.000000 0.000000 0.000000 0.043613
#
#
# Mechanical properties :
#
#
# Convention : Reuss Voigt Hill
#
# Bulk Modulus (GPa) = 53.56380 57.39145 55.47763
# Shear Modulus (GPa) = 6.12379 13.47428 9.79903
#
# Velocity S-wave (km/s) = 2.00090 2.96804 2.53109
# Velocity P-wave (km/s) = 6.35273 7.01905 6.69419
#
# Compressibility (1/GPa) = 0.01866932
#
# Stress axis : x y z
#
# Youngs Moduli (GPa) = 37.79799 46.14866 50.94574
#
# Poissons Ratio (x) = 0.40190 0.32690
# Poissons Ratio (y) = 0.32917 0.47976
# Poissons Ratio (z) = 0.24254 0.43458
#
# Static dielectric constant tensor:
#      x y z
#    x 2.881990 0.000000 0.000000 
#    y 0.000000 3.085990 0.000000 
#    z 0.000000 0.000000 2.893540 
# 
# 
# High freq. dielectric constant tensor:
#      x y z
#    x 1.561180 0.000000 0.000000 
#    y 0.000000 1.578780 0.000000 
#    z 0.000000 0.000000 1.558070 
# 
# From -- ./inp_files/16036.got.cif
#   From: 2010.03.12/outbox.cif.g09.slc.cpg/sg35_9_cif.got.tgz:16036.got - 2010.04.14 02:02:04.
