data_PCOD8172239
_publ_section_title
;
Structure prediction by ZEFSAII (Michael W. Deem and Ramdas Pophale) SiO2 
 PCOD8172239
Probable space group: C M M 2
;
_chemical_formula_sum "Si O2"
_cell_formula_units_Z 56
_cell_length_a 22.050187
_cell_length_b 16.607099
_cell_length_c 8.316964
_cell_angle_alpha 90.000000
_cell_angle_beta 90.000000
_cell_angle_gamma 90.000000
_cell_volume 3045.586040
_symmetry_space_group_name_H-M "C M M 2"
_symmetry_group_IT_number 35
_symmetry_cell_setting 'orthorhombic'
loop_
_space_group_symop_operation_xyz
x,y,z
-x,-y,z
-x,y,z
x,-y,z
1/2+x,1/2+y,z
1/2-x,1/2-y,z
1/2-x,1/2+y,z
1/2+x,1/2-y,z
loop_
_atom_site_type_symbol
_atom_site_label
_atom_site_fract_x
_atom_site_fract_y
_atom_site_fract_z
Si Si1 0.568190 0.710107 0.574290
Si Si2 0.662767 0.407445 0.418330
Si Si3 0.069120 0.592127 0.042444
Si Si4 0.724774 0.164452 0.556854
Si Si5 0.646806 0.218264 0.844579
Si Si6 0.113082 0.333778 0.346215
Si Si7 0.686413 0.711659 0.155872
O O1 0.500000 0.679948 0.604121
O O2 0.604706 0.640077 0.484132
O O3 0.599535 0.729697 0.743021
O O4 0.566743 0.793280 0.472328
O O5 0.644811 0.500000 0.404195
O O6 0.718895 0.396990 0.544187
O O7 0.682208 0.376442 0.239291
O O8 0.079486 0.500000 0.991638
O O9 0.082063 0.598678 0.234929
O O10 0.000000 0.618725 0.008479
O O11 0.114067 0.645726 0.937048
O O12 0.750000 0.250000 0.490900
O O13 0.699551 0.176950 0.737089
O O14 0.670936 0.131583 0.442921
O O15 0.677234 0.284564 0.963253
O O16 0.131872 0.263099 0.226809
O O17 0.750000 0.750000 0.203294
#
# Coordination Sequence:
#
# PCOD8172239 Si02
#       7
#     8   8   8   8   8   8   8
#     4  10  20  37  59  82 107 147 202 236 272 334
#     4  11  22  36  57  85 116 147 184 237 289 332
#     4  10  21  36  51  80 121 152 186 231 278 327
#     4  11  17  37  58  83 110 139 182 233 285 332
#     4  10  21  33  63  80 110 149 189 231 280 338
#     4   9  17  32  58  80 105 141 188 227 269 331
#     4  10  17  34  56  82 109 142 180 223 275 340
#
# _framework density 18.387266
#
# number of rings (size 3 to 8) (size 9 to 14) (size 15 to 20)
#    0.000    1.857    5.714    1.286    0.000    1.429 
#    0.000    3.571    0.000    7.714    0.000    0.000 
#    0.000    0.000    0.000    0.000    0.000    0.000 
#
# Total GULP energy -346997.587865 kJ/mol
# GULP energy per Si atom -12392.770995 kJ/mol
# Density = 1.834542 g / cm^3
# Si number density = 18.387266 Si / 1000 Ang^3
#
#
#
# Elastic Constant Matrix: (Units=GPa)
#
#
# Indices 1 2 3 4 5 6 
#
# 1 98.8623 35.0879 43.6369 0.0000 0.0000 0.0000
# 2 35.0879 81.7432 36.3927 0.0000 0.0000 0.0000
# 3 43.6369 36.3927 118.4242 0.0000 0.0000 0.0000
# 4 0.0000 0.0000 0.0000 16.4736 0.0000 0.0000
# 5 0.0000 0.0000 0.0000 0.0000 19.4005 0.0000
# 6 0.0000 0.0000 0.0000 0.0000 0.0000 20.1557
#
#
#
# Elastic Compliance Matrix: (Units=1/GPa)
#
#
# Indices 1 2 3 4 5 6 
#
# 1 0.013137 -0.004036 -0.003600 0.000000 0.000000 0.000000
# 2 -0.004036 0.015412 -0.003249 0.000000 0.000000 0.000000
# 3 -0.003600 -0.003249 0.010769 0.000000 0.000000 0.000000
# 4 0.000000 0.000000 0.000000 0.060703 0.000000 0.000000
# 5 0.000000 0.000000 0.000000 0.000000 0.051545 0.000000
# 6 0.000000 0.000000 0.000000 0.000000 0.000000 0.049614
#
#
# Mechanical properties :
#
#
# Convention : Reuss Voigt Hill
#
# Bulk Modulus (GPa) = 56.98815 58.80721 57.89768
# Shear Modulus (GPa) = 21.85309 23.46677 22.65993
#
# Velocity S-wave (km/s) = 3.45119 3.57634 3.51432
# Velocity P-wave (km/s) = 6.85139 7.00754 6.92990
#
# Compressibility (1/GPa) = 0.01754751
#
# Stress axis : x y z
#
# Youngs Moduli (GPa) = 76.12293 64.88276 92.85603
#
# Poissons Ratio (x) = 0.26186 0.33431
# Poissons Ratio (y) = 0.30723 0.30171
# Poissons Ratio (z) = 0.27407 0.21082
#
# Static dielectric constant tensor:
#      x y z
#    x 3.461520 0.000000 0.000000 
#    y 0.000000 3.051740 0.000000 
#    z 0.000000 0.000000 3.626200 
# 
# 
# High freq. dielectric constant tensor:
#      x y z
#    x 1.719490 0.000000 0.000000 
#    y 0.000000 1.671440 0.000000 
#    z 0.000000 0.000000 1.721160 
# 
# From -- ./inp_files/9398.got.cif
#   From: 2010.03.12/outbox.cif.g09.slc.cpg/sg35_5_cif.got.tgz:9398.got - 2010.04.14 02:02:04.
