data_PCOD8172004
_publ_section_title
;
Structure prediction by ZEFSAII (Michael W. Deem and Ramdas Pophale) SiO2 
 PCOD8172004
Probable space group: P N N 2
;
_chemical_formula_sum "Si O2"
_cell_formula_units_Z 24
_cell_length_a 7.831523
_cell_length_b 11.630489
_cell_length_c 10.711052
_cell_angle_alpha 90.000000
_cell_angle_beta 90.000000
_cell_angle_gamma 90.000000
_cell_volume 975.610196
_symmetry_space_group_name_H-M "P N N 2"
_symmetry_group_IT_number 34
_symmetry_cell_setting 'orthorhombic'
loop_
_space_group_symop_operation_xyz
x,y,z
-x,-y,z
1/2-x,1/2+y,1/2+z
1/2+x,1/2-y,1/2+z
loop_
_atom_site_type_symbol
_atom_site_label
_atom_site_fract_x
_atom_site_fract_y
_atom_site_fract_z
Si Si1 0.669540 0.231085 0.543750
Si Si2 0.685927 0.954072 0.147924
Si Si3 0.802695 0.508168 0.929100
Si Si4 0.688537 0.665150 0.528843
Si Si5 0.642308 0.375174 0.149154
Si Si6 0.266669 0.405411 0.257849
O O1 0.801271 0.330641 0.582144
O O2 0.742415 0.145973 0.434620
O O3 0.495999 0.286576 0.495966
O O4 0.628130 0.151343 0.665104
O O5 0.500000 0.000000 0.113620
O O6 0.718129 0.948158 0.295488
O O7 0.826974 0.041430 0.093853
O O8 0.000000 0.500000 0.973636
O O9 0.671265 0.441004 0.017757
O O10 0.789631 0.746489 0.626466
O O11 0.773963 0.645313 0.393526
O O12 0.447550 0.367629 0.194113
O O13 0.741670 0.453949 0.254184
#
# Coordination Sequence:
#
# PCOD8172004 Si02
#       6
#     4   4   4   4   4   4
#     4  11  24  44  71 101 138 184 236 288 359 421
#     4  11  26  45  68 106 144 182 235 293 363 428
#     4  10  21  45  75  99 139 184 234 298 352 428
#     4  12  25  44  72 102 144 182 232 298 358 415
#     4  10  22  44  74  97 133 189 229 284 363 414
#     4  10  25  45  69  99 144 179 236 291 348 429
#
# _framework density 24.599990999999999
#
# number of rings (size 3 to 8) (size 9 to 14) (size 15 to 20)
#    0.000    1.333    1.667    2.500    9.333    0.000 
#   27.000    0.000    0.000    0.000    0.000    0.000 
#    0.000    0.000    0.000    0.000    0.000    0.000 
#
# Total GULP energy -297366.729939 kJ/mol
# GULP energy per Si atom -12390.280414 kJ/mol
# Density = 2.454400 g / cm^3
# Si number density = 24.599991 Si / 1000 Ang^3
#
#
#
# Elastic Constant Matrix: (Units=GPa)
#
#
# Indices 1 2 3 4 5 6 
#
# 1 23.1068 12.0875 22.0682 0.0000 0.0000 0.0000
# 2 12.0875 150.7740 27.8968 0.0000 0.0000 0.0000
# 3 22.0682 27.8968 84.7287 0.0000 0.0000 0.0000
# 4 0.0000 0.0000 0.0000 23.5295 0.0000 0.0000
# 5 0.0000 0.0000 0.0000 0.0000 27.8575 0.0000
# 6 0.0000 0.0000 0.0000 0.0000 0.0000 41.3519
#
#
#
# Elastic Compliance Matrix: (Units=1/GPa)
#
#
# Indices 1 2 3 4 5 6 
#
# 1 0.058157 -0.001980 -0.014495 0.000000 0.000000 0.000000
# 2 -0.001980 0.007130 -0.001832 0.000000 0.000000 0.000000
# 3 -0.014495 -0.001832 0.016181 0.000000 0.000000 0.000000
# 4 0.000000 0.000000 0.000000 0.042500 0.000000 0.000000
# 5 0.000000 0.000000 0.000000 0.000000 0.035897 0.000000
# 6 0.000000 0.000000 0.000000 0.000000 0.000000 0.024183
#
#
# Mechanical properties :
#
#
# Convention : Reuss Voigt Hill
#
# Bulk Modulus (GPa) = 22.29509 42.52383 32.40946
# Shear Modulus (GPa) = 21.22117 31.65159 26.43638
#
# Velocity S-wave (km/s) = 2.94028 3.59088 3.28174
# Velocity P-wave (km/s) = 4.53979 5.87505 5.25004
#
# Compressibility (1/GPa) = 0.04485293
#
# Stress axis : x y z
#
# Youngs Moduli (GPa) = 17.19481 140.24979 61.80117
#
# Poissons Ratio (x) = 0.27776 0.89583
# Poissons Ratio (y) = 0.03405 0.11321
# Poissons Ratio (z) = 0.24925 0.25690
#
# Static dielectric constant tensor:
#      x y z
#    x 4.144020 0.000000 0.000000 
#    y 0.000000 5.008400 0.000000 
#    z 0.000000 0.000000 4.232040 
# 
# 
# High freq. dielectric constant tensor:
#      x y z
#    x 1.951820 0.000000 0.000000 
#    y 0.000000 2.003160 0.000000 
#    z 0.000000 0.000000 1.966980 
# 
# From -- ./inp_files/4946.got.cif
#   From: 2010.03.12/outbox.cif.g09.slc.cpg/sg34_3_cif.got.tgz:4946.got - 2010.04.14 01:56:33.
