data_PCOD8172354
_publ_section_title
;
Structure prediction by ZEFSAII (Michael W. Deem and Ramdas Pophale) SiO2 
 PCOD8172354
Probable space group: C M M 2
;
_chemical_formula_sum "Si O2"
_cell_formula_units_Z 64
_cell_length_a 29.288979
_cell_length_b 8.668493
_cell_length_c 12.466569
_cell_angle_alpha 90.000000
_cell_angle_beta 90.000000
_cell_angle_gamma 90.000000
_cell_volume 3165.153528
_symmetry_space_group_name_H-M "C M M 2"
_symmetry_group_IT_number 35
_symmetry_cell_setting 'orthorhombic'
loop_
_space_group_symop_operation_xyz
x,y,z
-x,-y,z
-x,y,z
x,-y,z
1/2+x,1/2+y,z
1/2-x,1/2-y,z
1/2-x,1/2+y,z
1/2+x,1/2-y,z
loop_
_atom_site_type_symbol
_atom_site_label
_atom_site_fract_x
_atom_site_fract_y
_atom_site_fract_z
Si Si1 0.049803 0.678719 0.144540
Si Si2 0.295127 0.180121 0.496913
Si Si3 0.166553 0.321563 0.282160
Si Si4 0.076677 0.180453 0.355701
Si Si5 0.948991 0.178594 0.594859
Si Si6 0.360858 0.819107 0.677146
Si Si7 0.699096 0.317840 0.865236
Si Si8 0.358525 0.319472 0.068534
O O1 0.059787 0.500000 0.170564
O O2 0.044989 0.775759 0.254761
O O3 0.091535 0.738818 0.070240
O O4 0.000000 0.696830 0.086711
O O5 0.250000 0.250000 0.550348
O O6 0.296484 0.228784 0.371447
O O7 0.338961 0.235761 0.564125
O O8 0.291647 0.000000 0.508572
O O9 0.171075 0.500000 0.249374
O O10 0.119569 0.292759 0.344073
O O11 0.170151 0.217878 0.176197
O O12 0.053037 0.219578 0.468529
O O13 0.090209 0.000000 0.348217
O O14 0.913995 0.273043 0.669635
O O15 0.000000 0.219295 0.634608
O O16 0.937750 0.000000 0.612043
O O17 0.333194 0.731408 0.768358
O O18 0.356633 0.000000 0.699219
O O19 0.704450 0.500000 0.866233
O O20 0.750000 0.250000 0.857876
O O21 0.672732 0.258600 0.971535
O O22 0.367359 0.500000 0.059573
#
# Coordination Sequence:
#
# PCOD8172354 Si02
#       8
#     8   8   8   8   8   8   8   8
#     4  10  20  33  53  84 121 160 200 242 290 345
#     4  10  22  36  54  83 117 152 190 234 288 351
#     4  10  19  34  54  81 120 157 192 238 291 347
#     4  10  18  30  52  81 116 160 202 240 284 341
#     4  10  21  36  56  85 121 161 202 244 294 352
#     4  11  23  41  63  88 119 154 198 248 299 354
#     4  11  25  45  68  92 116 149 197 250 303 358
#     4  10  22  39  60  87 117 151 196 244 294 351
#
# _framework density 20.220189000000001
#
# number of rings (size 3 to 8) (size 9 to 14) (size 15 to 20)
#    0.000    1.750    1.250    4.500    0.000    7.750 
#    0.000    3.125    0.000    0.750    0.000    0.000 
#    0.000    0.000    0.000    0.000    0.000    0.000 
#
# Total GULP energy -396608.118113 kJ/mol
# GULP energy per Si atom -12394.003691 kJ/mol
# Density = 2.017417 g / cm^3
# Si number density = 20.220189 Si / 1000 Ang^3
#
#
#
# Elastic Constant Matrix: (Units=GPa)
#
#
# Indices 1 2 3 4 5 6 
#
# 1 129.8353 28.8754 59.3240 0.0000 0.0000 0.0000
# 2 28.8754 43.5975 35.3844 0.0000 0.0000 0.0000
# 3 59.3240 35.3844 100.3101 0.0000 0.0000 0.0000
# 4 0.0000 0.0000 0.0000 26.2351 0.0000 0.0000
# 5 0.0000 0.0000 0.0000 0.0000 24.0139 0.0000
# 6 0.0000 0.0000 0.0000 0.0000 0.0000 31.2231
#
#
#
# Elastic Compliance Matrix: (Units=1/GPa)
#
#
# Indices 1 2 3 4 5 6 
#
# 1 0.010785 -0.002755 -0.005407 0.000000 0.000000 0.000000
# 2 -0.002755 0.032842 -0.009956 0.000000 0.000000 0.000000
# 3 -0.005407 -0.009956 0.016678 0.000000 0.000000 0.000000
# 4 0.000000 0.000000 0.000000 0.038117 0.000000 0.000000
# 5 0.000000 0.000000 0.000000 0.000000 0.041643 0.000000
# 6 0.000000 0.000000 0.000000 0.000000 0.000000 0.032028
#
#
# Mechanical properties :
#
#
# Convention : Reuss Voigt Hill
#
# Bulk Modulus (GPa) = 41.54384 57.87894 49.71139
# Shear Modulus (GPa) = 23.11060 26.30502 24.70781
#
# Velocity S-wave (km/s) = 3.38442 3.61075 3.49941
# Velocity P-wave (km/s) = 5.98855 6.78748 6.40049
#
# Compressibility (1/GPa) = 0.02407096
#
# Stress axis : x y z
#
# Youngs Moduli (GPa) = 92.72012 30.44875 59.95785
#
# Poissons Ratio (x) = 0.08389 0.32416
# Poissons Ratio (y) = 0.25546 0.59692
# Poissons Ratio (z) = 0.50129 0.30314
#
# Static dielectric constant tensor:
#      x y z
#    x 3.718230 0.000000 0.000000 
#    y 0.000000 3.628230 0.000000 
#    z 0.000000 0.000000 3.748430 
# 
# 
# High freq. dielectric constant tensor:
#      x y z
#    x 1.796860 0.000000 0.000000 
#    y 0.000000 1.792110 0.000000 
#    z 0.000000 0.000000 1.771390 
# 
# From -- ./inp_files/14581.got.cif
#   From: 2010.03.12/outbox.cif.g09.slc.cpg/sg35_8_cif.got.tgz:14581.got - 2010.04.14 02:02:04.
