data_PCOD8172831
_publ_section_title
;
Structure prediction by ZEFSAII (Michael W. Deem and Ramdas Pophale) SiO2 
 PCOD8172831
Probable space group: C M M 2
;
_chemical_formula_sum "Si O2"
_cell_formula_units_Z 48
_cell_length_a 15.504185
_cell_length_b 8.864460
_cell_length_c 17.104599
_cell_angle_alpha 90.000000
_cell_angle_beta 90.000000
_cell_angle_gamma 90.000000
_cell_volume 2350.791564
_symmetry_space_group_name_H-M "C M M 2"
_symmetry_group_IT_number 35
_symmetry_cell_setting 'orthorhombic'
loop_
_space_group_symop_operation_xyz
x,y,z
-x,-y,z
-x,y,z
x,-y,z
1/2+x,1/2+y,z
1/2-x,1/2-y,z
1/2-x,1/2+y,z
1/2+x,1/2-y,z
loop_
_atom_site_type_symbol
_atom_site_label
_atom_site_fract_x
_atom_site_fract_y
_atom_site_fract_z
Si Si1 0.097253 0.330095 0.527720
Si Si2 0.664650 0.323420 0.379178
Si Si3 0.500000 0.821595 0.110642
Si Si4 0.159733 0.826294 0.846097
Si Si5 0.000000 0.823541 0.276146
Si Si6 0.656068 0.322486 0.677777
Si Si7 0.154647 0.820692 0.016458
O O1 0.132990 0.500000 0.534920
O O2 0.155334 0.240071 0.466642
O O3 0.096875 0.251292 0.612133
O O4 0.000000 0.329172 0.496346
O O5 0.677331 0.500000 0.385205
O O6 0.750000 0.250000 0.340858
O O7 0.583728 0.280422 0.326056
O O8 0.500000 0.782903 0.201522
O O9 0.412846 0.751519 0.075630
O O10 0.500000 0.000000 0.097457
O O11 0.250000 0.750000 0.840461
O O12 0.111313 0.789709 0.763771
O O13 0.181035 0.000000 0.850021
O O14 0.116117 0.781789 0.929061
O O15 0.000000 0.000000 0.252629
O O16 0.663308 0.500000 0.662609
O O17 0.750000 0.250000 0.672394
O O18 0.250000 0.750000 0.028490
O O19 0.160097 0.000000 0.031260
#
# Coordination Sequence:
#
# PCOD8172831 Si02
#       7
#     8   8   4   8   4   8   8
#     4  11  23  38  56  81 118 160 203 251 301 351
#     4  11  23  42  68  95 122 157 200 244 300 361
#     4  12  26  42  64  95 128 165 204 247 306 371
#     4   8  16  31  54  82 112 153 199 249 302 352
#     4  10  24  46  68  91 124 159 196 249 304 363
#     4  10  19  33  54  81 114 153 201 250 299 354
#     4  10  20  39  65  92 126 164 208 258 310 368
#
# _framework density 20.418654
#
# number of rings (size 3 to 8) (size 9 to 14) (size 15 to 20)
#    0.000    1.833    0.833    3.250    0.000    4.333 
#    1.500    1.667    0.000    0.000    0.000    0.000 
#    0.000    0.000    0.000    0.000    0.000    0.000 
#
# Total GULP energy -297416.194345 kJ/mol
# GULP energy per Si atom -12392.341431 kJ/mol
# Density = 2.037218 g / cm^3
# Si number density = 20.418654 Si / 1000 Ang^3
#
#
#
# Elastic Constant Matrix: (Units=GPa)
#
#
# Indices 1 2 3 4 5 6 
#
# 1 111.7099 53.5827 54.8539 0.0000 0.0000 0.0000
# 2 53.5827 118.0339 67.4979 0.0000 0.0000 0.0000
# 3 54.8539 67.4979 136.3810 0.0000 0.0000 0.0000
# 4 0.0000 0.0000 0.0000 30.9558 0.0000 0.0000
# 5 0.0000 0.0000 0.0000 0.0000 18.7915 0.0000
# 6 0.0000 0.0000 0.0000 0.0000 0.0000 29.0760
#
#
#
# Elastic Compliance Matrix: (Units=1/GPa)
#
#
# Indices 1 2 3 4 5 6 
#
# 1 0.012287 -0.003838 -0.003042 0.000000 0.000000 0.000000
# 2 -0.003838 0.013015 -0.004898 0.000000 0.000000 0.000000
# 3 -0.003042 -0.004898 0.010980 0.000000 0.000000 0.000000
# 4 0.000000 0.000000 0.000000 0.032304 0.000000 0.000000
# 5 0.000000 0.000000 0.000000 0.000000 0.053216 0.000000
# 6 0.000000 0.000000 0.000000 0.000000 0.000000 0.034393
#
#
# Mechanical properties :
#
#
# Convention : Reuss Voigt Hill
#
# Bulk Modulus (GPa) = 78.58085 79.77708 79.17896
# Shear Modulus (GPa) = 27.17507 28.44402 27.80954
#
# Velocity S-wave (km/s) = 3.65210 3.73640 3.69449
# Velocity P-wave (km/s) = 7.50681 7.60064 7.55387
#
# Compressibility (1/GPa) = 0.01272575
#
# Stress axis : x y z
#
# Youngs Moduli (GPa) = 81.39002 76.83307 91.07351
#
# Poissons Ratio (x) = 0.29487 0.27708
# Poissons Ratio (y) = 0.31236 0.44607
# Poissons Ratio (z) = 0.24762 0.37632
#
# Static dielectric constant tensor:
#      x y z
#    x 3.512180 0.000000 0.000000 
#    y 0.000000 3.743170 0.000000 
#    z 0.000000 0.000000 4.116450 
# 
# 
# High freq. dielectric constant tensor:
#      x y z
#    x 1.783160 0.000000 0.000000 
#    y 0.000000 1.807200 0.000000 
#    z 0.000000 0.000000 1.809210 
# 
# From -- ./inp_files/17916.got.cif
#   From: 2010.03.12/outbox.cif.g09.slc.cpg/sg35_9_cif.got.tgz:17916.got - 2010.04.14 02:02:04.
