data_PCOD8172942
_publ_section_title
;
Structure prediction by ZEFSAII (Michael W. Deem and Ramdas Pophale) SiO2 
 PCOD8172942
Probable space group: C M M 2
;
_chemical_formula_sum "Si O2"
_cell_formula_units_Z 48
_cell_length_a 27.952541
_cell_length_b 9.113778
_cell_length_c 10.113323
_cell_angle_alpha 90.000000
_cell_angle_beta 90.000000
_cell_angle_gamma 90.000000
_cell_volume 2576.401935
_symmetry_space_group_name_H-M "C M M 2"
_symmetry_group_IT_number 35
_symmetry_cell_setting 'orthorhombic'
loop_
_space_group_symop_operation_xyz
x,y,z
-x,-y,z
-x,y,z
x,-y,z
1/2+x,1/2+y,z
1/2-x,1/2-y,z
1/2-x,1/2+y,z
1/2+x,1/2-y,z
loop_
_atom_site_type_symbol
_atom_site_label
_atom_site_fract_x
_atom_site_fract_y
_atom_site_fract_z
Si Si1 0.298346 0.172489 0.210340
Si Si2 0.891150 0.172347 0.278314
Si Si3 0.944065 0.666607 0.051021
Si Si4 0.054087 0.827458 0.542472
Si Si5 0.297390 0.829419 0.904004
Si Si6 0.896211 0.329032 0.780560
O O1 0.250000 0.250000 0.259211
O O2 0.341455 0.241105 0.294670
O O3 0.294733 0.000000 0.237529
O O4 0.307753 0.209191 0.056603
O O5 0.917642 0.220428 0.145423
O O6 0.924777 0.215320 0.400467
O O7 0.880580 0.000000 0.271564
O O8 0.926282 0.500000 0.080930
O O9 0.000000 0.682169 0.073681
O O10 0.932015 0.707424 0.900427
O O11 0.087379 0.758235 0.653201
O O12 0.000000 0.765382 0.551102
O O13 0.054241 0.000000 0.563680
O O14 0.250000 0.750000 0.850768
O O15 0.342735 0.777188 0.818692
O O16 0.288119 0.000000 0.887127
O O17 0.897107 0.500000 0.746424
#
# Coordination Sequence:
#
# PCOD8172942 Si02
#       6
#     8   8   8   8   8   8
#     4  10  19  35  58  86 118 148 185 233 284 339
#     4  11  22  37  57  82 114 152 192 234 283 338
#     4  10  20  35  56  82 112 144 185 239 291 341
#     4  10  23  41  57  78 113 153 192 236 283 335
#     4   9  18  33  55  83 115 144 178 225 278 331
#     4  10  20  37  58  83 112 146 187 233 284 339
#
# _framework density 18.630633
#
# number of rings (size 3 to 8) (size 9 to 14) (size 15 to 20)
#    0.000    2.000    1.667    2.000    0.000    5.333 
#    0.000    0.833    0.000    2.000    0.000    0.000 
#    0.000    0.000    0.000    0.000    0.000    0.000 
#
# Total GULP energy -297688.600386 kJ/mol
# GULP energy per Si atom -12403.691683 kJ/mol
# Density = 1.858823 g / cm^3
# Si number density = 18.630633 Si / 1000 Ang^3
#
#
#
# Elastic Constant Matrix: (Units=GPa)
#
#
# Indices 1 2 3 4 5 6 
#
# 1 127.5166 49.6303 31.7289 0.0000 0.0000 0.0000
# 2 49.6303 61.8678 34.1836 0.0000 0.0000 0.0000
# 3 31.7289 34.1836 56.3526 0.0000 0.0000 0.0000
# 4 0.0000 0.0000 0.0000 26.5283 0.0000 0.0000
# 5 0.0000 0.0000 0.0000 0.0000 28.9201 0.0000
# 6 0.0000 0.0000 0.0000 0.0000 0.0000 36.3563
#
#
#
# Elastic Compliance Matrix: (Units=1/GPa)
#
#
# Indices 1 2 3 4 5 6 
#
# 1 0.011467 -0.008470 -0.001318 0.000000 0.000000 0.000000
# 2 -0.008470 0.030569 -0.013774 0.000000 0.000000 0.000000
# 3 -0.001318 -0.013774 0.026843 0.000000 0.000000 0.000000
# 4 0.000000 0.000000 0.000000 0.037696 0.000000 0.000000
# 5 0.000000 0.000000 0.000000 0.000000 0.034578 0.000000
# 6 0.000000 0.000000 0.000000 0.000000 0.000000 0.027506
#
#
# Mechanical properties :
#
#
# Convention : Reuss Voigt Hill
#
# Bulk Modulus (GPa) = 45.96935 52.98028 49.47482
# Shear Modulus (GPa) = 22.41810 27.04055 24.72932
#
# Velocity S-wave (km/s) = 3.47261 3.81386 3.64723
# Velocity P-wave (km/s) = 6.38799 6.92047 6.65955
#
# Compressibility (1/GPa) = 0.02175362
#
# Stress axis : x y z
#
# Youngs Moduli (GPa) = 87.20809 32.71297 37.25375
#
# Poissons Ratio (x) = 0.27709 0.04911
# Poissons Ratio (y) = 0.73868 0.51313
# Poissons Ratio (z) = 0.11496 0.45059
#
# Static dielectric constant tensor:
#      x y z
#    x 3.708300 0.000000 0.000000 
#    y 0.000000 3.365710 0.000000 
#    z 0.000000 0.000000 3.211820 
# 
# 
# High freq. dielectric constant tensor:
#      x y z
#    x 1.742070 0.000000 0.000000 
#    y 0.000000 1.720850 0.000000 
#    z 0.000000 0.000000 1.703530 
# 
# From -- ./inp_files/5301.got.cif
#   From: 2010.03.12/outbox.cif.g09.slc.cpg/sg35_3_cif.got.tgz:5301.got - 2010.04.14 02:02:04.
