data_PCOD8172266
_publ_section_title
;
Structure prediction by ZEFSAII (Michael W. Deem and Ramdas Pophale) SiO2 
 PCOD8172266
Probable space group: C M M 2
;
_chemical_formula_sum "Si O2"
_cell_formula_units_Z 56
_cell_length_a 20.717874
_cell_length_b 9.272136
_cell_length_c 14.650143
_cell_angle_alpha 90.000000
_cell_angle_beta 90.000000
_cell_angle_gamma 90.000000
_cell_volume 2814.277020
_symmetry_space_group_name_H-M "C M M 2"
_symmetry_group_IT_number 35
_symmetry_cell_setting 'orthorhombic'
loop_
_space_group_symop_operation_xyz
x,y,z
-x,-y,z
-x,y,z
x,-y,z
1/2+x,1/2+y,z
1/2-x,1/2-y,z
1/2-x,1/2+y,z
1/2+x,1/2-y,z
loop_
_atom_site_type_symbol
_atom_site_label
_atom_site_fract_x
_atom_site_fract_y
_atom_site_fract_z
Si Si1 0.500000 0.339413 0.618440
Si Si2 0.311856 0.830321 0.433049
Si Si3 0.187723 0.165830 0.987933
Si Si4 0.572636 0.669442 0.116143
Si Si5 0.000000 0.669913 0.797276
Si Si6 0.640650 0.336684 0.596959
Si Si7 0.123998 0.166020 0.805654
Si Si8 0.573143 0.167552 0.300075
O O1 0.500000 0.500000 0.665576
O O2 0.500000 0.211502 0.691160
O O3 0.566057 0.324755 0.561609
O O4 0.250000 0.750000 0.388344
O O5 0.318054 0.773317 0.536962
O O6 0.376335 0.787978 0.378312
O O7 0.299368 0.000000 0.434172
O O8 0.250000 0.250000 0.024190
O O9 0.123197 0.220348 0.039213
O O10 0.199919 0.000000 0.010738
O O11 0.180502 0.191622 0.879054
O O12 0.500000 0.714287 0.085529
O O13 0.576683 0.500000 0.132976
O O14 0.591712 0.745221 0.210170
O O15 0.064267 0.737773 0.840925
O O16 0.000000 0.500000 0.811354
O O17 0.666162 0.500000 0.582664
O O18 0.646962 0.291135 0.703617
O O19 0.101453 0.000000 0.806209
O O20 0.500000 0.203925 0.332881
O O21 0.579797 0.000000 0.276327
#
# Coordination Sequence:
#
# PCOD8172266 Si02
#       8
#     4   8   8   8   4   8   8   8
#     4   8  16  32  52  76 107 144 183 228 283 340
#     4  11  24  39  57  82 115 154 192 234 285 341
#     4  10  22  38  58  84 116 154 192 235 284 338
#     4   9  19  37  62  90 113 142 187 232 279 339
#     4  10  18  28  48  80 109 138 185 242 285 324
#     4   9  18  34  55  81 112 148 194 236 280 333
#     4   9  19  36  56  77 111 158 195 232 283 339
#     4   9  20  40  63  86 112 145 183 229 290 345
#
# _framework density 19.898539
#
# number of rings (size 3 to 8) (size 9 to 14) (size 15 to 20)
#    0.000    2.571    0.000    1.929    2.000    5.714 
#    0.000    4.286    0.000    0.000    0.000    0.000 
#    0.000    0.000    0.000    0.000    0.000    0.000 
#
# Total GULP energy -347066.855930 kJ/mol
# GULP energy per Si atom -12395.244855 kJ/mol
# Density = 1.985325 g / cm^3
# Si number density = 19.898539 Si / 1000 Ang^3
#
#
#
# Elastic Constant Matrix: (Units=GPa)
#
#
# Indices 1 2 3 4 5 6 
#
# 1 124.5584 52.2987 61.0596 0.0000 0.0000 0.0000
# 2 52.2987 71.3977 39.4196 0.0000 0.0000 0.0000
# 3 61.0596 39.4196 97.4469 0.0000 0.0000 0.0000
# 4 0.0000 0.0000 0.0000 27.0664 0.0000 0.0000
# 5 0.0000 0.0000 0.0000 0.0000 23.0296 0.0000
# 6 0.0000 0.0000 0.0000 0.0000 0.0000 32.0396
#
#
#
# Elastic Compliance Matrix: (Units=1/GPa)
#
#
# Indices 1 2 3 4 5 6 
#
# 1 0.013781 -0.006859 -0.005861 0.000000 0.000000 0.000000
# 2 -0.006859 0.021448 -0.004378 0.000000 0.000000 0.000000
# 3 -0.005861 -0.004378 0.015705 0.000000 0.000000 0.000000
# 4 0.000000 0.000000 0.000000 0.036946 0.000000 0.000000
# 5 0.000000 0.000000 0.000000 0.000000 0.043422 0.000000
# 6 0.000000 0.000000 0.000000 0.000000 0.000000 0.031211
#
#
# Mechanical properties :
#
#
# Convention : Reuss Voigt Hill
#
# Bulk Modulus (GPa) = 59.74284 66.55097 63.14691
# Shear Modulus (GPa) = 24.71712 25.80213 25.25963
#
# Velocity S-wave (km/s) = 3.52825 3.60486 3.56676
# Velocity P-wave (km/s) = 6.83279 7.13053 6.98324
#
# Compressibility (1/GPa) = 0.01673841
#
# Stress axis : x y z
#
# Youngs Moduli (GPa) = 72.56275 46.62542 63.67286
#
# Poissons Ratio (x) = 0.31980 0.37316
# Poissons Ratio (y) = 0.49771 0.27877
# Poissons Ratio (z) = 0.42526 0.20414
#
# Static dielectric constant tensor:
#      x y z
#    x 3.769830 0.000000 0.000000 
#    y 0.000000 3.450540 0.000000 
#    z 0.000000 0.000000 3.407380 
# 
# 
# High freq. dielectric constant tensor:
#      x y z
#    x 1.781820 0.000000 0.000000 
#    y 0.000000 1.766050 0.000000 
#    z 0.000000 0.000000 1.755610 
# 
# From -- ./inp_files/17483.got.cif
#   From: 2010.03.12/outbox.cif.g09.slc.cpg/sg35_9_cif.got.tgz:17483.got - 2010.04.14 02:02:04.
