data_PCOD8172307
_publ_section_title
;
Structure prediction by ZEFSAII (Michael W. Deem and Ramdas Pophale) SiO2 
 PCOD8172307
Probable space group: C M M 2
;
_chemical_formula_sum "Si O2"
_cell_formula_units_Z 64
_cell_length_a 28.673611
_cell_length_b 8.667632
_cell_length_c 15.598120
_cell_angle_alpha 90.000000
_cell_angle_beta 90.000000
_cell_angle_gamma 90.000000
_cell_volume 3876.636768
_symmetry_space_group_name_H-M "C M M 2"
_symmetry_group_IT_number 35
_symmetry_cell_setting 'orthorhombic'
loop_
_space_group_symop_operation_xyz
x,y,z
-x,-y,z
-x,y,z
x,-y,z
1/2+x,1/2+y,z
1/2-x,1/2-y,z
1/2-x,1/2+y,z
1/2+x,1/2-y,z
loop_
_atom_site_type_symbol
_atom_site_label
_atom_site_fract_x
_atom_site_fract_y
_atom_site_fract_z
Si Si1 0.298680 0.182270 0.925090
Si Si2 0.055277 0.171215 0.313458
Si Si3 0.889131 0.818886 0.990000
Si Si4 0.552380 0.316165 0.828018
Si Si5 0.606315 0.682621 0.662863
Si Si6 0.552340 0.684124 0.500099
Si Si7 0.054363 0.322033 0.140510
Si Si8 0.201897 0.817808 0.738775
O O1 0.250000 0.250000 0.960059
O O2 0.339508 0.232644 0.989745
O O3 0.309934 0.248371 0.831240
O O4 0.294800 0.000000 0.920162
O O5 0.071862 0.236379 0.406483
O O6 0.071001 0.284806 0.237410
O O7 0.000000 0.159621 0.318414
O O8 0.075914 0.000000 0.296060
O O9 0.919949 0.755878 0.910981
O O10 0.880201 0.000000 0.982404
O O11 0.915891 0.783178 0.077388
O O12 0.500000 0.250313 0.832117
O O13 0.551977 0.500000 0.827313
O O14 0.576935 0.250187 0.742692
O O15 0.600553 0.500000 0.662686
O O16 0.586338 0.751469 0.573928
O O17 0.660605 0.728103 0.673368
O O18 0.500000 0.747462 0.516807
O O19 0.551312 0.500000 0.502135
O O20 0.064104 0.500000 0.121035
O O21 0.000000 0.280168 0.128749
O O22 0.250000 0.750000 0.701314
O O23 0.206360 0.000000 0.749948
#
# Coordination Sequence:
#
# PCOD8172307 Si02
#       8
#     8   8   8   8   8   8   8   8
#     4  11  21  34  51  69  91 121 157 199 243 282
#     4   8  14  26  44  66  90 117 152 194 237 278
#     4  11  20  32  48  70  96 124 160 196 234 282
#     4   9  16  25  39  62  93 125 155 186 221 265
#     4   9  15  24  40  65  94 120 152 191 233 276
#     4   8  13  22  40  67  95 119 147 189 236 278
#     4  10  20  32  46  67  96 129 162 196 237 283
#     4  10  18  30  46  66  90 120 157 199 239 279
#
# _framework density 16.509156000000001
#
# number of rings (size 3 to 8) (size 9 to 14) (size 15 to 20)
#    0.000    2.500    1.250    4.500    0.000    2.750 
#    0.000    0.000    0.000    1.500    0.000    0.875 
#    0.000    4.000    0.000    0.000    0.000    0.000 
#
# Total GULP energy -396700.031552 kJ/mol
# GULP energy per Si atom -12396.875986 kJ/mol
# Density = 1.647158 g / cm^3
# Si number density = 16.509156 Si / 1000 Ang^3
#
#
#
# Elastic Constant Matrix: (Units=GPa)
#
#
# Indices 1 2 3 4 5 6 
#
# 1 108.9781 30.0909 56.8307 0.0000 0.0000 0.0000
# 2 30.0909 56.3184 18.9737 0.0000 0.0000 0.0000
# 3 56.8307 18.9737 115.8045 0.0000 0.0000 0.0000
# 4 0.0000 0.0000 0.0000 12.6800 0.0000 0.0000
# 5 0.0000 0.0000 0.0000 0.0000 13.7124 0.0000
# 6 0.0000 0.0000 0.0000 0.0000 0.0000 18.5188
#
#
#
# Elastic Compliance Matrix: (Units=1/GPa)
#
#
# Indices 1 2 3 4 5 6 
#
# 1 0.013704 -0.005352 -0.005848 0.000000 0.000000 0.000000
# 2 -0.005352 0.020883 -0.000795 0.000000 0.000000 0.000000
# 3 -0.005848 -0.000795 0.011636 0.000000 0.000000 0.000000
# 4 0.000000 0.000000 0.000000 0.078864 0.000000 0.000000
# 5 0.000000 0.000000 0.000000 0.000000 0.072927 0.000000
# 6 0.000000 0.000000 0.000000 0.000000 0.000000 0.053999
#
#
# Mechanical properties :
#
#
# Convention : Reuss Voigt Hill
#
# Bulk Modulus (GPa) = 44.97932 54.76572 49.87252
# Shear Modulus (GPa) = 17.64205 20.66263 19.15234
#
# Velocity S-wave (km/s) = 3.27253 3.54161 3.40973
# Velocity P-wave (km/s) = 6.44852 7.06888 6.76581
#
# Compressibility (1/GPa) = 0.02223244
#
# Stress axis : x y z
#
# Youngs Moduli (GPa) = 72.97376 47.88472 85.94377
#
# Poissons Ratio (x) = 0.25626 0.50261
# Poissons Ratio (y) = 0.39052 0.06835
# Poissons Ratio (z) = 0.42676 0.03808
#
# Static dielectric constant tensor:
#      x y z
#    x 3.139330 0.000000 0.000000 
#    y 0.000000 2.833240 0.000000 
#    z 0.000000 0.000000 3.279670 
# 
# 
# High freq. dielectric constant tensor:
#      x y z
#    x 1.619060 0.000000 0.000000 
#    y 0.000000 1.611730 0.000000 
#    z 0.000000 0.000000 1.625430 
# 
# From -- ./inp_files/17729.got.cif
#   From: 2010.03.12/outbox.cif.g09.slc.cpg/sg35_9_cif.got.tgz:17729.got - 2010.04.14 02:02:04.
