data_PCOD8172660
_publ_section_title
;
Structure prediction by ZEFSAII (Michael W. Deem and Ramdas Pophale) SiO2 
 PCOD8172660
Probable space group: C M M 2
;
_chemical_formula_sum "Si O2"
_cell_formula_units_Z 64
_cell_length_a 8.579122
_cell_length_b 20.118717
_cell_length_c 19.994714
_cell_angle_alpha 90.000000
_cell_angle_beta 90.000000
_cell_angle_gamma 90.000000
_cell_volume 3451.106184
_symmetry_space_group_name_H-M "C M M 2"
_symmetry_group_IT_number 35
_symmetry_cell_setting 'orthorhombic'
loop_
_space_group_symop_operation_xyz
x,y,z
-x,-y,z
-x,y,z
x,-y,z
1/2+x,1/2+y,z
1/2-x,1/2-y,z
1/2-x,1/2+y,z
1/2+x,1/2-y,z
loop_
_atom_site_type_symbol
_atom_site_label
_atom_site_fract_x
_atom_site_fract_y
_atom_site_fract_z
Si Si1 0.682697 0.320513 0.701490
Si Si2 0.815951 0.680473 0.198810
Si Si3 0.684496 0.179343 0.046250
Si Si4 0.314736 0.074182 0.451134
Si Si5 0.814963 0.321297 0.558096
Si Si6 0.818993 0.423242 0.802633
Si Si7 0.180543 0.923721 0.944113
Si Si8 0.185464 0.573975 0.302202
O O1 0.500000 0.312189 0.691111
O O2 0.750000 0.250000 0.726814
O O3 0.758927 0.341960 0.631577
O O4 0.716719 0.377656 0.754660
O O5 0.750000 0.750000 0.224816
O O6 0.763872 0.666789 0.122746
O O7 0.744544 0.623729 0.246837
O O8 0.000000 0.682763 0.204161
O O9 0.500000 0.178235 0.036937
O O10 0.750000 0.250000 0.021006
O O11 0.761933 0.120726 0.004846
O O12 0.500000 0.074569 0.453925
O O13 0.246769 0.125361 0.505444
O O14 0.259012 0.095200 0.376643
O O15 0.253450 0.000000 0.467952
O O16 0.750000 0.250000 0.536719
O O17 0.000000 0.319282 0.557278
O O18 0.776344 0.500000 0.788197
O O19 0.778604 0.404674 0.878626
O O20 0.000000 0.409021 0.789724
O O21 0.000000 0.910244 0.928850
O O22 0.210280 0.000000 0.964456
O O23 0.246968 0.500000 0.285749
O O24 0.000000 0.574733 0.299219
#
# Coordination Sequence:
#
# PCOD8172660 Si02
#       8
#     8   8   8   8   8   8   8   8
#     4  11  22  37  56  78 106 138 174 214 257 305
#     4   9  18  31  49  73 100 131 166 208 254 301
#     4  10  20  34  52  75 104 137 175 216 259 307
#     4   8  15  28  47  71  98 129 167 210 252 297
#     4  10  19  32  50  73 101 132 168 209 255 305
#     4  10  21  38  59  82 108 137 170 209 253 303
#     4  10  21  37  56  79 107 137 170 210 256 305
#     4   8  14  27  47  71  98 128 166 210 252 296
#
# _framework density 18.544778000000001
#
# number of rings (size 3 to 8) (size 9 to 14) (size 15 to 20)
#    0.000    2.500    0.000    4.125    0.000    4.000 
#    0.000    5.000    0.000    2.250    0.000    3.500 
#    0.000    0.000    0.000    0.000    0.000    0.000 
#
# Total GULP energy -396801.309745 kJ/mol
# GULP energy per Si atom -12400.040930 kJ/mol
# Density = 1.850257 g / cm^3
# Si number density = 18.544778 Si / 1000 Ang^3
#
#
#
# Elastic Constant Matrix: (Units=GPa)
#
#
# Indices 1 2 3 4 5 6 
#
# 1 51.3424 26.7798 20.5063 0.0000 0.0000 0.0000
# 2 26.7798 129.5356 91.5952 0.0000 0.0000 0.0000
# 3 20.5063 91.5952 112.0037 0.0000 0.0000 0.0000
# 4 0.0000 0.0000 0.0000 47.4337 0.0000 0.0000
# 5 0.0000 0.0000 0.0000 0.0000 18.5631 0.0000
# 6 0.0000 0.0000 0.0000 0.0000 0.0000 27.7009
#
#
#
# Elastic Compliance Matrix: (Units=1/GPa)
#
#
# Indices 1 2 3 4 5 6 
#
# 1 0.021856 -0.004005 -0.000727 0.000000 0.000000 0.000000
# 2 -0.004005 0.019039 -0.014836 0.000000 0.000000 0.000000
# 3 -0.000727 -0.014836 0.021194 0.000000 0.000000 0.000000
# 4 0.000000 0.000000 0.000000 0.021082 0.000000 0.000000
# 5 0.000000 0.000000 0.000000 0.000000 0.053870 0.000000
# 6 0.000000 0.000000 0.000000 0.000000 0.000000 0.036100
#
#
# Mechanical properties :
#
#
# Convention : Reuss Voigt Hill
#
# Bulk Modulus (GPa) = 43.56581 63.40493 53.48537
# Shear Modulus (GPa) = 22.73472 29.00624 25.87048
#
# Velocity S-wave (km/s) = 3.50514 3.95918 3.73906
# Velocity P-wave (km/s) = 6.31859 7.42729 6.89526
#
# Compressibility (1/GPa) = 0.02295378
#
# Stress axis : x y z
#
# Youngs Moduli (GPa) = 45.75387 52.52455 47.18241
#
# Poissons Ratio (x) = 0.21035 0.03428
# Poissons Ratio (y) = 0.18323 0.70002
# Poissons Ratio (z) = 0.03324 0.77928
#
# Static dielectric constant tensor:
#      x y z
#    x 3.224950 0.000000 0.000000 
#    y 0.000000 3.598560 0.000000 
#    z 0.000000 0.000000 3.560420 
# 
# 
# High freq. dielectric constant tensor:
#      x y z
#    x 1.704950 0.000000 0.000000 
#    y 0.000000 1.724490 0.000000 
#    z 0.000000 0.000000 1.722340 
# 
# From -- ./inp_files/18443.got.cif
#   From: 2010.03.12/outbox.cif.g09.slc.cpg/sg35_10_cif.got.tgz:18443.got - 2010.04.14 02:02:04.
