data_PCOD8172923
_publ_section_title
;
Structure prediction by ZEFSAII (Michael W. Deem and Ramdas Pophale) SiO2 
 PCOD8172923
Probable space group: C M M 2
;
_chemical_formula_sum "Si O2"
_cell_formula_units_Z 48
_cell_length_a 9.201099
_cell_length_b 33.717452
_cell_length_c 8.004482
_cell_angle_alpha 90.000000
_cell_angle_beta 90.000000
_cell_angle_gamma 90.000000
_cell_volume 2483.291396
_symmetry_space_group_name_H-M "C M M 2"
_symmetry_group_IT_number 35
_symmetry_cell_setting 'orthorhombic'
loop_
_space_group_symop_operation_xyz
x,y,z
-x,-y,z
-x,y,z
x,-y,z
1/2+x,1/2+y,z
1/2-x,1/2-y,z
1/2-x,1/2+y,z
1/2+x,1/2-y,z
loop_
_atom_site_type_symbol
_atom_site_label
_atom_site_fract_x
_atom_site_fract_y
_atom_site_fract_z
Si Si1 0.331098 0.580473 0.175890
Si Si2 0.667642 0.662082 0.329496
Si Si3 0.172855 0.208394 0.009991
Si Si4 0.833575 0.500000 0.685687
Si Si5 0.828384 0.845443 0.695446
Si Si6 0.328359 0.500000 0.343842
Si Si7 0.169774 0.583764 0.839443
O O1 0.500000 0.577680 0.123841
O O2 0.304602 0.615031 0.310574
O O3 0.272540 0.539008 0.248233
O O4 0.237852 0.592876 0.017847
O O5 0.500000 0.671804 0.311707
O O6 0.720125 0.674015 0.516683
O O7 0.738275 0.687512 0.178020
O O8 0.250000 0.250000 0.989771
O O9 0.217344 0.182770 0.847778
O O10 0.000000 0.214026 0.015985
O O11 0.731856 0.500000 0.527725
O O12 0.797069 0.461706 0.795529
O O13 0.000000 0.500000 0.625316
O O14 0.745790 0.887302 0.706979
O O15 0.000000 0.854134 0.695387
O O16 0.500000 0.500000 0.357708
O O17 0.000000 0.593042 0.843169
#
# Coordination Sequence:
#
# PCOD8172923 Si02
#       7
#     8   8   8   4   8   4   8
#     4  10  19  35  56  82 113 145 189 240 285 334
#     4   9  18  35  59  84 111 147 188 227 281 343
#     4  10  21  38  59  85 116 149 185 229 287 348
#     4  10  23  38  50  74 118 158 189 235 291 343
#     4  10  20  38  63  85 113 152 189 238 291 332
#     4  10  21  34  56  86 110 144 199 249 281 333
#     4  11  22  36  55  81 114 154 197 235 282 344
#
# _framework density 19.329186
#
# number of rings (size 3 to 8) (size 9 to 14) (size 15 to 20)
#    0.000    2.000    1.667    2.000    0.000    4.667 
#    0.000    1.667    0.000    0.000    0.000    0.000 
#    0.000    0.000    0.000    0.000    0.000    0.000 
#
# Total GULP energy -297564.170134 kJ/mol
# GULP energy per Si atom -12398.507089 kJ/mol
# Density = 1.928519 g / cm^3
# Si number density = 19.329186 Si / 1000 Ang^3
#
#
#
# Elastic Constant Matrix: (Units=GPa)
#
#
# Indices 1 2 3 4 5 6 
#
# 1 36.8465 30.0859 32.6848 0.0000 0.0000 0.0000
# 2 30.0859 119.0051 54.1130 0.0000 0.0000 0.0000
# 3 32.6848 54.1130 153.5120 0.0000 0.0000 0.0000
# 4 0.0000 0.0000 0.0000 18.5153 0.0000 0.0000
# 5 0.0000 0.0000 0.0000 0.0000 8.3305 0.0000
# 6 0.0000 0.0000 0.0000 0.0000 0.0000 29.4245
#
#
#
# Elastic Compliance Matrix: (Units=1/GPa)
#
#
# Indices 1 2 3 4 5 6 
#
# 1 0.037823 -0.007027 -0.005576 0.000000 0.000000 0.000000
# 2 -0.007027 0.011312 -0.002492 0.000000 0.000000 0.000000
# 3 -0.005576 -0.002492 0.008580 0.000000 0.000000 0.000000
# 4 0.000000 0.000000 0.000000 0.054009 0.000000 0.000000
# 5 0.000000 0.000000 0.000000 0.000000 0.120041 0.000000
# 6 0.000000 0.000000 0.000000 0.000000 0.000000 0.033985
#
#
# Mechanical properties :
#
#
# Convention : Reuss Voigt Hill
#
# Bulk Modulus (GPa) = 36.32847 60.34791 48.33819
# Shear Modulus (GPa) = 16.38725 24.08605 20.23665
#
# Velocity S-wave (km/s) = 2.91486 3.53384 3.23917
# Velocity P-wave (km/s) = 5.49217 6.92384 6.24914
#
# Compressibility (1/GPa) = 0.02752662
#
# Stress axis : x y z
#
# Youngs Moduli (GPa) = 26.43865 88.39890 116.55457
#
# Poissons Ratio (x) = 0.62115 0.64993
# Poissons Ratio (y) = 0.18577 0.29040
# Poissons Ratio (z) = 0.14743 0.22025
#
# Static dielectric constant tensor:
#      x y z
#    x 3.274000 0.000000 0.000000 
#    y 0.000000 3.704770 0.000000 
#    z 0.000000 0.000000 3.841280 
# 
# 
# High freq. dielectric constant tensor:
#      x y z
#    x 1.724690 0.000000 0.000000 
#    y 0.000000 1.754380 0.000000 
#    z 0.000000 0.000000 1.765880 
# 
# From -- ./inp_files/5406.got.cif
#   From: 2010.03.12/outbox.cif.g09.slc.cpg/sg35_3_cif.got.tgz:5406.got - 2010.04.14 02:02:04.
