data_PCOD8172809
_publ_section_title
;
Structure prediction by ZEFSAII (Michael W. Deem and Ramdas Pophale) SiO2 
 PCOD8172809
Probable space group: C M M 2
;
_chemical_formula_sum "Si O2"
_cell_formula_units_Z 64
_cell_length_a 29.053899
_cell_length_b 8.949726
_cell_length_c 12.354723
_cell_angle_alpha 90.000000
_cell_angle_beta 90.000000
_cell_angle_gamma 90.000000
_cell_volume 3212.529871
_symmetry_space_group_name_H-M "C M M 2"
_symmetry_group_IT_number 35
_symmetry_cell_setting 'orthorhombic'
loop_
_space_group_symop_operation_xyz
x,y,z
-x,-y,z
-x,y,z
x,-y,z
1/2+x,1/2+y,z
1/2-x,1/2-y,z
1/2-x,1/2+y,z
1/2+x,1/2-y,z
loop_
_atom_site_type_symbol
_atom_site_label
_atom_site_fract_x
_atom_site_fract_y
_atom_site_fract_z
Si Si1 0.085192 0.176135 0.252870
Si Si2 0.950024 0.331143 0.062476
Si Si3 0.705096 0.830659 0.416708
Si Si4 0.553874 0.325716 0.668229
Si Si5 0.823330 0.672756 0.177776
Si Si6 0.106585 0.171147 0.886051
Si Si7 0.294055 0.326115 0.961199
Si Si8 0.396182 0.177485 0.469697
O O1 0.045905 0.230351 0.170581
O O2 0.131249 0.230840 0.194540
O O3 0.076932 0.251591 0.368780
O O4 0.084945 0.000000 0.268205
O O5 0.937437 0.500000 0.095412
O O6 0.000000 0.322478 0.005440
O O7 0.911685 0.274521 0.980764
O O8 0.750000 0.750000 0.465940
O O9 0.706613 0.814195 0.286826
O O10 0.657139 0.765595 0.466141
O O11 0.709330 0.000000 0.453934
O O12 0.500000 0.283861 0.681991
O O13 0.559472 0.500000 0.640537
O O14 0.582292 0.281967 0.774983
O O15 0.577176 0.227966 0.575769
O O16 0.835691 0.500000 0.154846
O O17 0.797336 0.743377 0.076479
O O18 0.161687 0.196139 0.883197
O O19 0.094494 0.000000 0.914032
O O20 0.284977 0.500000 0.983041
O O21 0.250000 0.250000 0.901931
O O22 0.397520 0.000000 0.458194
#
# Coordination Sequence:
#
# PCOD8172809 Si02
#       8
#     8   8   8   8   8   8   8   8
#     4  11  21  35  57  85 119 160 199 240 295 357
#     4  11  23  37  57  87 121 157 196 241 299 361
#     4   9  19  33  52  81 116 155 195 236 286 343
#     4  10  22  42  67  91 114 148 198 253 306 362
#     4  10  19  33  53  81 120 160 199 246 293 347
#     4  10  22  41  63  87 118 155 198 247 300 359
#     4  11  22  35  55  85 119 161 205 245 296 354
#     4  10  22  40  60  86 120 155 196 247 302 356
#
# _framework density 19.921993000000001
#
# number of rings (size 3 to 8) (size 9 to 14) (size 15 to 20)
#    0.000    1.750    1.250    4.125    0.000    7.250 
#    0.000    0.625    0.000    3.000    0.000    0.000 
#    0.000    0.000    0.000    0.000    0.000    0.000 
#
# Total GULP energy -396736.579330 kJ/mol
# GULP energy per Si atom -12398.018104 kJ/mol
# Density = 1.987665 g / cm^3
# Si number density = 19.921993 Si / 1000 Ang^3
#
#
#
# Elastic Constant Matrix: (Units=GPa)
#
#
# Indices 1 2 3 4 5 6 
#
# 1 123.1353 50.6204 54.8844 0.0000 0.0000 0.0000
# 2 50.6204 110.0399 55.1802 0.0000 0.0000 0.0000
# 3 54.8844 55.1802 99.6310 0.0000 0.0000 0.0000
# 4 0.0000 0.0000 0.0000 15.6629 0.0000 0.0000
# 5 0.0000 0.0000 0.0000 0.0000 22.4487 0.0000
# 6 0.0000 0.0000 0.0000 0.0000 0.0000 31.2642
#
#
#
# Elastic Compliance Matrix: (Units=1/GPa)
#
#
# Indices 1 2 3 4 5 6 
#
# 1 0.011395 -0.002899 -0.004672 0.000000 0.000000 0.000000
# 2 -0.002899 0.013320 -0.005780 0.000000 0.000000 0.000000
# 3 -0.004672 -0.005780 0.015812 0.000000 0.000000 0.000000
# 4 0.000000 0.000000 0.000000 0.063845 0.000000 0.000000
# 5 0.000000 0.000000 0.000000 0.000000 0.044546 0.000000
# 6 0.000000 0.000000 0.000000 0.000000 0.000000 0.031986
#
#
# Mechanical properties :
#
#
# Convention : Reuss Voigt Hill
#
# Bulk Modulus (GPa) = 72.33289 72.68625 72.50957
# Shear Modulus (GPa) = 23.56119 25.34990 24.45554
#
# Velocity S-wave (km/s) = 3.44273 3.57102 3.50746
# Velocity P-wave (km/s) = 7.22427 7.31899 7.27178
#
# Compressibility (1/GPa) = 0.01382497
#
# Stress axis : x y z
#
# Youngs Moduli (GPa) = 87.75513 75.07640 63.24460
#
# Poissons Ratio (x) = 0.21768 0.29545
# Poissons Ratio (y) = 0.25444 0.36554
# Poissons Ratio (z) = 0.40995 0.43393
#
# Static dielectric constant tensor:
#      x y z
#    x 3.799970 0.000000 0.000000 
#    y 0.000000 3.650630 0.000000 
#    z 0.000000 0.000000 3.502140 
# 
# 
# High freq. dielectric constant tensor:
#      x y z
#    x 1.788530 0.000000 0.000000 
#    y 0.000000 1.782190 0.000000 
#    z 0.000000 0.000000 1.750900 
# 
# From -- ./inp_files/11990.got.cif
#   From: 2010.03.12/outbox.cif.g09.slc.cpg/sg35_6_cif.got.tgz:11990.got - 2010.04.14 02:02:04.
