data_PCOD8172306
_publ_section_title
;
Structure prediction by ZEFSAII (Michael W. Deem and Ramdas Pophale) SiO2 
 PCOD8172306
Probable space group: C M M 2
;
_chemical_formula_sum "Si O2"
_cell_formula_units_Z 64
_cell_length_a 9.354413
_cell_length_b 28.320296
_cell_length_c 15.530428
_cell_angle_alpha 90.000000
_cell_angle_beta 90.000000
_cell_angle_gamma 90.000000
_cell_volume 4114.317027
_symmetry_space_group_name_H-M "C M M 2"
_symmetry_group_IT_number 35
_symmetry_cell_setting 'orthorhombic'
loop_
_space_group_symop_operation_xyz
x,y,z
-x,-y,z
-x,y,z
x,-y,z
1/2+x,1/2+y,z
1/2-x,1/2-y,z
1/2-x,1/2+y,z
1/2+x,1/2-y,z
loop_
_atom_site_type_symbol
_atom_site_label
_atom_site_fract_x
_atom_site_fract_y
_atom_site_fract_z
Si Si1 0.667887 0.296696 0.513400
Si Si2 0.170045 0.947359 0.948152
Si Si3 0.167507 0.613619 0.463227
Si Si4 0.169275 0.895513 0.779622
Si Si5 0.335930 0.945325 0.631124
Si Si6 0.159112 0.943763 0.135782
Si Si7 0.333300 0.053953 0.297253
Si Si8 0.835049 0.795415 0.714052
O O1 0.500000 0.292283 0.492679
O O2 0.750000 0.250000 0.482334
O O3 0.736500 0.339705 0.461207
O O4 0.696481 0.305275 0.614170
O O5 0.222794 0.911832 0.873804
O O6 0.000000 0.950198 0.949764
O O7 0.231518 0.000000 0.929768
O O8 0.221011 0.928115 0.041927
O O9 0.208208 0.582831 0.545991
O O10 0.211785 0.584053 0.379639
O O11 0.000000 0.626941 0.463069
O O12 0.238612 0.929519 0.709754
O O13 0.217294 0.841324 0.766479
O O14 0.000000 0.900439 0.768623
O O15 0.500000 0.935457 0.655619
O O16 0.308809 0.000000 0.611569
O O17 0.257411 0.924445 0.212738
O O18 0.000000 0.923350 0.150003
O O19 0.155618 0.000000 0.136171
O O20 0.500000 0.057101 0.279495
O O21 0.285731 0.000000 0.314117
O O22 0.750000 0.750000 0.748232
O O23 0.000000 0.784615 0.730396
#
# Coordination Sequence:
#
# PCOD8172306 Si02
#       8
#     8   8   8   8   8   8   8   8
#     4  10  19  32  48  67  89 114 149 190 230 269
#     4   8  14  25  43  65  89 117 146 179 222 268
#     4  10  19  31  46  64  89 122 154 184 221 265
#     4  10  18  30  46  66  88 116 153 188 220 261
#     4  10  20  31  42  60  90 125 154 179 212 258
#     4   8  14  26  43  63  86 113 147 186 226 265
#     4   9  17  29  45  65  90 121 154 186 223 267
#     4   9  18  30  45  64  86 112 146 186 225 263
#
# _framework density 15.555438000000001
#
# number of rings (size 3 to 8) (size 9 to 14) (size 15 to 20)
#    0.000    2.750    1.250    1.875    0.000    3.750 
#    0.000    0.625    0.000    4.500    0.000    0.875 
#    0.000    4.000    0.000    0.000    0.000    0.000 
#
# Total GULP energy -396736.769301 kJ/mol
# GULP energy per Si atom -12398.024041 kJ/mol
# Density = 1.552003 g / cm^3
# Si number density = 15.555438 Si / 1000 Ang^3
#
#
#
# Elastic Constant Matrix: (Units=GPa)
#
#
# Indices 1 2 3 4 5 6 
#
# 1 47.6497 41.4683 41.9673 0.0000 0.0000 0.0000
# 2 41.4683 96.9597 53.2779 0.0000 0.0000 0.0000
# 3 41.9673 53.2779 119.2370 0.0000 0.0000 0.0000
# 4 0.0000 0.0000 0.0000 10.5908 0.0000 0.0000
# 5 0.0000 0.0000 0.0000 0.0000 21.1792 0.0000
# 6 0.0000 0.0000 0.0000 0.0000 0.0000 24.3997
#
#
#
# Elastic Compliance Matrix: (Units=1/GPa)
#
#
# Indices 1 2 3 4 5 6 
#
# 1 0.038723 -0.012024 -0.008256 0.000000 0.000000 0.000000
# 2 -0.012024 0.017404 -0.003544 0.000000 0.000000 0.000000
# 3 -0.008256 -0.003544 0.012876 0.000000 0.000000 0.000000
# 4 0.000000 0.000000 0.000000 0.094421 0.000000 0.000000
# 5 0.000000 0.000000 0.000000 0.000000 0.047216 0.000000
# 6 0.000000 0.000000 0.000000 0.000000 0.000000 0.040984
#
#
# Mechanical properties :
#
#
# Convention : Reuss Voigt Hill
#
# Bulk Modulus (GPa) = 46.83215 59.69703 53.26459
# Shear Modulus (GPa) = 16.31897 19.70946 18.01422
#
# Velocity S-wave (km/s) = 3.24247 3.56342 3.40673
# Velocity P-wave (km/s) = 6.64757 7.44251 7.05624
#
# Compressibility (1/GPa) = 0.02135285
#
# Stress axis : x y z
#
# Youngs Moduli (GPa) = 25.82459 57.45889 77.66265
#
# Poissons Ratio (x) = 0.69091 0.64120
# Poissons Ratio (y) = 0.31053 0.27525
# Poissons Ratio (z) = 0.21321 0.20365
#
# Static dielectric constant tensor:
#      x y z
#    x 2.906030 0.000000 0.000000 
#    y 0.000000 2.913800 0.000000 
#    z 0.000000 0.000000 3.129240 
# 
# 
# High freq. dielectric constant tensor:
#      x y z
#    x 1.586850 0.000000 0.000000 
#    y 0.000000 1.579390 0.000000 
#    z 0.000000 0.000000 1.587360 
# 
# From -- ./inp_files/16147.got.cif
#   From: 2010.03.12/outbox.cif.g09.slc.cpg/sg35_9_cif.got.tgz:16147.got - 2010.04.14 02:02:04.
