data_PCOD8172983
_publ_section_title
;
Structure prediction by ZEFSAII (Michael W. Deem and Ramdas Pophale) SiO2 
 PCOD8172983
Probable space group: C M M 2
;
_chemical_formula_sum "Si O2"
_cell_formula_units_Z 64
_cell_length_a 9.164683
_cell_length_b 30.133591
_cell_length_c 15.375608
_cell_angle_alpha 90.000000
_cell_angle_beta 90.000000
_cell_angle_gamma 90.000000
_cell_volume 4246.201849
_symmetry_space_group_name_H-M "C M M 2"
_symmetry_group_IT_number 35
_symmetry_cell_setting 'orthorhombic'
loop_
_space_group_symop_operation_xyz
x,y,z
-x,-y,z
-x,y,z
x,-y,z
1/2+x,1/2+y,z
1/2-x,1/2-y,z
1/2-x,1/2+y,z
1/2+x,1/2-y,z
loop_
_atom_site_type_symbol
_atom_site_label
_atom_site_fract_x
_atom_site_fract_y
_atom_site_fract_z
Si Si1 0.829545 0.790730 0.010110
Si Si2 0.667690 0.052515 0.872432
Si Si3 0.163951 0.052745 0.705134
Si Si4 0.664794 0.552623 0.514512
Si Si5 0.670162 0.610677 0.010973
Si Si6 0.671398 0.050789 0.347789
Si Si7 0.168566 0.710177 0.193698
Si Si8 0.168853 0.387797 0.192876
O O1 0.750000 0.750000 0.957020
O O2 0.751159 0.792490 0.102508
O O3 0.000000 0.779810 0.019325
O O4 0.806377 0.839873 0.969701
O O5 0.500000 0.066542 0.878272
O O6 0.729007 0.070341 0.780191
O O7 0.754586 0.074907 0.950109
O O8 0.688793 0.000000 0.881360
O O9 0.217482 0.069888 0.609857
O O10 0.000000 0.070079 0.723969
O O11 0.163372 0.000000 0.704502
O O12 0.500000 0.568343 0.498410
O O13 0.676276 0.500000 0.513889
O O14 0.762346 0.571728 0.436199
O O15 0.500000 0.599551 0.017966
O O16 0.736682 0.606198 0.106777
O O17 0.500000 0.055281 0.357106
O O18 0.728133 0.077965 0.264645
O O19 0.720915 0.000000 0.334276
O O20 0.250000 0.750000 0.247825
O O21 0.184875 0.661417 0.235710
O O22 0.000000 0.722903 0.180947
O O23 0.000000 0.396992 0.168678
#
# Coordination Sequence:
#
# PCOD8172983 Si02
#       8
#     8   8   8   8   8   8   8   8
#     4   9  16  26  41  60  79 100 129 165 206 248
#     4  10  20  31  43  60  82 110 143 175 205 240
#     4   8  14  26  43  60  79 103 130 164 206 246
#     4   8  14  25  41  60  80 102 129 163 204 244
#     4  10  20  31  43  60  82 110 143 175 206 242
#     4   9  17  28  41  57  79 108 139 168 197 233
#     4   9  15  24  39  56  75  99 128 165 207 245
#     4   9  18  30  41  56  81 111 140 171 205 237
#
# _framework density 15.072293999999999
#
# number of rings (size 3 to 8) (size 9 to 14) (size 15 to 20)
#    0.000    3.000    0.000    3.000    0.000    4.250 
#    0.000    3.750    0.000    0.000    0.000    0.000 
#    0.000    1.000    0.000    7.500    0.000    4.375 
#
# Total GULP energy -396435.491507 kJ/mol
# GULP energy per Si atom -12388.609110 kJ/mol
# Density = 1.503799 g / cm^3
# Si number density = 15.072294 Si / 1000 Ang^3
#
#
#
# Elastic Constant Matrix: (Units=GPa)
#
#
# Indices 1 2 3 4 5 6 
#
# 1 92.7745 38.3150 51.3487 0.0000 0.0000 0.0000
# 2 38.3150 55.6275 41.5332 0.0000 0.0000 0.0000
# 3 51.3487 41.5332 96.1703 0.0000 0.0000 0.0000
# 4 0.0000 0.0000 0.0000 0.6689 0.0000 0.0000
# 5 0.0000 0.0000 0.0000 0.0000 24.8385 0.0000
# 6 0.0000 0.0000 0.0000 0.0000 0.0000 20.7503
#
#
#
# Elastic Compliance Matrix: (Units=1/GPa)
#
#
# Indices 1 2 3 4 5 6 
#
# 1 0.017110 -0.007326 -0.005971 0.000000 0.000000 0.000000
# 2 -0.007326 0.029669 -0.008901 0.000000 0.000000 0.000000
# 3 -0.005971 -0.008901 0.017431 0.000000 0.000000 0.000000
# 4 0.000000 0.000000 0.000000 1.494974 0.000000 0.000000
# 5 0.000000 0.000000 0.000000 0.000000 0.040260 0.000000
# 6 0.000000 0.000000 0.000000 0.000000 0.000000 0.048192
#
#
# Mechanical properties :
#
#
# Convention : Reuss Voigt Hill
#
# Bulk Modulus (GPa) = 50.47653 56.32957 53.40305
# Shear Modulus (GPa) = 2.94354 16.80990 9.87672
#
# Velocity S-wave (km/s) = 1.39899 3.34321 2.56264
# Velocity P-wave (km/s) = 6.01431 7.23580 6.65315
#
# Compressibility (1/GPa) = 0.01981119
#
# Stress axis : x y z
#
# Youngs Moduli (GPa) = 58.44691 33.70527 57.36965
#
# Poissons Ratio (x) = 0.24693 0.34258
# Poissons Ratio (y) = 0.42820 0.51067
# Poissons Ratio (z) = 0.34901 0.30002
#
# Static dielectric constant tensor:
#      x y z
#    x 3.036080 0.000000 0.000000 
#    y 0.000000 3.375290 0.000000 
#    z 0.000000 0.000000 2.906560 
# 
# 
# High freq. dielectric constant tensor:
#      x y z
#    x 1.588680 0.000000 0.000000 
#    y 0.000000 1.554660 0.000000 
#    z 0.000000 0.000000 1.546460 
# 
# From -- ./inp_files/18521.got.cif
#   From: 2010.03.12/outbox.cif.g09.slc.cpg/sg35_10_cif.got.tgz:18521.got - 2010.04.14 02:02:04.
