data_PCOD8172216
_publ_section_title
;
Structure prediction by ZEFSAII (Michael W. Deem and Ramdas Pophale) SiO2 
 PCOD8172216
Probable space group: C M M 2
;
_chemical_formula_sum "Si O2"
_cell_formula_units_Z 56
_cell_length_a 26.279925
_cell_length_b 14.066636
_cell_length_c 9.451751
_cell_angle_alpha 90.000000
_cell_angle_beta 90.000000
_cell_angle_gamma 90.000000
_cell_volume 3494.030107
_symmetry_space_group_name_H-M "C M M 2"
_symmetry_group_IT_number 35
_symmetry_cell_setting 'orthorhombic'
loop_
_space_group_symop_operation_xyz
x,y,z
-x,-y,z
-x,y,z
x,-y,z
1/2+x,1/2+y,z
1/2-x,1/2-y,z
1/2-x,1/2+y,z
1/2+x,1/2-y,z
loop_
_atom_site_type_symbol
_atom_site_label
_atom_site_fract_x
_atom_site_fract_y
_atom_site_fract_z
Si Si1 0.330888 0.289347 0.279320
Si Si2 0.727220 0.892852 0.328216
Si Si3 0.632268 0.714615 0.584356
Si Si4 0.138769 0.890453 0.010169
Si Si5 0.313962 0.894107 0.639510
Si Si6 0.558110 0.610249 0.774103
Si Si7 0.212460 0.110301 0.766276
O O1 0.310926 0.181777 0.253095
O O2 0.284894 0.363165 0.298271
O O3 0.368043 0.292887 0.414832
O O4 0.363846 0.321837 0.144990
O O5 0.717971 0.888385 0.495105
O O6 0.717842 0.000000 0.269684
O O7 0.637622 0.824484 0.635604
O O8 0.580073 0.671244 0.643614
O O9 0.682099 0.662966 0.643136
O O10 0.138489 0.000000 0.058934
O O11 0.089328 0.867312 0.915957
O O12 0.189844 0.866224 0.920928
O O13 0.272613 0.863547 0.760248
O O14 0.335108 0.000000 0.667154
O O15 0.500000 0.639691 0.799973
O O16 0.563648 0.500000 0.732893
O O17 0.204654 0.000000 0.732201
#
# Coordination Sequence:
#
# PCOD8172216 Si02
#       7
#     8   8   8   8   8   8   8
#     4  10  18  28  44  68  94 124 158 186 222 266
#     4   9  17  28  42  63  97 132 155 182 217 258
#     4  10  17  28  48  70  90 118 157 193 227 269
#     4   9  18  30  45  66  92 123 154 187 230 275
#     4   9  16  27  44  66  94 127 157 184 217 261
#     4   9  19  36  53  68  88 116 151 193 243 287
#     4   9  16  27  43  64  92 127 157 181 217 266
#
# _framework density 16.027338
#
# number of rings (size 3 to 8) (size 9 to 14) (size 15 to 20)
#    0.000    2.714    1.429    2.143    0.000    1.714 
#   10.286    0.714    0.000    2.143    0.000    0.000 
#    0.000    1.143    0.000    0.000    0.000    0.000 
#
# Total GULP energy -347107.828376 kJ/mol
# GULP energy per Si atom -12396.708156 kJ/mol
# Density = 1.599086 g / cm^3
# Si number density = 16.027338 Si / 1000 Ang^3
#
#
#
# Elastic Constant Matrix: (Units=GPa)
#
#
# Indices 1 2 3 4 5 6 
#
# 1 81.5947 45.8881 45.8721 0.0000 0.0000 0.0000
# 2 45.8881 90.2968 46.7283 0.0000 0.0000 0.0000
# 3 45.8721 46.7283 82.0051 0.0000 0.0000 0.0000
# 4 0.0000 0.0000 0.0000 21.5310 0.0000 0.0000
# 5 0.0000 0.0000 0.0000 0.0000 14.6801 0.0000
# 6 0.0000 0.0000 0.0000 0.0000 0.0000 20.2785
#
#
#
# Elastic Compliance Matrix: (Units=1/GPa)
#
#
# Indices 1 2 3 4 5 6 
#
# 1 0.020077 -0.006227 -0.007682 0.000000 0.000000 0.000000
# 2 -0.006227 0.017638 -0.006567 0.000000 0.000000 0.000000
# 3 -0.007682 -0.006567 0.020233 0.000000 0.000000 0.000000
# 4 0.000000 0.000000 0.000000 0.046445 0.000000 0.000000
# 5 0.000000 0.000000 0.000000 0.000000 0.068120 0.000000
# 6 0.000000 0.000000 0.000000 0.000000 0.000000 0.049313
#
#
# Mechanical properties :
#
#
# Convention : Reuss Voigt Hill
#
# Bulk Modulus (GPa) = 58.83974 58.98595 58.91285
# Shear Modulus (GPa) = 18.62593 18.99178 18.80885
#
# Velocity S-wave (km/s) = 3.41271 3.44606 3.42943
# Velocity P-wave (km/s) = 7.23330 7.26065 7.24699
#
# Compressibility (1/GPa) = 0.01699532
#
# Stress axis : x y z
#
# Youngs Moduli (GPa) = 49.80887 56.69707 49.42303
#
# Poissons Ratio (x) = 0.35307 0.37967
# Poissons Ratio (y) = 0.31018 0.32455
# Poissons Ratio (z) = 0.38263 0.37232
#
# Static dielectric constant tensor:
#      x y z
#    x 2.773400 0.000000 0.000000 
#    y 0.000000 3.290380 0.000000 
#    z 0.000000 0.000000 2.919650 
# 
# 
# High freq. dielectric constant tensor:
#      x y z
#    x 1.569480 0.000000 0.000000 
#    y 0.000000 1.622490 0.000000 
#    z 0.000000 0.000000 1.603720 
# 
# From -- ./inp_files/7965.got.cif
#   From: 2010.03.12/outbox.cif.g09.slc.cpg/sg35_4_cif.got.tgz:7965.got - 2010.04.14 02:02:04.
