data_PCOD8172399
_publ_section_title
;
Structure prediction by ZEFSAII (Michael W. Deem and Ramdas Pophale) SiO2 
 PCOD8172399
Probable space group: C M M 2
;
_chemical_formula_sum "Si O2"
_cell_formula_units_Z 40
_cell_length_a 18.429395
_cell_length_b 10.279301
_cell_length_c 11.455160
_cell_angle_alpha 90.000000
_cell_angle_beta 90.000000
_cell_angle_gamma 90.000000
_cell_volume 2170.080384
_symmetry_space_group_name_H-M "C M M 2"
_symmetry_group_IT_number 35
_symmetry_cell_setting 'orthorhombic'
loop_
_space_group_symop_operation_xyz
x,y,z
-x,-y,z
-x,y,z
x,-y,z
1/2+x,1/2+y,z
1/2-x,1/2-y,z
1/2-x,1/2+y,z
1/2+x,1/2-y,z
loop_
_atom_site_type_symbol
_atom_site_label
_atom_site_fract_x
_atom_site_fract_y
_atom_site_fract_z
Si Si1 0.586531 0.500000 0.937990
Si Si2 0.837900 0.000000 0.188031
Si Si3 0.086080 0.256503 0.807981
Si Si4 0.330508 0.000000 0.188508
Si Si5 0.586225 0.000000 0.952517
Si Si6 0.165820 0.251399 0.338465
Si Si7 0.413849 0.150497 0.557772
O O1 0.500000 0.500000 0.948198
O O2 0.615663 0.623494 0.864700
O O3 0.616971 0.500000 0.068947
O O4 0.753600 0.000000 0.152713
O O5 0.857796 0.124578 0.266220
O O6 0.115881 0.373956 0.885938
O O7 0.113559 0.279867 0.676300
O O8 0.000000 0.256188 0.808290
O O9 0.352701 0.874567 0.260625
O O10 0.381337 0.000000 0.078829
O O11 0.500000 0.000000 0.960601
O O12 0.250000 0.250000 0.373346
O O13 0.119598 0.261887 0.455895
O O14 0.500000 0.154394 0.547720
O O15 0.387023 0.000000 0.553750
#
# Coordination Sequence:
#
# PCOD8172399 Si02
#       7
#     4   4   8   4   4   8   8
#     4  10  20  35  54  76 108 143 175 214 267 328
#     4  10  22  37  52  76 112 147 179 220 269 320
#     4   9  18  33  54  80 108 138 171 219 276 318
#     4  10  20  35  54  76 106 145 185 224 267 316
#     4  10  18  31  54  80 104 137 183 224 263 316
#     4  10  21  37  55  78 111 147 181 221 273 325
#     4  10  19  35  60  85 108 137 183 233 269 314
#
# _framework density 18.432497000000001
#
# number of rings (size 3 to 8) (size 9 to 14) (size 15 to 20)
#    0.000    2.200    2.000    1.200    0.000    2.400 
#    0.000    3.000    0.000    0.000    0.000    0.000 
#    0.000    0.000    0.000    0.000    0.000    0.000 
#
# Total GULP energy -248002.294414 kJ/mol
# GULP energy per Si atom -12400.114721 kJ/mol
# Density = 1.839054 g / cm^3
# Si number density = 18.432497 Si / 1000 Ang^3
#
#
#
# Elastic Constant Matrix: (Units=GPa)
#
#
# Indices 1 2 3 4 5 6 
#
# 1 26.9650 28.2761 42.0637 0.0000 0.0000 0.0000
# 2 28.2761 174.1456 87.3226 0.0000 0.0000 0.0000
# 3 42.0637 87.3226 164.5083 0.0000 0.0000 0.0000
# 4 0.0000 0.0000 0.0000 31.3959 0.0000 0.0000
# 5 0.0000 0.0000 0.0000 0.0000 -40.3669 0.0000
# 6 0.0000 0.0000 0.0000 0.0000 0.0000 14.8749
#
#
#
# Elastic Compliance Matrix: (Units=1/GPa)
#
#
# Indices 1 2 3 4 5 6 
#
# 1 0.062764 -0.002921 -0.014498 0.000000 0.000000 0.000000
# 2 -0.002921 0.007961 -0.003479 0.000000 0.000000 0.000000
# 3 -0.014498 -0.003479 0.011632 0.000000 0.000000 0.000000
# 4 0.000000 0.000000 0.000000 0.031851 0.000000 0.000000
# 5 0.000000 0.000000 0.000000 0.000000 -0.024773 0.000000
# 6 0.000000 0.000000 0.000000 0.000000 0.000000 0.067227
#
#
# Mechanical properties :
#
#
# Convention : Reuss Voigt Hill
#
# Bulk Modulus (GPa) = 24.65387 75.66042 50.15715
# Shear Modulus (GPa) = 23.58718 15.04454 19.31586
#
# Velocity S-wave (km/s) = 3.58110 2.86001 3.24068
# Velocity P-wave (km/s) = 5.52298 7.21406 6.42441
#
# Compressibility (1/GPa) = 0.04056158
#
# Stress axis : x y z
#
# Youngs Moduli (GPa) = 15.93271 125.61111 85.96769
#
# Poissons Ratio (x) = 0.36696 1.24633
# Poissons Ratio (y) = 0.04655 0.29907
# Poissons Ratio (z) = 0.23099 0.43698
#
# Static dielectric constant tensor:
#      x y z
#    x 3.053200 0.000000 0.000000 
#    y 0.000000 3.811930 0.000000 
#    z 0.000000 0.000000 3.449450 
# 
# 
# High freq. dielectric constant tensor:
#      x y z
#    x 1.682160 0.000000 0.000000 
#    y 0.000000 1.730360 0.000000 
#    z 0.000000 0.000000 1.728560 
# 
# From -- ./inp_files/6126.got.cif
#   From: 2010.03.12/outbox.cif.g09.slc.cpg/sg35_4_cif.got.tgz:6126.got - 2010.04.14 02:02:04.
