data_PCOD8172473
_publ_section_title
;
Structure prediction by ZEFSAII (Michael W. Deem and Ramdas Pophale) SiO2 
 PCOD8172473
Probable space group: C M M 2
;
_chemical_formula_sum "Si O2"
_cell_formula_units_Z 56
_cell_length_a 14.468613
_cell_length_b 19.595835
_cell_length_c 9.773114
_cell_angle_alpha 90.000000
_cell_angle_beta 90.000000
_cell_angle_gamma 90.000000
_cell_volume 2770.917779
_symmetry_space_group_name_H-M "C M M 2"
_symmetry_group_IT_number 35
_symmetry_cell_setting 'orthorhombic'
loop_
_space_group_symop_operation_xyz
x,y,z
-x,-y,z
-x,y,z
x,-y,z
1/2+x,1/2+y,z
1/2-x,1/2-y,z
1/2-x,1/2+y,z
1/2+x,1/2-y,z
loop_
_atom_site_type_symbol
_atom_site_label
_atom_site_fract_x
_atom_site_fract_y
_atom_site_fract_z
Si Si1 0.900910 0.075806 0.500000
Si Si2 0.289693 0.853362 0.923412
Si Si3 0.787056 0.419399 0.634945
Si Si4 0.154102 0.335538 0.382316
Si Si5 0.393362 0.715128 0.993970
Si Si6 0.899294 0.424102 0.143789
Si Si7 0.859505 0.191690 0.308839
O O1 0.821112 0.095857 0.606448
O O2 0.910605 0.126626 0.371752
O O3 0.000000 0.076979 0.577585
O O4 0.880377 0.000000 0.441016
O O5 0.313411 0.888230 0.779925
O O6 0.355175 0.788015 0.945048
O O7 0.179284 0.839381 0.931631
O O8 0.316942 0.906348 0.040723
O O9 0.810363 0.500000 0.629354
O O10 0.845596 0.377463 0.523254
O O11 0.092322 0.376155 0.275607
O O12 0.117158 0.258149 0.403803
O O13 0.252293 0.327075 0.307810
O O14 0.500000 0.704396 0.942849
O O15 0.393595 0.708933 0.157349
O O16 0.878850 0.500000 0.197472
O O17 0.000000 0.419561 0.070193
#
# Coordination Sequence:
#
# PCOD8172473 Si02
#       7
#     8   8   8   8   8   8   8
#     4   9  19  35  57  88 124 162 204 250 308 375
#     4  11  22  40  59  88 124 165 205 254 309 371
#     4  10  22  39  60  84 121 167 205 253 311 365
#     4  10  19  37  61  90 116 154 204 256 311 362
#     4  11  22  38  62  91 123 160 206 263 314 364
#     4  11  22  37  61  89 118 161 211 255 309 371
#     4  10  18  34  61  92 122 156 195 260 316 361
#
# _framework density 20.209911000000002
#
# number of rings (size 3 to 8) (size 9 to 14) (size 15 to 20)
#    0.000    1.714    2.857    2.571    0.000    6.286 
#    0.000    1.429    0.000    5.571    0.000    0.000 
#    0.000    0.000    0.000    0.000    0.000    0.000 
#
# Total GULP energy -346994.014938 kJ/mol
# GULP energy per Si atom -12392.643391 kJ/mol
# Density = 2.016391 g / cm^3
# Si number density = 20.209911 Si / 1000 Ang^3
#
#
#
# Elastic Constant Matrix: (Units=GPa)
#
#
# Indices 1 2 3 4 5 6 
#
# 1 89.3692 32.8980 20.2166 0.0000 0.0000 0.0000
# 2 32.8980 125.7340 52.9378 0.0000 0.0000 0.0000
# 3 20.2166 52.9378 112.9776 0.0000 0.0000 0.0000
# 4 0.0000 0.0000 0.0000 25.6061 0.0000 0.0000
# 5 0.0000 0.0000 0.0000 0.0000 8.9642 0.0000
# 6 0.0000 0.0000 0.0000 0.0000 0.0000 18.6072
#
#
#
# Elastic Compliance Matrix: (Units=1/GPa)
#
#
# Indices 1 2 3 4 5 6 
#
# 1 0.012451 -0.002890 -0.000874 0.000000 0.000000 0.000000
# 2 -0.002890 0.010579 -0.004440 0.000000 0.000000 0.000000
# 3 -0.000874 -0.004440 0.011088 0.000000 0.000000 0.000000
# 4 0.000000 0.000000 0.000000 0.039053 0.000000 0.000000
# 5 0.000000 0.000000 0.000000 0.000000 0.111555 0.000000
# 6 0.000000 0.000000 0.000000 0.000000 0.000000 0.053743
#
#
# Mechanical properties :
#
#
# Convention : Reuss Voigt Hill
#
# Bulk Modulus (GPa) = 56.46297 60.02063 58.24180
# Shear Modulus (GPa) = 19.17335 25.43740 22.30538
#
# Velocity S-wave (km/s) = 3.08346 3.55161 3.32578
# Velocity P-wave (km/s) = 6.37776 6.82507 6.60521
#
# Compressibility (1/GPa) = 0.01771072
#
# Stress axis : x y z
#
# Youngs Moduli (GPa) = 80.31467 94.52983 90.18747
#
# Poissons Ratio (x) = 0.27317 0.07882
# Poissons Ratio (y) = 0.23210 0.40041
# Poissons Ratio (z) = 0.07019 0.41969
#
# Static dielectric constant tensor:
#      x y z
#    x 3.813780 0.000000 0.000000 
#    y 0.000000 3.953690 0.000000 
#    z 0.000000 0.000000 3.342250 
# 
# 
# High freq. dielectric constant tensor:
#      x y z
#    x 1.791580 0.000000 0.000000 
#    y 0.000000 1.803210 0.000000 
#    z 0.000000 0.000000 1.758700 
# 
# From -- ./inp_files/7594.got.cif
#   From: 2010.03.12/outbox.cif.g09.slc.cpg/sg35_4_cif.got.tgz:7594.got - 2010.04.14 02:02:04.
