data_PCOD8172744
_publ_section_title
;
Structure prediction by ZEFSAII (Michael W. Deem and Ramdas Pophale) SiO2 
 PCOD8172744
Probable space group: C M M 2
;
_chemical_formula_sum "Si O2"
_cell_formula_units_Z 64
_cell_length_a 28.905452
_cell_length_b 9.392375
_cell_length_c 12.456012
_cell_angle_alpha 90.000000
_cell_angle_beta 90.000000
_cell_angle_gamma 90.000000
_cell_volume 3381.693220
_symmetry_space_group_name_H-M "C M M 2"
_symmetry_group_IT_number 35
_symmetry_cell_setting 'orthorhombic'
loop_
_space_group_symop_operation_xyz
x,y,z
-x,-y,z
-x,y,z
x,-y,z
1/2+x,1/2+y,z
1/2-x,1/2-y,z
1/2-x,1/2+y,z
1/2+x,1/2-y,z
loop_
_atom_site_type_symbol
_atom_site_label
_atom_site_fract_x
_atom_site_fract_y
_atom_site_fract_z
Si Si1 0.108845 0.832275 0.120710
Si Si2 0.793719 0.666615 0.579445
Si Si3 0.554048 0.331436 0.327556
Si Si4 0.079802 0.657642 0.750600
Si Si5 0.105115 0.667637 0.514157
Si Si6 0.183000 0.340129 0.820087
Si Si7 0.294156 0.331159 0.030043
Si Si8 0.949128 0.157309 0.929076
O O1 0.084796 0.772261 0.228076
O O2 0.100177 0.000000 0.118713
O O3 0.163136 0.794769 0.109890
O O4 0.083423 0.765534 0.016699
O O5 0.784956 0.500000 0.566964
O O6 0.750000 0.750000 0.528979
O O7 0.840370 0.709158 0.514728
O O8 0.797392 0.708083 0.704824
O O9 0.500000 0.289526 0.313179
O O10 0.559304 0.500000 0.341383
O O11 0.575664 0.256577 0.430424
O O12 0.058489 0.500000 0.751391
O O13 0.084241 0.710619 0.629098
O O14 0.128165 0.659421 0.812486
O O15 0.046596 0.760060 0.816981
O O16 0.099485 0.500000 0.492005
O O17 0.200346 0.500000 0.850271
O O18 0.198625 0.227272 0.909421
O O19 0.285934 0.500000 0.023597
O O20 0.250000 0.250000 0.080680
O O21 0.000000 0.148591 0.980426
O O22 0.929656 0.000000 0.903134
#
# Coordination Sequence:
#
# PCOD8172744 Si02
#       8
#     8   8   8   8   8   8   8   8
#     4   9  19  37  57  78 107 141 177 222 276 325
#     4   9  18  32  51  77 110 147 184 220 264 318
#     4  10  21  39  63  85 103 133 184 238 280 323
#     4   9  18  33  52  75 111 150 178 214 266 324
#     4   9  20  38  56  78 111 147 181 221 274 330
#     4   9  17  31  50  75 108 146 184 220 259 309
#     4  11  21  33  52  78 109 145 182 218 264 322
#     4  10  19  32  53  80 108 139 177 220 269 328
#
# _framework density 18.925432000000001
#
# number of rings (size 3 to 8) (size 9 to 14) (size 15 to 20)
#    0.000    2.500    1.250    2.625    0.000    5.000 
#    0.000    7.500    0.000    4.500    0.000    0.000 
#    0.000    0.000    0.000    0.000    0.000    0.000 
#
# Total GULP energy -396622.311456 kJ/mol
# GULP energy per Si atom -12394.447233 kJ/mol
# Density = 1.888236 g / cm^3
# Si number density = 18.925432 Si / 1000 Ang^3
#
#
#
# Elastic Constant Matrix: (Units=GPa)
#
#
# Indices 1 2 3 4 5 6 
#
# 1 129.0776 48.7004 63.9228 0.0000 0.0000 0.0000
# 2 48.7004 63.1393 45.8916 0.0000 0.0000 0.0000
# 3 63.9228 45.8916 108.6432 0.0000 0.0000 0.0000
# 4 0.0000 0.0000 0.0000 18.6233 0.0000 0.0000
# 5 0.0000 0.0000 0.0000 0.0000 25.4760 0.0000
# 6 0.0000 0.0000 0.0000 0.0000 0.0000 29.4800
#
#
#
# Elastic Compliance Matrix: (Units=1/GPa)
#
#
# Indices 1 2 3 4 5 6 
#
# 1 0.012391 -0.006145 -0.004695 0.000000 0.000000 0.000000
# 2 -0.006145 0.025902 -0.007326 0.000000 0.000000 0.000000
# 3 -0.004695 -0.007326 0.015061 0.000000 0.000000 0.000000
# 4 0.000000 0.000000 0.000000 0.053696 0.000000 0.000000
# 5 0.000000 0.000000 0.000000 0.000000 0.039253 0.000000
# 6 0.000000 0.000000 0.000000 0.000000 0.000000 0.033921
#
#
# Mechanical properties :
#
#
# Convention : Reuss Voigt Hill
#
# Bulk Modulus (GPa) = 58.74301 68.65443 63.69872
# Shear Modulus (GPa) = 22.49929 24.20555 23.35242
#
# Velocity S-wave (km/s) = 3.45169 3.58019 3.51653
# Velocity P-wave (km/s) = 6.85508 7.31063 7.08652
#
# Compressibility (1/GPa) = 0.01702330
#
# Stress axis : x y z
#
# Youngs Moduli (GPa) = 80.70603 38.60671 66.39589
#
# Poissons Ratio (x) = 0.23723 0.31171
# Poissons Ratio (y) = 0.49593 0.48640
# Poissons Ratio (z) = 0.37889 0.28283
#
# Static dielectric constant tensor:
#      x y z
#    x 3.641280 0.000000 0.000000 
#    y 0.000000 3.291410 0.000000 
#    z 0.000000 0.000000 3.312670 
# 
# 
# High freq. dielectric constant tensor:
#      x y z
#    x 1.747910 0.000000 0.000000 
#    y 0.000000 1.716670 0.000000 
#    z 0.000000 0.000000 1.714280 
# 
# From -- ./inp_files/14572.got.cif
#   From: 2010.03.12/outbox.cif.g09.slc.cpg/sg35_8_cif.got.tgz:14572.got - 2010.04.14 02:02:04.
