data_PCOD8172368
_publ_section_title
;
Structure prediction by ZEFSAII (Michael W. Deem and Ramdas Pophale) SiO2 
 PCOD8172368
Probable space group: C M M 2
;
_chemical_formula_sum "Si O2"
_cell_formula_units_Z 48
_cell_length_a 28.341775
_cell_length_b 8.596644
_cell_length_c 10.429705
_cell_angle_alpha 90.000000
_cell_angle_beta 90.000000
_cell_angle_gamma 90.000000
_cell_volume 2541.136610
_symmetry_space_group_name_H-M "C M M 2"
_symmetry_group_IT_number 35
_symmetry_cell_setting 'orthorhombic'
loop_
_space_group_symop_operation_xyz
x,y,z
-x,-y,z
-x,y,z
x,-y,z
1/2+x,1/2+y,z
1/2-x,1/2-y,z
1/2-x,1/2+y,z
1/2+x,1/2-y,z
loop_
_atom_site_type_symbol
_atom_site_label
_atom_site_fract_x
_atom_site_fract_y
_atom_site_fract_z
Si Si1 0.052826 0.185405 0.252810
Si Si2 0.395693 0.316070 0.002171
Si Si3 0.299823 0.816266 0.395292
Si Si4 0.446307 0.314571 0.749393
Si Si5 0.109139 0.815146 0.499619
Si Si6 0.200804 0.816647 0.116089
O O1 0.076699 0.252907 0.124455
O O2 0.080763 0.246183 0.376300
O O3 0.000000 0.250823 0.260247
O O4 0.053070 0.000000 0.251396
O O5 0.401921 0.500000 0.000845
O O6 0.340324 0.272167 0.015127
O O7 0.418299 0.246692 0.872618
O O8 0.250000 0.750000 0.443701
O O9 0.339098 0.760656 0.496574
O O10 0.312151 0.752762 0.254221
O O11 0.297091 0.000000 0.389972
O O12 0.500000 0.250909 0.749050
O O13 0.447143 0.500000 0.751694
O O14 0.418820 0.254816 0.624167
O O15 0.114325 0.000000 0.500512
O O16 0.250000 0.750000 0.062216
O O17 0.205206 0.000000 0.134173
#
# Coordination Sequence:
#
# PCOD8172368 Si02
#       6
#     8   8   8   8   8   8
#     4   9  15  24  43  71 101 132 169 214 256 295
#     4   9  16  27  45  73 107 136 169 214 260 300
#     4  11  21  34  54  78 104 135 171 214 263 314
#     4   9  17  29  48  76 108 141 176 215 257 301
#     4  10  18  31  50  77 108 136 170 213 259 307
#     4  10  18  31  51  77 106 136 169 214 265 312
#
# _framework density 18.889185000000001
#
# number of rings (size 3 to 8) (size 9 to 14) (size 15 to 20)
#    0.000    2.333    1.667    4.000    0.000    4.000 
#    0.000    0.833    0.000    6.000    0.000    0.000 
#    0.000    0.000    0.000    0.000    0.000    0.000 
#
# Total GULP energy -297566.668248 kJ/mol
# GULP energy per Si atom -12398.611177 kJ/mol
# Density = 1.884619 g / cm^3
# Si number density = 18.889185 Si / 1000 Ang^3
#
#
#
# Elastic Constant Matrix: (Units=GPa)
#
#
# Indices 1 2 3 4 5 6 
#
# 1 191.7189 35.3188 97.8339 0.0000 0.0000 0.0000
# 2 35.3188 53.3315 21.1247 0.0000 0.0000 0.0000
# 3 97.8339 21.1247 153.4515 0.0000 0.0000 0.0000
# 4 0.0000 0.0000 0.0000 9.2161 0.0000 0.0000
# 5 0.0000 0.0000 0.0000 0.0000 38.7291 0.0000
# 6 0.0000 0.0000 0.0000 0.0000 0.0000 23.0050
#
#
#
# Elastic Compliance Matrix: (Units=1/GPa)
#
#
# Indices 1 2 3 4 5 6 
#
# 1 0.008342 -0.003615 -0.004821 0.000000 0.000000 0.000000
# 2 -0.003615 0.021399 -0.000641 0.000000 0.000000 0.000000
# 3 -0.004821 -0.000641 0.009679 0.000000 0.000000 0.000000
# 4 0.000000 0.000000 0.000000 0.108506 0.000000 0.000000
# 5 0.000000 0.000000 0.000000 0.000000 0.025820 0.000000
# 6 0.000000 0.000000 0.000000 0.000000 0.000000 0.043469
#
#
# Mechanical properties :
#
#
# Convention : Reuss Voigt Hill
#
# Bulk Modulus (GPa) = 47.02482 78.56184 62.79333
# Shear Modulus (GPa) = 20.62225 30.47167 25.54696
#
# Velocity S-wave (km/s) = 3.30775 4.02080 3.68158
# Velocity P-wave (km/s) = 6.28788 7.95217 7.16849
#
# Compressibility (1/GPa) = 0.02126536
#
# Stress axis : x y z
#
# Youngs Moduli (GPa) = 119.87559 46.73213 103.32157
#
# Poissons Ratio (x) = 0.16893 0.49810
# Poissons Ratio (y) = 0.43334 0.06624
# Poissons Ratio (z) = 0.57790 0.02996
#
# Static dielectric constant tensor:
#      x y z
#    x 3.781680 0.000000 0.000000 
#    y 0.000000 2.939980 0.000000 
#    z 0.000000 0.000000 3.511370 
# 
# 
# High freq. dielectric constant tensor:
#      x y z
#    x 1.754810 0.000000 0.000000 
#    y 0.000000 1.683480 0.000000 
#    z 0.000000 0.000000 1.718760 
# 
# From -- ./inp_files/14386.got.cif
#   From: 2010.03.12/outbox.cif.g09.slc.cpg/sg35_8_cif.got.tgz:14386.got - 2010.04.14 02:02:04.
