data_PCOD8172817
_publ_section_title
;
Structure prediction by ZEFSAII (Michael W. Deem and Ramdas Pophale) SiO2 
 PCOD8172817
Probable space group: C M M 2
;
_chemical_formula_sum "Si O2"
_cell_formula_units_Z 64
_cell_length_a 8.978071
_cell_length_b 19.032383
_cell_length_c 20.480272
_cell_angle_alpha 90.000000
_cell_angle_beta 90.000000
_cell_angle_gamma 90.000000
_cell_volume 3499.547756
_symmetry_space_group_name_H-M "C M M 2"
_symmetry_group_IT_number 35
_symmetry_cell_setting 'orthorhombic'
loop_
_space_group_symop_operation_xyz
x,y,z
-x,-y,z
-x,y,z
x,-y,z
1/2+x,1/2+y,z
1/2-x,1/2-y,z
1/2-x,1/2+y,z
1/2+x,1/2-y,z
loop_
_atom_site_type_symbol
_atom_site_label
_atom_site_fract_x
_atom_site_fract_y
_atom_site_fract_z
Si Si1 0.823648 0.677487 0.679610
Si Si2 0.173253 0.679445 0.828059
Si Si3 0.175443 0.826028 0.051355
Si Si4 0.329246 0.417057 0.576500
Si Si5 0.670224 0.677712 0.193185
Si Si6 0.674529 0.080589 0.943724
Si Si7 0.827272 0.582552 0.444160
Si Si8 0.824628 0.826294 0.334811
O O1 0.750000 0.750000 0.655920
O O2 0.777317 0.661456 0.754364
O O3 0.758101 0.614583 0.637459
O O4 0.000000 0.681999 0.670289
O O5 0.250000 0.750000 0.854296
O O6 0.218693 0.615027 0.874476
O O7 0.000000 0.694881 0.830869
O O8 0.250000 0.750000 0.041180
O O9 0.213726 0.858517 0.123987
O O10 0.000000 0.817098 0.040133
O O11 0.237678 0.882167 0.001315
O O12 0.500000 0.391669 0.576180
O O13 0.316858 0.500000 0.583492
O O14 0.251593 0.391039 0.510132
O O15 0.500000 0.698013 0.189147
O O16 0.750000 0.750000 0.198525
O O17 0.702832 0.638651 0.262187
O O18 0.500000 0.088379 0.957567
O O19 0.724672 0.000000 0.940535
O O20 0.804404 0.500000 0.434429
O O21 0.750289 0.620236 0.383971
O O22 0.000000 0.603219 0.447883
O O23 0.750000 0.750000 0.341658
O O24 0.000000 0.819076 0.349697
#
# Coordination Sequence:
#
# PCOD8172817 Si02
#       8
#     8   8   8   8   8   8   8   8
#     4  10  20  35  56  81 108 136 169 211 258 306
#     4   9  19  35  55  77 102 135 172 211 255 306
#     4  10  19  33  54  78 103 134 174 215 258 309
#     4  10  21  37  56  78 105 137 173 213 257 306
#     4   8  16  30  49  74 102 132 167 210 257 306
#     4  10  21  36  52  74 106 140 174 214 259 305
#     4  10  21  37  55  76 104 138 176 215 255 304
#     4  10  19  33  54  79 106 135 170 213 261 309
#
# _framework density 18.288077000000001
#
# number of rings (size 3 to 8) (size 9 to 14) (size 15 to 20)
#    0.000    2.375    0.000    2.250    0.000    5.750 
#    0.000    4.375    0.000    3.750    0.000    0.000 
#    0.000    0.000    0.000    0.000    0.000    0.000 
#
# Total GULP energy -396638.091557 kJ/mol
# GULP energy per Si atom -12394.940361 kJ/mol
# Density = 1.824645 g / cm^3
# Si number density = 18.288077 Si / 1000 Ang^3
#
#
#
# Elastic Constant Matrix: (Units=GPa)
#
#
# Indices 1 2 3 4 5 6 
#
# 1 92.9888 47.4043 64.0130 0.0000 0.0000 0.0000
# 2 47.4043 78.9734 67.3410 0.0000 0.0000 0.0000
# 3 64.0130 67.3410 141.8824 0.0000 0.0000 0.0000
# 4 0.0000 0.0000 0.0000 -11.1200 0.0000 0.0000
# 5 0.0000 0.0000 0.0000 0.0000 32.3723 0.0000
# 6 0.0000 0.0000 0.0000 0.0000 0.0000 30.1833
#
#
#
# Elastic Compliance Matrix: (Units=1/GPa)
#
#
# Indices 1 2 3 4 5 6 
#
# 1 0.017258 -0.006249 -0.004820 0.000000 0.000000 0.000000
# 2 -0.006249 0.023534 -0.008351 0.000000 0.000000 0.000000
# 3 -0.004820 -0.008351 0.013186 0.000000 0.000000 0.000000
# 4 0.000000 0.000000 0.000000 -0.089928 0.000000 0.000000
# 5 0.000000 0.000000 0.000000 0.000000 0.030891 0.000000
# 6 0.000000 0.000000 0.000000 0.000000 0.000000 0.033131
#
#
# Mechanical properties :
#
#
# Convention : Reuss Voigt Hill
#
# Bulk Modulus (GPa) = 66.05611 74.59568 70.32589
# Shear Modulus (GPa) = 69.48596 19.29288 44.38942
#
# Velocity S-wave (km/s) = 6.17071 3.25151 4.93204
# Velocity P-wave (km/s) = 9.32569 7.41446 8.42445
#
# Compressibility (1/GPa) = 0.01513865
#
# Stress axis : x y z
#
# Youngs Moduli (GPa) = 57.94465 42.49193 75.83647
#
# Poissons Ratio (x) = 0.26552 0.36556
# Poissons Ratio (y) = 0.36208 0.63327
# Poissons Ratio (z) = 0.27932 0.35483
#
# Static dielectric constant tensor:
#      x y z
#    x 3.527670 0.000000 0.000000 
#    y 0.000000 3.135000 0.000000 
#    z 0.000000 0.000000 3.922340 
# 
# 
# High freq. dielectric constant tensor:
#      x y z
#    x 1.720740 0.000000 0.000000 
#    y 0.000000 1.682470 0.000000 
#    z 0.000000 0.000000 1.729210 
# 
# From -- ./inp_files/18316.got.cif
#   From: 2010.03.12/outbox.cif.g09.slc.cpg/sg35_10_cif.got.tgz:18316.got - 2010.04.14 02:02:04.
