data_PCOD8172932
_publ_section_title
;
Structure prediction by ZEFSAII (Michael W. Deem and Ramdas Pophale) SiO2 
 PCOD8172932
Probable space group: C M M 2
;
_chemical_formula_sum "Si O2"
_cell_formula_units_Z 40
_cell_length_a 25.725137
_cell_length_b 8.495691
_cell_length_c 9.179154
_cell_angle_alpha 90.000000
_cell_angle_beta 90.000000
_cell_angle_gamma 90.000000
_cell_volume 2006.129945
_symmetry_space_group_name_H-M "C M M 2"
_symmetry_group_IT_number 35
_symmetry_cell_setting 'orthorhombic'
loop_
_space_group_symop_operation_xyz
x,y,z
-x,-y,z
-x,y,z
x,-y,z
1/2+x,1/2+y,z
1/2-x,1/2-y,z
1/2-x,1/2+y,z
1/2+x,1/2-y,z
loop_
_atom_site_type_symbol
_atom_site_label
_atom_site_fract_x
_atom_site_fract_y
_atom_site_fract_z
Si Si1 0.599466 0.813381 0.872350
Si Si2 0.000000 0.185119 0.036018
Si Si3 0.597748 0.813564 0.543205
Si Si4 0.000000 0.687463 0.356536
Si Si5 0.805467 0.313695 0.361775
Si Si6 0.694678 0.685351 0.045148
O O1 0.550668 0.762150 0.966890
O O2 0.591502 0.751981 0.707675
O O3 0.605753 0.000000 0.880793
O O4 0.651585 0.733197 0.929407
O O5 0.000000 0.220535 0.206126
O O6 0.000000 0.000000 0.007630
O O7 0.549847 0.754067 0.446673
O O8 0.651269 0.749543 0.473689
O O9 0.597951 0.000000 0.543843
O O10 0.000000 0.500000 0.329413
O O11 0.803692 0.500000 0.358989
O O12 0.750000 0.250000 0.414714
O O13 0.820314 0.255742 0.201374
O O14 0.698318 0.500000 0.060574
O O15 0.750000 0.750000 0.990114
#
# Coordination Sequence:
#
# PCOD8172932 Si02
#       6
#     8   4   8   4   8   8
#     4  11  22  40  62  86 116 154 192 237 290 343
#     4  12  25  40  58  88 120 152 193 238 284 342
#     4   9  20  36  59  86 112 143 189 237 286 342
#     4  10  19  38  64  86 108 146 191 236 286 342
#     4  10  19  35  57  84 114 150 192 237 283 338
#     4  11  22  38  59  87 118 154 196 240 284 339
#
# _framework density 19.938886
#
# number of rings (size 3 to 8) (size 9 to 14) (size 15 to 20)
#    0.000    1.600    0.000    6.900    0.000    4.000 
#    0.000   10.000    0.000    0.000    0.000    0.000 
#    0.000    0.000    0.000    0.000    0.000    0.000 
#
# Total GULP energy -248072.233135 kJ/mol
# GULP energy per Si atom -12403.611657 kJ/mol
# Density = 1.989350 g / cm^3
# Si number density = 19.938886 Si / 1000 Ang^3
#
#
#
# Elastic Constant Matrix: (Units=GPa)
#
#
# Indices 1 2 3 4 5 6 
#
# 1 158.2591 23.3791 82.7162 0.0000 0.0000 0.0000
# 2 23.3791 62.6314 4.5004 0.0000 0.0000 0.0000
# 3 82.7162 4.5004 129.4795 0.0000 0.0000 0.0000
# 4 0.0000 0.0000 0.0000 20.1310 0.0000 0.0000
# 5 0.0000 0.0000 0.0000 0.0000 26.5727 0.0000
# 6 0.0000 0.0000 0.0000 0.0000 0.0000 33.7187
#
#
#
# Elastic Compliance Matrix: (Units=1/GPa)
#
#
# Indices 1 2 3 4 5 6 
#
# 1 0.010133 -0.003326 -0.006358 0.000000 0.000000 0.000000
# 2 -0.003326 0.017098 0.001530 0.000000 0.000000 0.000000
# 3 -0.006358 0.001530 0.011732 0.000000 0.000000 0.000000
# 4 0.000000 0.000000 0.000000 0.049675 0.000000 0.000000
# 5 0.000000 0.000000 0.000000 0.000000 0.037633 0.000000
# 6 0.000000 0.000000 0.000000 0.000000 0.000000 0.029657
#
#
# Mechanical properties :
#
#
# Convention : Reuss Voigt Hill
#
# Bulk Modulus (GPa) = 44.13795 63.50682 53.82238
# Shear Modulus (GPa) = 27.81099 32.06944 29.94022
#
# Velocity S-wave (km/s) = 3.73877 4.01482 3.87925
# Velocity P-wave (km/s) = 6.38925 7.30832 6.86419
#
# Compressibility (1/GPa) = 0.02265624
#
# Stress axis : x y z
#
# Youngs Moduli (GPa) = 98.68759 58.48687 85.23987
#
# Poissons Ratio (x) = 0.19450 0.54193
# Poissons Ratio (y) = 0.32820 -0.13044
# Poissons Ratio (z) = 0.62743 -0.08950
#
# Static dielectric constant tensor:
#      x y z
#    x 3.943120 0.000000 0.000000 
#    y 0.000000 3.510990 0.000000 
#    z 0.000000 0.000000 3.825800 
# 
# 
# High freq. dielectric constant tensor:
#      x y z
#    x 1.796910 0.000000 0.000000 
#    y 0.000000 1.769230 0.000000 
#    z 0.000000 0.000000 1.783460 
# 
# From -- ./inp_files/5004.got.cif
#   From: 2010.03.12/outbox.cif.g09.slc.cpg/sg35_3_cif.got.tgz:5004.got - 2010.04.14 02:02:04.
