data_PCOD8172589
_publ_section_title
;
Structure prediction by ZEFSAII (Michael W. Deem and Ramdas Pophale) SiO2 
 PCOD8172589
Probable space group: C M M 2
;
_chemical_formula_sum "Si O2"
_cell_formula_units_Z 64
_cell_length_a 28.936675
_cell_length_b 9.261086
_cell_length_c 12.625099
_cell_angle_alpha 90.000000
_cell_angle_beta 90.000000
_cell_angle_gamma 90.000000
_cell_volume 3383.337607
_symmetry_space_group_name_H-M "C M M 2"
_symmetry_group_IT_number 35
_symmetry_cell_setting 'orthorhombic'
loop_
_space_group_symop_operation_xyz
x,y,z
-x,-y,z
-x,y,z
x,-y,z
1/2+x,1/2+y,z
1/2-x,1/2-y,z
1/2-x,1/2+y,z
1/2+x,1/2-y,z
loop_
_atom_site_type_symbol
_atom_site_label
_atom_site_fract_x
_atom_site_fract_y
_atom_site_fract_z
Si Si1 0.581599 0.160138 0.833740
Si Si2 0.204944 0.331023 0.141105
Si Si3 0.685955 0.838848 0.901366
Si Si4 0.050323 0.668352 0.048283
Si Si5 0.946006 0.170327 0.419974
Si Si6 0.390501 0.829234 0.237675
Si Si7 0.895535 0.831416 0.635655
Si Si8 0.706353 0.329517 0.697024
O O1 0.632176 0.151368 0.881784
O O2 0.576815 0.257335 0.730536
O O3 0.563771 0.000000 0.803020
O O4 0.552511 0.233695 0.929465
O O5 0.214378 0.500000 0.142646
O O6 0.250000 0.250000 0.184532
O O7 0.163649 0.293033 0.223412
O O8 0.194342 0.281362 0.020602
O O9 0.706850 0.724017 0.818986
O O10 0.707448 0.000000 0.884671
O O11 0.061673 0.500000 0.034149
O O12 0.086370 0.733944 0.130904
O O13 0.000000 0.696560 0.097271
O O14 0.914510 0.249148 0.334301
O O15 0.921817 0.215275 0.529748
O O16 0.000000 0.220132 0.417716
O O17 0.942900 0.000000 0.401134
O O18 0.399211 0.000000 0.251094
O O19 0.841256 0.784332 0.636992
O O20 0.898822 0.000000 0.655525
O O21 0.713925 0.500000 0.693373
O O22 0.750000 0.250000 0.639916
#
# Coordination Sequence:
#
# PCOD8172589 Si02
#       8
#     8   8   8   8   8   8   8   8
#     4   9  16  29  50  77 109 142 174 213 259 312
#     4  10  20  33  51  77 110 146 183 220 266 321
#     4   9  16  29  48  72 107 146 179 213 255 308
#     4   9  16  28  50  79 109 140 170 208 267 326
#     4  10  22  41  62  81 104 139 182 228 279 330
#     4  10  20  37  58  81 109 141 181 228 272 321
#     4   9  20  37  54  75 106 141 176 218 269 321
#     4  10  19  31  49  75 106 141 180 217 260 314
#
# _framework density 18.916232999999998
#
# number of rings (size 3 to 8) (size 9 to 14) (size 15 to 20)
#    0.000    2.500    1.250    1.125    0.000    4.250 
#    0.000    1.250    0.000    3.750    0.000    0.000 
#    0.000    0.000    0.000    0.000    0.000    0.000 
#
# Total GULP energy -396566.254468 kJ/mol
# GULP energy per Si atom -12392.695452 kJ/mol
# Density = 1.887318 g / cm^3
# Si number density = 18.916233 Si / 1000 Ang^3
#
#
#
# Elastic Constant Matrix: (Units=GPa)
#
#
# Indices 1 2 3 4 5 6 
#
# 1 119.2673 41.7211 72.5873 0.0000 0.0000 0.0000
# 2 41.7211 44.0679 42.7864 0.0000 0.0000 0.0000
# 3 72.5873 42.7864 128.0422 0.0000 0.0000 0.0000
# 4 0.0000 0.0000 0.0000 23.5287 0.0000 0.0000
# 5 0.0000 0.0000 0.0000 0.0000 22.5305 0.0000
# 6 0.0000 0.0000 0.0000 0.0000 0.0000 15.5083
#
#
#
# Elastic Compliance Matrix: (Units=1/GPa)
#
#
# Indices 1 2 3 4 5 6 
#
# 1 0.014734 -0.008644 -0.005464 0.000000 0.000000 0.000000
# 2 -0.008644 0.038662 -0.008019 0.000000 0.000000 0.000000
# 3 -0.005464 -0.008019 0.013587 0.000000 0.000000 0.000000
# 4 0.000000 0.000000 0.000000 0.042501 0.000000 0.000000
# 5 0.000000 0.000000 0.000000 0.000000 0.044384 0.000000
# 6 0.000000 0.000000 0.000000 0.000000 0.000000 0.064482
#
#
# Mechanical properties :
#
#
# Convention : Reuss Voigt Hill
#
# Bulk Modulus (GPa) = 43.99738 67.28520 55.64129
# Shear Modulus (GPa) = 18.50620 21.26567 19.88593
#
# Velocity S-wave (km/s) = 3.13121 3.35655 3.24584
# Velocity P-wave (km/s) = 6.03176 7.11823 6.59740
#
# Compressibility (1/GPa) = 0.02272863
#
# Stress axis : x y z
#
# Youngs Moduli (GPa) = 67.87102 25.86550 73.59898
#
# Poissons Ratio (x) = 0.22358 0.40216
# Poissons Ratio (y) = 0.58667 0.59018
# Poissons Ratio (z) = 0.37086 0.20741
#
# Static dielectric constant tensor:
#      x y z
#    x 3.712580 0.000000 0.000000 
#    y 0.000000 3.268430 0.000000 
#    z 0.000000 0.000000 3.415490 
# 
# 
# High freq. dielectric constant tensor:
#      x y z
#    x 1.748610 0.000000 0.000000 
#    y 0.000000 1.710390 0.000000 
#    z 0.000000 0.000000 1.717650 
# 
# From -- ./inp_files/14586.got.cif
#   From: 2010.03.12/outbox.cif.g09.slc.cpg/sg35_8_cif.got.tgz:14586.got - 2010.04.14 02:02:04.
