data_PCOD8172609
_publ_section_title
;
Structure prediction by ZEFSAII (Michael W. Deem and Ramdas Pophale) SiO2 
 PCOD8172609
Probable space group: C M M 2
;
_chemical_formula_sum "Si O2"
_cell_formula_units_Z 64
_cell_length_a 29.284370
_cell_length_b 8.735361
_cell_length_c 12.488009
_cell_angle_alpha 90.000000
_cell_angle_beta 90.000000
_cell_angle_gamma 90.000000
_cell_volume 3194.551883
_symmetry_space_group_name_H-M "C M M 2"
_symmetry_group_IT_number 35
_symmetry_cell_setting 'orthorhombic'
loop_
_space_group_symop_operation_xyz
x,y,z
-x,-y,z
-x,y,z
x,-y,z
1/2+x,1/2+y,z
1/2-x,1/2-y,z
1/2-x,1/2+y,z
1/2+x,1/2-y,z
loop_
_atom_site_type_symbol
_atom_site_label
_atom_site_fract_x
_atom_site_fract_y
_atom_site_fract_z
Si Si1 0.586213 0.320226 0.857010
Si Si2 0.203037 0.319686 0.147467
Si Si3 0.680392 0.820824 0.907063
Si Si4 0.050213 0.674188 0.045137
Si Si5 0.947927 0.182666 0.419494
Si Si6 0.388419 0.680311 0.219136
Si Si7 0.893609 0.820727 0.622350
Si Si8 0.704616 0.319489 0.689840
O O1 0.594399 0.500000 0.874377
O O2 0.627809 0.223742 0.904725
O O3 0.578649 0.285439 0.731483
O O4 0.544879 0.253593 0.927698
O O5 0.203338 0.500000 0.161339
O O6 0.250000 0.250000 0.193287
O O7 0.161581 0.254953 0.219028
O O8 0.199079 0.271401 0.023049
O O9 0.706103 0.726332 0.814828
O O10 0.687119 0.000000 0.885229
O O11 0.068171 0.500000 0.037473
O O12 0.085152 0.774711 0.112317
O O13 0.000000 0.678361 0.097877
O O14 0.918485 0.241258 0.318797
O O15 0.922248 0.251075 0.524498
O O16 0.000000 0.246198 0.414058
O O17 0.949532 0.000000 0.422954
O O18 0.382245 0.500000 0.224805
O O19 0.841674 0.754977 0.633172
O O20 0.889257 0.000000 0.602873
O O21 0.706076 0.500000 0.680637
O O22 0.750000 0.250000 0.633520
#
# Coordination Sequence:
#
# PCOD8172609 Si02
#       8
#     8   8   8   8   8   8   8   8
#     4  10  19  32  54  83 116 151 188 232 280 339
#     4  11  23  37  56  82 115 154 193 233 284 340
#     4  10  19  32  52  78 113 154 190 228 277 334
#     4  11  23  37  54  79 115 156 192 233 289 347
#     4   9  18  35  60  87 112 143 188 241 293 341
#     4  11  22  37  60  86 114 146 190 244 290 342
#     4   8  17  33  53  81 115 146 180 232 289 340
#     4  10  19  31  50  78 113 152 193 233 279 332
#
# _framework density 20.034108
#
# number of rings (size 3 to 8) (size 9 to 14) (size 15 to 20)
#    0.000    2.000    1.250    3.750    0.000    4.500 
#    0.000    1.875    0.000   10.500    0.000    1.750 
#    0.000    0.000    0.000    0.000    0.000    0.000 
#
# Total GULP energy -396673.975196 kJ/mol
# GULP energy per Si atom -12396.061725 kJ/mol
# Density = 1.998851 g / cm^3
# Si number density = 20.034108 Si / 1000 Ang^3
#
#
#
# Elastic Constant Matrix: (Units=GPa)
#
#
# Indices 1 2 3 4 5 6 
#
# 1 151.2127 31.5656 68.1557 0.0000 0.0000 0.0000
# 2 31.5656 50.2797 27.8652 0.0000 0.0000 0.0000
# 3 68.1557 27.8652 109.5098 0.0000 0.0000 0.0000
# 4 0.0000 0.0000 0.0000 13.0416 0.0000 0.0000
# 5 0.0000 0.0000 0.0000 0.0000 24.1074 0.0000
# 6 0.0000 0.0000 0.0000 0.0000 0.0000 28.4819
#
#
#
# Elastic Compliance Matrix: (Units=1/GPa)
#
#
# Indices 1 2 3 4 5 6 
#
# 1 0.009605 -0.003163 -0.005173 0.000000 0.000000 0.000000
# 2 -0.003163 0.024196 -0.004188 0.000000 0.000000 0.000000
# 3 -0.005173 -0.004188 0.013417 0.000000 0.000000 0.000000
# 4 0.000000 0.000000 0.000000 0.076678 0.000000 0.000000
# 5 0.000000 0.000000 0.000000 0.000000 0.041481 0.000000
# 6 0.000000 0.000000 0.000000 0.000000 0.000000 0.035110
#
#
# Mechanical properties :
#
#
# Convention : Reuss Voigt Hill
#
# Bulk Modulus (GPa) = 45.10792 62.90836 54.00814
# Shear Modulus (GPa) = 21.46619 25.35390 23.41005
#
# Velocity S-wave (km/s) = 3.27690 3.56130 3.42206
# Velocity P-wave (km/s) = 6.07305 6.95552 6.52921
#
# Compressibility (1/GPa) = 0.02216906
#
# Stress axis : x y z
#
# Youngs Moduli (GPa) = 104.11068 41.32988 74.53329
#
# Poissons Ratio (x) = 0.13073 0.38557
# Poissons Ratio (y) = 0.32932 0.31214
# Poissons Ratio (z) = 0.53857 0.17309
#
# Static dielectric constant tensor:
#      x y z
#    x 3.944810 0.000000 0.000000 
#    y 0.000000 3.394180 0.000000 
#    z 0.000000 0.000000 3.709990 
# 
# 
# High freq. dielectric constant tensor:
#      x y z
#    x 1.794130 0.000000 0.000000 
#    y 0.000000 1.762620 0.000000 
#    z 0.000000 0.000000 1.761380 
# 
# From -- ./inp_files/14594.got.cif
#   From: 2010.03.12/outbox.cif.g09.slc.cpg/sg35_8_cif.got.tgz:14594.got - 2010.04.14 02:02:04.
