data_PCOD8172181
_publ_section_title
;
Structure prediction by ZEFSAII (Michael W. Deem and Ramdas Pophale) SiO2 
 PCOD8172181
Probable space group: C M M 2
;
_chemical_formula_sum "Si O2"
_cell_formula_units_Z 48
_cell_length_a 18.338002
_cell_length_b 8.720903
_cell_length_c 15.842928
_cell_angle_alpha 90.000000
_cell_angle_beta 90.000000
_cell_angle_gamma 90.000000
_cell_volume 2533.663414
_symmetry_space_group_name_H-M "C M M 2"
_symmetry_group_IT_number 35
_symmetry_cell_setting 'orthorhombic'
loop_
_space_group_symop_operation_xyz
x,y,z
-x,-y,z
-x,y,z
x,-y,z
1/2+x,1/2+y,z
1/2-x,1/2-y,z
1/2-x,1/2+y,z
1/2+x,1/2-y,z
loop_
_atom_site_type_symbol
_atom_site_label
_atom_site_fract_x
_atom_site_fract_y
_atom_site_fract_z
Si Si1 0.170424 0.820897 0.742840
Si Si2 0.329799 0.320581 0.925649
Si Si3 0.329794 0.819917 0.576410
Si Si4 0.829464 0.819734 0.260471
Si Si5 0.669097 0.181633 0.090591
Si Si6 0.414708 0.822892 0.410084
O O1 0.250000 0.750000 0.746561
O O2 0.131153 0.790889 0.834229
O O3 0.130950 0.743208 0.662282
O O4 0.176927 0.000000 0.725500
O O5 0.323562 0.500000 0.944637
O O6 0.250000 0.250000 0.919498
O O7 0.371808 0.240003 0.004724
O O8 0.250000 0.750000 0.562693
O O9 0.380207 0.771420 0.498606
O O10 0.321988 0.000000 0.584074
O O11 0.750000 0.750000 0.278393
O O12 0.866840 0.747476 0.176139
O O13 0.882108 0.783601 0.337697
O O14 0.821049 0.000000 0.248338
O O15 0.750000 0.250000 0.088041
O O16 0.669186 0.000000 0.093618
O O17 0.500000 0.792715 0.415761
O O18 0.396655 0.000000 0.389977
#
# Coordination Sequence:
#
# PCOD8172181 Si02
#       6
#     8   8   8   8   8   8
#     4   9  16  25  40  63  94 128 160 197 239 285
#     4   9  15  23  36  59  92 127 159 194 238 285
#     4  10  19  31  50  73  98 129 163 202 245 291
#     4  11  21  34  53  76 102 132 168 207 249 297
#     4  10  17  26  42  65  95 129 162 198 242 289
#     4  10  22  39  55  73  99 130 165 207 255 303
#
# _framework density 18.944901000000002
#
# number of rings (size 3 to 8) (size 9 to 14) (size 15 to 20)
#    0.000    2.167    0.000    8.000    0.000    5.000 
#    0.000    0.000    0.000    0.000    0.000    1.167 
#    0.000    4.000    0.000    0.000    0.000    0.000 
#
# Total GULP energy -297379.316826 kJ/mol
# GULP energy per Si atom -12390.804868 kJ/mol
# Density = 1.890178 g / cm^3
# Si number density = 18.944901 Si / 1000 Ang^3
#
#
#
# Elastic Constant Matrix: (Units=GPa)
#
#
# Indices 1 2 3 4 5 6 
#
# 1 39.0613 24.5719 40.8954 0.0000 0.0000 0.0000
# 2 24.5719 145.6911 85.7288 0.0000 0.0000 0.0000
# 3 40.8954 85.7288 210.6574 0.0000 0.0000 0.0000
# 4 0.0000 0.0000 0.0000 40.9577 0.0000 0.0000
# 5 0.0000 0.0000 0.0000 0.0000 -1.6077 0.0000
# 6 0.0000 0.0000 0.0000 0.0000 0.0000 12.4252
#
#
#
# Elastic Compliance Matrix: (Units=1/GPa)
#
#
# Indices 1 2 3 4 5 6 
#
# 1 0.032728 -0.002342 -0.005400 0.000000 0.000000 0.000000
# 2 -0.002342 0.009193 -0.003286 0.000000 0.000000 0.000000
# 3 -0.005400 -0.003286 0.007133 0.000000 0.000000 0.000000
# 4 0.000000 0.000000 0.000000 0.024415 0.000000 0.000000
# 5 0.000000 0.000000 0.000000 0.000000 -0.621991 0.000000
# 6 0.000000 0.000000 0.000000 0.000000 0.000000 0.080482
#
#
# Mechanical properties :
#
#
# Convention : Reuss Voigt Hill
#
# Bulk Modulus (GPa) = 37.04272 77.53354 57.28813
# Shear Modulus (GPa) = -11.44207 26.63595 7.59694
#
# Velocity S-wave (km/s) = -2.46024 3.75369 2.00468
# Velocity P-wave (km/s) = 3.39484 7.73315 5.97187
#
# Compressibility (1/GPa) = 0.02699586
#
# Stress axis : x y z
#
# Youngs Moduli (GPa) = 30.55478 108.78285 140.19639
#
# Poissons Ratio (x) = 0.25478 0.75712
# Poissons Ratio (y) = 0.07156 0.46073
# Poissons Ratio (z) = 0.16501 0.35750
#
# Static dielectric constant tensor:
#      x y z
#    x 2.578210 0.000000 0.000000 
#    y 0.000000 3.566900 0.000000 
#    z 0.000000 0.000000 4.955330 
# 
# 
# High freq. dielectric constant tensor:
#      x y z
#    x 1.649240 0.000000 0.000000 
#    y 0.000000 1.752160 0.000000 
#    z 0.000000 0.000000 1.777110 
# 
# From -- ./inp_files/17257.got.cif
#   From: 2010.03.12/outbox.cif.g09.slc.cpg/sg35_9_cif.got.tgz:17257.got - 2010.04.14 02:02:04.
