data_PCOD8172495
_publ_section_title
;
Structure prediction by ZEFSAII (Michael W. Deem and Ramdas Pophale) SiO2 
 PCOD8172495
Probable space group: C M M 2
;
_chemical_formula_sum "Si O2"
_cell_formula_units_Z 48
_cell_length_a 9.070820
_cell_length_b 26.609600
_cell_length_c 11.468164
_cell_angle_alpha 90.000000
_cell_angle_beta 90.000000
_cell_angle_gamma 90.000000
_cell_volume 2768.080973
_symmetry_space_group_name_H-M "C M M 2"
_symmetry_group_IT_number 35
_symmetry_cell_setting 'orthorhombic'
loop_
_space_group_symop_operation_xyz
x,y,z
-x,-y,z
-x,y,z
x,-y,z
1/2+x,1/2+y,z
1/2-x,1/2-y,z
1/2-x,1/2+y,z
1/2+x,1/2-y,z
loop_
_atom_site_type_symbol
_atom_site_label
_atom_site_fract_x
_atom_site_fract_y
_atom_site_fract_z
Si Si1 0.327900 0.301231 0.503650
Si Si2 0.163292 0.365380 0.059649
Si Si3 0.827109 0.198287 0.235265
Si Si4 0.671219 0.942060 0.863848
Si Si5 0.826619 0.123316 0.698421
Si Si6 0.835782 0.699995 0.851539
O O1 0.500000 0.292249 0.523646
O O2 0.250000 0.250000 0.548604
O O3 0.288519 0.312046 0.370084
O O4 0.275840 0.350805 0.576328
O O5 0.269738 0.351275 0.167153
O O6 0.000000 0.380196 0.106718
O O7 0.226914 0.410545 0.977753
O O8 0.150061 0.313642 0.986971
O O9 0.750000 0.250000 0.194675
O O10 0.000000 0.204245 0.213540
O O11 0.500000 0.928765 0.845864
O O12 0.750620 0.929074 0.739242
O O13 0.699748 0.000000 0.892038
O O14 0.771816 0.159012 0.799711
O O15 0.000000 0.114998 0.699972
O O16 0.750000 0.750000 0.829636
O O17 0.000000 0.702051 0.794699
#
# Coordination Sequence:
#
# PCOD8172495 Si02
#       6
#     8   8   8   8   8   8
#     4   9  19  32  46  68  98 131 163 194 228 268
#     4   9  18  31  47  68  92 120 154 191 234 282
#     4  10  19  31  47  68  97 131 164 195 227 269
#     4   9  19  36  55  73  94 120 152 196 248 293
#     4  10  19  31  48  70  95 123 157 194 234 284
#     4  10  19  29  42  64  95 126 155 190 233 280
#
# _framework density 17.340532
#
# number of rings (size 3 to 8) (size 9 to 14) (size 15 to 20)
#    0.000    2.500    0.000    3.500    0.000    8.333 
#    0.000    0.000    0.000    1.000    0.000    4.667 
#    0.000    0.000    0.000    0.000    0.000    0.000 
#
# Total GULP energy -297315.187862 kJ/mol
# GULP energy per Si atom -12388.132828 kJ/mol
# Density = 1.730106 g / cm^3
# Si number density = 17.340532 Si / 1000 Ang^3
#
#
#
# Elastic Constant Matrix: (Units=GPa)
#
#
# Indices 1 2 3 4 5 6 
#
# 1 56.9258 41.6242 38.5782 0.0000 0.0000 0.0000
# 2 41.6242 82.1867 46.5958 0.0000 0.0000 0.0000
# 3 38.5782 46.5958 85.3624 0.0000 0.0000 0.0000
# 4 0.0000 0.0000 0.0000 26.5840 0.0000 0.0000
# 5 0.0000 0.0000 0.0000 0.0000 24.1595 0.0000
# 6 0.0000 0.0000 0.0000 0.0000 0.0000 24.6023
#
#
#
# Elastic Compliance Matrix: (Units=1/GPa)
#
#
# Indices 1 2 3 4 5 6 
#
# 1 0.031213 -0.011311 -0.007932 0.000000 0.000000 0.000000
# 2 -0.011311 0.021719 -0.006744 0.000000 0.000000 0.000000
# 3 -0.007932 -0.006744 0.018981 0.000000 0.000000 0.000000
# 4 0.000000 0.000000 0.000000 0.037617 0.000000 0.000000
# 5 0.000000 0.000000 0.000000 0.000000 0.041392 0.000000
# 6 0.000000 0.000000 0.000000 0.000000 0.000000 0.040647
#
#
# Mechanical properties :
#
#
# Convention : Reuss Voigt Hill
#
# Bulk Modulus (GPa) = 50.15236 53.11904 51.63570
# Shear Modulus (GPa) = 19.98500 21.58094 20.78297
#
# Velocity S-wave (km/s) = 3.39854 3.53163 3.46572
# Velocity P-wave (km/s) = 6.66220 6.87962 6.77178
#
# Compressibility (1/GPa) = 0.01993924
#
# Stress axis : x y z
#
# Youngs Moduli (GPa) = 32.03826 46.04174 52.68515
#
# Poissons Ratio (x) = 0.52078 0.41789
# Poissons Ratio (y) = 0.36238 0.35531
# Poissons Ratio (z) = 0.25412 0.31050
#
# Static dielectric constant tensor:
#      x y z
#    x 3.962820 0.000000 0.000000 
#    y 0.000000 2.986490 0.000000 
#    z 0.000000 0.000000 3.272860 
# 
# 
# High freq. dielectric constant tensor:
#      x y z
#    x 1.674400 0.000000 0.000000 
#    y 0.000000 1.645980 0.000000 
#    z 0.000000 0.000000 1.658200 
# 
# From -- ./inp_files/11466.got.cif
#   From: 2010.03.12/outbox.cif.g09.slc.cpg/sg35_6_cif.got.tgz:11466.got - 2010.04.14 02:02:04.
