data_PCOD8172165
_publ_section_title
;
Structure prediction by ZEFSAII (Michael W. Deem and Ramdas Pophale) SiO2 
 PCOD8172165
Probable space group: C M M 2
;
_chemical_formula_sum "Si O2"
_cell_formula_units_Z 44
_cell_length_a 19.549248
_cell_length_b 19.889250
_cell_length_c 6.924726
_cell_angle_alpha 90.000000
_cell_angle_beta 90.000000
_cell_angle_gamma 90.000000
_cell_volume 2692.471138
_symmetry_space_group_name_H-M "C M M 2"
_symmetry_group_IT_number 35
_symmetry_cell_setting 'orthorhombic'
loop_
_space_group_symop_operation_xyz
x,y,z
-x,-y,z
-x,y,z
x,-y,z
1/2+x,1/2+y,z
1/2-x,1/2-y,z
1/2-x,1/2+y,z
1/2+x,1/2-y,z
loop_
_atom_site_type_symbol
_atom_site_label
_atom_site_fract_x
_atom_site_fract_y
_atom_site_fract_z
Si Si1 0.922574 0.366499 0.831150
Si Si2 0.923759 0.757264 0.559621
Si Si3 0.185269 0.423196 0.562915
Si Si4 0.709647 0.685979 0.672264
Si Si5 0.632400 0.168829 0.237261
Si Si6 0.750000 0.750000 0.041456
O O1 0.909431 0.294118 0.734762
O O2 0.870192 0.418948 0.735669
O O3 0.000000 0.391334 0.794668
O O4 0.909546 0.360296 0.058035
O O5 0.867479 0.815998 0.586552
O O6 0.916447 0.718860 0.356613
O O7 0.000000 0.788198 0.571517
O O8 0.206183 0.500000 0.530603
O O9 0.253925 0.383290 0.618647
O O10 0.153445 0.394740 0.366305
O O11 0.750000 0.750000 0.577022
O O12 0.709631 0.696358 0.904919
O O13 0.699279 0.209135 0.175778
#
# Coordination Sequence:
#
# PCOD8172165 Si02
#       6
#     8   8   8   8   8   4
#     4  10  19  33  51  73 107 140 174 215 251 304
#     4  10  19  31  53  82 107 132 169 218 267 309
#     4  11  23  36  51  74 107 144 179 212 256 311
#     4  10  16  37  54  76 100 138 173 217 266 291
#     4  11  17  32  51  79 107 132 177 211 264 304
#     4  10  16  30  58  82  96 136 170 224 266 294
#
# _framework density 16.341864000000001
#
# number of rings (size 3 to 8) (size 9 to 14) (size 15 to 20)
#    0.545    1.091    7.273    1.636    0.000    1.818 
#    0.000    0.000    0.000    0.545    0.000    0.000 
#    0.000    0.000    0.000    0.000    0.000    0.000 
#
# Total GULP energy -272755.883282 kJ/mol
# GULP energy per Si atom -12397.994695 kJ/mol
# Density = 1.630467 g / cm^3
# Si number density = 16.341864 Si / 1000 Ang^3
#
#
#
# Elastic Constant Matrix: (Units=GPa)
#
#
# Indices 1 2 3 4 5 6 
#
# 1 117.8064 48.0004 29.4167 0.0000 0.0000 0.0000
# 2 48.0004 73.8176 24.0278 0.0000 0.0000 0.0000
# 3 29.4167 24.0278 100.8231 0.0000 0.0000 0.0000
# 4 0.0000 0.0000 0.0000 10.5810 0.0000 0.0000
# 5 0.0000 0.0000 0.0000 0.0000 21.4641 0.0000
# 6 0.0000 0.0000 0.0000 0.0000 0.0000 16.1210
#
#
#
# Elastic Compliance Matrix: (Units=1/GPa)
#
#
# Indices 1 2 3 4 5 6 
#
# 1 0.011828 -0.007120 -0.001754 0.000000 0.000000 0.000000
# 2 -0.007120 0.018972 -0.002444 0.000000 0.000000 0.000000
# 3 -0.001754 -0.002444 0.011013 0.000000 0.000000 0.000000
# 4 0.000000 0.000000 0.000000 0.094509 0.000000 0.000000
# 5 0.000000 0.000000 0.000000 0.000000 0.046589 0.000000
# 6 0.000000 0.000000 0.000000 0.000000 0.000000 0.062031
#
#
# Mechanical properties :
#
#
# Convention : Reuss Voigt Hill
#
# Bulk Modulus (GPa) = 52.14790 55.03745 53.59267
# Shear Modulus (GPa) = 18.25021 22.36672 20.30846
#
# Velocity S-wave (km/s) = 3.34545 3.70358 3.52906
# Velocity P-wave (km/s) = 6.84855 7.21391 7.03360
#
# Compressibility (1/GPa) = 0.01917623
#
# Stress axis : x y z
#
# Youngs Moduli (GPa) = 84.54834 52.70846 90.80520
#
# Poissons Ratio (x) = 0.37528 0.15928
# Poissons Ratio (y) = 0.60198 0.22193
# Poissons Ratio (z) = 0.14830 0.12882
#
# Static dielectric constant tensor:
#      x y z
#    x 3.141230 0.000000 0.000000 
#    y 0.000000 2.648510 0.000000 
#    z 0.000000 0.000000 3.198150 
# 
# 
# High freq. dielectric constant tensor:
#      x y z
#    x 1.630650 0.000000 0.000000 
#    y 0.000000 1.574910 0.000000 
#    z 0.000000 0.000000 1.643060 
# 
# From -- ./inp_files/3371.got.cif
#   From: 2010.03.12/outbox.cif.g09.slc.cpg/sg35_2_cif.got.tgz:3371.got - 2010.04.14 02:02:04.
