data_PCOD8172123
_publ_section_title
;
Structure prediction by ZEFSAII (Michael W. Deem and Ramdas Pophale) SiO2 
 PCOD8172123
Probable space group: P N N 2
;
_chemical_formula_sum "Si O2"
_cell_formula_units_Z 30
_cell_length_a 14.541160
_cell_length_b 17.381245
_cell_length_c 5.236051
_cell_angle_alpha 90.000000
_cell_angle_beta 90.000000
_cell_angle_gamma 90.000000
_cell_volume 1323.377670
_symmetry_space_group_name_H-M "P N N 2"
_symmetry_group_IT_number 34
_symmetry_cell_setting 'orthorhombic'
loop_
_space_group_symop_operation_xyz
x,y,z
-x,-y,z
1/2-x,1/2+y,1/2+z
1/2+x,1/2-y,1/2+z
loop_
_atom_site_type_symbol
_atom_site_label
_atom_site_fract_x
_atom_site_fract_y
_atom_site_fract_z
Si Si1 0.257559 0.592049 0.044990
Si Si2 0.792619 0.081035 0.531268
Si Si3 0.027015 0.723464 0.243396
Si Si4 0.642593 0.883731 0.032483
Si Si5 0.334764 0.333023 0.507456
Si Si6 0.349784 0.746597 0.044490
Si Si7 0.500000 0.000000 0.170329
Si Si8 0.901951 0.626270 0.949928
O O1 0.305248 0.510277 0.993201
O O2 0.205338 0.583366 0.310466
O O3 0.333466 0.657007 0.106264
O O4 0.192447 0.617323 0.806943
O O5 0.819063 0.117522 0.261575
O O6 0.689032 0.107089 0.613428
O O7 0.855438 0.111655 0.764684
O O8 0.103262 0.701858 0.461188
O O9 0.074238 0.781755 0.045752
O O10 0.930308 0.757588 0.336467
O O11 0.995569 0.644677 0.102794
O O12 0.552599 0.936321 0.010466
O O13 0.246820 0.279981 0.441255
O O14 0.383851 0.798733 0.276896
O O15 0.580452 0.044680 0.318146
#
# Coordination Sequence:
#
# PCOD8172123 Si02
#       8
#     4   4   4   4   4   4   2   4
#     4  12  27  47  73 102 149 191 242 296 371 445
#     4  11  25  47  69 102 142 187 240 300 360 434
#     4  12  26  43  75 102 149 191 247 304 374 451
#     4  12  27  41  70 111 146 187 232 305 375 451
#     4  11  26  46  71 102 141 190 241 299 367 433
#     4  11  26  44  70 105 143 191 239 295 368 443
#     4  12  24  42  68 110 150 178 234 300 386 446
#     4  11  25  44  69 109 144 188 231 304 374 447
#
# _framework density 22.669264999999999
#
# number of rings (size 3 to 8) (size 9 to 14) (size 15 to 20)
#    0.000    0.533    5.333    1.600    9.333    0.533 
#    0.000    0.667    0.000    0.000    0.000    0.000 
#    0.000    0.000    0.000    0.000    0.000    0.000 
#
# Total GULP energy -371816.023880 kJ/mol
# GULP energy per Si atom -12393.867463 kJ/mol
# Density = 2.261767 g / cm^3
# Si number density = 22.669265 Si / 1000 Ang^3
#
#
#
# Elastic Constant Matrix: (Units=GPa)
#
#
# Indices 1 2 3 4 5 6 
#
# 1 38.5364 15.4124 20.8167 0.0000 0.0000 0.0000
# 2 15.4124 124.6815 33.3256 0.0000 0.0000 0.0000
# 3 20.8167 33.3256 98.1395 0.0000 0.0000 0.0000
# 4 0.0000 0.0000 0.0000 25.8794 0.0000 0.0000
# 5 0.0000 0.0000 0.0000 0.0000 -57.2363 0.0000
# 6 0.0000 0.0000 0.0000 0.0000 0.0000 36.1161
#
#
#
# Elastic Compliance Matrix: (Units=1/GPa)
#
#
# Indices 1 2 3 4 5 6 
#
# 1 0.029845 -0.002197 -0.005585 0.000000 0.000000 0.000000
# 2 -0.002197 0.008983 -0.002584 0.000000 0.000000 0.000000
# 3 -0.005585 -0.002584 0.012252 0.000000 0.000000 0.000000
# 4 0.000000 0.000000 0.000000 0.038641 0.000000 0.000000
# 5 0.000000 0.000000 0.000000 0.000000 -0.017471 0.000000
# 6 0.000000 0.000000 0.000000 0.000000 0.000000 0.027688
#
#
# Mechanical properties :
#
#
# Convention : Reuss Voigt Hill
#
# Bulk Modulus (GPa) = 32.95092 44.49630 38.72361
# Shear Modulus (GPa) = 38.23098 13.73869 25.98483
#
# Velocity S-wave (km/s) = 4.11112 2.46448 3.38932
# Velocity P-wave (km/s) = 6.09115 5.26966 5.69523
#
# Compressibility (1/GPa) = 0.03034816
#
# Stress axis : x y z
#
# Youngs Moduli (GPa) = 33.50678 111.32474 81.62119
#
# Poissons Ratio (x) = 0.24453 0.45582
# Poissons Ratio (y) = 0.07360 0.21094
# Poissons Ratio (z) = 0.18712 0.28771
#
# Static dielectric constant tensor:
#      x y z
#    x 5.993930 0.000000 0.000000 
#    y 0.000000 4.218600 0.000000 
#    z 0.000000 0.000000 4.167420 
# 
# 
# High freq. dielectric constant tensor:
#      x y z
#    x 1.879490 0.000000 0.000000 
#    y 0.000000 1.900860 0.000000 
#    z 0.000000 0.000000 1.895400 
# 
# From -- ./inp_files/1310.got.cif
#   From: 2010.03.12/outbox.cif.g09.slc.cpg/sg34_1_cif.got.tgz:1310.got - 2010.04.14 01:56:33.
