data_PCOD8172292
_publ_section_title
;
Structure prediction by ZEFSAII (Michael W. Deem and Ramdas Pophale) SiO2 
 PCOD8172292
Probable space group: C M M 2
;
_chemical_formula_sum "Si O2"
_cell_formula_units_Z 48
_cell_length_a 16.940447
_cell_length_b 18.894655
_cell_length_c 5.365569
_cell_angle_alpha 90.000000
_cell_angle_beta 90.000000
_cell_angle_gamma 90.000000
_cell_volume 1717.432260
_symmetry_space_group_name_H-M "C M M 2"
_symmetry_group_IT_number 35
_symmetry_cell_setting 'orthorhombic'
loop_
_space_group_symop_operation_xyz
x,y,z
-x,-y,z
-x,y,z
x,-y,z
1/2+x,1/2+y,z
1/2-x,1/2-y,z
1/2-x,1/2+y,z
1/2+x,1/2-y,z
loop_
_atom_site_type_symbol
_atom_site_label
_atom_site_fract_x
_atom_site_fract_y
_atom_site_fract_z
Si Si1 0.091057 0.608374 0.660620
Si Si2 0.840801 0.762641 0.631739
Si Si3 0.591364 0.731585 0.133261
Si Si4 0.346977 0.111518 0.162479
Si Si5 0.911020 0.916172 0.822331
Si Si6 0.674483 0.415852 0.321430
O O1 0.114758 0.688734 0.594178
O O2 0.109923 0.570811 0.393636
O O3 0.000000 0.601085 0.729278
O O4 0.140085 0.573164 0.892199
O O5 0.750000 0.750000 0.696346
O O6 0.855157 0.800439 0.360755
O O7 0.884351 0.803926 0.862625
O O8 0.500000 0.722898 0.193686
O O9 0.614114 0.812976 0.093042
O O10 0.256337 0.119903 0.236399
O O11 0.849442 0.889918 0.603564
O O12 0.000000 0.890544 0.763223
O O13 0.906980 0.000000 0.808059
O O14 0.890802 0.893641 0.111487
O O15 0.685893 0.500000 0.316601
#
# Coordination Sequence:
#
# PCOD8172292 Si02
#       6
#     8   8   8   8   8   8
#     4  10  19  33  52  72  93 124 165 198 229 276
#     4  10  18  29  48  77  99 115 146 199 245 274
#     4  10  19  33  51  72  96 127 165 196 228 275
#     4  10  18  30  49  71  96 127 158 200 240 278
#     4   9  17  30  47  68  92 118 152 195 242 288
#     4  10  19  30  47  73  99 123 158 205 248 279
#
# _framework density 27.948702000000001
#
# number of rings (size 3 to 8) (size 9 to 14) (size 15 to 20)
#    0.000    2.167    0.000    7.000    0.000    2.000 
#    0.000    0.000    0.000    5.500    0.000  121.333 
#    0.000    0.000    0.000    0.000    0.000    0.000 
#
# Total GULP energy -297652.766857 kJ/mol
# GULP energy per Si atom -12402.198619 kJ/mol
# Density = 2.788509 g / cm^3
# Si number density = 27.948702 Si / 1000 Ang^3
#
#
#
# Elastic Constant Matrix: (Units=GPa)
#
#
# Indices 1 2 3 4 5 6 
#
# 1 212.7368 7.8600 91.7393 0.0000 0.0000 0.0000
# 2 7.8600 79.8183 33.3718 0.0000 0.0000 0.0000
# 3 91.7393 33.3718 258.2571 0.0000 0.0000 0.0000
# 4 0.0000 0.0000 0.0000 33.2826 0.0000 0.0000
# 5 0.0000 0.0000 0.0000 0.0000 58.0490 0.0000
# 6 0.0000 0.0000 0.0000 0.0000 0.0000 11.7879
#
#
#
# Elastic Compliance Matrix: (Units=1/GPa)
#
#
# Indices 1 2 3 4 5 6 
#
# 1 0.005557 0.000294 -0.002012 0.000000 0.000000 0.000000
# 2 0.000294 0.013260 -0.001818 0.000000 0.000000 0.000000
# 3 -0.002012 -0.001818 0.004822 0.000000 0.000000 0.000000
# 4 0.000000 0.000000 0.000000 0.030046 0.000000 0.000000
# 5 0.000000 0.000000 0.000000 0.000000 0.017227 0.000000
# 6 0.000000 0.000000 0.000000 0.000000 0.000000 0.084832
#
#
# Mechanical properties :
#
#
# Convention : Reuss Voigt Hill
#
# Bulk Modulus (GPa) = 60.36148 90.75047 75.55598
# Shear Modulus (GPa) = 29.70215 48.48000 39.09108
#
# Velocity S-wave (km/s) = 3.26350 4.16938 3.74394
# Velocity P-wave (km/s) = 5.98705 7.46453 6.76624
#
# Compressibility (1/GPa) = 0.01656686
#
# Stress axis : x y z
#
# Youngs Moduli (GPa) = 179.93747 75.41747 207.39268
#
# Poissons Ratio (x) = -0.02217 0.41730
# Poissons Ratio (y) = -0.05290 0.37700
# Poissons Ratio (z) = 0.36206 0.13710
#
# Static dielectric constant tensor:
#      x y z
#    x 4.667970 0.000000 0.000000 
#    y 0.000000 5.425250 0.000000 
#    z 0.000000 0.000000 6.604750 
# 
# 
# High freq. dielectric constant tensor:
#      x y z
#    x 2.108020 0.000000 0.000000 
#    y 0.000000 2.179920 0.000000 
#    z 0.000000 0.000000 2.185520 
# 
# From -- ./inp_files/1922.got.cif
#   From: 2010.03.12/outbox.cif.g09.slc.cpg/sg35_1_cif.got.tgz:1922.got - 2010.04.14 02:02:04.
