data_PCOD8172361
_publ_section_title
;
Structure prediction by ZEFSAII (Michael W. Deem and Ramdas Pophale) SiO2 
 PCOD8172361
Probable space group: C M M 2
;
_chemical_formula_sum "Si O2"
_cell_formula_units_Z 64
_cell_length_a 28.614790
_cell_length_b 8.751452
_cell_length_c 15.634803
_cell_angle_alpha 90.000000
_cell_angle_beta 90.000000
_cell_angle_gamma 90.000000
_cell_volume 3915.282395
_symmetry_space_group_name_H-M "C M M 2"
_symmetry_group_IT_number 35
_symmetry_cell_setting 'orthorhombic'
loop_
_space_group_symop_operation_xyz
x,y,z
-x,-y,z
-x,y,z
x,-y,z
1/2+x,1/2+y,z
1/2-x,1/2-y,z
1/2-x,1/2+y,z
1/2+x,1/2-y,z
loop_
_atom_site_type_symbol
_atom_site_label
_atom_site_fract_x
_atom_site_fract_y
_atom_site_fract_z
Si Si1 0.298702 0.181393 0.925090
Si Si2 0.055473 0.331337 0.332238
Si Si3 0.888556 0.819785 0.992898
Si Si4 0.552480 0.318020 0.831172
Si Si5 0.605784 0.680549 0.665870
Si Si6 0.552829 0.680116 0.502159
Si Si7 0.054027 0.319659 0.142856
Si Si8 0.202090 0.819391 0.740119
O O1 0.250000 0.250000 0.959197
O O2 0.339012 0.233785 0.990034
O O3 0.310091 0.247149 0.831450
O O4 0.295274 0.000000 0.920948
O O5 0.076135 0.500000 0.347253
O O6 0.073951 0.226623 0.409873
O O7 0.070498 0.270922 0.238609
O O8 0.000000 0.337358 0.332774
O O9 0.919997 0.759701 0.914295
O O10 0.880069 0.000000 0.987789
O O11 0.914109 0.778088 0.080279
O O12 0.500000 0.252707 0.835005
O O13 0.552095 0.500000 0.829452
O O14 0.577297 0.251661 0.746367
O O15 0.599143 0.500000 0.665914
O O16 0.585126 0.749567 0.577761
O O17 0.660519 0.722571 0.674538
O O18 0.500000 0.743323 0.513929
O O19 0.552672 0.500000 0.507311
O O20 0.061379 0.500000 0.129033
O O21 0.000000 0.275836 0.127240
O O22 0.250000 0.750000 0.702414
O O23 0.207310 0.000000 0.752753
#
# Coordination Sequence:
#
# PCOD8172361 Si02
#       8
#     8   8   8   8   8   8   8   8
#     4  11  21  34  51  69  91 121 157 199 243 283
#     4   8  15  29  46  63  89 125 157 189 234 281
#     4  11  20  31  47  71  97 124 160 197 235 280
#     4   9  16  26  41  62  91 126 159 186 217 265
#     4   9  16  27  43  65  93 122 153 189 233 277
#     4   9  16  26  44  69  92 117 153 194 231 271
#     4   9  18  32  48  67  95 130 163 195 236 284
#     4  10  18  31  48  67  90 119 155 198 240 281
#
# _framework density 16.346204
#
# number of rings (size 3 to 8) (size 9 to 14) (size 15 to 20)
#    0.000    2.500    1.250    4.125    0.000    2.750 
#    0.000    2.500    0.000    0.000    0.000    0.875 
#    0.000    4.000    0.000    0.000    0.000    0.000 
#
# Total GULP energy -396690.286217 kJ/mol
# GULP energy per Si atom -12396.571444 kJ/mol
# Density = 1.630900 g / cm^3
# Si number density = 16.346204 Si / 1000 Ang^3
#
#
#
# Elastic Constant Matrix: (Units=GPa)
#
#
# Indices 1 2 3 4 5 6 
#
# 1 108.4972 35.1264 60.1868 0.0000 0.0000 0.0000
# 2 35.1264 55.1273 26.8113 0.0000 0.0000 0.0000
# 3 60.1868 26.8113 123.2000 0.0000 0.0000 0.0000
# 4 0.0000 0.0000 0.0000 20.0059 0.0000 0.0000
# 5 0.0000 0.0000 0.0000 0.0000 12.0664 0.0000
# 6 0.0000 0.0000 0.0000 0.0000 0.0000 19.4665
#
#
#
# Elastic Compliance Matrix: (Units=1/GPa)
#
#
# Indices 1 2 3 4 5 6 
#
# 1 0.014440 -0.006453 -0.005650 0.000000 0.000000 0.000000
# 2 -0.006453 0.023171 -0.001890 0.000000 0.000000 0.000000
# 3 -0.005650 -0.001890 0.011288 0.000000 0.000000 0.000000
# 4 0.000000 0.000000 0.000000 0.049985 0.000000 0.000000
# 5 0.000000 0.000000 0.000000 0.000000 0.082875 0.000000
# 6 0.000000 0.000000 0.000000 0.000000 0.000000 0.051370
#
#
# Mechanical properties :
#
#
# Convention : Reuss Voigt Hill
#
# Bulk Modulus (GPa) = 47.81706 59.00816 53.41261
# Shear Modulus (GPa) = 18.65056 21.28774 19.96915
#
# Velocity S-wave (km/s) = 3.38149 3.61266 3.49899
# Velocity P-wave (km/s) = 6.67549 7.31978 7.00505
#
# Compressibility (1/GPa) = 0.02091304
#
# Stress axis : x y z
#
# Youngs Moduli (GPa) = 69.25007 43.15748 88.58600
#
# Poissons Ratio (x) = 0.27851 0.50053
# Poissons Ratio (y) = 0.44689 0.16742
# Poissons Ratio (z) = 0.39128 0.08157
#
# Static dielectric constant tensor:
#      x y z
#    x 3.114080 0.000000 0.000000 
#    y 0.000000 2.905310 0.000000 
#    z 0.000000 0.000000 3.207450 
# 
# 
# High freq. dielectric constant tensor:
#      x y z
#    x 1.613060 0.000000 0.000000 
#    y 0.000000 1.612450 0.000000 
#    z 0.000000 0.000000 1.618770 
# 
# From -- ./inp_files/17728.got.cif
#   From: 2010.03.12/outbox.cif.g09.slc.cpg/sg35_9_cif.got.tgz:17728.got - 2010.04.14 02:02:04.
