data_PCOD8172783
_publ_section_title
;
Structure prediction by ZEFSAII (Michael W. Deem and Ramdas Pophale) SiO2 
 PCOD8172783
Probable space group: C M M 2
;
_chemical_formula_sum "Si O2"
_cell_formula_units_Z 64
_cell_length_a 8.839968
_cell_length_b 28.341662
_cell_length_c 13.031916
_cell_angle_alpha 90.000000
_cell_angle_beta 90.000000
_cell_angle_gamma 90.000000
_cell_volume 3265.008222
_symmetry_space_group_name_H-M "C M M 2"
_symmetry_group_IT_number 35
_symmetry_cell_setting 'orthorhombic'
loop_
_space_group_symop_operation_xyz
x,y,z
-x,-y,z
-x,y,z
x,-y,z
1/2+x,1/2+y,z
1/2-x,1/2-y,z
1/2-x,1/2+y,z
1/2+x,1/2-y,z
loop_
_atom_site_type_symbol
_atom_site_label
_atom_site_fract_x
_atom_site_fract_y
_atom_site_fract_z
Si Si1 0.831954 0.443986 0.819550
Si Si2 0.173833 0.947653 0.614937
Si Si3 0.178641 0.146323 0.116356
Si Si4 0.178447 0.052300 0.026861
Si Si5 0.825547 0.146929 0.521566
Si Si6 0.680502 0.301418 0.912572
Si Si7 0.178965 0.198792 0.315544
Si Si8 0.678905 0.801192 0.706418
O O1 0.835169 0.500000 0.817059
O O2 0.758053 0.426283 0.714097
O O3 0.000000 0.422529 0.826692
O O4 0.738314 0.427817 0.918664
O O5 0.196366 0.910148 0.522497
O O6 0.000000 0.951625 0.646557
O O7 0.233905 0.000000 0.582166
O O8 0.225408 0.090641 0.113697
O O9 0.248228 0.172690 0.215192
O O10 0.000000 0.150876 0.123368
O O11 0.236527 0.169999 0.011736
O O12 0.000000 0.049657 0.015955
O O13 0.243469 0.000000 0.054595
O O14 0.774426 0.166473 0.411655
O O15 0.717997 0.168404 0.607391
O O16 0.000000 0.160359 0.544475
O O17 0.500000 0.299232 0.903728
O O18 0.750000 0.250000 0.924110
O O19 0.749961 0.325057 0.809272
O O20 0.250000 0.250000 0.327900
O O21 0.000000 0.204680 0.307414
O O22 0.500000 0.796833 0.718716
O O23 0.750000 0.750000 0.690516
#
# Coordination Sequence:
#
# PCOD8172783 Si02
#       8
#     8   8   8   8   8   8   8   8
#     4   9  17  29  46  72 106 141 177 220 265 306
#     4   9  18  33  52  75 106 145 185 220 262 319
#     4   9  19  34  54  79 106 138 176 220 268 316
#     4   9  17  31  51  75 105 143 182 215 257 318
#     4  10  21  36  56  80 108 142 181 225 272 323
#     4  10  19  33  52  75 106 139 172 215 268 324
#     4  10  21  39  60  81 106 137 178 226 275 323
#     4  11  22  36  54  78 109 141 176 220 272 332
#
# _framework density 19.601789
#
# number of rings (size 3 to 8) (size 9 to 14) (size 15 to 20)
#    0.000    2.375    0.000    3.375    1.750    3.500 
#    0.000    2.500    0.000    3.750    0.000    0.000 
#    0.000    5.000    0.000    0.000    0.000    0.000 
#
# Total GULP energy -396660.781945 kJ/mol
# GULP energy per Si atom -12395.649436 kJ/mol
# Density = 1.955717 g / cm^3
# Si number density = 19.601789 Si / 1000 Ang^3
#
#
#
# Elastic Constant Matrix: (Units=GPa)
#
#
# Indices 1 2 3 4 5 6 
#
# 1 60.6471 29.5687 34.7454 0.0000 0.0000 0.0000
# 2 29.5687 109.9064 78.2509 0.0000 0.0000 0.0000
# 3 34.7454 78.2509 137.9620 0.0000 0.0000 0.0000
# 4 0.0000 0.0000 0.0000 36.6171 0.0000 0.0000
# 5 0.0000 0.0000 0.0000 0.0000 15.0295 0.0000
# 6 0.0000 0.0000 0.0000 0.0000 0.0000 19.1918
#
#
#
# Elastic Compliance Matrix: (Units=1/GPa)
#
#
# Indices 1 2 3 4 5 6 
#
# 1 0.019836 -0.002985 -0.003302 0.000000 0.000000 0.000000
# 2 -0.002985 0.015711 -0.008159 0.000000 0.000000 0.000000
# 3 -0.003302 -0.008159 0.012708 0.000000 0.000000 0.000000
# 4 0.000000 0.000000 0.000000 0.027310 0.000000 0.000000
# 5 0.000000 0.000000 0.000000 0.000000 0.066536 0.000000
# 6 0.000000 0.000000 0.000000 0.000000 0.000000 0.052105
#
#
# Mechanical properties :
#
#
# Convention : Reuss Voigt Hill
#
# Bulk Modulus (GPa) = 51.65000 65.96060 58.80530
# Shear Modulus (GPa) = 21.78131 25.23105 23.50618
#
# Velocity S-wave (km/s) = 3.33707 3.59162 3.46668
# Velocity P-wave (km/s) = 6.42300 7.13604 6.78888
#
# Compressibility (1/GPa) = 0.01936108
#
# Stress axis : x y z
#
# Youngs Moduli (GPa) = 50.41241 63.64930 78.69068
#
# Poissons Ratio (x) = 0.19002 0.25987
# Poissons Ratio (y) = 0.15050 0.64206
# Poissons Ratio (z) = 0.16648 0.51934
#
# Static dielectric constant tensor:
#      x y z
#    x 3.443290 0.000000 0.000000 
#    y 0.000000 3.562330 0.000000 
#    z 0.000000 0.000000 3.704830 
# 
# 
# High freq. dielectric constant tensor:
#      x y z
#    x 1.745220 0.000000 0.000000 
#    y 0.000000 1.775920 0.000000 
#    z 0.000000 0.000000 1.746390 
# 
# From -- ./inp_files/11880.got.cif
#   From: 2010.03.12/outbox.cif.g09.slc.cpg/sg35_6_cif.got.tgz:11880.got - 2010.04.14 02:02:04.
