data_PCOD8172070
_publ_section_title
;
Structure prediction by ZEFSAII (Michael W. Deem and Ramdas Pophale) SiO2 
 PCOD8172070
Probable space group: P N N 2
;
_chemical_formula_sum "Si O2"
_cell_formula_units_Z 20
_cell_length_a 9.710987
_cell_length_b 5.250024
_cell_length_c 14.353551
_cell_angle_alpha 90.000000
_cell_angle_beta 90.000000
_cell_angle_gamma 90.000000
_cell_volume 731.785868
_symmetry_space_group_name_H-M "P N N 2"
_symmetry_group_IT_number 34
_symmetry_cell_setting 'orthorhombic'
loop_
_space_group_symop_operation_xyz
x,y,z
-x,-y,z
1/2-x,1/2+y,1/2+z
1/2+x,1/2-y,1/2+z
loop_
_atom_site_type_symbol
_atom_site_label
_atom_site_fract_x
_atom_site_fract_y
_atom_site_fract_z
Si Si1 0.796970 0.507091 0.268740
Si Si2 0.104159 0.806489 0.102832
Si Si3 0.796970 0.007091 0.374314
Si Si4 0.500000 0.000000 0.441389
Si Si5 0.895841 0.693511 0.540222
Si Si6 0.500000 0.500000 0.201665
O O1 0.861424 0.441955 0.167260
O O2 0.848110 0.780842 0.305357
O O3 0.631971 0.533080 0.267143
O O4 0.848109 0.280842 0.337698
O O5 0.250000 0.933426 0.071527
O O6 0.000000 0.000000 0.155862
O O7 0.022732 0.739294 0.008897
O O8 0.861424 0.941956 0.475794
O O9 0.631971 0.033076 0.375911
O O10 0.000000 0.500000 0.487192
O O11 0.977267 0.760706 0.634158
#
# Coordination Sequence:
#
# PCOD8172070 Si02
#       6
#     4   4   4   2   4   2
#     4  11  26  45  71 109 148 190 241 309 367 429
#     4  10  25  44  75 106 147 197 250 302 365 443
#     4  11  26  45  71 109 148 190 241 309 367 429
#     4  10  24  44  72 102 144 204 248 290 358 456
#     4  10  25  44  75 106 147 197 250 302 365 443
#     4  10  24  44  72 102 144 204 248 290 358 456
#
# _framework density 27.330399
#
# number of rings (size 3 to 8) (size 9 to 14) (size 15 to 20)
#    0.000    1.600    0.000    1.200   16.800    3.200 
#    0.000    0.000    0.000    0.000    0.000    0.000 
#    0.000    0.000    0.000    0.000    0.000    0.000 
#
# Total GULP energy -247876.298670 kJ/mol
# GULP energy per Si atom -12393.814934 kJ/mol
# Density = 2.726819 g / cm^3
# Si number density = 27.330399 Si / 1000 Ang^3
#
#
#
# Elastic Constant Matrix: (Units=GPa)
#
#
# Indices 1 2 3 4 5 6 
#
# 1 150.7791 49.9666 23.3468 0.0000 0.0000 0.0000
# 2 49.9666 100.8359 15.7848 0.0000 0.0000 0.0000
# 3 23.3468 15.7848 84.0948 0.0000 0.0000 0.0000
# 4 0.0000 0.0000 0.0000 27.0524 0.0000 0.0000
# 5 0.0000 0.0000 0.0000 0.0000 18.0156 0.0000
# 6 0.0000 0.0000 0.0000 0.0000 0.0000 35.4593
#
#
#
# Elastic Compliance Matrix: (Units=1/GPa)
#
#
# Indices 1 2 3 4 5 6 
#
# 1 0.008126 -0.003785 -0.001546 0.000000 0.000000 0.000000
# 2 -0.003785 0.011980 -0.001198 0.000000 0.000000 0.000000
# 3 -0.001546 -0.001198 0.012545 0.000000 0.000000 0.000000
# 4 0.000000 0.000000 0.000000 0.036965 0.000000 0.000000
# 5 0.000000 0.000000 0.000000 0.000000 0.055508 0.000000
# 6 0.000000 0.000000 0.000000 0.000000 0.000000 0.028201
#
#
# Mechanical properties :
#
#
# Convention : Reuss Voigt Hill
#
# Bulk Modulus (GPa) = 51.03385 57.10068 54.06727
# Shear Modulus (GPa) = 28.91631 32.54624 30.73127
#
# Velocity S-wave (km/s) = 3.25626 3.45460 3.35690
# Velocity P-wave (km/s) = 5.73159 6.07046 5.90346
#
# Compressibility (1/GPa) = 0.01959484
#
# Stress axis : x y z
#
# Youngs Moduli (GPa) = 123.06655 83.47272 79.71123
#
# Poissons Ratio (x) = 0.31591 0.12320
# Poissons Ratio (y) = 0.46575 0.09549
# Poissons Ratio (z) = 0.19020 0.10000
#
# Static dielectric constant tensor:
#      x y z
#    x 5.355510 0.000000 0.000000 
#    y 0.000000 4.644000 0.000000 
#    z 0.000000 0.000000 4.706810 
# 
# 
# High freq. dielectric constant tensor:
#      x y z
#    x 2.122860 0.000000 0.000000 
#    y 0.000000 2.081040 0.000000 
#    z 0.000000 0.000000 2.093380 
# 
# From -- ./inp_files/6688.got.cif
#   From: 2010.03.12/outbox.cif.g09.slc.cpg/sg34_4_cif.got.tgz:6688.got - 2010.04.14 01:56:33.
