data_PCOD8172606
_publ_section_title
;
Structure prediction by ZEFSAII (Michael W. Deem and Ramdas Pophale) SiO2 
 PCOD8172606
Probable space group: C M M 2
;
_chemical_formula_sum "Si O2"
_cell_formula_units_Z 48
_cell_length_a 15.542854
_cell_length_b 8.866790
_cell_length_c 17.061265
_cell_angle_alpha 90.000000
_cell_angle_beta 90.000000
_cell_angle_gamma 90.000000
_cell_volume 2351.302031
_symmetry_space_group_name_H-M "C M M 2"
_symmetry_group_IT_number 35
_symmetry_cell_setting 'orthorhombic'
loop_
_space_group_symop_operation_xyz
x,y,z
-x,-y,z
-x,y,z
x,-y,z
1/2+x,1/2+y,z
1/2-x,1/2-y,z
1/2-x,1/2+y,z
1/2+x,1/2-y,z
loop_
_atom_site_type_symbol
_atom_site_label
_atom_site_fract_x
_atom_site_fract_y
_atom_site_fract_z
Si Si1 0.655735 0.176663 0.252570
Si Si2 0.664554 0.175925 0.892235
Si Si3 0.000000 0.322001 0.992980
Si Si4 0.500000 0.678668 0.160210
Si Si5 0.097947 0.828415 0.745033
Si Si6 0.656479 0.322071 0.576726
Si Si7 0.157993 0.674541 0.426818
O O1 0.750000 0.250000 0.241577
O O2 0.587014 0.253776 0.196274
O O3 0.617121 0.198165 0.340751
O O4 0.663928 0.000000 0.232123
O O5 0.750000 0.250000 0.928920
O O6 0.654689 0.226245 0.801983
O O7 0.677295 0.000000 0.893845
O O8 0.583337 0.225936 0.943485
O O9 0.000000 0.221203 0.069673
O O10 0.000000 0.500000 0.012948
O O11 0.500000 0.500000 0.171750
O O12 0.105916 0.774901 0.655045
O O13 0.000000 0.811446 0.771290
O O14 0.130317 0.000000 0.753396
O O15 0.662290 0.500000 0.567438
O O16 0.750000 0.250000 0.582449
O O17 0.607547 0.254957 0.499196
O O18 0.166966 0.500000 0.447373
O O19 0.250000 0.750000 0.422364
#
# Coordination Sequence:
#
# PCOD8172606 Si02
#       7
#     8   8   4   4   8   8   8
#     4  10  21  40  65  92 127 165 207 257 309 366
#     4  11  23  41  66  94 121 158 201 245 300 360
#     4  10  24  46  66  89 126 159 194 249 304 361
#     4  12  26  42  66  97 126 163 204 245 308 373
#     4  10  21  37  56  81 118 160 202 251 302 352
#     4  10  19  31  50  77 112 153 200 249 298 350
#     4   9  17  31  54  81 112 153 199 248 300 351
#
# _framework density 20.414221999999999
#
# number of rings (size 3 to 8) (size 9 to 14) (size 15 to 20)
#    0.000    1.833    0.833    4.250    0.000    6.667 
#    1.500    1.667    0.000    0.000    0.000    0.000 
#    0.000    0.000    0.000    0.000    0.000    0.000 
#
# Total GULP energy -297510.195699 kJ/mol
# GULP energy per Si atom -12396.258154 kJ/mol
# Density = 2.036776 g / cm^3
# Si number density = 20.414222 Si / 1000 Ang^3
#
#
#
# Elastic Constant Matrix: (Units=GPa)
#
#
# Indices 1 2 3 4 5 6 
#
# 1 113.1417 55.7302 58.7033 0.0000 0.0000 0.0000
# 2 55.7302 124.5346 71.3268 0.0000 0.0000 0.0000
# 3 58.7033 71.3268 138.8273 0.0000 0.0000 0.0000
# 4 0.0000 0.0000 0.0000 33.2249 0.0000 0.0000
# 5 0.0000 0.0000 0.0000 0.0000 21.1267 0.0000
# 6 0.0000 0.0000 0.0000 0.0000 0.0000 27.7278
#
#
#
# Elastic Compliance Matrix: (Units=1/GPa)
#
#
# Indices 1 2 3 4 5 6 
#
# 1 0.012364 -0.003597 -0.003380 0.000000 0.000000 0.000000
# 2 -0.003597 0.012425 -0.004862 0.000000 0.000000 0.000000
# 3 -0.003380 -0.004862 0.011131 0.000000 0.000000 0.000000
# 4 0.000000 0.000000 0.000000 0.030098 0.000000 0.000000
# 5 0.000000 0.000000 0.000000 0.000000 0.047334 0.000000
# 6 0.000000 0.000000 0.000000 0.000000 0.000000 0.036065
#
#
# Mechanical properties :
#
#
# Convention : Reuss Voigt Hill
#
# Bulk Modulus (GPa) = 81.69867 83.11381 82.40624
# Shear Modulus (GPa) = 28.22072 29.13211 28.67641
#
# Velocity S-wave (km/s) = 3.72210 3.78173 3.75204
# Velocity P-wave (km/s) = 7.65372 7.73762 7.69578
#
# Compressibility (1/GPa) = 0.01224010
#
# Stress axis : x y z
#
# Youngs Moduli (GPa) = 80.87989 80.48551 89.84174
#
# Poissons Ratio (x) = 0.28951 0.30367
# Poissons Ratio (y) = 0.29093 0.43685
# Poissons Ratio (z) = 0.27338 0.39136
#
# Static dielectric constant tensor:
#      x y z
#    x 3.598790 0.000000 0.000000 
#    y 0.000000 3.776640 0.000000 
#    z 0.000000 0.000000 4.306570 
# 
# 
# High freq. dielectric constant tensor:
#      x y z
#    x 1.784170 0.000000 0.000000 
#    y 0.000000 1.804450 0.000000 
#    z 0.000000 0.000000 1.808710 
# 
# From -- ./inp_files/18807.got.cif
#   From: 2010.03.12/outbox.cif.g09.slc.cpg/sg35_10_cif.got.tgz:18807.got - 2010.04.14 02:02:04.
