data_PCOD8172218
_publ_section_title
;
Structure prediction by ZEFSAII (Michael W. Deem and Ramdas Pophale) SiO2 
 PCOD8172218
Probable space group: C M M 2
;
_chemical_formula_sum "Si O2"
_cell_formula_units_Z 64
_cell_length_a 8.888758
_cell_length_b 29.663770
_cell_length_c 12.292892
_cell_angle_alpha 90.000000
_cell_angle_beta 90.000000
_cell_angle_gamma 90.000000
_cell_volume 3241.316901
_symmetry_space_group_name_H-M "C M M 2"
_symmetry_group_IT_number 35
_symmetry_cell_setting 'orthorhombic'
loop_
_space_group_symop_operation_xyz
x,y,z
-x,-y,z
-x,y,z
x,-y,z
1/2+x,1/2+y,z
1/2-x,1/2-y,z
1/2-x,1/2+y,z
1/2+x,1/2-y,z
loop_
_atom_site_type_symbol
_atom_site_label
_atom_site_fract_x
_atom_site_fract_y
_atom_site_fract_z
Si Si1 0.321424 0.200530 0.616270
Si Si2 0.678767 0.950899 0.333785
Si Si3 0.172003 0.161169 0.047373
Si Si4 0.325818 0.207321 0.227666
Si Si5 0.172185 0.855429 0.801311
Si Si6 0.326179 0.451098 0.877673
Si Si7 0.174318 0.641094 0.419331
Si Si8 0.676693 0.929748 0.094931
O O1 0.500000 0.206620 0.609331
O O2 0.250000 0.250000 0.616370
O O3 0.279865 0.172930 0.723979
O O4 0.253673 0.171094 0.515680
O O5 0.500000 0.945231 0.330484
O O6 0.743894 0.909761 0.408288
O O7 0.738253 0.948659 0.209726
O O8 0.725307 0.000000 0.382601
O O9 0.235194 0.203761 0.113511
O O10 0.282219 0.122223 0.087329
O O11 0.000000 0.150685 0.079383
O O12 0.185631 0.168366 0.918505
O O13 0.500000 0.216162 0.205111
O O14 0.250000 0.250000 0.288470
O O15 0.299678 0.164062 0.303024
O O16 0.231530 0.907884 0.808034
O O17 0.000000 0.853733 0.759039
O O18 0.500000 0.441006 0.901487
O O19 0.303123 0.500000 0.817721
O O20 0.248835 0.456104 0.994391
O O21 0.000000 0.637452 0.448160
O O22 0.500000 0.936370 0.086638
#
# Coordination Sequence:
#
# PCOD8172218 Si02
#       8
#     8   8   8   8   8   8   8   8
#     4  11  23  40  63  84 106 139 187 240 289 340
#     4   9  16  28  50  80 113 148 182 218 268 326
#     4  10  20  35  54  79 112 151 186 224 278 337
#     4  11  21  35  55  81 113 146 182 225 278 340
#     4   9  20  38  58  81 112 146 187 232 279 333
#     4   9  18  33  53  79 115 157 193 228 274 329
#     4   9  19  36  55  80 113 145 182 228 277 332
#     4  10  17  28  49  79 114 152 190 231 271 320
#
# _framework density 19.745061
#
# number of rings (size 3 to 8) (size 9 to 14) (size 15 to 20)
#    0.000    2.250    1.250    3.000    0.000    3.750 
#    0.000    2.500    0.000    0.750    0.000    0.000 
#    0.000    0.000    0.000    0.000    0.000    0.000 
#
# Total GULP energy -396531.336450 kJ/mol
# GULP energy per Si atom -12391.604264 kJ/mol
# Density = 1.970012 g / cm^3
# Si number density = 19.745061 Si / 1000 Ang^3
#
#
#
# Elastic Constant Matrix: (Units=GPa)
#
#
# Indices 1 2 3 4 5 6 
#
# 1 45.5943 33.0250 31.5136 0.0000 0.0000 0.0000
# 2 33.0250 159.4843 58.4452 0.0000 0.0000 0.0000
# 3 31.5136 58.4452 85.1083 0.0000 0.0000 0.0000
# 4 0.0000 0.0000 0.0000 21.4444 0.0000 0.0000
# 5 0.0000 0.0000 0.0000 0.0000 17.7582 0.0000
# 6 0.0000 0.0000 0.0000 0.0000 0.0000 19.9487
#
#
#
# Elastic Compliance Matrix: (Units=1/GPa)
#
#
# Indices 1 2 3 4 5 6 
#
# 1 0.030451 -0.002905 -0.009281 0.000000 0.000000 0.000000
# 2 -0.002905 0.008656 -0.004869 0.000000 0.000000 0.000000
# 3 -0.009281 -0.004869 0.018529 0.000000 0.000000 0.000000
# 4 0.000000 0.000000 0.000000 0.046632 0.000000 0.000000
# 5 0.000000 0.000000 0.000000 0.000000 0.056312 0.000000
# 6 0.000000 0.000000 0.000000 0.000000 0.000000 0.050128
#
#
# Mechanical properties :
#
#
# Convention : Reuss Voigt Hill
#
# Bulk Modulus (GPa) = 42.50142 59.57272 51.03707
# Shear Modulus (GPa) = 19.78947 22.97714 21.38330
#
# Velocity S-wave (km/s) = 3.16927 3.41499 3.29442
# Velocity P-wave (km/s) = 5.91305 6.76654 6.35414
#
# Compressibility (1/GPa) = 0.02352862
#
# Stress axis : x y z
#
# Youngs Moduli (GPa) = 32.83970 115.52902 53.96801
#
# Poissons Ratio (x) = 0.33556 0.50086
# Poissons Ratio (y) = 0.09538 0.26275
# Poissons Ratio (z) = 0.30477 0.56247
#
# Static dielectric constant tensor:
#      x y z
#    x 3.365990 0.000000 0.000000 
#    y 0.000000 3.974590 0.000000 
#    z 0.000000 0.000000 3.448560 
# 
# 
# High freq. dielectric constant tensor:
#      x y z
#    x 1.744760 0.000000 0.000000 
#    y 0.000000 1.788890 0.000000 
#    z 0.000000 0.000000 1.745030 
# 
# From -- ./inp_files/11954.got.cif
#   From: 2010.03.12/outbox.cif.g09.slc.cpg/sg35_6_cif.got.tgz:11954.got - 2010.04.14 02:02:04.
