data_PCOD8172291
_publ_section_title
;
Structure prediction by ZEFSAII (Michael W. Deem and Ramdas Pophale) SiO2 
 PCOD8172291
Probable space group: C M M 2
;
_chemical_formula_sum "Si O2"
_cell_formula_units_Z 64
_cell_length_a 29.361311
_cell_length_b 9.420405
_cell_length_c 12.399310
_cell_angle_alpha 90.000000
_cell_angle_beta 90.000000
_cell_angle_gamma 90.000000
_cell_volume 3429.592617
_symmetry_space_group_name_H-M "C M M 2"
_symmetry_group_IT_number 35
_symmetry_cell_setting 'orthorhombic'
loop_
_space_group_symop_operation_xyz
x,y,z
-x,-y,z
-x,y,z
x,-y,z
1/2+x,1/2+y,z
1/2-x,1/2-y,z
1/2-x,1/2+y,z
1/2+x,1/2-y,z
loop_
_atom_site_type_symbol
_atom_site_label
_atom_site_fract_x
_atom_site_fract_y
_atom_site_fract_z
Si Si1 0.427106 0.833983 0.313620
Si Si2 0.949362 0.335712 0.555317
Si Si3 0.360089 0.335920 0.004689
Si Si4 0.949973 0.835596 0.106554
Si Si5 0.201623 0.169850 0.810430
Si Si6 0.655112 0.340449 0.376939
Si Si7 0.137122 0.163543 0.615846
Si Si8 0.209449 0.843334 0.180990
O O1 0.451046 0.800470 0.427841
O O2 0.451909 0.751803 0.217582
O O3 0.375916 0.778917 0.323598
O O4 0.427643 0.000000 0.286367
O O5 0.937148 0.500000 0.572724
O O6 0.910929 0.246910 0.618862
O O7 0.000000 0.300346 0.601155
O O8 0.363496 0.500000 0.975681
O O9 0.329738 0.269836 0.908600
O O10 0.411844 0.276787 0.021455
O O11 0.336707 0.302995 0.119168
O O12 0.000000 0.821414 0.052489
O O13 0.938739 0.000000 0.134418
O O14 0.250000 0.250000 0.810971
O O15 0.173074 0.214890 0.704793
O O16 0.210284 0.000000 0.816054
O O17 0.634472 0.500000 0.361785
O O18 0.663078 0.309913 0.502704
O O19 0.702164 0.329327 0.310027
O O20 0.124348 0.000000 0.634309
O O21 0.250000 0.750000 0.137442
O O22 0.224327 0.000000 0.147824
#
# Coordination Sequence:
#
# PCOD8172291 Si02
#       8
#     8   8   8   8   8   8   8   8
#     4  10  18  29  48  75 108 141 173 214 255 299
#     4   9  18  32  50  75 109 146 178 209 253 310
#     4   9  18  35  54  74 103 135 170 215 259 303
#     4  10  19  32  52  75 101 139 180 211 253 313
#     4  10  21  38  59  80 103 133 175 223 268 313
#     4   9  17  32  50  70 104 142 171 206 255 310
#     4   9  19  34  53  78 105 134 172 220 264 304
#     4  10  19  31  49  71 100 133 166 207 254 308
#
# _framework density 18.661107999999999
#
# number of rings (size 3 to 8) (size 9 to 14) (size 15 to 20)
#    0.000    2.500    1.250    1.125    0.000    3.000 
#    0.000    1.250    0.000    2.250    0.000    0.000 
#    0.000    0.000    0.000    0.000    0.000    0.000 
#
# Total GULP energy -396506.945730 kJ/mol
# GULP energy per Si atom -12390.842054 kJ/mol
# Density = 1.861863 g / cm^3
# Si number density = 18.661108 Si / 1000 Ang^3
#
#
#
# Elastic Constant Matrix: (Units=GPa)
#
#
# Indices 1 2 3 4 5 6 
#
# 1 149.0328 52.1529 63.6770 0.0000 0.0000 0.0000
# 2 52.1529 57.0147 31.8529 0.0000 0.0000 0.0000
# 3 63.6770 31.8529 94.7422 0.0000 0.0000 0.0000
# 4 0.0000 0.0000 0.0000 16.7874 0.0000 0.0000
# 5 0.0000 0.0000 0.0000 0.0000 -1.4765 0.0000
# 6 0.0000 0.0000 0.0000 0.0000 0.0000 28.7185
#
#
#
# Elastic Compliance Matrix: (Units=1/GPa)
#
#
# Indices 1 2 3 4 5 6 
#
# 1 0.011652 -0.007736 -0.005230 0.000000 0.000000 0.000000
# 2 -0.007736 0.026732 -0.003788 0.000000 0.000000 0.000000
# 3 -0.005230 -0.003788 0.015344 0.000000 0.000000 0.000000
# 4 0.000000 0.000000 0.000000 0.059569 0.000000 0.000000
# 5 0.000000 0.000000 0.000000 0.000000 -0.677259 0.000000
# 6 0.000000 0.000000 0.000000 0.000000 0.000000 0.034821
#
#
# Mechanical properties :
#
#
# Convention : Reuss Voigt Hill
#
# Bulk Modulus (GPa) = 49.45882 66.23947 57.84914
# Shear Modulus (GPa) = -10.22720 19.01300 4.39290
#
# Velocity S-wave (km/s) = -2.34358 3.19542 1.53595
# Velocity P-wave (km/s) = 4.38612 7.01337 5.84916
#
# Compressibility (1/GPa) = 0.02021884
#
# Stress axis : x y z
#
# Youngs Moduli (GPa) = 85.82250 37.40817 65.17259
#
# Poissons Ratio (x) = 0.28940 0.34088
# Poissons Ratio (y) = 0.66394 0.24687
# Poissons Ratio (z) = 0.44889 0.14170
#
# Static dielectric constant tensor:
#      x y z
#    x 3.471410 0.000000 0.000000 
#    y 0.000000 3.306040 0.000000 
#    z 0.000000 0.000000 3.403030 
# 
# 
# High freq. dielectric constant tensor:
#      x y z
#    x 1.724330 0.000000 0.000000 
#    y 0.000000 1.704910 0.000000 
#    z 0.000000 0.000000 1.709420 
# 
# From -- ./inp_files/14542.got.cif
#   From: 2010.03.12/outbox.cif.g09.slc.cpg/sg35_8_cif.got.tgz:14542.got - 2010.04.14 02:02:04.
