data_PCOD8172889
_publ_section_title
;
Structure prediction by ZEFSAII (Michael W. Deem and Ramdas Pophale) SiO2 
 PCOD8172889
Probable space group: C M M 2
;
_chemical_formula_sum "Si O2"
_cell_formula_units_Z 48
_cell_length_a 9.168949
_cell_length_b 27.800968
_cell_length_c 10.103697
_cell_angle_alpha 90.000000
_cell_angle_beta 90.000000
_cell_angle_gamma 90.000000
_cell_volume 2575.489529
_symmetry_space_group_name_H-M "C M M 2"
_symmetry_group_IT_number 35
_symmetry_cell_setting 'orthorhombic'
loop_
_space_group_symop_operation_xyz
x,y,z
-x,-y,z
-x,y,z
x,-y,z
1/2+x,1/2+y,z
1/2-x,1/2-y,z
1/2-x,1/2+y,z
1/2+x,1/2-y,z
loop_
_atom_site_type_symbol
_atom_site_label
_atom_site_fract_x
_atom_site_fract_y
_atom_site_fract_z
Si Si1 0.334199 0.555438 0.974470
Si Si2 0.828565 0.298129 0.167512
Si Si3 0.172492 0.602524 0.740731
Si Si4 0.330375 0.444681 0.502296
Si Si5 0.330673 0.389699 0.236636
Si Si6 0.830313 0.297328 0.861550
O O1 0.500000 0.568849 0.935898
O O2 0.320926 0.500000 0.012008
O O3 0.230868 0.566369 0.851509
O O4 0.281355 0.584684 0.101908
O O5 0.750000 0.250000 0.218071
O O6 0.765708 0.341906 0.254061
O O7 0.000000 0.293400 0.191687
O O8 0.788990 0.307363 0.013981
O O9 0.238790 0.588580 0.600294
O O10 0.220212 0.656989 0.775550
O O11 0.000000 0.597485 0.735381
O O12 0.500000 0.440007 0.538799
O O13 0.279418 0.500000 0.512841
O O14 0.298211 0.426306 0.355104
O O15 0.500000 0.375072 0.232705
O O16 0.750000 0.250000 0.807063
O O17 0.000000 0.287420 0.846348
#
# Coordination Sequence:
#
# PCOD8172889 Si02
#       6
#     8   8   8   8   8   8
#     4  10  20  34  55  82 109 141 185 234 281 332
#     4  10  19  34  56  84 116 147 183 229 280 336
#     4  11  22  37  55  82 115 147 185 231 282 334
#     4  10  22  40  59  80 111 152 194 233 276 331
#     4  10  20  36  58  83 111 146 188 234 282 330
#     4   9  19  34  54  81 112 143 179 225 277 329
#
# _framework density 18.637232999999998
#
# number of rings (size 3 to 8) (size 9 to 14) (size 15 to 20)
#    0.000    2.000    1.667    2.000    0.000    7.333 
#    0.000    0.833    0.000    5.000    0.000    0.000 
#    0.000    0.000    0.000    0.000    0.000    0.000 
#
# Total GULP energy -297700.438714 kJ/mol
# GULP energy per Si atom -12404.184946 kJ/mol
# Density = 1.859481 g / cm^3
# Si number density = 18.637233 Si / 1000 Ang^3
#
#
#
# Elastic Constant Matrix: (Units=GPa)
#
#
# Indices 1 2 3 4 5 6 
#
# 1 66.3410 46.4500 28.8028 0.0000 0.0000 0.0000
# 2 46.4500 121.0011 24.8304 0.0000 0.0000 0.0000
# 3 28.8028 24.8304 62.4290 0.0000 0.0000 0.0000
# 4 0.0000 0.0000 0.0000 31.7199 0.0000 0.0000
# 5 0.0000 0.0000 0.0000 0.0000 25.3554 0.0000
# 6 0.0000 0.0000 0.0000 0.0000 0.0000 32.7982
#
#
#
# Elastic Compliance Matrix: (Units=1/GPa)
#
#
# Indices 1 2 3 4 5 6 
#
# 1 0.023791 -0.007492 -0.007997 0.000000 0.000000 0.000000
# 2 -0.007492 0.011358 -0.001061 0.000000 0.000000 0.000000
# 3 -0.007997 -0.001061 0.020130 0.000000 0.000000 0.000000
# 4 0.000000 0.000000 0.000000 0.031526 0.000000 0.000000
# 5 0.000000 0.000000 0.000000 0.000000 0.039439 0.000000
# 6 0.000000 0.000000 0.000000 0.000000 0.000000 0.030489
#
#
# Mechanical properties :
#
#
# Convention : Reuss Voigt Hill
#
# Bulk Modulus (GPa) = 45.08643 49.99307 47.53975
# Shear Modulus (GPa) = 25.35162 27.95390 26.65276
#
# Velocity S-wave (km/s) = 3.69218 3.87705 3.78574
# Velocity P-wave (km/s) = 6.51309 6.85015 6.68375
#
# Compressibility (1/GPa) = 0.02217962
#
# Stress axis : x y z
#
# Youngs Moduli (GPa) = 42.03241 88.04256 49.67806
#
# Poissons Ratio (x) = 0.65961 0.39726
# Poissons Ratio (y) = 0.31491 0.05271
# Poissons Ratio (z) = 0.33612 0.09341
#
# Static dielectric constant tensor:
#      x y z
#    x 3.402690 0.000000 0.000000 
#    y 0.000000 3.536360 0.000000 
#    z 0.000000 0.000000 3.247920 
# 
# 
# High freq. dielectric constant tensor:
#      x y z
#    x 1.720960 0.000000 0.000000 
#    y 0.000000 1.736500 0.000000 
#    z 0.000000 0.000000 1.705630 
# 
# From -- ./inp_files/5320.got.cif
#   From: 2010.03.12/outbox.cif.g09.slc.cpg/sg35_3_cif.got.tgz:5320.got - 2010.04.14 02:02:04.
