data_PCOD8172389
_publ_section_title
;
Structure prediction by ZEFSAII (Michael W. Deem and Ramdas Pophale) SiO2 
 PCOD8172389
Probable space group: C M M 2
;
_chemical_formula_sum "Si O2"
_cell_formula_units_Z 64
_cell_length_a 29.140121
_cell_length_b 8.780489
_cell_length_c 12.542299
_cell_angle_alpha 90.000000
_cell_angle_beta 90.000000
_cell_angle_gamma 90.000000
_cell_volume 3209.129212
_symmetry_space_group_name_H-M "C M M 2"
_symmetry_group_IT_number 35
_symmetry_cell_setting 'orthorhombic'
loop_
_space_group_symop_operation_xyz
x,y,z
-x,-y,z
-x,y,z
x,-y,z
1/2+x,1/2+y,z
1/2-x,1/2-y,z
1/2-x,1/2+y,z
1/2+x,1/2-y,z
loop_
_atom_site_type_symbol
_atom_site_label
_atom_site_fract_x
_atom_site_fract_y
_atom_site_fract_z
Si Si1 0.931336 0.168937 0.543770
Si Si2 0.703949 0.317228 0.393956
Si Si3 0.829135 0.832024 0.608434
Si Si4 0.949007 0.323516 0.762364
Si Si5 0.142908 0.678058 0.223537
Si Si6 0.949359 0.326175 0.323045
Si Si7 0.858094 0.818353 0.830026
Si Si8 0.699315 0.680125 0.033460
O O1 0.876873 0.161707 0.546214
O O2 0.949585 0.272988 0.639386
O O3 0.947167 0.228124 0.429681
O O4 0.951843 0.000000 0.559470
O O5 0.700935 0.500000 0.381923
O O6 0.750000 0.250000 0.340991
O O7 0.704188 0.261257 0.518594
O O8 0.662315 0.234458 0.335920
O O9 0.834084 0.747308 0.722602
O O10 0.810965 0.000000 0.635619
O O11 0.936765 0.500000 0.766439
O O12 0.910744 0.238700 0.834668
O O13 0.000000 0.292020 0.810123
O O14 0.152275 0.500000 0.204214
O O15 0.088461 0.716638 0.232504
O O16 0.167468 0.772627 0.131297
O O17 0.940610 0.500000 0.357841
O O18 0.000000 0.304209 0.271653
O O19 0.860623 0.000000 0.823533
O O20 0.827506 0.761544 0.928414
O O21 0.704974 0.500000 0.033422
O O22 0.750000 0.750000 0.039447
#
# Coordination Sequence:
#
# PCOD8172389 Si02
#       8
#     8   8   8   8   8   8   8   8
#     4  10  18  31  52  80 115 158 200 237 281 337
#     4  11  21  35  55  82 116 150 188 233 287 350
#     4   8  16  32  53  78 113 150 183 227 281 336
#     4  10  20  33  52  83 122 161 200 240 283 336
#     4  11  23  40  61  84 115 152 195 240 291 349
#     4  10  21  36  55  82 116 152 192 240 291 345
#     4   9  20  39  61  86 115 150 194 243 293 345
#     4  11  24  43  67  90 114 146 193 247 297 350
#
# _framework density 19.943104999999999
#
# number of rings (size 3 to 8) (size 9 to 14) (size 15 to 20)
#    0.000    2.000    1.250    3.375    0.000    4.750 
#    0.000    1.250    0.000    2.250    0.000    0.000 
#    0.000    0.000    0.000    0.000    0.000    0.000 
#
# Total GULP energy -396524.577423 kJ/mol
# GULP energy per Si atom -12391.393044 kJ/mol
# Density = 1.989771 g / cm^3
# Si number density = 19.943105 Si / 1000 Ang^3
#
#
#
# Elastic Constant Matrix: (Units=GPa)
#
#
# Indices 1 2 3 4 5 6 
#
# 1 130.5833 33.8091 58.5952 0.0000 0.0000 0.0000
# 2 33.8091 51.9880 21.7580 0.0000 0.0000 0.0000
# 3 58.5952 21.7580 104.4580 0.0000 0.0000 0.0000
# 4 0.0000 0.0000 0.0000 21.1161 0.0000 0.0000
# 5 0.0000 0.0000 0.0000 0.0000 23.5496 0.0000
# 6 0.0000 0.0000 0.0000 0.0000 0.0000 22.7974
#
#
#
# Elastic Compliance Matrix: (Units=1/GPa)
#
#
# Indices 1 2 3 4 5 6 
#
# 1 0.011379 -0.005180 -0.005304 0.000000 0.000000 0.000000
# 2 -0.005180 0.023430 -0.001975 0.000000 0.000000 0.000000
# 3 -0.005304 -0.001975 0.012960 0.000000 0.000000 0.000000
# 4 0.000000 0.000000 0.000000 0.047357 0.000000 0.000000
# 5 0.000000 0.000000 0.000000 0.000000 0.042464 0.000000
# 6 0.000000 0.000000 0.000000 0.000000 0.000000 0.043865
#
#
# Mechanical properties :
#
#
# Convention : Reuss Voigt Hill
#
# Bulk Modulus (GPa) = 43.76063 57.26154 50.51109
# Shear Modulus (GPa) = 23.36556 25.01709 24.19133
#
# Velocity S-wave (km/s) = 3.42659 3.54563 3.48662
# Velocity P-wave (km/s) = 6.13561 6.74809 6.44913
#
# Compressibility (1/GPa) = 0.02285159
#
# Stress axis : x y z
#
# Youngs Moduli (GPa) = 87.87945 42.67945 77.16166
#
# Poissons Ratio (x) = 0.22109 0.40927
# Poissons Ratio (y) = 0.45525 0.15236
# Poissons Ratio (z) = 0.46612 0.08427
#
# Static dielectric constant tensor:
#      x y z
#    x 3.872690 0.000000 0.000000 
#    y 0.000000 3.553110 0.000000 
#    z 0.000000 0.000000 3.556830 
# 
# 
# High freq. dielectric constant tensor:
#      x y z
#    x 1.790340 0.000000 0.000000 
#    y 0.000000 1.769680 0.000000 
#    z 0.000000 0.000000 1.758650 
# 
# From -- ./inp_files/14548.got.cif
#   From: 2010.03.12/outbox.cif.g09.slc.cpg/sg35_8_cif.got.tgz:14548.got - 2010.04.14 02:02:04.
