data_PCOD8172058
_publ_section_title
;
Structure prediction by ZEFSAII (Michael W. Deem and Ramdas Pophale) SiO2 
 PCOD8172058
Probable space group: P N N 2
;
_chemical_formula_sum "Si O2"
_cell_formula_units_Z 24
_cell_length_a 18.023893
_cell_length_b 10.303304
_cell_length_c 5.455855
_cell_angle_alpha 90.000000
_cell_angle_beta 90.000000
_cell_angle_gamma 90.000000
_cell_volume 1013.183093
_symmetry_space_group_name_H-M "P N N 2"
_symmetry_group_IT_number 34
_symmetry_cell_setting 'orthorhombic'
loop_
_space_group_symop_operation_xyz
x,y,z
-x,-y,z
1/2-x,1/2+y,1/2+z
1/2+x,1/2-y,1/2+z
loop_
_atom_site_type_symbol
_atom_site_label
_atom_site_fract_x
_atom_site_fract_y
_atom_site_fract_z
Si Si1 0.534557 0.741320 0.795220
Si Si2 0.500000 0.000000 0.079899
Si Si3 0.404634 0.654500 0.469854
Si Si4 0.354997 0.928695 0.354984
Si Si5 0.242161 0.102173 0.170680
Si Si6 0.313683 0.148883 0.662057
Si Si7 0.500000 0.500000 0.123126
O O1 0.479839 0.712159 0.574084
O O2 0.616331 0.755732 0.685226
O O3 0.503895 0.870431 0.920542
O O4 0.533146 0.617841 0.970493
O O5 0.427146 0.998450 0.245424
O O6 0.360326 0.774898 0.354205
O O7 0.347828 0.590228 0.667076
O O8 0.428213 0.546005 0.276359
O O9 0.342868 0.998693 0.621985
O O10 0.282042 0.961556 0.189514
O O11 0.266301 0.164439 0.909944
O O12 0.267540 0.185872 0.411867
#
# Coordination Sequence:
#
# PCOD8172058 Si02
#       7
#     4   2   4   4   4   4   2
#     4  12  25  48  79 119 159 210 278 341 410 495
#     4  12  20  46  86 114 148 204 284 332 396 474
#     4  12  27  51  74 118 164 217 270 339 430 488
#     4  10  23  45  81 115 148 206 274 345 391 488
#     4  10  26  49  74 121 155 207 269 340 409 482
#     4  10  23  49  77 116 144 208 267 340 390 473
#     4  12  30  48  76 118 174 222 262 348 424 514
#
# _framework density 23.687725
#
# number of rings (size 3 to 8) (size 9 to 14) (size 15 to 20)
#    1.000    0.000    3.333    2.500    4.667    0.000 
#    9.000    0.000    0.000    0.000    0.000    0.000 
#    0.000    0.000    0.000    0.000    0.000    0.000 
#
# Total GULP energy -297393.477279 kJ/mol
# GULP energy per Si atom -12391.394887 kJ/mol
# Density = 2.363381 g / cm^3
# Si number density = 23.687725 Si / 1000 Ang^3
#
#
#
# Elastic Constant Matrix: (Units=GPa)
#
#
# Indices 1 2 3 4 5 6 
#
# 1 90.2639 38.3377 34.0090 0.0000 0.0000 0.0000
# 2 38.3377 131.7155 39.3418 0.0000 0.0000 0.0000
# 3 34.0090 39.3418 136.9808 0.0000 0.0000 0.0000
# 4 0.0000 0.0000 0.0000 33.4834 0.0000 0.0000
# 5 0.0000 0.0000 0.0000 0.0000 47.8623 0.0000
# 6 0.0000 0.0000 0.0000 0.0000 0.0000 18.1657
#
#
#
# Elastic Compliance Matrix: (Units=1/GPa)
#
#
# Indices 1 2 3 4 5 6 
#
# 1 0.013326 -0.003162 -0.002400 0.000000 0.000000 0.000000
# 2 -0.003162 0.009055 -0.001816 0.000000 0.000000 0.000000
# 3 -0.002400 -0.001816 0.008418 0.000000 0.000000 0.000000
# 4 0.000000 0.000000 0.000000 0.029866 0.000000 0.000000
# 5 0.000000 0.000000 0.000000 0.000000 0.020893 0.000000
# 6 0.000000 0.000000 0.000000 0.000000 0.000000 0.055049
#
#
# Mechanical properties :
#
#
# Convention : Reuss Voigt Hill
#
# Bulk Modulus (GPa) = 62.33318 64.70415 63.51867
# Shear Modulus (GPa) = 31.90624 36.38705 34.14665
#
# Velocity S-wave (km/s) = 3.67407 3.92358 3.80087
# Velocity P-wave (km/s) = 6.66108 6.92104 6.79230
#
# Compressibility (1/GPa) = 0.01604282
#
# Stress axis : x y z
#
# Youngs Moduli (GPa) = 75.04174 110.44015 118.79720
#
# Poissons Ratio (x) = 0.34918 0.28516
# Poissons Ratio (y) = 0.23726 0.21569
# Poissons Ratio (z) = 0.18013 0.20051
#
# Static dielectric constant tensor:
#      x y z
#    x 4.392130 0.000000 0.000000 
#    y 0.000000 4.423540 0.000000 
#    z 0.000000 0.000000 4.231830 
# 
# 
# High freq. dielectric constant tensor:
#      x y z
#    x 1.954780 0.000000 0.000000 
#    y 0.000000 1.926870 0.000000 
#    z 0.000000 0.000000 1.934860 
# 
# From -- ./inp_files/1438.got.cif
#   From: 2010.03.12/outbox.cif.g09.slc.cpg/sg34_1_cif.got.tgz:1438.got - 2010.04.14 01:56:33.
