data_PCOD8172826
_publ_section_title
;
Structure prediction by ZEFSAII (Michael W. Deem and Ramdas Pophale) SiO2 
 PCOD8172826
Probable space group: C M M 2
;
_chemical_formula_sum "Si O2"
_cell_formula_units_Z 64
_cell_length_a 8.992834
_cell_length_b 31.665640
_cell_length_c 11.529329
_cell_angle_alpha 90.000000
_cell_angle_beta 90.000000
_cell_angle_gamma 90.000000
_cell_volume 3283.136045
_symmetry_space_group_name_H-M "C M M 2"
_symmetry_group_IT_number 35
_symmetry_cell_setting 'orthorhombic'
loop_
_space_group_symop_operation_xyz
x,y,z
-x,-y,z
-x,y,z
x,-y,z
1/2+x,1/2+y,z
1/2-x,1/2-y,z
1/2-x,1/2+y,z
1/2+x,1/2-y,z
loop_
_atom_site_type_symbol
_atom_site_label
_atom_site_fract_x
_atom_site_fract_y
_atom_site_fract_z
Si Si1 0.825131 0.874959 0.127160
Si Si2 0.824609 0.795104 0.283503
Si Si3 0.334054 0.128773 0.891969
Si Si4 0.675605 0.904327 0.652119
Si Si5 0.675738 0.049058 0.251417
Si Si6 0.824299 0.175099 0.539952
Si Si7 0.165011 0.286949 0.749449
Si Si8 0.662696 0.548383 0.480554
O O1 0.771783 0.833084 0.197172
O O2 0.742359 0.918527 0.158597
O O3 0.000000 0.881593 0.144161
O O4 0.787034 0.869277 0.992125
O O5 0.750000 0.750000 0.250829
O O6 0.777322 0.809375 0.412212
O O7 0.000000 0.788493 0.272425
O O8 0.500000 0.116761 0.938141
O O9 0.281908 0.097344 0.788403
O O10 0.340444 0.173829 0.832788
O O11 0.500000 0.899859 0.638409
O O12 0.751873 0.869952 0.568294
O O13 0.742466 0.947201 0.599530
O O14 0.500000 0.053973 0.256133
O O15 0.742340 0.065488 0.372744
O O16 0.718230 0.000000 0.222394
O O17 0.759510 0.207607 0.632413
O O18 0.000000 0.171663 0.552349
O O19 0.250000 0.250000 0.819469
O O20 0.000000 0.273406 0.712870
O O21 0.500000 0.571142 0.485732
O O22 0.633914 0.500000 0.459903
#
# Coordination Sequence:
#
# PCOD8172826 Si02
#       8
#     8   8   8   8   8   8   8   8
#     4  11  23  39  59  83 112 148 192 239 287 336
#     4  10  23  38  53  79 112 147 186 228 276 332
#     4   9  21  39  55  75 105 143 187 230 273 327
#     4  10  20  35  56  81 109 143 183 225 275 335
#     4  10  21  38  62  90 117 148 187 229 279 339
#     4  10  19  33  54  79 109 141 177 226 282 339
#     4  10  20  34  53  78 107 139 180 229 280 335
#     4  10  20  34  55  85 118 146 175 217 270 329
#
# _framework density 19.493556999999999
#
# number of rings (size 3 to 8) (size 9 to 14) (size 15 to 20)
#    0.000    2.000    0.000    4.125    0.000    9.000 
#    0.000    3.125    0.000    0.750    0.000    0.000 
#    0.000    0.000    0.000    0.000    0.000    0.000 
#
# Total GULP energy -396602.648566 kJ/mol
# GULP energy per Si atom -12393.832768 kJ/mol
# Density = 1.944919 g / cm^3
# Si number density = 19.493557 Si / 1000 Ang^3
#
#
#
# Elastic Constant Matrix: (Units=GPa)
#
#
# Indices 1 2 3 4 5 6 
#
# 1 105.1814 42.2653 52.5083 0.0000 0.0000 0.0000
# 2 42.2653 64.5139 39.9152 0.0000 0.0000 0.0000
# 3 52.5083 39.9152 110.9727 0.0000 0.0000 0.0000
# 4 0.0000 0.0000 0.0000 86.3565 0.0000 0.0000
# 5 0.0000 0.0000 0.0000 0.0000 35.9458 0.0000
# 6 0.0000 0.0000 0.0000 0.0000 0.0000 33.0862
#
#
#
# Elastic Compliance Matrix: (Units=1/GPa)
#
#
# Indices 1 2 3 4 5 6 
#
# 1 0.014401 -0.006713 -0.004400 0.000000 0.000000 0.000000
# 2 -0.006713 0.023066 -0.005120 0.000000 0.000000 0.000000
# 3 -0.004400 -0.005120 0.012935 0.000000 0.000000 0.000000
# 4 0.000000 0.000000 0.000000 0.011580 0.000000 0.000000
# 5 0.000000 0.000000 0.000000 0.000000 0.027820 0.000000
# 6 0.000000 0.000000 0.000000 0.000000 0.000000 0.030224
#
#
# Mechanical properties :
#
#
# Convention : Reuss Voigt Hill
#
# Bulk Modulus (GPa) = 55.75153 61.11617 58.43385
# Shear Modulus (GPa) = 31.55172 40.80964 36.18068
#
# Velocity S-wave (km/s) = 4.02751 4.58043 4.31284
# Velocity P-wave (km/s) = 7.09154 7.70674 7.40553
#
# Compressibility (1/GPa) = 0.01793673
#
# Stress axis : x y z
#
# Youngs Moduli (GPa) = 69.43911 43.35343 77.31109
#
# Poissons Ratio (x) = 0.29101 0.34014
# Poissons Ratio (y) = 0.46611 0.39587
# Poissons Ratio (z) = 0.30551 0.22199
#
# Static dielectric constant tensor:
#      x y z
#    x 3.676870 0.000000 0.000000 
#    y 0.000000 3.015610 0.000000 
#    z 0.000000 0.000000 3.549620 
# 
# 
# High freq. dielectric constant tensor:
#      x y z
#    x 1.770640 0.000000 0.000000 
#    y 0.000000 1.759950 0.000000 
#    z 0.000000 0.000000 1.748090 
# 
# From -- ./inp_files/11981.got.cif
#   From: 2010.03.12/outbox.cif.g09.slc.cpg/sg35_6_cif.got.tgz:11981.got - 2010.04.14 02:02:04.
