data_PCOD8172488
_publ_section_title
;
Structure prediction by ZEFSAII (Michael W. Deem and Ramdas Pophale) SiO2 
 PCOD8172488
Probable space group: C M M 2
;
_chemical_formula_sum "Si O2"
_cell_formula_units_Z 64
_cell_length_a 9.064362
_cell_length_b 30.374390
_cell_length_c 15.413022
_cell_angle_alpha 90.000000
_cell_angle_beta 90.000000
_cell_angle_gamma 90.000000
_cell_volume 4243.582059
_symmetry_space_group_name_H-M "C M M 2"
_symmetry_group_IT_number 35
_symmetry_cell_setting 'orthorhombic'
loop_
_space_group_symop_operation_xyz
x,y,z
-x,-y,z
-x,y,z
x,-y,z
1/2+x,1/2+y,z
1/2-x,1/2-y,z
1/2-x,1/2+y,z
1/2+x,1/2-y,z
loop_
_atom_site_type_symbol
_atom_site_label
_atom_site_fract_x
_atom_site_fract_y
_atom_site_fract_z
Si Si1 0.824722 0.450410 0.748400
Si Si2 0.333100 0.706972 0.408818
Si Si3 0.171070 0.948273 0.290927
Si Si4 0.665680 0.292322 0.615296
Si Si5 0.673032 0.879494 0.614109
Si Si6 0.826488 0.618410 0.413591
Si Si7 0.325102 0.048790 0.935595
Si Si8 0.665833 0.052533 0.120598
O O1 0.761794 0.500000 0.736231
O O2 0.763647 0.419667 0.671618
O O3 0.777918 0.429513 0.843071
O O4 0.000000 0.452425 0.742839
O O5 0.500000 0.706039 0.372585
O O6 0.250000 0.750000 0.371049
O O7 0.333401 0.709267 0.511935
O O8 0.248511 0.663048 0.378058
O O9 0.262412 0.923670 0.364675
O O10 0.225915 0.931653 0.196731
O O11 0.000000 0.936566 0.300100
O O12 0.201274 0.000000 0.302649
O O13 0.500000 0.292153 0.651686
O O14 0.750000 0.250000 0.653340
O O15 0.747537 0.335791 0.648319
O O16 0.500000 0.872347 0.627375
O O17 0.711098 0.889288 0.514379
O O18 0.000000 0.622260 0.397421
O O19 0.500000 0.045916 0.941149
O O20 0.257483 0.000000 0.931822
O O21 0.274943 0.071727 0.026835
O O22 0.500000 0.069458 0.141274
O O23 0.664975 0.000000 0.113301
#
# Coordination Sequence:
#
# PCOD8172488 Si02
#       8
#     8   8   8   8   8   8   8   8
#     4   8  13  22  37  58  83 109 137 168 198 230
#     4   9  16  27  43  61  80 102 130 166 208 249
#     4  10  20  31  41  55  78 109 142 174 208 244
#     4   9  16  26  41  58  77 101 130 166 207 246
#     4   9  17  27  40  59  82 108 139 171 200 232
#     4  10  19  29  41  58  81 110 143 175 204 236
#     4   7  10  18  35  58  79  98 124 161 203 241
#     4   8  13  23  40  59  76  96 126 165 206 245
#
# _framework density 15.081598
#
# number of rings (size 3 to 8) (size 9 to 14) (size 15 to 20)
#    0.000    3.250    0.000    3.000    0.000    4.750 
#    0.000    1.250    0.000    1.125    0.000    1.750 
#    0.000    1.000    0.000    5.000    0.000    4.000 
#
# Total GULP energy -396461.797403 kJ/mol
# GULP energy per Si atom -12389.431169 kJ/mol
# Density = 1.504727 g / cm^3
# Si number density = 15.081598 Si / 1000 Ang^3
#
#
#
# Elastic Constant Matrix: (Units=GPa)
#
#
# Indices 1 2 3 4 5 6 
#
# 1 70.1010 38.8650 35.8742 0.0000 0.0000 0.0000
# 2 38.8650 80.6459 48.3990 0.0000 0.0000 0.0000
# 3 35.8742 48.3990 81.2496 0.0000 0.0000 0.0000
# 4 0.0000 0.0000 0.0000 1.6212 0.0000 0.0000
# 5 0.0000 0.0000 0.0000 0.0000 8.8740 0.0000
# 6 0.0000 0.0000 0.0000 0.0000 0.0000 22.8733
#
#
#
# Elastic Compliance Matrix: (Units=1/GPa)
#
#
# Indices 1 2 3 4 5 6 
#
# 1 0.020681 -0.006983 -0.004972 0.000000 0.000000 0.000000
# 2 -0.006983 0.021657 -0.009818 0.000000 0.000000 0.000000
# 3 -0.004972 -0.009818 0.020351 0.000000 0.000000 0.000000
# 4 0.000000 0.000000 0.000000 0.616826 0.000000 0.000000
# 5 0.000000 0.000000 0.000000 0.000000 0.112689 0.000000
# 6 0.000000 0.000000 0.000000 0.000000 0.000000 0.043719
#
#
# Mechanical properties :
#
#
# Convention : Reuss Voigt Hill
#
# Bulk Modulus (GPa) = 52.23370 53.14144 52.68757
# Shear Modulus (GPa) = 5.64431 13.93091 9.78761
#
# Velocity S-wave (km/s) = 1.93666 3.04255 2.55027
# Velocity P-wave (km/s) = 6.30160 6.90328 6.60929
#
# Compressibility (1/GPa) = 0.01914473
#
# Stress axis : x y z
#
# Youngs Moduli (GPa) = 48.35415 46.17443 49.13744
#
# Poissons Ratio (x) = 0.32243 0.24429
# Poissons Ratio (y) = 0.33765 0.48241
# Poissons Ratio (z) = 0.24040 0.45332
#
# Static dielectric constant tensor:
#      x y z
#    x 2.821600 0.000000 0.000000 
#    y 0.000000 2.813310 0.000000 
#    z 0.000000 0.000000 3.008410 
# 
# 
# High freq. dielectric constant tensor:
#      x y z
#    x 1.566230 0.000000 0.000000 
#    y 0.000000 1.548710 0.000000 
#    z 0.000000 0.000000 1.556240 
# 
# From -- ./inp_files/16243.got.cif
#   From: 2010.03.12/outbox.cif.g09.slc.cpg/sg35_9_cif.got.tgz:16243.got - 2010.04.14 02:02:04.
