data_PCOD8172525
_publ_section_title
;
Structure prediction by ZEFSAII (Michael W. Deem and Ramdas Pophale) SiO2 
 PCOD8172525
Probable space group: C M M 2
;
_chemical_formula_sum "Si O2"
_cell_formula_units_Z 56
_cell_length_a 8.956550
_cell_length_b 18.900957
_cell_length_c 18.449692
_cell_angle_alpha 90.000000
_cell_angle_beta 90.000000
_cell_angle_gamma 90.000000
_cell_volume 3123.299770
_symmetry_space_group_name_H-M "C M M 2"
_symmetry_group_IT_number 35
_symmetry_cell_setting 'orthorhombic'
loop_
_space_group_symop_operation_xyz
x,y,z
-x,-y,z
-x,y,z
x,-y,z
1/2+x,1/2+y,z
1/2-x,1/2-y,z
1/2-x,1/2+y,z
1/2+x,1/2-y,z
loop_
_atom_site_type_symbol
_atom_site_label
_atom_site_fract_x
_atom_site_fract_y
_atom_site_fract_z
Si Si1 0.176948 0.326504 0.439210
Si Si2 0.823544 0.173079 0.579956
Si Si3 0.831687 0.915848 0.158301
Si Si4 0.328005 0.676066 0.734646
Si Si5 0.325750 0.081171 0.302207
Si Si6 0.324256 0.673393 0.892213
Si Si7 0.328093 0.083562 0.014250
O O1 0.250000 0.250000 0.427977
O O2 0.243628 0.365041 0.511684
O O3 0.224205 0.374627 0.371813
O O4 0.000000 0.319260 0.446467
O O5 0.750000 0.250000 0.583305
O O6 0.789952 0.134699 0.658605
O O7 0.000000 0.178209 0.564963
O O8 0.759220 0.887209 0.232420
O O9 0.739230 0.887342 0.089576
O O10 0.000000 0.887219 0.152494
O O11 0.826266 0.000000 0.158903
O O12 0.500000 0.695000 0.732907
O O13 0.250000 0.750000 0.733928
O O14 0.289580 0.639242 0.811795
O O15 0.500000 0.088549 0.286167
O O16 0.281046 0.000000 0.316576
O O17 0.500000 0.681783 0.905427
O O18 0.250000 0.750000 0.901655
O O19 0.258629 0.618310 0.948315
O O20 0.500000 0.105795 0.011244
O O21 0.306237 0.000000 0.007696
#
# Coordination Sequence:
#
# PCOD8172525 Si02
#       7
#     8   8   8   8   8   8   8
#     4  10  19  30  46  69  96 124 153 189 233 277
#     4   9  15  25  42  64  91 121 155 192 229 272
#     4   9  17  30  50  74  95 118 154 197 237 279
#     4   8  15  26  42  65  91 121 155 192 232 273
#     4   9  18  33  51  69  91 121 156 192 231 277
#     4  10  19  32  50  73 101 129 160 199 243 289
#     4  10  20  34  52  73  98 128 162 199 239 284
#
# _framework density 17.929755
#
# number of rings (size 3 to 8) (size 9 to 14) (size 15 to 20)
#    0.000    2.714    0.000    3.000    0.000    4.857 
#    0.000    0.714    0.000    2.571    0.000    4.000 
#    0.000    0.000    0.000    0.000    0.000    0.000 
#
# Total GULP energy -346875.220452 kJ/mol
# GULP energy per Si atom -12388.400730 kJ/mol
# Density = 1.788895 g / cm^3
# Si number density = 17.929755 Si / 1000 Ang^3
#
#
#
# Elastic Constant Matrix: (Units=GPa)
#
#
# Indices 1 2 3 4 5 6 
#
# 1 101.6745 26.5801 82.5180 0.0000 0.0000 0.0000
# 2 26.5801 28.7417 42.7264 0.0000 0.0000 0.0000
# 3 82.5180 42.7264 211.3391 0.0000 0.0000 0.0000
# 4 0.0000 0.0000 0.0000 -28.4727 0.0000 0.0000
# 5 0.0000 0.0000 0.0000 0.0000 34.1558 0.0000
# 6 0.0000 0.0000 0.0000 0.0000 0.0000 19.4121
#
#
#
# Elastic Compliance Matrix: (Units=1/GPa)
#
#
# Indices 1 2 3 4 5 6 
#
# 1 0.015484 -0.007623 -0.004505 0.000000 0.000000 0.000000
# 2 -0.007623 0.053495 -0.007839 0.000000 0.000000 0.000000
# 3 -0.004505 -0.007839 0.008075 0.000000 0.000000 0.000000
# 4 0.000000 0.000000 0.000000 -0.035121 0.000000 0.000000
# 5 0.000000 0.000000 0.000000 0.000000 0.029278 0.000000
# 6 0.000000 0.000000 0.000000 0.000000 0.000000 0.051514
#
#
# Mechanical properties :
#
#
# Convention : Reuss Voigt Hill
#
# Bulk Modulus (GPa) = 26.93841 71.71157 49.32499
# Shear Modulus (GPa) = 28.56626 17.68108 23.12367
#
# Velocity S-wave (km/s) = 3.99586 3.14368 3.59511
# Velocity P-wave (km/s) = 6.02878 7.29792 6.69350
#
# Compressibility (1/GPa) = 0.03712171
#
# Stress axis : x y z
#
# Youngs Moduli (GPa) = 64.58239 18.69332 123.83414
#
# Poissons Ratio (x) = 0.14250 0.55783
# Poissons Ratio (y) = 0.49232 0.97069
# Poissons Ratio (z) = 0.29092 0.14653
#
# Static dielectric constant tensor:
#      x y z
#    x 3.384480 0.000000 0.000000 
#    y 0.000000 2.779910 0.000000 
#    z 0.000000 0.000000 4.215830 
# 
# 
# High freq. dielectric constant tensor:
#      x y z
#    x 1.708380 0.000000 0.000000 
#    y 0.000000 1.625640 0.000000 
#    z 0.000000 0.000000 1.726960 
# 
# From -- ./inp_files/18230.got.cif
#   From: 2010.03.12/outbox.cif.g09.slc.cpg/sg35_10_cif.got.tgz:18230.got - 2010.04.14 02:02:04.
