data_PCOD8172444
_publ_section_title
;
Structure prediction by ZEFSAII (Michael W. Deem and Ramdas Pophale) SiO2 
 PCOD8172444
Probable space group: C M M 2
;
_chemical_formula_sum "Si O2"
_cell_formula_units_Z 48
_cell_length_a 8.886473
_cell_length_b 30.418023
_cell_length_c 9.272099
_cell_angle_alpha 90.000000
_cell_angle_beta 90.000000
_cell_angle_gamma 90.000000
_cell_volume 2506.331253
_symmetry_space_group_name_H-M "C M M 2"
_symmetry_group_IT_number 35
_symmetry_cell_setting 'orthorhombic'
loop_
_space_group_symop_operation_xyz
x,y,z
-x,-y,z
-x,y,z
x,-y,z
1/2+x,1/2+y,z
1/2-x,1/2-y,z
1/2-x,1/2+y,z
1/2+x,1/2-y,z
loop_
_atom_site_type_symbol
_atom_site_label
_atom_site_fract_x
_atom_site_fract_y
_atom_site_fract_z
Si Si1 0.678505 0.406118 0.421730
Si Si2 0.826098 0.367495 0.156822
Si Si3 0.323488 0.796410 0.916340
Si Si4 0.178218 0.000000 0.754950
Si Si5 0.677896 0.000000 0.452384
Si Si6 0.335652 0.646741 0.701365
Si Si7 0.163750 0.921321 0.947055
O O1 0.500000 0.412952 0.421802
O O2 0.728541 0.370005 0.302918
O O3 0.752938 0.454115 0.390703
O O4 0.731448 0.384252 0.574091
O O5 0.000000 0.367028 0.198920
O O6 0.780920 0.326477 0.055358
O O7 0.785577 0.412091 0.070522
O O8 0.500000 0.791081 0.905822
O O9 0.250000 0.750000 0.949323
O O10 0.271618 0.813939 0.757387
O O11 0.284870 0.000000 0.619465
O O12 0.228182 0.959378 0.849379
O O13 0.000000 0.000000 0.712290
O O14 0.500000 0.000000 0.423408
O O15 0.500000 0.665122 0.651823
O O16 0.359194 0.620003 0.846121
O O17 0.000000 0.933584 0.015683
#
# Coordination Sequence:
#
# PCOD8172444 Si02
#       7
#     8   8   8   4   4   8   8
#     4  11  22  39  60  83 115 158 199 235 281 343
#     4  10  22  38  55  82 117 151 188 237 292 340
#     4  10  21  38  62  88 116 147 185 234 288 347
#     4  10  18  33  54  79 108 144 196 242 280 331
#     4  12  24  35  54  83 118 156 194 242 290 331
#     4   9  18  34  58  83 109 143 187 233 280 336
#     4   9  17  32  54  77 105 144 190 235 277 333
#
# _framework density 19.151499000000001
#
# number of rings (size 3 to 8) (size 9 to 14) (size 15 to 20)
#    0.000    2.000    1.667    2.250    0.000    4.667 
#    0.000    3.333    0.000    2.000    0.000    0.000 
#    0.000    0.000    0.000    0.000    0.000    0.000 
#
# Total GULP energy -297328.291711 kJ/mol
# GULP energy per Si atom -12388.678821 kJ/mol
# Density = 1.910791 g / cm^3
# Si number density = 19.151499 Si / 1000 Ang^3
#
#
#
# Elastic Constant Matrix: (Units=GPa)
#
#
# Indices 1 2 3 4 5 6 
#
# 1 85.8739 52.7501 43.4884 0.0000 0.0000 0.0000
# 2 52.7501 97.3005 37.2366 0.0000 0.0000 0.0000
# 3 43.4884 37.2366 86.9356 0.0000 0.0000 0.0000
# 4 0.0000 0.0000 0.0000 26.8150 0.0000 0.0000
# 5 0.0000 0.0000 0.0000 0.0000 30.9652 0.0000
# 6 0.0000 0.0000 0.0000 0.0000 0.0000 26.7212
#
#
#
# Elastic Compliance Matrix: (Units=1/GPa)
#
#
# Indices 1 2 3 4 5 6 
#
# 1 0.020078 -0.008422 -0.006436 0.000000 0.000000 0.000000
# 2 -0.008422 0.015825 -0.002565 0.000000 0.000000 0.000000
# 3 -0.006436 -0.002565 0.015821 0.000000 0.000000 0.000000
# 4 0.000000 0.000000 0.000000 0.037293 0.000000 0.000000
# 5 0.000000 0.000000 0.000000 0.000000 0.032294 0.000000
# 6 0.000000 0.000000 0.000000 0.000000 0.000000 0.037423
#
#
# Mechanical properties :
#
#
# Convention : Reuss Voigt Hill
#
# Bulk Modulus (GPa) = 59.25208 59.67336 59.46272
# Shear Modulus (GPa) = 25.09954 26.00927 25.55441
#
# Velocity S-wave (km/s) = 3.62412 3.68921 3.65681
# Velocity P-wave (km/s) = 6.96549 7.02661 6.99612
#
# Compressibility (1/GPa) = 0.01687704
#
# Stress axis : x y z
#
# Youngs Moduli (GPa) = 49.80641 63.19167 63.20592
#
# Poissons Ratio (x) = 0.53218 0.40682
# Poissons Ratio (y) = 0.41945 0.16215
# Poissons Ratio (z) = 0.32058 0.16211
#
# Static dielectric constant tensor:
#      x y z
#    x 3.644250 0.000000 0.000000 
#    y 0.000000 3.538340 0.000000 
#    z 0.000000 0.000000 3.493410 
# 
# 
# High freq. dielectric constant tensor:
#      x y z
#    x 1.742950 0.000000 0.000000 
#    y 0.000000 1.732060 0.000000 
#    z 0.000000 0.000000 1.738750 
# 
# From -- ./inp_files/5368.got.cif
#   From: 2010.03.12/outbox.cif.g09.slc.cpg/sg35_3_cif.got.tgz:5368.got - 2010.04.14 02:02:04.
