data_PCOD8172072
_publ_section_title
;
Structure prediction by ZEFSAII (Michael W. Deem and Ramdas Pophale) SiO2 
 PCOD8172072
Probable space group: P N N 2
;
_chemical_formula_sum "Si O2"
_cell_formula_units_Z 24
_cell_length_a 14.681185
_cell_length_b 12.017725
_cell_length_c 5.923789
_cell_angle_alpha 90.000000
_cell_angle_beta 90.000000
_cell_angle_gamma 90.000000
_cell_volume 1045.160419
_symmetry_space_group_name_H-M "P N N 2"
_symmetry_group_IT_number 34
_symmetry_cell_setting 'orthorhombic'
loop_
_space_group_symop_operation_xyz
x,y,z
-x,-y,z
1/2-x,1/2+y,1/2+z
1/2+x,1/2-y,1/2+z
loop_
_atom_site_type_symbol
_atom_site_label
_atom_site_fract_x
_atom_site_fract_y
_atom_site_fract_z
Si Si1 0.999057 0.812815 0.530650
Si Si2 0.096997 0.699641 0.148582
Si Si3 0.594305 0.195350 0.411940
Si Si4 0.361290 0.403624 0.360185
Si Si5 0.860165 0.899570 0.195202
Si Si6 0.783589 0.498339 0.027917
O O1 0.923639 0.736693 0.656566
O O2 0.947925 0.891340 0.354759
O O3 0.075474 0.739203 0.402992
O O4 0.048854 0.890378 0.710083
O O5 0.157515 0.589494 0.170581
O O6 0.154198 0.792949 0.010573
O O7 0.002543 0.671070 0.026382
O O8 0.652778 0.285036 0.556112
O O9 0.651319 0.082508 0.393385
O O10 0.383947 0.504801 0.521461
O O11 0.275126 0.430490 0.204011
O O12 0.772007 0.930046 0.340995
#
# Coordination Sequence:
#
# PCOD8172072 Si02
#       6
#     4   4   4   4   4   4
#     4  10  24  47  69  94 132 178 223 267 326 394
#     4  10  24  45  67  94 129 174 221 266 326 393
#     4  10  24  45  67  94 129 174 221 266 326 393
#     4  11  25  41  66  98 132 171 220 272 326 387
#     4  11  25  41  66  98 132 171 220 272 326 387
#     4  12  25  43  66  98 136 170 214 275 331 386
#
# _framework density 22.962983999999999
#
# number of rings (size 3 to 8) (size 9 to 14) (size 15 to 20)
#    0.000    1.333    0.000    3.500    0.000   26.667 
#    0.000    6.667    0.000    0.000    0.000    0.000 
#    0.000    0.000    0.000    0.000    0.000    0.000 
#
# Total GULP energy -297715.613972 kJ/mol
# GULP energy per Si atom -12404.817249 kJ/mol
# Density = 2.291072 g / cm^3
# Si number density = 22.962984 Si / 1000 Ang^3
#
#
#
# Elastic Constant Matrix: (Units=GPa)
#
#
# Indices 1 2 3 4 5 6 
#
# 1 62.1996 31.6274 11.0914 0.0000 0.0000 0.0000
# 2 31.6274 88.2737 8.7585 0.0000 0.0000 0.0000
# 3 11.0914 8.7585 92.1121 0.0000 0.0000 0.0000
# 4 0.0000 0.0000 0.0000 32.8148 0.0000 0.0000
# 5 0.0000 0.0000 0.0000 0.0000 18.2630 0.0000
# 6 0.0000 0.0000 0.0000 0.0000 0.0000 108.6651
#
#
#
# Elastic Compliance Matrix: (Units=1/GPa)
#
#
# Indices 1 2 3 4 5 6 
#
# 1 0.019930 -0.006968 -0.001737 0.000000 0.000000 0.000000
# 2 -0.006968 0.013873 -0.000480 0.000000 0.000000 0.000000
# 3 -0.001737 -0.000480 0.011111 0.000000 0.000000 0.000000
# 4 0.000000 0.000000 0.000000 0.030474 0.000000 0.000000
# 5 0.000000 0.000000 0.000000 0.000000 0.054755 0.000000
# 6 0.000000 0.000000 0.000000 0.000000 0.000000 0.009203
#
#
# Mechanical properties :
#
#
# Convention : Reuss Voigt Hill
#
# Bulk Modulus (GPa) = 37.67489 38.39332 38.03410
# Shear Modulus (GPa) = 30.01825 44.68915 37.35370
#
# Velocity S-wave (km/s) = 3.61951 4.41629 4.03760
# Velocity P-wave (km/s) = 5.82325 6.53917 6.19157
#
# Compressibility (1/GPa) = 0.02654288
#
# Stress axis : x y z
#
# Youngs Moduli (GPa) = 50.17462 72.08383 89.99961
#
# Poissons Ratio (x) = 0.50231 0.15635
# Poissons Ratio (y) = 0.34964 0.04320
# Poissons Ratio (z) = 0.08717 0.03460
#
# Static dielectric constant tensor:
#      x y z
#    x 4.018260 0.000000 0.000000 
#    y 0.000000 4.147060 0.000000 
#    z 0.000000 0.000000 4.569460 
# 
# 
# High freq. dielectric constant tensor:
#      x y z
#    x 1.905280 0.000000 0.000000 
#    y 0.000000 1.910510 0.000000 
#    z 0.000000 0.000000 1.916950 
# 
# From -- ./inp_files/1422.got.cif
#   From: 2010.03.12/outbox.cif.g09.slc.cpg/sg34_1_cif.got.tgz:1422.got - 2010.04.14 01:56:33.
