data_PCOD8172957
_publ_section_title
;
Structure prediction by ZEFSAII (Michael W. Deem and Ramdas Pophale) SiO2 
 PCOD8172957
Probable space group: C M M 2
;
_chemical_formula_sum "Si O2"
_cell_formula_units_Z 56
_cell_length_a 22.145623
_cell_length_b 13.586791
_cell_length_c 9.368425
_cell_angle_alpha 90.000000
_cell_angle_beta 90.000000
_cell_angle_gamma 90.000000
_cell_volume 2818.846205
_symmetry_space_group_name_H-M "C M M 2"
_symmetry_group_IT_number 35
_symmetry_cell_setting 'orthorhombic'
loop_
_space_group_symop_operation_xyz
x,y,z
-x,-y,z
-x,y,z
x,-y,z
1/2+x,1/2+y,z
1/2-x,1/2-y,z
1/2-x,1/2+y,z
1/2+x,1/2-y,z
loop_
_atom_site_type_symbol
_atom_site_label
_atom_site_fract_x
_atom_site_fract_y
_atom_site_fract_z
Si Si1 0.564045 0.731174 0.373340
Si Si2 0.431981 0.109952 0.015742
Si Si3 0.717039 0.615502 0.330491
Si Si4 0.393583 0.613807 0.137577
Si Si5 0.929034 0.801227 0.847294
Si Si6 0.350925 0.886091 0.289214
Si Si7 0.132271 0.113479 0.579495
O O1 0.500000 0.774532 0.420265
O O2 0.559142 0.688663 0.211484
O O3 0.610811 0.820320 0.399385
O O4 0.579623 0.634825 0.465989
O O5 0.500000 0.120855 0.081674
O O6 0.422938 0.186430 0.887078
O O7 0.423676 0.000000 0.952914
O O8 0.380950 0.129011 0.134429
O O9 0.724511 0.500000 0.316321
O O10 0.670586 0.649310 0.206248
O O11 0.783324 0.660327 0.297479
O O12 0.694143 0.641097 0.492564
O O13 0.406004 0.500000 0.173653
O O14 0.400461 0.629785 0.969595
O O15 0.883764 0.819057 0.715151
O O16 0.000000 0.828434 0.817500
O O17 0.353116 0.000000 0.336319
O O18 0.131595 0.000000 0.626417
#
# Coordination Sequence:
#
# PCOD8172957 Si02
#       7
#     8   8   8   8   8   8   8
#     4  11  21  34  54  83 115 148 193 241 291 349
#     4   9  18  34  57  88 124 154 187 241 299 344
#     4   8  18  37  59  81 110 151 196 240 288 341
#     4  10  20  33  52  81 115 147 191 244 284 331
#     4  11  21  35  56  87 119 153 194 231 284 355
#     4  10  19  35  62  86 111 147 191 243 295 342
#     4  10  22  38  56  81 117 157 192 232 285 345
#
# _framework density 19.866285000000001
#
# number of rings (size 3 to 8) (size 9 to 14) (size 15 to 20)
#    0.000    2.143    1.429    3.000    0.000    6.571 
#    0.000    0.714    6.286    1.714    0.000    1.000 
#    0.000    0.000    0.000    0.000    0.000    0.000 
#
# Total GULP energy -346874.984523 kJ/mol
# GULP energy per Si atom -12388.392304 kJ/mol
# Density = 1.982107 g / cm^3
# Si number density = 19.866285 Si / 1000 Ang^3
#
#
#
# Elastic Constant Matrix: (Units=GPa)
#
#
# Indices 1 2 3 4 5 6 
#
# 1 154.0887 49.9710 48.0616 0.0000 0.0000 0.0000
# 2 49.9710 87.5771 26.7167 0.0000 0.0000 0.0000
# 3 48.0616 26.7167 89.0132 0.0000 0.0000 0.0000
# 4 0.0000 0.0000 0.0000 29.1083 0.0000 0.0000
# 5 0.0000 0.0000 0.0000 0.0000 21.1466 0.0000
# 6 0.0000 0.0000 0.0000 0.0000 0.0000 26.4331
#
#
#
# Elastic Compliance Matrix: (Units=1/GPa)
#
#
# Indices 1 2 3 4 5 6 
#
# 1 0.008908 -0.003980 -0.003615 0.000000 0.000000 0.000000
# 2 -0.003980 0.014348 -0.002157 0.000000 0.000000 0.000000
# 3 -0.003615 -0.002157 0.013834 0.000000 0.000000 0.000000
# 4 0.000000 0.000000 0.000000 0.034354 0.000000 0.000000
# 5 0.000000 0.000000 0.000000 0.000000 0.047289 0.000000
# 6 0.000000 0.000000 0.000000 0.000000 0.000000 0.037831
#
#
# Mechanical properties :
#
#
# Convention : Reuss Voigt Hill
#
# Bulk Modulus (GPa) = 56.86908 64.46418 60.66663
# Shear Modulus (GPa) = 27.48294 29.06625 28.27460
#
# Velocity S-wave (km/s) = 3.72344 3.82919 3.77669
# Velocity P-wave (km/s) = 6.86829 7.21594 7.04426
#
# Compressibility (1/GPa) = 0.01758425
#
# Stress axis : x y z
#
# Youngs Moduli (GPa) = 112.25716 69.69794 72.28664
#
# Poissons Ratio (x) = 0.27740 0.26133
# Poissons Ratio (y) = 0.44679 0.15595
# Poissons Ratio (z) = 0.40584 0.15036
#
# Static dielectric constant tensor:
#      x y z
#    x 3.957360 0.000000 0.000000 
#    y 0.000000 3.800360 0.000000 
#    z 0.000000 0.000000 3.375920 
# 
# 
# High freq. dielectric constant tensor:
#      x y z
#    x 1.771330 0.000000 0.000000 
#    y 0.000000 1.793910 0.000000 
#    z 0.000000 0.000000 1.739650 
# 
# From -- ./inp_files/7642.got.cif
#   From: 2010.03.12/outbox.cif.g09.slc.cpg/sg35_4_cif.got.tgz:7642.got - 2010.04.14 02:02:04.
