data_PCOD8172890
_publ_section_title
;
Structure prediction by ZEFSAII (Michael W. Deem and Ramdas Pophale) SiO2 
 PCOD8172890
Probable space group: C M M 2
;
_chemical_formula_sum "Si O2"
_cell_formula_units_Z 64
_cell_length_a 18.870924
_cell_length_b 17.530358
_cell_length_c 9.805249
_cell_angle_alpha 90.000000
_cell_angle_beta 90.000000
_cell_angle_gamma 90.000000
_cell_volume 3243.714167
_symmetry_space_group_name_H-M "C M M 2"
_symmetry_group_IT_number 35
_symmetry_cell_setting 'orthorhombic'
loop_
_space_group_symop_operation_xyz
x,y,z
-x,-y,z
-x,y,z
x,-y,z
1/2+x,1/2+y,z
1/2-x,1/2-y,z
1/2-x,1/2+y,z
1/2+x,1/2-y,z
loop_
_atom_site_type_symbol
_atom_site_label
_atom_site_fract_x
_atom_site_fract_y
_atom_site_fract_z
Si Si1 0.581899 0.341322 0.643610
Si Si2 0.657180 0.089524 0.799628
Si Si3 0.423474 0.089521 0.054110
Si Si4 0.917331 0.330604 0.559601
Si Si5 0.078199 0.089157 0.364514
Si Si6 0.158703 0.589562 0.316102
Si Si7 0.686947 0.409697 0.855208
Si Si8 0.301597 0.590739 0.168091
O O1 0.500000 0.351529 0.684331
O O2 0.598040 0.257303 0.588938
O O3 0.604106 0.396504 0.519006
O O4 0.626170 0.362817 0.777912
O O5 0.602475 0.124565 0.694687
O O6 0.739532 0.110717 0.778618
O O7 0.648206 0.000000 0.789892
O O8 0.634384 0.121452 0.948268
O O9 0.500000 0.127742 0.026996
O O10 0.402442 0.106489 0.208121
O O11 0.428318 0.000000 0.031185
O O12 0.862905 0.359894 0.445085
O O13 0.000000 0.345527 0.522302
O O14 0.131613 0.123984 0.252744
O O15 0.000000 0.126295 0.343331
O O16 0.074225 0.000000 0.340079
O O17 0.163155 0.500000 0.357102
O O18 0.231763 0.619059 0.248208
O O19 0.670512 0.500000 0.849676
O O20 0.692298 0.380749 0.012041
O O21 0.298933 0.500000 0.166212
#
# Coordination Sequence:
#
# PCOD8172890 Si02
#       8
#     8   8   8   8   8   8   8   8
#     4  10  23  41  58  81 116 156 195 236 285 345
#     4  10  20  35  56  84 115 149 191 240 290 342
#     4   9  16  29  52  79 110 148 187 231 283 336
#     4  11  24  39  55  80 118 159 198 240 282 335
#     4   9  18  35  60  86 111 144 187 237 295 351
#     4  10  19  34  56  85 118 151 192 241 289 342
#     4  10  20  37  62  89 116 147 187 240 296 348
#     4   9  18  34  58  89 118 141 181 243 298 348
#
# _framework density 19.730467999999998
#
# number of rings (size 3 to 8) (size 9 to 14) (size 15 to 20)
#    0.000    2.250    1.250    1.500    1.750    3.750 
#    0.000    2.500    2.750    3.000    0.000    0.000 
#    0.000    0.000    0.000    0.000    0.000    0.000 
#
# Total GULP energy -396646.223308 kJ/mol
# GULP energy per Si atom -12395.194478 kJ/mol
# Density = 1.968556 g / cm^3
# Si number density = 19.730468 Si / 1000 Ang^3
#
#
#
# Elastic Constant Matrix: (Units=GPa)
#
#
# Indices 1 2 3 4 5 6 
#
# 1 58.7287 47.4291 -7.3268 0.0000 0.0000 0.0000
# 2 47.4291 37.4318 40.1416 0.0000 0.0000 0.0000
# 3 -7.3268 40.1416 37.0241 0.0000 0.0000 0.0000
# 4 0.0000 0.0000 0.0000 -26.3652 0.0000 0.0000
# 5 0.0000 0.0000 0.0000 0.0000 44.6349 0.0000
# 6 0.0000 0.0000 0.0000 0.0000 0.0000 11.9452
#
#
#
# Elastic Compliance Matrix: (Units=1/GPa)
#
#
# Indices 1 2 3 4 5 6 
#
# 1 0.001783 0.016215 -0.017227 0.000000 0.000000 0.000000
# 2 0.016215 -0.016773 0.021394 0.000000 0.000000 0.000000
# 3 -0.017227 0.021394 0.000405 0.000000 0.000000 0.000000
# 4 0.000000 0.000000 0.000000 -0.037929 0.000000 0.000000
# 5 0.000000 0.000000 0.000000 0.000000 0.022404 0.000000
# 6 0.000000 0.000000 0.000000 0.000000 0.000000 0.083716
#
#
# Mechanical properties :
#
#
# Convention : Reuss Voigt Hill
#
# Bulk Modulus (GPa) = 38.19938 32.63026 35.41482
# Shear Modulus (GPa) = 231.81068 9.57234 120.69151
#
# Velocity S-wave (km/s) = 10.85098 2.20501 7.82962
# Velocity P-wave (km/s) = 13.28135 4.80174 9.98627
#
# Compressibility (1/GPa) = 0.02617844
#
# Stress axis : x y z
#
# Youngs Moduli (GPa) = 560.76169 -59.62007 2469.39985
#
# Poissons Ratio (x) = 0.96672 42.54078
# Poissons Ratio (y) = -9.09261 -52.83025
# Poissons Ratio (z) = 9.66034 1.27551
#
# Static dielectric constant tensor:
#      x y z
#    x 3.924480 0.000000 0.000000 
#    y 0.000000 3.218750 0.000000 
#    z 0.000000 0.000000 3.716340 
# 
# 
# High freq. dielectric constant tensor:
#      x y z
#    x 1.782140 0.000000 0.000000 
#    y 0.000000 1.726270 0.000000 
#    z 0.000000 0.000000 1.776480 
# 
# From -- ./inp_files/8766.got.cif
#   From: 2010.03.12/outbox.cif.g09.slc.cpg/sg35_5_cif.got.tgz:8766.got - 2010.04.14 02:02:04.
