data_PCOD8172338
_publ_section_title
;
Structure prediction by ZEFSAII (Michael W. Deem and Ramdas Pophale) SiO2 
 PCOD8172338
Probable space group: C M M 2
;
_chemical_formula_sum "Si O2"
_cell_formula_units_Z 64
_cell_length_a 15.009224
_cell_length_b 17.507929
_cell_length_c 14.042039
_cell_angle_alpha 90.000000
_cell_angle_beta 90.000000
_cell_angle_gamma 90.000000
_cell_volume 3689.973020
_symmetry_space_group_name_H-M "C M M 2"
_symmetry_group_IT_number 35
_symmetry_cell_setting 'orthorhombic'
loop_
_space_group_symop_operation_xyz
x,y,z
-x,-y,z
-x,y,z
x,-y,z
1/2+x,1/2+y,z
1/2-x,1/2-y,z
1/2-x,1/2+y,z
1/2+x,1/2-y,z
loop_
_atom_site_type_symbol
_atom_site_label
_atom_site_fract_x
_atom_site_fract_y
_atom_site_fract_z
Si Si1 0.396456 0.170544 0.075480
Si Si2 0.098131 0.673705 0.570614
Si Si3 0.399518 0.171160 0.857098
Si Si4 0.728890 0.089905 0.215731
Si Si5 0.778303 0.588892 0.709868
Si Si6 0.099978 0.188530 0.204789
Si Si7 0.653624 0.287076 0.715153
Si Si8 0.837029 0.706032 0.366988
O O1 0.500000 0.147214 0.089188
O O2 0.334078 0.107525 0.125353
O O3 0.377972 0.253924 0.118798
O O4 0.368224 0.175631 0.965648
O O5 0.171246 0.616612 0.614301
O O6 0.103993 0.757858 0.619881
O O7 0.107212 0.680775 0.457858
O O8 0.000000 0.640169 0.591683
O O9 0.500000 0.139779 0.850683
O O10 0.335825 0.112518 0.801881
O O11 0.396674 0.256172 0.809545
O O12 0.829238 0.120187 0.198589
O O13 0.687690 0.130149 0.308406
O O14 0.732909 0.000000 0.233514
O O15 0.765426 0.500000 0.706241
O O16 0.676241 0.622611 0.714785
O O17 0.105938 0.236232 0.302570
O O18 0.000000 0.154734 0.196193
O O19 0.750000 0.250000 0.716294
O O20 0.750000 0.750000 0.403604
#
# Coordination Sequence:
#
# PCOD8172338 Si02
#       8
#     8   8   8   8   8   8   8   8
#     4   9  18  33  52  72  94 126 165 201 240 284
#     4  10  18  30  51  72  90 118 158 201 237 273
#     4   9  17  31  52  72  91 119 157 200 237 273
#     4  10  21  33  47  72 103 130 156 192 241 296
#     4  10  20  31  44  68 100 128 154 186 232 289
#     4   9  18  33  53  73  93 122 164 207 239 278
#     4   8  16  30  47  68  91 119 157 193 227 268
#     4   9  17  32  51  70  93 122 158 197 237 281
#
# _framework density 17.3443
#
# number of rings (size 3 to 8) (size 9 to 14) (size 15 to 20)
#    0.000    3.000    0.000    4.125    0.000    6.000 
#    0.000    1.250    0.000    1.500    0.000    1.750 
#    0.000    0.000    0.000    0.000    0.000    0.500 
#
# Total GULP energy -396579.282436 kJ/mol
# GULP energy per Si atom -12393.102576 kJ/mol
# Density = 1.730482 g / cm^3
# Si number density = 17.344300 Si / 1000 Ang^3
#
#
#
# Elastic Constant Matrix: (Units=GPa)
#
#
# Indices 1 2 3 4 5 6 
#
# 1 65.1079 36.6723 23.4700 0.0000 0.0000 0.0000
# 2 36.6723 121.6509 37.2240 0.0000 0.0000 0.0000
# 3 23.4700 37.2240 118.2012 0.0000 0.0000 0.0000
# 4 0.0000 0.0000 0.0000 9.1266 0.0000 0.0000
# 5 0.0000 0.0000 0.0000 0.0000 14.9583 0.0000
# 6 0.0000 0.0000 0.0000 0.0000 0.0000 16.3853
#
#
#
# Elastic Compliance Matrix: (Units=1/GPa)
#
#
# Indices 1 2 3 4 5 6 
#
# 1 0.018994 -0.005059 -0.002178 0.000000 0.000000 0.000000
# 2 -0.005059 0.010444 -0.002285 0.000000 0.000000 0.000000
# 3 -0.002178 -0.002285 0.009612 0.000000 0.000000 0.000000
# 4 0.000000 0.000000 0.000000 0.109570 0.000000 0.000000
# 5 0.000000 0.000000 0.000000 0.000000 0.066853 0.000000
# 6 0.000000 0.000000 0.000000 0.000000 0.000000 0.061030
#
#
# Mechanical properties :
#
#
# Convention : Reuss Voigt Hill
#
# Bulk Modulus (GPa) = 49.98405 55.52140 52.75273
# Shear Modulus (GPa) = 16.54445 21.93362 19.23903
#
# Velocity S-wave (km/s) = 3.09185 3.55998 3.33414
# Velocity P-wave (km/s) = 6.45193 6.99848 6.73075
#
# Compressibility (1/GPa) = 0.02000638
#
# Stress axis : x y z
#
# Youngs Moduli (GPa) = 52.64827 95.74441 104.03545
#
# Poissons Ratio (x) = 0.48440 0.22661
# Poissons Ratio (y) = 0.26637 0.23768
# Poissons Ratio (z) = 0.11468 0.21874
#
# Static dielectric constant tensor:
#      x y z
#    x 3.615070 0.000000 0.000000 
#    y 0.000000 3.405350 0.000000 
#    z 0.000000 0.000000 3.258070 
# 
# 
# High freq. dielectric constant tensor:
#      x y z
#    x 1.673610 0.000000 0.000000 
#    y 0.000000 1.634490 0.000000 
#    z 0.000000 0.000000 1.674280 
# 
# From -- ./inp_files/16890.got.cif
#   From: 2010.03.12/outbox.cif.g09.slc.cpg/sg35_9_cif.got.tgz:16890.got - 2010.04.14 02:02:04.
