data_PCOD8172906
_publ_section_title
;
Structure prediction by ZEFSAII (Michael W. Deem and Ramdas Pophale) SiO2 
 PCOD8172906
Probable space group: C M M 2
;
_chemical_formula_sum "Si O2"
_cell_formula_units_Z 48
_cell_length_a 15.441325
_cell_length_b 8.741015
_cell_length_c 16.900395
_cell_angle_alpha 90.000000
_cell_angle_beta 90.000000
_cell_angle_gamma 90.000000
_cell_volume 2281.094537
_symmetry_space_group_name_H-M "C M M 2"
_symmetry_group_IT_number 35
_symmetry_cell_setting 'orthorhombic'
loop_
_space_group_symop_operation_xyz
x,y,z
-x,-y,z
-x,y,z
x,-y,z
1/2+x,1/2+y,z
1/2-x,1/2-y,z
1/2-x,1/2+y,z
1/2+x,1/2-y,z
loop_
_atom_site_type_symbol
_atom_site_label
_atom_site_fract_x
_atom_site_fract_y
_atom_site_fract_z
Si Si1 0.660495 0.319531 0.290650
Si Si2 0.102514 0.324031 0.131953
Si Si3 0.102511 0.675980 0.810020
Si Si4 0.000000 0.325197 0.564558
Si Si5 0.000000 0.325197 0.377419
Si Si6 0.602993 0.327559 0.970987
Si Si7 0.660498 0.680470 0.651323
O O1 0.663121 0.500000 0.298256
O O2 0.750000 0.250000 0.322909
O O3 0.647998 0.273860 0.199572
O O4 0.584614 0.256405 0.345005
O O5 0.129999 0.500000 0.140478
O O6 0.136941 0.261307 0.048179
O O7 0.000000 0.303438 0.139933
O O8 0.129970 0.500000 0.801501
O O9 0.148016 0.773845 0.742401
O O10 0.000000 0.696634 0.802028
O O11 0.136939 0.738693 0.893795
O O12 0.000000 0.313780 0.470988
O O13 0.084613 0.243592 0.596972
O O14 0.000000 0.500000 0.594520
O O15 0.000000 0.500000 0.347456
O O16 0.500000 0.328260 0.970989
O O17 0.639393 0.500000 0.970987
O O18 0.663123 0.500000 0.643723
O O19 0.750000 0.750000 0.619055
#
# Coordination Sequence:
#
# PCOD8172906 Si02
#       7
#     8   8   8   4   4   8   8
#     4  12  25  42  67  97 132 171 215 263 318 380
#     4  10  19  34  58  87 125 168 215 265 319 376
#     4  10  19  34  58  87 125 168 215 265 319 376
#     4  11  25  47  73 100 131 166 207 259 319 383
#     4  11  25  47  73 100 131 166 207 259 319 383
#     4   9  17  29  50  83 122 164 217 266 314 372
#     4  12  25  42  67  97 132 171 215 263 318 380
#
# _framework density 21.042529999999999
#
# number of rings (size 3 to 8) (size 9 to 14) (size 15 to 20)
#    0.000    1.333    1.667    5.000    0.000    5.333 
#    0.000    0.833    0.000    0.000    0.000    0.000 
#    0.000    0.000    0.000    0.000    0.000    0.000 
#
# Total GULP energy -297744.635664 kJ/mol
# GULP energy per Si atom -12406.026486 kJ/mol
# Density = 2.099464 g / cm^3
# Si number density = 21.042530 Si / 1000 Ang^3
#
#
#
# Elastic Constant Matrix: (Units=GPa)
#
#
# Indices 1 2 3 4 5 6 
#
# 1 121.1538 75.9593 47.7452 0.0000 0.0000 0.0000
# 2 75.9593 210.6927 62.1733 0.0000 0.0000 0.0000
# 3 47.7452 62.1733 99.4899 0.0000 0.0000 0.0000
# 4 0.0000 0.0000 0.0000 36.8086 0.0000 0.0000
# 5 0.0000 0.0000 0.0000 0.0000 -8.1883 0.0000
# 6 0.0000 0.0000 0.0000 0.0000 0.0000 32.5851
#
#
#
# Elastic Compliance Matrix: (Units=1/GPa)
#
#
# Indices 1 2 3 4 5 6 
#
# 1 0.011647 -0.003126 -0.003636 0.000000 0.000000 0.000000
# 2 -0.003126 0.006658 -0.002661 0.000000 0.000000 0.000000
# 3 -0.003636 -0.002661 0.013459 0.000000 0.000000 0.000000
# 4 0.000000 0.000000 0.000000 0.027168 0.000000 0.000000
# 5 0.000000 0.000000 0.000000 0.000000 -0.122125 0.000000
# 6 0.000000 0.000000 0.000000 0.000000 0.000000 0.030689
#
#
# Mechanical properties :
#
#
# Convention : Reuss Voigt Hill
#
# Bulk Modulus (GPa) = 77.40632 89.23244 83.31938
# Shear Modulus (GPa) = -534.57392 28.60497 -252.98448
#
# Velocity S-wave (km/s) = -15.95607 3.69099 -10.97663
# Velocity P-wave (km/s) = 17.39528 7.78860 10.99849
#
# Compressibility (1/GPa) = 0.01291884
#
# Stress axis : x y z
#
# Youngs Moduli (GPa) = 85.86144 150.18571 74.30054
#
# Poissons Ratio (x) = 0.46948 0.27014
# Poissons Ratio (y) = 0.26840 0.19770
# Poissons Ratio (z) = 0.31217 0.39962
#
# Static dielectric constant tensor:
#      x y z
#    x 3.748980 0.000000 0.000000 
#    y 0.000000 3.994250 0.000000 
#    z 0.000000 0.000000 3.870710 
# 
# 
# High freq. dielectric constant tensor:
#      x y z
#    x 1.817680 0.000000 0.000000 
#    y 0.000000 1.841900 0.000000 
#    z 0.000000 0.000000 1.827750 
# 
# From -- ./inp_files/18788.got.cif
#   From: 2010.03.12/outbox.cif.g09.slc.cpg/sg35_10_cif.got.tgz:18788.got - 2010.04.14 02:02:04.
