data_PCOD8172968
_publ_section_title
;
Structure prediction by ZEFSAII (Michael W. Deem and Ramdas Pophale) SiO2 
 PCOD8172968
Probable space group: C M M 2
;
_chemical_formula_sum "Si O2"
_cell_formula_units_Z 48
_cell_length_a 8.711973
_cell_length_b 15.553213
_cell_length_c 17.119185
_cell_angle_alpha 90.000000
_cell_angle_beta 90.000000
_cell_angle_gamma 90.000000
_cell_volume 2319.635388
_symmetry_space_group_name_H-M "C M M 2"
_symmetry_group_IT_number 35
_symmetry_cell_setting 'orthorhombic'
loop_
_space_group_symop_operation_xyz
x,y,z
-x,-y,z
-x,y,z
x,-y,z
1/2+x,1/2+y,z
1/2-x,1/2-y,z
1/2-x,1/2+y,z
1/2+x,1/2-y,z
loop_
_atom_site_type_symbol
_atom_site_label
_atom_site_fract_x
_atom_site_fract_y
_atom_site_fract_z
Si Si1 0.827045 0.402757 0.288420
Si Si2 0.818166 0.500000 0.873322
Si Si3 0.181589 0.654807 0.767005
Si Si4 0.321001 0.343906 0.439621
Si Si5 0.682267 0.000000 0.050929
Si Si6 0.178767 0.157261 0.610445
Si Si7 0.180790 0.838576 0.139221
O O1 0.826138 0.500000 0.257237
O O2 0.759791 0.403092 0.375603
O O3 0.723369 0.346188 0.230722
O O4 0.000000 0.365798 0.288037
O O5 0.757970 0.412579 0.831863
O O6 0.000000 0.500000 0.868738
O O7 0.759317 0.500000 0.961788
O O8 0.250000 0.750000 0.781874
O O9 0.235180 0.613666 0.683654
O O10 0.000000 0.663259 0.767972
O O11 0.500000 0.337037 0.420946
O O12 0.250000 0.250000 0.434202
O O13 0.295581 0.387495 0.525683
O O14 0.745915 0.084706 0.090987
O O15 0.500000 0.000000 0.057358
O O16 0.250000 0.250000 0.600709
O O17 0.000000 0.163487 0.631181
O O18 0.250000 0.750000 0.105926
O O19 0.000000 0.839305 0.128382
#
# Coordination Sequence:
#
# PCOD8172968 Si02
#       7
#     8   4   8   8   4   8   8
#     4  11  23  39  59  84 119 160 204 253 305 359
#     4   9  22  41  63  90 123 160 193 239 302 365
#     4  10  19  36  60  87 119 158 201 245 297 356
#     4  10  20  34  54  80 115 154 201 251 301 355
#     4  11  23  45  69  94 129 160 199 255 308 369
#     4   9  17  31  52  80 112 153 197 247 299 348
#     4  12  25  43  68  96 126 164 206 250 306 368
#
# _framework density 20.692907999999999
#
# number of rings (size 3 to 8) (size 9 to 14) (size 15 to 20)
#    0.000    1.667    0.833    5.250    0.000    3.667 
#    1.500    6.667    0.000    0.000    0.000    0.000 
#    0.000    0.000    0.000    0.000    0.000    0.000 
#
# Total GULP energy -297520.349138 kJ/mol
# GULP energy per Si atom -12396.681214 kJ/mol
# Density = 2.064581 g / cm^3
# Si number density = 20.692908 Si / 1000 Ang^3
#
#
#
# Elastic Constant Matrix: (Units=GPa)
#
#
# Indices 1 2 3 4 5 6 
#
# 1 130.6440 44.8539 52.4974 0.0000 0.0000 0.0000
# 2 44.8539 114.1315 61.8265 0.0000 0.0000 0.0000
# 3 52.4974 61.8265 149.7737 0.0000 0.0000 0.0000
# 4 0.0000 0.0000 0.0000 24.6229 0.0000 0.0000
# 5 0.0000 0.0000 0.0000 0.0000 28.0175 0.0000
# 6 0.0000 0.0000 0.0000 0.0000 0.0000 28.9068
#
#
#
# Elastic Compliance Matrix: (Units=1/GPa)
#
#
# Indices 1 2 3 4 5 6 
#
# 1 0.009418 -0.002464 -0.002284 0.000000 0.000000 0.000000
# 2 -0.002464 0.011930 -0.004061 0.000000 0.000000 0.000000
# 3 -0.002284 -0.004061 0.009154 0.000000 0.000000 0.000000
# 4 0.000000 0.000000 0.000000 0.040613 0.000000 0.000000
# 5 0.000000 0.000000 0.000000 0.000000 0.035692 0.000000
# 6 0.000000 0.000000 0.000000 0.000000 0.000000 0.034594
#
#
# Mechanical properties :
#
#
# Convention : Reuss Voigt Hill
#
# Bulk Modulus (GPa) = 77.61735 79.21166 78.41450
# Shear Modulus (GPa) = 30.61598 32.00087 31.30843
#
# Velocity S-wave (km/s) = 3.85065 3.93678 3.89395
# Velocity P-wave (km/s) = 7.57368 7.68290 7.62849
#
# Compressibility (1/GPa) = 0.01288372
#
# Stress axis : x y z
#
# Youngs Moduli (GPa) = 106.17765 83.82125 109.24528
#
# Poissons Ratio (x) = 0.20654 0.24952
# Poissons Ratio (y) = 0.26163 0.44365
# Poissons Ratio (z) = 0.24251 0.34040
#
# Static dielectric constant tensor:
#      x y z
#    x 3.799670 0.000000 0.000000 
#    y 0.000000 3.603330 0.000000 
#    z 0.000000 0.000000 4.254760 
# 
# 
# High freq. dielectric constant tensor:
#      x y z
#    x 1.815080 0.000000 0.000000 
#    y 0.000000 1.796600 0.000000 
#    z 0.000000 0.000000 1.817760 
# 
# From -- ./inp_files/17888.got.cif
#   From: 2010.03.12/outbox.cif.g09.slc.cpg/sg35_9_cif.got.tgz:17888.got - 2010.04.14 02:02:04.
