data_PCOD8172224
_publ_section_title
;
Structure prediction by ZEFSAII (Michael W. Deem and Ramdas Pophale) SiO2 
 PCOD8172224
Probable space group: C M M 2
;
_chemical_formula_sum "Si O2"
_cell_formula_units_Z 64
_cell_length_a 22.050165
_cell_length_b 27.726101
_cell_length_c 5.266664
_cell_angle_alpha 90.000000
_cell_angle_beta 90.000000
_cell_angle_gamma 90.000000
_cell_volume 3219.854573
_symmetry_space_group_name_H-M "C M M 2"
_symmetry_group_IT_number 35
_symmetry_cell_setting 'orthorhombic'
loop_
_space_group_symop_operation_xyz
x,y,z
-x,-y,z
-x,y,z
x,-y,z
1/2+x,1/2+y,z
1/2-x,1/2-y,z
1/2-x,1/2+y,z
1/2+x,1/2-y,z
loop_
_atom_site_type_symbol
_atom_site_label
_atom_site_fract_x
_atom_site_fract_y
_atom_site_fract_z
Si Si1 0.228433 0.556652 0.908510
Si Si2 0.633400 0.557219 0.881734
Si Si3 0.811669 0.217456 0.887732
Si Si4 0.069068 0.280756 0.899613
Si Si5 0.182885 0.394744 0.409337
Si Si6 0.432663 0.842345 0.399286
Si Si7 0.068396 0.942419 0.381413
Si Si8 0.231616 0.806161 0.388710
O O1 0.220148 0.500000 0.873606
O O2 0.297373 0.573329 0.879751
O O3 0.191834 0.583032 0.687174
O O4 0.207062 0.570367 0.190361
O O5 0.627370 0.500000 0.885101
O O6 0.601770 0.578310 0.630085
O O7 0.601191 0.578530 0.131891
O O8 0.750000 0.250000 0.889653
O O9 0.876890 0.242620 0.877926
O O10 0.808394 0.183415 0.639520
O O11 0.809046 0.184054 0.138642
O O12 0.079065 0.317680 0.670306
O O13 0.000000 0.258817 0.882128
O O14 0.078283 0.305235 0.171322
O O15 0.111274 0.388062 0.370847
O O16 0.210718 0.341106 0.387802
O O17 0.500000 0.863769 0.384991
O O18 0.000000 0.923194 0.382936
O O19 0.070375 0.000000 0.381678
O O20 0.250000 0.750000 0.390466
#
# Coordination Sequence:
#
# PCOD8172224 Si02
#       8
#     8   8   8   8   8   8   8   8
#     4  11  24  40  59  82 112 151 197 248 298 357
#     4   9  17  30  46  69 102 132 165 215 268 321
#     4  10  17  29  48  75 114 149 184 227 270 320
#     4  10  19  32  52  82 119 158 195 232 284 345
#     4  12  22  38  61  86 115 151 193 241 304 352
#     4  10  20  34  54  82 116 149 189 244 294 346
#     4   9  15  24  43  72 102 129 160 207 269 328
#     4  10  20  32  53  84 116 143 175 222 276 336
#
# _framework density 19.876674000000001
#
# number of rings (size 3 to 8) (size 9 to 14) (size 15 to 20)
#    0.000    1.875    0.000    6.750    0.000    3.500 
#    0.000    0.000    0.000    2.250    0.000   17.500 
#    0.000    0.000    0.000    0.000    0.000    0.000 
#
# Total GULP energy -396643.749662 kJ/mol
# GULP energy per Si atom -12395.117177 kJ/mol
# Density = 1.983143 g / cm^3
# Si number density = 19.876674 Si / 1000 Ang^3
#
#
#
# Elastic Constant Matrix: (Units=GPa)
#
#
# Indices 1 2 3 4 5 6 
#
# 1 142.7376 28.6012 41.6534 0.0000 0.0000 0.0000
# 2 28.6012 45.3404 11.2140 0.0000 0.0000 0.0000
# 3 41.6534 11.2140 152.0808 0.0000 0.0000 0.0000
# 4 0.0000 0.0000 0.0000 19.2045 0.0000 0.0000
# 5 0.0000 0.0000 0.0000 0.0000 26.9012 0.0000
# 6 0.0000 0.0000 0.0000 0.0000 0.0000 23.4215
#
#
#
# Elastic Compliance Matrix: (Units=1/GPa)
#
#
# Indices 1 2 3 4 5 6 
#
# 1 0.008570 -0.004915 -0.001985 0.000000 0.000000 0.000000
# 2 -0.004915 0.025284 -0.000518 0.000000 0.000000 0.000000
# 3 -0.001985 -0.000518 0.007157 0.000000 0.000000 0.000000
# 4 0.000000 0.000000 0.000000 0.052071 0.000000 0.000000
# 5 0.000000 0.000000 0.000000 0.000000 0.037173 0.000000
# 6 0.000000 0.000000 0.000000 0.000000 0.000000 0.042696
#
#
# Mechanical properties :
#
#
# Convention : Reuss Voigt Hill
#
# Bulk Modulus (GPa) = 38.20422 55.89954 47.05188
# Shear Modulus (GPa) = 25.44368 31.15145 28.29756
#
# Velocity S-wave (km/s) = 3.58170 3.96313 3.77723
# Velocity P-wave (km/s) = 6.03051 7.00900 6.53809
#
# Compressibility (1/GPa) = 0.02617512
#
# Stress axis : x y z
#
# Youngs Moduli (GPa) = 116.68708 39.55063 139.71794
#
# Poissons Ratio (x) = 0.19440 0.27731
# Poissons Ratio (y) = 0.57353 0.07240
# Poissons Ratio (z) = 0.23160 0.02049
#
# Static dielectric constant tensor:
#      x y z
#    x 3.819680 0.000000 0.000000 
#    y 0.000000 3.065450 0.000000 
#    z 0.000000 0.000000 4.773310 
# 
# 
# High freq. dielectric constant tensor:
#      x y z
#    x 1.776820 0.000000 0.000000 
#    y 0.000000 1.721510 0.000000 
#    z 0.000000 0.000000 1.812420 
# 
# From -- ./inp_files/3184.got.cif
#   From: 2010.03.12/outbox.cif.g09.slc.cpg/sg35_2_cif.got.tgz:3184.got - 2010.04.14 02:02:04.
