data_PCOD8172019
_publ_section_title
;
Structure prediction by ZEFSAII (Michael W. Deem and Ramdas Pophale) SiO2 
 PCOD8172019
Probable space group: P N N 2
;
_chemical_formula_sum "Si O2"
_cell_formula_units_Z 22
_cell_length_a 14.020834
_cell_length_b 12.681472
_cell_length_c 4.766807
_cell_angle_alpha 90.000000
_cell_angle_beta 90.000000
_cell_angle_gamma 90.000000
_cell_volume 847.561231
_symmetry_space_group_name_H-M "P N N 2"
_symmetry_group_IT_number 34
_symmetry_cell_setting 'orthorhombic'
loop_
_space_group_symop_operation_xyz
x,y,z
-x,-y,z
1/2-x,1/2+y,1/2+z
1/2+x,1/2-y,1/2+z
loop_
_atom_site_type_symbol
_atom_site_label
_atom_site_fract_x
_atom_site_fract_y
_atom_site_fract_z
Si Si1 0.822185 0.728443 0.130960
Si Si2 0.872865 0.291852 0.921251
Si Si3 0.000000 0.000000 0.208481
Si Si4 0.824011 0.952201 0.874023
Si Si5 0.010018 0.776024 0.420825
Si Si6 0.709618 0.008270 0.370905
O O1 0.726034 0.740261 0.314989
O O2 0.913649 0.716420 0.332201
O O3 0.834636 0.826628 0.917714
O O4 0.823581 0.624921 0.939613
O O5 0.963379 0.257803 0.734278
O O6 0.868677 0.418982 0.941775
O O7 0.896999 0.250817 0.231928
O O8 0.988569 0.900547 0.413501
O O9 0.912732 0.016313 0.994462
O O10 0.806671 0.978074 0.546452
O O11 0.731981 0.997656 0.041066
#
# Coordination Sequence:
#
# PCOD8172019 Si02
#       6
#     4   4   2   4   4   4
#     4  10  24  43  68  96 132 175 222 269 326 396
#     4  11  24  44  65  97 136 171 218 275 323 386
#     4  10  22  40  66 100 132 166 220 280 326 380
#     4  10  23  39  65  97 128 172 221 272 330 384
#     4  11  25  42  68  99 132 173 221 269 328 392
#     4  11  23  42  65  91 132 178 214 266 332 387
#
# _framework density 25.956826
#
# number of rings (size 3 to 8) (size 9 to 14) (size 15 to 20)
#    0.000    1.455    0.000    4.364    0.000   16.727 
#    0.000    3.636    0.000    0.000    0.000    0.000 
#    0.000    0.000    0.000    0.000    0.000    0.000 
#
# Total GULP energy -272951.487474 kJ/mol
# GULP energy per Si atom -12406.885794 kJ/mol
# Density = 2.589775 g / cm^3
# Si number density = 25.956826 Si / 1000 Ang^3
#
#
#
# Elastic Constant Matrix: (Units=GPa)
#
#
# Indices 1 2 3 4 5 6 
#
# 1 76.3974 27.7970 -3.1677 0.0000 0.0000 0.0000
# 2 27.7970 140.4437 6.4878 0.0000 0.0000 0.0000
# 3 -3.1677 6.4878 63.5162 0.0000 0.0000 0.0000
# 4 0.0000 0.0000 0.0000 31.7457 0.0000 0.0000
# 5 0.0000 0.0000 0.0000 0.0000 25.9842 0.0000
# 6 0.0000 0.0000 0.0000 0.0000 0.0000 40.0489
#
#
#
# Elastic Compliance Matrix: (Units=1/GPa)
#
#
# Indices 1 2 3 4 5 6 
#
# 1 0.014168 -0.002850 0.000998 0.000000 0.000000 0.000000
# 2 -0.002850 0.007727 -0.000931 0.000000 0.000000 0.000000
# 3 0.000998 -0.000931 0.015889 0.000000 0.000000 0.000000
# 4 0.000000 0.000000 0.000000 0.031500 0.000000 0.000000
# 5 0.000000 0.000000 0.000000 0.000000 0.038485 0.000000
# 6 0.000000 0.000000 0.000000 0.000000 0.000000 0.024969
#
#
# Mechanical properties :
#
#
# Convention : Reuss Voigt Hill
#
# Bulk Modulus (GPa) = 31.04019 38.06571 34.55295
# Shear Modulus (GPa) = 33.54675 36.17176 34.85926
#
# Velocity S-wave (km/s) = 3.59890 3.73706 3.66863
# Velocity P-wave (km/s) = 5.40868 5.77214 5.59337
#
# Compressibility (1/GPa) = 0.03221630
#
# Stress axis : x y z
#
# Youngs Moduli (GPa) = 70.58225 129.40890 62.93693
#
# Poissons Ratio (x) = 0.36884 -0.06279
# Poissons Ratio (y) = 0.20118 0.05862
# Poissons Ratio (z) = -0.07042 0.12054
#
# Static dielectric constant tensor:
#      x y z
#    x 4.618270 0.000000 0.000000 
#    y 0.000000 4.704040 0.000000 
#    z 0.000000 0.000000 4.496440 
# 
# 
# High freq. dielectric constant tensor:
#      x y z
#    x 2.035950 0.000000 0.000000 
#    y 0.000000 2.042920 0.000000 
#    z 0.000000 0.000000 2.042100 
# 
# From -- ./inp_files/1199.got.cif
#   From: 2010.03.12/outbox.cif.g09.slc.cpg/sg34_1_cif.got.tgz:1199.got - 2010.04.14 01:56:33.
