data_PCOD8172080
_publ_section_title
;
Structure prediction by ZEFSAII (Michael W. Deem and Ramdas Pophale) SiO2 
 PCOD8172080
Probable space group: P N N 2
;
_chemical_formula_sum "Si O2"
_cell_formula_units_Z 26
_cell_length_a 20.865292
_cell_length_b 8.486546
_cell_length_c 6.530701
_cell_angle_alpha 90.000000
_cell_angle_beta 90.000000
_cell_angle_gamma 90.000000
_cell_volume 1156.419049
_symmetry_space_group_name_H-M "P N N 2"
_symmetry_group_IT_number 34
_symmetry_cell_setting 'orthorhombic'
loop_
_space_group_symop_operation_xyz
x,y,z
-x,-y,z
1/2-x,1/2+y,1/2+z
1/2+x,1/2-y,1/2+z
loop_
_atom_site_type_symbol
_atom_site_label
_atom_site_fract_x
_atom_site_fract_y
_atom_site_fract_z
Si Si1 0.865409 0.064189 0.120570
Si Si2 0.188980 0.021845 0.517592
Si Si3 0.019494 0.729304 0.023425
Si Si4 0.500000 0.000000 0.878914
Si Si5 0.395456 0.038136 0.222375
Si Si6 0.215267 0.757627 0.804713
Si Si7 0.887241 0.796189 0.846580
O O1 0.937476 0.118907 0.072413
O O2 0.851327 0.082478 0.359044
O O3 0.814443 0.175058 0.011071
O O4 0.858125 0.881135 0.047990
O O5 0.226898 0.150127 0.382894
O O6 0.133696 0.098011 0.655213
O O7 0.234302 0.903858 0.653071
O O8 0.993993 0.655288 0.236557
O O9 0.059095 0.595763 0.904844
O O10 0.963989 0.786153 0.869895
O O11 0.435662 0.008635 0.015439
O O12 0.337492 0.157512 0.178256
O O13 0.361202 0.879389 0.307060
#
# Coordination Sequence:
#
# PCOD8172080 Si02
#       7
#     4   4   4   2   4   4   4
#     4  10  25  44  66  99 136 184 223 283 363 406
#     4  11  26  47  71 101 133 186 239 280 363 410
#     4  11  22  44  64  99 143 176 226 289 342 427
#     4  12  20  38  70  98 132 184 228 264 362 412
#     4  11  23  42  67 102 141 177 235 287 345 419
#     4  10  26  47  69  96 139 177 233 301 332 427
#     4  11  23  43  65 103 137 176 229 289 339 419
#
# _framework density 22.4832
#
# number of rings (size 3 to 8) (size 9 to 14) (size 15 to 20)
#    0.000    1.231    3.077    1.385    6.462    1.231 
#    5.538    0.000    0.000    0.000    0.000    0.000 
#    0.000    0.000    0.000    0.000    0.000    0.000 
#
# Total GULP energy -322302.742984 kJ/mol
# GULP energy per Si atom -12396.259346 kJ/mol
# Density = 2.243203 g / cm^3
# Si number density = 22.483200 Si / 1000 Ang^3
#
#
#
# Elastic Constant Matrix: (Units=GPa)
#
#
# Indices 1 2 3 4 5 6 
#
# 1 70.2160 34.1738 49.3274 0.0000 0.0000 0.0000
# 2 34.1738 118.7316 60.6881 0.0000 0.0000 0.0000
# 3 49.3274 60.6881 135.5722 0.0000 0.0000 0.0000
# 4 0.0000 0.0000 0.0000 27.3375 0.0000 0.0000
# 5 0.0000 0.0000 0.0000 0.0000 30.1339 0.0000
# 6 0.0000 0.0000 0.0000 0.0000 0.0000 29.4894
#
#
#
# Elastic Compliance Matrix: (Units=1/GPa)
#
#
# Indices 1 2 3 4 5 6 
#
# 1 0.019735 -0.002606 -0.006014 0.000000 0.000000 0.000000
# 2 -0.002606 0.011265 -0.004095 0.000000 0.000000 0.000000
# 3 -0.006014 -0.004095 0.011397 0.000000 0.000000 0.000000
# 4 0.000000 0.000000 0.000000 0.036580 0.000000 0.000000
# 5 0.000000 0.000000 0.000000 0.000000 0.033185 0.000000
# 6 0.000000 0.000000 0.000000 0.000000 0.000000 0.033911
#
#
# Mechanical properties :
#
#
# Convention : Reuss Voigt Hill
#
# Bulk Modulus (GPa) = 58.93395 68.09980 63.51688
# Shear Modulus (GPa) = 28.22329 29.41418 28.81873
#
# Velocity S-wave (km/s) = 3.54687 3.62093 3.58409
# Velocity P-wave (km/s) = 6.56072 6.91639 6.74090
#
# Compressibility (1/GPa) = 0.01696815
#
# Stress axis : x y z
#
# Youngs Moduli (GPa) = 50.67136 88.76720 87.74127
#
# Poissons Ratio (x) = 0.23136 0.52766
# Poissons Ratio (y) = 0.13207 0.35926
# Poissons Ratio (z) = 0.30473 0.36347
#
# Static dielectric constant tensor:
#      x y z
#    x 3.815590 0.000000 0.000000 
#    y 0.000000 4.321400 0.000000 
#    z 0.000000 0.000000 4.064430 
# 
# 
# High freq. dielectric constant tensor:
#      x y z
#    x 1.869100 0.000000 0.000000 
#    y 0.000000 1.901100 0.000000 
#    z 0.000000 0.000000 1.890720 
# 
# From -- ./inp_files/500.got.cif
#   From: 2010.03.12/outbox.cif.g09.slc.cpg/sg34_1_cif.got.tgz:500.got - 2010.04.14 01:56:33.
