data_PCOD8172466
_publ_section_title
;
Structure prediction by ZEFSAII (Michael W. Deem and Ramdas Pophale) SiO2 
 PCOD8172466
Probable space group: C M M 2
;
_chemical_formula_sum "Si O2"
_cell_formula_units_Z 44
_cell_length_a 20.182404
_cell_length_b 14.176985
_cell_length_c 7.512661
_cell_angle_alpha 90.000000
_cell_angle_beta 90.000000
_cell_angle_gamma 90.000000
_cell_volume 2149.564928
_symmetry_space_group_name_H-M "C M M 2"
_symmetry_group_IT_number 35
_symmetry_cell_setting 'orthorhombic'
loop_
_space_group_symop_operation_xyz
x,y,z
-x,-y,z
-x,y,z
x,-y,z
1/2+x,1/2+y,z
1/2-x,1/2-y,z
1/2-x,1/2+y,z
1/2+x,1/2-y,z
loop_
_atom_site_type_symbol
_atom_site_label
_atom_site_fract_x
_atom_site_fract_y
_atom_site_fract_z
Si Si1 0.925240 0.103706 0.720890
Si Si2 0.305846 0.393325 0.985717
Si Si3 0.852601 0.608775 0.298645
Si Si4 0.074028 0.298860 0.595925
Si Si5 0.660460 0.105015 0.885338
Si Si6 0.750000 0.750000 0.247039
O O1 0.872883 0.121918 0.877308
O O2 0.917636 0.185262 0.571161
O O3 0.000000 0.108051 0.801638
O O4 0.912556 0.000000 0.634617
O O5 0.303779 0.500000 0.067962
O O6 0.239504 0.380596 0.866065
O O7 0.302968 0.311486 0.133157
O O8 0.837675 0.500000 0.344469
O O9 0.914822 0.646002 0.411067
O O10 0.791055 0.674521 0.364172
O O11 0.862849 0.623704 0.088531
O O12 0.124028 0.325485 0.752653
O O13 0.000000 0.324238 0.658068
O O14 0.639937 0.000000 0.828626
#
# Coordination Sequence:
#
# PCOD8172466 Si02
#       6
#     8   8   8   8   8   4
#     4   9  18  33  54  82 115 149 187 232 280 333
#     4   9  17  32  57  86 114 146 185 229 277 332
#     4  10  22  38  56  83 115 144 182 234 283 331
#     4  11  23  38  57  81 112 152 193 233 284 340
#     4   9  19  36  58  85 114 144 183 230 279 334
#     4  10  18  34  56  80 114 148 182 230 282 334
#
# _framework density 20.469259000000001
#
# number of rings (size 3 to 8) (size 9 to 14) (size 15 to 20)
#    0.000    2.364    0.000    4.364    0.000    3.636 
#    0.000    6.364    0.000    1.091    0.000    5.091 
#    0.000    0.000    0.000    0.000    0.000    0.000 
#
# Total GULP energy -272565.592000 kJ/mol
# GULP energy per Si atom -12389.345091 kJ/mol
# Density = 2.042267 g / cm^3
# Si number density = 20.469259 Si / 1000 Ang^3
#
#
#
# Elastic Constant Matrix: (Units=GPa)
#
#
# Indices 1 2 3 4 5 6 
#
# 1 103.2684 55.1017 37.3236 0.0000 0.0000 0.0000
# 2 55.1017 163.5874 36.1814 0.0000 0.0000 0.0000
# 3 37.3236 36.1814 56.3924 0.0000 0.0000 0.0000
# 4 0.0000 0.0000 0.0000 23.2661 0.0000 0.0000
# 5 0.0000 0.0000 0.0000 0.0000 24.2180 0.0000
# 6 0.0000 0.0000 0.0000 0.0000 0.0000 31.6731
#
#
#
# Elastic Compliance Matrix: (Units=1/GPa)
#
#
# Indices 1 2 3 4 5 6 
#
# 1 0.013957 -0.003098 -0.007250 0.000000 0.000000 0.000000
# 2 -0.003098 0.007811 -0.002962 0.000000 0.000000 0.000000
# 3 -0.007250 -0.002962 0.024431 0.000000 0.000000 0.000000
# 4 0.000000 0.000000 0.000000 0.042981 0.000000 0.000000
# 5 0.000000 0.000000 0.000000 0.000000 0.041292 0.000000
# 6 0.000000 0.000000 0.000000 0.000000 0.000000 0.031573
#
#
# Mechanical properties :
#
#
# Convention : Reuss Voigt Hill
#
# Bulk Modulus (GPa) = 51.06918 64.49574 57.78246
# Shear Modulus (GPa) = 25.61611 28.80753 27.21182
#
# Velocity S-wave (km/s) = 3.54141 3.75554 3.65005
# Velocity P-wave (km/s) = 6.45953 7.09806 6.78631
#
# Compressibility (1/GPa) = 0.01958128
#
# Stress axis : x y z
#
# Youngs Moduli (GPa) = 71.65089 128.01908 40.93091
#
# Poissons Ratio (x) = 0.39655 0.29674
# Poissons Ratio (y) = 0.22194 0.12122
# Poissons Ratio (z) = 0.51946 0.37914
#
# Static dielectric constant tensor:
#      x y z
#    x 3.748520 0.000000 0.000000 
#    y 0.000000 4.331580 0.000000 
#    z 0.000000 0.000000 3.221230 
# 
# 
# High freq. dielectric constant tensor:
#      x y z
#    x 1.796610 0.000000 0.000000 
#    y 0.000000 1.838630 0.000000 
#    z 0.000000 0.000000 1.745240 
# 
# From -- ./inp_files/8324.got.cif
#   From: 2010.03.12/outbox.cif.g09.slc.cpg/sg35_5_cif.got.tgz:8324.got - 2010.04.14 02:02:04.
