data_PCOD8172789
_publ_section_title
;
Structure prediction by ZEFSAII (Michael W. Deem and Ramdas Pophale) SiO2 
 PCOD8172789
Probable space group: C M M 2
;
_chemical_formula_sum "Si O2"
_cell_formula_units_Z 40
_cell_length_a 15.819219
_cell_length_b 9.390944
_cell_length_c 14.559831
_cell_angle_alpha 90.000000
_cell_angle_beta 90.000000
_cell_angle_gamma 90.000000
_cell_volume 2162.970634
_symmetry_space_group_name_H-M "C M M 2"
_symmetry_group_IT_number 35
_symmetry_cell_setting 'orthorhombic'
loop_
_space_group_symop_operation_xyz
x,y,z
-x,-y,z
-x,y,z
x,-y,z
1/2+x,1/2+y,z
1/2-x,1/2-y,z
1/2-x,1/2+y,z
1/2+x,1/2-y,z
loop_
_atom_site_type_symbol
_atom_site_label
_atom_site_fract_x
_atom_site_fract_y
_atom_site_fract_z
Si Si1 0.500000 0.331210 0.842911
Si Si2 0.833610 0.836723 0.366495
Si Si3 0.500000 0.330572 0.050941
Si Si4 0.162323 0.165323 0.161718
Si Si5 0.408792 0.331421 0.552838
Si Si6 0.832120 0.831444 0.738643
O O1 0.500000 0.500000 0.839760
O O2 0.414926 0.276859 0.793119
O O3 0.500000 0.274178 0.946931
O O4 0.750000 0.750000 0.366572
O O5 0.874404 0.817822 0.265654
O O6 0.888913 0.774646 0.450327
O O7 0.811682 0.000000 0.386257
O O8 0.500000 0.500000 0.057584
O O9 0.413494 0.274010 0.098307
O O10 0.250000 0.250000 0.144813
O O11 0.181978 0.000000 0.140306
O O12 0.500000 0.268277 0.580346
O O13 0.414357 0.500000 0.551181
O O14 0.342448 0.286284 0.631410
O O15 0.750000 0.750000 0.777613
O O16 0.819100 0.000000 0.751158
#
# Coordination Sequence:
#
# PCOD8172789 Si02
#       6
#     4   8   4   8   8   8
#     4   9  18  34  52  72  98 127 161 199 242 292
#     4   9  17  28  45  68  95 124 156 194 233 276
#     4   9  18  32  52  74  96 125 163 203 240 284
#     4   9  18  32  50  73  99 127 161 199 239 284
#     4   9  16  27  46  71  96 124 161 198 230 276
#     4  10  19  33  53  74  97 128 162 197 240 287
#
# _framework density 18.493085000000001
#
# number of rings (size 3 to 8) (size 9 to 14) (size 15 to 20)
#    0.000    2.800    1.000    0.600    1.400    0.800 
#    0.000    1.000    0.000    3.000    0.000    0.000 
#    0.000    0.000    0.000    0.000    0.000    0.000 
#
# Total GULP energy -247798.704430 kJ/mol
# GULP energy per Si atom -12389.935222 kJ/mol
# Density = 1.845099 g / cm^3
# Si number density = 18.493085 Si / 1000 Ang^3
#
#
#
# Elastic Constant Matrix: (Units=GPa)
#
#
# Indices 1 2 3 4 5 6 
#
# 1 121.8852 30.5340 72.9495 0.0000 0.0000 0.0000
# 2 30.5340 26.9500 23.9417 0.0000 0.0000 0.0000
# 3 72.9495 23.9417 134.4672 0.0000 0.0000 0.0000
# 4 0.0000 0.0000 0.0000 15.7310 0.0000 0.0000
# 5 0.0000 0.0000 0.0000 0.0000 28.4784 0.0000
# 6 0.0000 0.0000 0.0000 0.0000 0.0000 4.4505
#
#
#
# Elastic Compliance Matrix: (Units=1/GPa)
#
#
# Indices 1 2 3 4 5 6 
#
# 1 0.014547 -0.011250 -0.005889 0.000000 0.000000 0.000000
# 2 -0.011250 0.052778 -0.003294 0.000000 0.000000 0.000000
# 3 -0.005889 -0.003294 0.011218 0.000000 0.000000 0.000000
# 4 0.000000 0.000000 0.000000 0.063569 0.000000 0.000000
# 5 0.000000 0.000000 0.000000 0.000000 0.035114 0.000000
# 6 0.000000 0.000000 0.000000 0.000000 0.000000 0.224692
#
#
# Mechanical properties :
#
#
# Convention : Reuss Voigt Hill
#
# Bulk Modulus (GPa) = 26.54097 59.79477 43.16787
# Shear Modulus (GPa) = 10.98070 20.12381 15.55225
#
# Velocity S-wave (km/s) = 2.43939 3.30234 2.90311
# Velocity P-wave (km/s) = 4.72410 6.85159 5.88479
#
# Compressibility (1/GPa) = 0.03767759
#
# Stress axis : x y z
#
# Youngs Moduli (GPa) = 68.74055 18.94718 89.14239
#
# Poissons Ratio (x) = 0.21316 0.52496
# Poissons Ratio (y) = 0.77336 0.29360
# Poissons Ratio (z) = 0.40481 0.06241
#
# Static dielectric constant tensor:
#      x y z
#    x 3.347330 0.000000 0.000000 
#    y 0.000000 2.933020 0.000000 
#    z 0.000000 0.000000 4.573550 
# 
# 
# High freq. dielectric constant tensor:
#      x y z
#    x 1.720140 0.000000 0.000000 
#    y 0.000000 1.662980 0.000000 
#    z 0.000000 0.000000 1.728580 
# 
# From -- ./inp_files/14729.got.cif
#   From: 2010.03.12/outbox.cif.g09.slc.cpg/sg35_8_cif.got.tgz:14729.got - 2010.04.14 02:02:04.
