data_PCOD8172649
_publ_section_title
;
Structure prediction by ZEFSAII (Michael W. Deem and Ramdas Pophale) SiO2 
 PCOD8172649
Probable space group: C M M 2
;
_chemical_formula_sum "Si O2"
_cell_formula_units_Z 64
_cell_length_a 28.233210
_cell_length_b 9.030715
_cell_length_c 15.516436
_cell_angle_alpha 90.000000
_cell_angle_beta 90.000000
_cell_angle_gamma 90.000000
_cell_volume 3956.164755
_symmetry_space_group_name_H-M "C M M 2"
_symmetry_group_IT_number 35
_symmetry_cell_setting 'orthorhombic'
loop_
_space_group_symop_operation_xyz
x,y,z
-x,-y,z
-x,y,z
x,-y,z
1/2+x,1/2+y,z
1/2-x,1/2-y,z
1/2-x,1/2+y,z
1/2+x,1/2-y,z
loop_
_atom_site_type_symbol
_atom_site_label
_atom_site_fract_x
_atom_site_fract_y
_atom_site_fract_z
Si Si1 0.797122 0.673601 0.444940
Si Si2 0.203565 0.827683 0.625433
Si Si3 0.053216 0.324460 0.854253
Si Si4 0.445268 0.326368 0.212463
Si Si5 0.056132 0.663805 0.043628
Si Si6 0.104727 0.170340 0.702137
Si Si7 0.396848 0.172049 0.369827
Si Si8 0.444238 0.329930 0.528441
O O1 0.787989 0.500000 0.459524
O O2 0.750000 0.750000 0.405332
O O3 0.809639 0.749186 0.535783
O O4 0.840853 0.700995 0.380856
O O5 0.250000 0.750000 0.665934
O O6 0.160912 0.807030 0.692301
O O7 0.213513 0.000000 0.607211
O O8 0.052917 0.500000 0.848080
O O9 0.089081 0.261075 0.784783
O O10 0.000000 0.263310 0.837450
O O11 0.072010 0.276676 0.949386
O O12 0.500000 0.280708 0.227522
O O13 0.438576 0.500000 0.219310
O O14 0.427016 0.274347 0.118619
O O15 0.412667 0.251217 0.283185
O O16 0.077317 0.500000 0.061776
O O17 0.000000 0.652552 0.041527
O O18 0.078476 0.230242 0.616792
O O19 0.091090 0.000000 0.716599
O O20 0.426002 0.232854 0.450148
O O21 0.408531 0.000000 0.361871
O O22 0.500000 0.312574 0.535740
O O23 0.429051 0.500000 0.512432
#
# Coordination Sequence:
#
# PCOD8172649 Si02
#       8
#     8   8   8   8   8   8   8   8
#     4  10  20  33  50  70  91 119 156 198 242 284
#     4  10  19  32  50  69  91 121 157 199 244 283
#     4   9  18  31  48  71  98 128 161 197 236 278
#     4  10  20  32  48  71  97 127 162 197 234 278
#     4   8  15  30  49  68  93 124 157 196 240 280
#     4  10  20  32  47  68  95 128 161 195 237 282
#     4  11  22  33  47  69  95 125 160 196 236 281
#     4  10  20  33  46  62  92 132 166 194 228 272
#
# _framework density 16.177282000000002
#
# number of rings (size 3 to 8) (size 9 to 14) (size 15 to 20)
#    0.000    2.250    1.250    3.750    0.000    6.750 
#    0.000    1.250    0.000    0.000    0.000    0.875 
#    0.000    6.000    0.000    0.000    0.000    0.000 
#
# Total GULP energy -396772.671907 kJ/mol
# GULP energy per Si atom -12399.145997 kJ/mol
# Density = 1.614046 g / cm^3
# Si number density = 16.177282 Si / 1000 Ang^3
#
#
#
# Elastic Constant Matrix: (Units=GPa)
#
#
# Indices 1 2 3 4 5 6 
#
# 1 81.0835 43.6369 53.5749 0.0000 0.0000 0.0000
# 2 43.6369 81.3611 52.5190 0.0000 0.0000 0.0000
# 3 53.5749 52.5190 125.9150 0.0000 0.0000 0.0000
# 4 0.0000 0.0000 0.0000 29.4170 0.0000 0.0000
# 5 0.0000 0.0000 0.0000 0.0000 10.2971 0.0000
# 6 0.0000 0.0000 0.0000 0.0000 0.0000 25.5112
#
#
#
# Elastic Compliance Matrix: (Units=1/GPa)
#
#
# Indices 1 2 3 4 5 6 
#
# 1 0.019738 -0.007068 -0.005450 0.000000 0.000000 0.000000
# 2 -0.007068 0.019350 -0.005064 0.000000 0.000000 0.000000
# 3 -0.005450 -0.005064 0.012373 0.000000 0.000000 0.000000
# 4 0.000000 0.000000 0.000000 0.033994 0.000000 0.000000
# 5 0.000000 0.000000 0.000000 0.000000 0.097115 0.000000
# 6 0.000000 0.000000 0.000000 0.000000 0.000000 0.039199
#
#
# Mechanical properties :
#
#
# Convention : Reuss Voigt Hill
#
# Bulk Modulus (GPa) = 61.35928 65.31347 63.33637
# Shear Modulus (GPa) = 19.05745 22.28697 20.67221
#
# Velocity S-wave (km/s) = 3.43598 3.71573 3.57859
# Velocity P-wave (km/s) = 7.33164 7.67268 7.50410
#
# Compressibility (1/GPa) = 0.01629745
#
# Stress axis : x y z
#
# Youngs Moduli (GPa) = 50.66397 51.67856 80.82227
#
# Poissons Ratio (x) = 0.36527 0.44049
# Poissons Ratio (y) = 0.35810 0.40926
# Poissons Ratio (z) = 0.27612 0.26168
#
# Static dielectric constant tensor:
#      x y z
#    x 3.031870 0.000000 0.000000 
#    y 0.000000 3.173600 0.000000 
#    z 0.000000 0.000000 3.139710 
# 
# 
# High freq. dielectric constant tensor:
#      x y z
#    x 1.604940 0.000000 0.000000 
#    y 0.000000 1.630530 0.000000 
#    z 0.000000 0.000000 1.610230 
# 
# From -- ./inp_files/16202.got.cif
#   From: 2010.03.12/outbox.cif.g09.slc.cpg/sg35_9_cif.got.tgz:16202.got - 2010.04.14 02:02:04.
