data_PCOD8172335
_publ_section_title
;
Structure prediction by ZEFSAII (Michael W. Deem and Ramdas Pophale) SiO2 
 PCOD8172335
Probable space group: C M M 2
;
_chemical_formula_sum "Si O2"
_cell_formula_units_Z 56
_cell_length_a 21.162549
_cell_length_b 8.515252
_cell_length_c 14.709601
_cell_angle_alpha 90.000000
_cell_angle_beta 90.000000
_cell_angle_gamma 90.000000
_cell_volume 2650.735377
_symmetry_space_group_name_H-M "C M M 2"
_symmetry_group_IT_number 35
_symmetry_cell_setting 'orthorhombic'
loop_
_space_group_symop_operation_xyz
x,y,z
-x,-y,z
-x,y,z
x,-y,z
1/2+x,1/2+y,z
1/2-x,1/2-y,z
1/2-x,1/2+y,z
1/2+x,1/2-y,z
loop_
_atom_site_type_symbol
_atom_site_label
_atom_site_fract_x
_atom_site_fract_y
_atom_site_fract_z
Si Si1 0.685360 0.316046 0.674030
Si Si2 0.371090 0.814312 0.844660
Si Si3 0.571779 0.184373 0.558456
Si Si4 0.814973 0.685735 0.233251
Si Si5 0.500000 0.316218 0.860384
Si Si6 0.069517 0.313740 0.350750
Si Si7 0.500000 0.820312 0.053128
Si Si8 0.865769 0.686877 0.048804
O O1 0.691090 0.500000 0.684487
O O2 0.750000 0.250000 0.628204
O O3 0.682266 0.237443 0.774064
O O4 0.623468 0.276313 0.616114
O O5 0.435391 0.728986 0.808303
O O6 0.380523 0.000000 0.843129
O O7 0.350884 0.752737 0.946465
O O8 0.500000 0.226949 0.589549
O O9 0.581288 0.237273 0.454359
O O10 0.583669 0.000000 0.570743
O O11 0.815636 0.500000 0.241636
O O12 0.750000 0.750000 0.275609
O O13 0.874523 0.757235 0.288362
O O14 0.816933 0.740400 0.126678
O O15 0.500000 0.500000 0.886278
O O16 0.500000 0.196892 0.944680
O O17 0.069763 0.500000 0.344009
O O18 0.000000 0.252730 0.318161
O O19 0.566242 0.744864 0.085587
O O20 0.500000 0.000000 0.083504
O O21 0.870290 0.500000 0.044165
#
# Coordination Sequence:
#
# PCOD8172335 Si02
#       8
#     8   8   8   8   4   8   4   8
#     4  12  26  42  60  86 118 154 199 244 296 355
#     4  10  20  37  57  80 114 155 199 244 292 341
#     4   9  19  39  65  91 119 150 188 236 296 356
#     4  10  20  34  53  82 117 151 190 233 282 338
#     4  10  18  30  50  80 111 144 189 238 289 342
#     4   8  16  33  60  90 114 143 187 237 282 334
#     4   8  14  28  48  72  99 134 185 242 291 330
#     4   8  16  30  52  79 107 144 191 239 283 333
#
# _framework density 21.126214000000001
#
# number of rings (size 3 to 8) (size 9 to 14) (size 15 to 20)
#    0.000    2.571    0.000    4.071    2.000    1.429 
#    0.000    7.143    0.000    1.286    0.000    0.000 
#    0.000    0.000    0.000    0.000    0.000    0.000 
#
# Total GULP energy -346880.573262 kJ/mol
# GULP energy per Si atom -12388.591902 kJ/mol
# Density = 2.107813 g / cm^3
# Si number density = 21.126214 Si / 1000 Ang^3
#
#
#
# Elastic Constant Matrix: (Units=GPa)
#
#
# Indices 1 2 3 4 5 6 
#
# 1 151.0177 28.8946 67.8255 0.0000 0.0000 0.0000
# 2 28.8946 59.8662 25.2354 0.0000 0.0000 0.0000
# 3 67.8255 25.2354 95.2339 0.0000 0.0000 0.0000
# 4 0.0000 0.0000 0.0000 12.4247 0.0000 0.0000
# 5 0.0000 0.0000 0.0000 0.0000 22.9906 0.0000
# 6 0.0000 0.0000 0.0000 0.0000 0.0000 29.6752
#
#
#
# Elastic Compliance Matrix: (Units=1/GPa)
#
#
# Indices 1 2 3 4 5 6 
#
# 1 0.009953 -0.002044 -0.006547 0.000000 0.000000 0.000000
# 2 -0.002044 0.019224 -0.003638 0.000000 0.000000 0.000000
# 3 -0.006547 -0.003638 0.016127 0.000000 0.000000 0.000000
# 4 0.000000 0.000000 0.000000 0.080485 0.000000 0.000000
# 5 0.000000 0.000000 0.000000 0.000000 0.043496 0.000000
# 6 0.000000 0.000000 0.000000 0.000000 0.000000 0.033698
#
#
# Mechanical properties :
#
#
# Convention : Reuss Voigt Hill
#
# Bulk Modulus (GPa) = 47.97115 61.11432 54.54274
# Shear Modulus (GPa) = 21.33187 25.29559 23.31373
#
# Velocity S-wave (km/s) = 3.18108 3.46404 3.32557
# Velocity P-wave (km/s) = 6.02068 6.70749 6.37334
#
# Compressibility (1/GPa) = 0.02084586
#
# Stress axis : x y z
#
# Youngs Moduli (GPa) = 100.46939 52.01789 62.00664
#
# Poissons Ratio (x) = 0.10634 0.40596
# Poissons Ratio (y) = 0.20538 0.22559
# Poissons Ratio (z) = 0.65778 0.18925
#
# Static dielectric constant tensor:
#      x y z
#    x 4.303680 0.000000 0.000000 
#    y 0.000000 3.297020 0.000000 
#    z 0.000000 0.000000 3.888930 
# 
# 
# High freq. dielectric constant tensor:
#      x y z
#    x 1.840290 0.000000 0.000000 
#    y 0.000000 1.782960 0.000000 
#    z 0.000000 0.000000 1.818460 
# 
# From -- ./inp_files/17497.got.cif
#   From: 2010.03.12/outbox.cif.g09.slc.cpg/sg35_9_cif.got.tgz:17497.got - 2010.04.14 02:02:04.
