data_PCOD8172051
_publ_section_title
;
Structure prediction by ZEFSAII (Michael W. Deem and Ramdas Pophale) SiO2 
 PCOD8172051
Probable space group: P N N 2
;
_chemical_formula_sum "Si O2"
_cell_formula_units_Z 32
_cell_length_a 5.325399
_cell_length_b 31.541030
_cell_length_c 8.654816
_cell_angle_alpha 90.000000
_cell_angle_beta 90.000000
_cell_angle_gamma 90.000000
_cell_volume 1453.737064
_symmetry_space_group_name_H-M "P N N 2"
_symmetry_group_IT_number 34
_symmetry_cell_setting 'orthorhombic'
loop_
_space_group_symop_operation_xyz
x,y,z
-x,-y,z
1/2-x,1/2+y,1/2+z
1/2+x,1/2-y,1/2+z
loop_
_atom_site_type_symbol
_atom_site_label
_atom_site_fract_x
_atom_site_fract_y
_atom_site_fract_z
Si Si1 0.281481 0.109796 0.819430
Si Si2 0.602739 0.166117 0.012182
Si Si3 0.800177 0.717147 0.233577
Si Si4 0.984373 0.106303 0.104338
Si Si5 0.507083 0.049262 0.589942
Si Si6 0.310758 0.678443 0.104604
Si Si7 0.492745 0.549250 0.902483
Si Si8 0.236769 0.186074 0.252670
O O1 0.383521 0.152875 0.895605
O O2 0.479476 0.076419 0.747122
O O3 0.124168 0.132219 0.680144
O O4 0.123118 0.086240 0.954019
O O5 0.760638 0.199585 0.907984
O O6 0.708892 0.118845 0.047547
O O7 0.514224 0.186782 0.174189
O O8 0.548386 0.709358 0.132683
O O9 0.868095 0.766578 0.244726
O O10 0.042918 0.697026 0.154929
O O11 0.985587 0.073069 0.240884
O O12 0.077223 0.153423 0.150785
O O13 0.771205 0.061569 0.510856
O O14 0.272502 0.060646 0.479814
O O15 0.500000 0.000000 0.635883
O O16 0.270288 0.668648 0.924822
O O17 0.500000 0.500000 0.861793
#
# Coordination Sequence:
#
# PCOD8172051 Si02
#       8
#     4   4   4   4   4   4   4   4
#     4  10  23  42  64  96 132 176 211 279 323 403
#     4  10  24  43  61  93 135 168 219 276 333 389
#     4  11  25  44  63  91 131 170 218 280 332 390
#     4  11  24  42  65  97 134 176 220 275 335 400
#     4  10  23  45  71 102 133 172 222 271 330 400
#     4  11  25  42  65  93 125 172 222 268 332 390
#     4  10  24  45  70  99 136 175 219 277 331 405
#     4  11  26  39  67  92 126 174 224 272 333 396
#
# _framework density 22.012232999999998
#
# number of rings (size 3 to 8) (size 9 to 14) (size 15 to 20)
#    0.000    1.500    1.250    1.500   12.250    1.000 
#    2.250    0.000    0.000    0.000    0.000    0.000 
#    0.000    0.000    0.000    0.000    0.000    0.000 
#
# Total GULP energy -396452.832785 kJ/mol
# GULP energy per Si atom -12389.151025 kJ/mol
# Density = 2.196213 g / cm^3
# Si number density = 22.012233 Si / 1000 Ang^3
#
#
#
# Elastic Constant Matrix: (Units=GPa)
#
#
# Indices 1 2 3 4 5 6 
#
# 1 92.1055 6.8375 28.3745 0.0000 0.0000 0.0000
# 2 6.8375 71.4647 40.5985 0.0000 0.0000 0.0000
# 3 28.3745 40.5985 145.9319 0.0000 0.0000 0.0000
# 4 0.0000 0.0000 0.0000 37.7245 0.0000 0.0000
# 5 0.0000 0.0000 0.0000 0.0000 32.0134 0.0000
# 6 0.0000 0.0000 0.0000 0.0000 0.0000 25.2603
#
#
#
# Elastic Compliance Matrix: (Units=1/GPa)
#
#
# Indices 1 2 3 4 5 6 
#
# 1 0.011551 0.000203 -0.002302 0.000000 0.000000 0.000000
# 2 0.000203 0.016623 -0.004664 0.000000 0.000000 0.000000
# 3 -0.002302 -0.004664 0.008598 0.000000 0.000000 0.000000
# 4 0.000000 0.000000 0.000000 0.026508 0.000000 0.000000
# 5 0.000000 0.000000 0.000000 0.000000 0.031237 0.000000
# 6 0.000000 0.000000 0.000000 0.000000 0.000000 0.039588
#
#
# Mechanical properties :
#
#
# Convention : Reuss Voigt Hill
#
# Bulk Modulus (GPa) = 43.02017 51.23589 47.12803
# Shear Modulus (GPa) = 32.17908 34.57908 33.37908
#
# Velocity S-wave (km/s) = 3.82759 3.96776 3.89831
# Velocity P-wave (km/s) = 6.25461 6.65714 6.45901
#
# Compressibility (1/GPa) = 0.02324491
#
# Stress axis : x y z
#
# Youngs Moduli (GPa) = 86.56995 60.15722 116.30991
#
# Poissons Ratio (x) = -0.01220 0.26779
# Poissons Ratio (y) = -0.01756 0.54247
# Poissons Ratio (z) = 0.19932 0.28057
#
# Static dielectric constant tensor:
#      x y z
#    x 4.015170 0.000000 0.000000 
#    y 0.000000 3.865870 0.000000 
#    z 0.000000 0.000000 4.203870 
# 
# 
# High freq. dielectric constant tensor:
#      x y z
#    x 1.861650 0.000000 0.000000 
#    y 0.000000 1.858200 0.000000 
#    z 0.000000 0.000000 1.880540 
# 
# From -- ./inp_files/2214.got.cif
#   From: 2010.03.12/outbox.cif.g09.slc.cpg/sg34_2_cif.got.tgz:2214.got - 2010.04.14 01:56:33.
