data_PCOD8172892
_publ_section_title
;
Structure prediction by ZEFSAII (Michael W. Deem and Ramdas Pophale) SiO2 
 PCOD8172892
Probable space group: C M M 2
;
_chemical_formula_sum "Si O2"
_cell_formula_units_Z 64
_cell_length_a 28.956584
_cell_length_b 8.803618
_cell_length_c 12.399245
_cell_angle_alpha 90.000000
_cell_angle_beta 90.000000
_cell_angle_gamma 90.000000
_cell_volume 3160.849064
_symmetry_space_group_name_H-M "C M M 2"
_symmetry_group_IT_number 35
_symmetry_cell_setting 'orthorhombic'
loop_
_space_group_symop_operation_xyz
x,y,z
-x,-y,z
-x,y,z
x,-y,z
1/2+x,1/2+y,z
1/2-x,1/2-y,z
1/2-x,1/2+y,z
1/2+x,1/2-y,z
loop_
_atom_site_type_symbol
_atom_site_label
_atom_site_fract_x
_atom_site_fract_y
_atom_site_fract_z
Si Si1 0.183789 0.329323 0.057940
Si Si2 0.888365 0.180676 0.735694
Si Si3 0.295510 0.677435 0.274707
Si Si4 0.297675 0.180481 0.815351
Si Si5 0.896457 0.178816 0.341969
Si Si6 0.419401 0.169995 0.128305
Si Si7 0.949484 0.170051 0.930297
Si Si8 0.553781 0.820831 0.543257
O O1 0.203036 0.500000 0.074703
O O2 0.205489 0.221287 0.148454
O O3 0.129234 0.327214 0.068550
O O4 0.196123 0.266045 0.939545
O O5 0.837569 0.253340 0.738186
O O6 0.914146 0.237715 0.843387
O O7 0.917710 0.236947 0.635087
O O8 0.884560 0.000000 0.729431
O O9 0.291494 0.500000 0.285805
O O10 0.250000 0.750000 0.331053
O O11 0.342649 0.732740 0.333432
O O12 0.250000 0.250000 0.771349
O O13 0.297715 0.000000 0.805802
O O14 0.921383 0.217651 0.229722
O O15 0.922749 0.273901 0.431578
O O16 0.900267 0.000000 0.365283
O O17 0.432867 0.000000 0.165713
O O18 0.454107 0.229165 0.037558
O O19 0.000000 0.168574 0.875646
O O20 0.933886 0.000000 0.962831
O O21 0.500000 0.770200 0.544798
O O22 0.558106 0.000000 0.558997
#
# Coordination Sequence:
#
# PCOD8172892 Si02
#       8
#     8   8   8   8   8   8   8   8
#     4   9  18  32  52  80 118 161 203 245 290 345
#     4  11  23  41  65  90 121 159 202 253 306 363
#     4  10  20  33  54  85 121 160 202 244 292 350
#     4  11  22  37  57  87 124 163 207 251 302 360
#     4  10  22  40  62  89 120 157 202 251 301 360
#     4  10  19  34  56  85 121 160 198 244 301 356
#     4  10  21  36  56  85 120 158 198 241 297 364
#     4  11  25  45  69  94 118 151 199 255 312 369
#
# _framework density 20.247724999999999
#
# number of rings (size 3 to 8) (size 9 to 14) (size 15 to 20)
#    0.000    1.750    1.250    3.000    0.000    6.750 
#    0.000    0.625    0.000    1.500    0.000    0.000 
#    0.000    0.000    0.000    0.000    0.000    0.000 
#
# Total GULP energy -396795.817481 kJ/mol
# GULP energy per Si atom -12399.869296 kJ/mol
# Density = 2.020164 g / cm^3
# Si number density = 20.247725 Si / 1000 Ang^3
#
#
#
# Elastic Constant Matrix: (Units=GPa)
#
#
# Indices 1 2 3 4 5 6 
#
# 1 135.1684 43.4505 55.6834 0.0000 0.0000 0.0000
# 2 43.4505 72.6313 28.2791 0.0000 0.0000 0.0000
# 3 55.6834 28.2791 87.9570 0.0000 0.0000 0.0000
# 4 0.0000 0.0000 0.0000 33.8064 0.0000 0.0000
# 5 0.0000 0.0000 0.0000 0.0000 20.8655 0.0000
# 6 0.0000 0.0000 0.0000 0.0000 0.0000 27.1102
#
#
#
# Elastic Compliance Matrix: (Units=1/GPa)
#
#
# Indices 1 2 3 4 5 6 
#
# 1 0.011155 -0.004485 -0.005620 0.000000 0.000000 0.000000
# 2 -0.004485 0.017542 -0.002800 0.000000 0.000000 0.000000
# 3 -0.005620 -0.002800 0.015827 0.000000 0.000000 0.000000
# 4 0.000000 0.000000 0.000000 0.029580 0.000000 0.000000
# 5 0.000000 0.000000 0.000000 0.000000 0.047926 0.000000
# 6 0.000000 0.000000 0.000000 0.000000 0.000000 0.036887
#
#
# Mechanical properties :
#
#
# Convention : Reuss Voigt Hill
#
# Bulk Modulus (GPa) = 53.43851 61.17586 57.30718
# Shear Modulus (GPa) = 26.18268 27.57932 26.88100
#
# Velocity S-wave (km/s) = 3.59989 3.69466 3.64759
# Velocity P-wave (km/s) = 6.61276 6.96276 6.79002
#
# Compressibility (1/GPa) = 0.01871310
#
# Stress axis : x y z
#
# Youngs Moduli (GPa) = 89.64451 57.00702 63.18146
#
# Poissons Ratio (x) = 0.25569 0.35508
# Poissons Ratio (y) = 0.40208 0.17693
# Poissons Ratio (z) = 0.50380 0.15964
#
# Static dielectric constant tensor:
#      x y z
#    x 3.902210 0.000000 0.000000 
#    y 0.000000 3.670550 0.000000 
#    z 0.000000 0.000000 3.484340 
# 
# 
# High freq. dielectric constant tensor:
#      x y z
#    x 1.803830 0.000000 0.000000 
#    y 0.000000 1.795010 0.000000 
#    z 0.000000 0.000000 1.767190 
# 
# From -- ./inp_files/11857.got.cif
#   From: 2010.03.12/outbox.cif.g09.slc.cpg/sg35_6_cif.got.tgz:11857.got - 2010.04.14 02:02:04.
