data_PCOD8172678
_publ_section_title
;
Structure prediction by ZEFSAII (Michael W. Deem and Ramdas Pophale) SiO2 
 PCOD8172678
Probable space group: C M M 2
;
_chemical_formula_sum "Si O2"
_cell_formula_units_Z 48
_cell_length_a 26.677261
_cell_length_b 8.790465
_cell_length_c 11.495397
_cell_angle_alpha 90.000000
_cell_angle_beta 90.000000
_cell_angle_gamma 90.000000
_cell_volume 2695.734156
_symmetry_space_group_name_H-M "C M M 2"
_symmetry_group_IT_number 35
_symmetry_cell_setting 'orthorhombic'
loop_
_space_group_symop_operation_xyz
x,y,z
-x,-y,z
-x,y,z
x,-y,z
1/2+x,1/2+y,z
1/2-x,1/2-y,z
1/2-x,1/2+y,z
1/2+x,1/2-y,z
loop_
_atom_site_type_symbol
_atom_site_label
_atom_site_fract_x
_atom_site_fract_y
_atom_site_fract_z
Si Si1 0.695876 0.319548 0.642830
Si Si2 0.445121 0.834711 0.662449
Si Si3 0.371138 0.831100 0.456123
Si Si4 0.883811 0.174091 0.833042
Si Si5 0.443151 0.824349 0.030961
Si Si6 0.056396 0.179094 0.278067
O O1 0.698028 0.500000 0.635596
O O2 0.750000 0.250000 0.661419
O O3 0.673631 0.260643 0.519724
O O4 0.664584 0.268739 0.758569
O O5 0.500000 0.798121 0.619496
O O6 0.415217 0.845161 0.545803
O O7 0.429593 0.695402 0.744110
O O8 0.441173 0.000000 0.728392
O O9 0.396176 0.749724 0.345831
O O10 0.351559 0.000000 0.420618
O O11 0.878309 0.000000 0.871666
O O12 0.898051 0.275092 0.944561
O O13 0.500000 0.798759 0.979741
O O14 0.436240 0.723482 0.144632
O O15 0.435363 0.000000 0.063449
O O16 0.000000 0.232570 0.318362
O O17 0.060682 0.000000 0.292112
#
# Coordination Sequence:
#
# PCOD8172678 Si02
#       6
#     8   8   8   8   8   8
#     4  10  21  37  56  78 102 130 167 212 263 314
#     4   9  17  28  43  66  97 131 164 198 239 292
#     4  10  19  32  51  74 101 133 169 209 254 304
#     4  10  20  32  48  72 100 129 164 207 254 302
#     4  10  20  33  50  73 103 140 178 210 244 295
#     4  10  20  33  50  74 106 142 177 212 250 295
#
# _framework density 17.805910000000001
#
# number of rings (size 3 to 8) (size 9 to 14) (size 15 to 20)
#    0.000    2.167    0.000    3.500    0.000    7.667 
#    0.000    0.000    0.000    1.000    0.000    4.667 
#    0.000    0.000    0.000    0.000    0.000    0.000 
#
# Total GULP energy -297317.155712 kJ/mol
# GULP energy per Si atom -12388.214821 kJ/mol
# Density = 1.776538 g / cm^3
# Si number density = 17.805910 Si / 1000 Ang^3
#
#
#
# Elastic Constant Matrix: (Units=GPa)
#
#
# Indices 1 2 3 4 5 6 
#
# 1 93.1044 36.6244 37.6063 0.0000 0.0000 0.0000
# 2 36.6244 71.9063 28.9169 0.0000 0.0000 0.0000
# 3 37.6063 28.9169 70.9844 0.0000 0.0000 0.0000
# 4 0.0000 0.0000 0.0000 32.4573 0.0000 0.0000
# 5 0.0000 0.0000 0.0000 0.0000 36.8136 0.0000
# 6 0.0000 0.0000 0.0000 0.0000 0.0000 24.7447
#
#
#
# Elastic Compliance Matrix: (Units=1/GPa)
#
#
# Indices 1 2 3 4 5 6 
#
# 1 0.015236 -0.005399 -0.005873 0.000000 0.000000 0.000000
# 2 -0.005399 0.018545 -0.004694 0.000000 0.000000 0.000000
# 3 -0.005873 -0.004694 0.019111 0.000000 0.000000 0.000000
# 4 0.000000 0.000000 0.000000 0.030810 0.000000 0.000000
# 5 0.000000 0.000000 0.000000 0.000000 0.027164 0.000000
# 6 0.000000 0.000000 0.000000 0.000000 0.000000 0.040413
#
#
# Mechanical properties :
#
#
# Convention : Reuss Voigt Hill
#
# Bulk Modulus (GPa) = 47.70856 49.14337 48.42596
# Shear Modulus (GPa) = 26.28853 27.65960 26.97406
#
# Velocity S-wave (km/s) = 3.84655 3.94559 3.89639
# Velocity P-wave (km/s) = 6.82494 6.95818 6.89188
#
# Compressibility (1/GPa) = 0.02096060
#
# Stress axis : x y z
#
# Youngs Moduli (GPa) = 65.63226 53.92406 52.32538
#
# Poissons Ratio (x) = 0.29112 0.30729
# Poissons Ratio (y) = 0.35433 0.24563
# Poissons Ratio (z) = 0.38544 0.25314
#
# Static dielectric constant tensor:
#      x y z
#    x 3.071150 0.000000 0.000000 
#    y 0.000000 3.586220 0.000000 
#    z 0.000000 0.000000 3.295180 
# 
# 
# High freq. dielectric constant tensor:
#      x y z
#    x 1.667390 0.000000 0.000000 
#    y 0.000000 1.701340 0.000000 
#    z 0.000000 0.000000 1.676670 
# 
# From -- ./inp_files/11400.got.cif
#   From: 2010.03.12/outbox.cif.g09.slc.cpg/sg35_6_cif.got.tgz:11400.got - 2010.04.14 02:02:04.
