data_PCOD8172919
_publ_section_title
;
Structure prediction by ZEFSAII (Michael W. Deem and Ramdas Pophale) SiO2 
 PCOD8172919
Probable space group: C M M 2
;
_chemical_formula_sum "Si O2"
_cell_formula_units_Z 48
_cell_length_a 9.206109
_cell_length_b 29.544289
_cell_length_c 9.336039
_cell_angle_alpha 90.000000
_cell_angle_beta 90.000000
_cell_angle_gamma 90.000000
_cell_volume 2539.290061
_symmetry_space_group_name_H-M "C M M 2"
_symmetry_group_IT_number 35
_symmetry_cell_setting 'orthorhombic'
loop_
_space_group_symop_operation_xyz
x,y,z
-x,-y,z
-x,y,z
x,-y,z
1/2+x,1/2+y,z
1/2-x,1/2-y,z
1/2-x,1/2+y,z
1/2+x,1/2-y,z
loop_
_atom_site_type_symbol
_atom_site_label
_atom_site_fract_x
_atom_site_fract_y
_atom_site_fract_z
Si Si1 0.668619 0.873757 0.627560
Si Si2 0.840906 0.073607 0.839792
Si Si3 0.168079 0.101621 0.359634
Si Si4 0.341656 0.649395 0.066780
Si Si5 0.331779 0.795402 0.856564
Si Si6 0.170791 0.500000 0.004101
Si Si7 0.333621 0.500000 0.291618
O O1 0.500000 0.886947 0.620942
O O2 0.761332 0.915273 0.691510
O O3 0.732178 0.869158 0.467476
O O4 0.692160 0.829082 0.722682
O O5 0.000000 0.051359 0.809389
O O6 0.864925 0.118114 0.930582
O O7 0.732323 0.043335 0.927465
O O8 0.214040 0.119920 0.202068
O O9 0.000000 0.112577 0.390087
O O10 0.193813 0.047090 0.377045
O O11 0.500000 0.671363 0.102873
O O12 0.227463 0.686868 0.011206
O O13 0.500000 0.785039 0.879896
O O14 0.250000 0.750000 0.811873
O O15 0.217846 0.500000 0.166823
O O16 0.000000 0.500000 0.993702
O O17 0.500000 0.500000 0.231770
#
# Coordination Sequence:
#
# PCOD8172919 Si02
#       7
#     8   8   8   8   8   4   4
#     4  10  22  38  55  82 117 149 185 234 290 340
#     4  10  19  35  56  76 104 146 191 232 276 330
#     4  10  20  36  58  83 114 155 197 233 275 335
#     4   9  18  34  58  83 108 142 186 230 275 332
#     4  10  21  38  61  86 112 143 183 233 288 347
#     4  12  22  31  50  81 112 144 188 242 290 329
#     4  10  20  37  56  79 112 152 200 238 272 327
#
# _framework density 18.902919000000001
#
# number of rings (size 3 to 8) (size 9 to 14) (size 15 to 20)
#    0.000    2.000    1.667    2.250    0.000    4.667 
#    0.000    3.333    0.000    2.000    0.000    0.000 
#    0.000    0.000    0.000    0.000    0.000    0.000 
#
# Total GULP energy -297419.401773 kJ/mol
# GULP energy per Si atom -12392.475074 kJ/mol
# Density = 1.885990 g / cm^3
# Si number density = 18.902919 Si / 1000 Ang^3
#
#
#
# Elastic Constant Matrix: (Units=GPa)
#
#
# Indices 1 2 3 4 5 6 
#
# 1 153.7332 54.4690 52.8584 0.0000 0.0000 0.0000
# 2 54.4690 70.2119 27.1745 0.0000 0.0000 0.0000
# 3 52.8584 27.1745 94.9380 0.0000 0.0000 0.0000
# 4 0.0000 0.0000 0.0000 21.2699 0.0000 0.0000
# 5 0.0000 0.0000 0.0000 0.0000 30.6736 0.0000
# 6 0.0000 0.0000 0.0000 0.0000 0.0000 32.3209
#
#
#
# Elastic Compliance Matrix: (Units=1/GPa)
#
#
# Indices 1 2 3 4 5 6 
#
# 1 0.010049 -0.006332 -0.003782 0.000000 0.000000 0.000000
# 2 -0.006332 0.020007 -0.002201 0.000000 0.000000 0.000000
# 3 -0.003782 -0.002201 0.013269 0.000000 0.000000 0.000000
# 4 0.000000 0.000000 0.000000 0.047015 0.000000 0.000000
# 5 0.000000 0.000000 0.000000 0.000000 0.032601 0.000000
# 6 0.000000 0.000000 0.000000 0.000000 0.000000 0.030940
#
#
# Mechanical properties :
#
#
# Convention : Reuss Voigt Hill
#
# Bulk Modulus (GPa) = 53.49404 65.32077 59.40741
# Shear Modulus (GPa) = 27.06475 29.14496 28.10485
#
# Velocity S-wave (km/s) = 3.78799 3.93087 3.86009
# Velocity P-wave (km/s) = 6.89149 7.43190 7.16679
#
# Compressibility (1/GPa) = 0.01869367
#
# Stress axis : x y z
#
# Youngs Moduli (GPa) = 99.51601 49.98370 75.36234
#
# Poissons Ratio (x) = 0.31648 0.28505
# Poissons Ratio (y) = 0.63009 0.16590
# Poissons Ratio (z) = 0.37641 0.11003
#
# Static dielectric constant tensor:
#      x y z
#    x 3.719460 0.000000 0.000000 
#    y 0.000000 3.365120 0.000000 
#    z 0.000000 0.000000 3.384570 
# 
# 
# High freq. dielectric constant tensor:
#      x y z
#    x 1.744290 0.000000 0.000000 
#    y 0.000000 1.714900 0.000000 
#    z 0.000000 0.000000 1.725650 
# 
# From -- ./inp_files/5358.got.cif
#   From: 2010.03.12/outbox.cif.g09.slc.cpg/sg35_3_cif.got.tgz:5358.got - 2010.04.14 02:02:04.
