data_PCOD8172197
_publ_section_title
;
Structure prediction by ZEFSAII (Michael W. Deem and Ramdas Pophale) SiO2 
 PCOD8172197
Probable space group: C M M 2
;
_chemical_formula_sum "Si O2"
_cell_formula_units_Z 64
_cell_length_a 30.620287
_cell_length_b 8.848176
_cell_length_c 15.025190
_cell_angle_alpha 90.000000
_cell_angle_beta 90.000000
_cell_angle_gamma 90.000000
_cell_volume 4070.830148
_symmetry_space_group_name_H-M "C M M 2"
_symmetry_group_IT_number 35
_symmetry_cell_setting 'orthorhombic'
loop_
_space_group_symop_operation_xyz
x,y,z
-x,-y,z
-x,y,z
x,-y,z
1/2+x,1/2+y,z
1/2-x,1/2-y,z
1/2-x,1/2+y,z
1/2+x,1/2-y,z
loop_
_atom_site_type_symbol
_atom_site_label
_atom_site_fract_x
_atom_site_fract_y
_atom_site_fract_z
Si Si1 0.297512 0.179408 0.739860
Si Si2 0.701711 0.680209 0.918400
Si Si3 0.133550 0.828135 0.406223
Si Si4 0.702941 0.176323 0.090104
Si Si5 0.703280 0.174677 0.285788
Si Si6 0.047718 0.330250 0.406822
Si Si7 0.047936 0.329911 0.618191
Si Si8 0.365554 0.673050 0.616543
O O1 0.250000 0.250000 0.722155
O O2 0.319668 0.251179 0.828944
O O3 0.328538 0.220799 0.657935
O O4 0.293058 0.000000 0.749447
O O5 0.702025 0.500000 0.914198
O O6 0.750000 0.750000 0.922053
O O7 0.677283 0.738929 0.008807
O O8 0.170769 0.731231 0.360657
O O9 0.085953 0.777123 0.370480
O O10 0.137377 0.803507 0.511289
O O11 0.140269 0.000000 0.378301
O O12 0.750000 0.250000 0.097938
O O13 0.681631 0.202753 0.187555
O O14 0.706852 0.000000 0.066607
O O15 0.750000 0.250000 0.297709
O O16 0.711603 0.000000 0.301364
O O17 0.056459 0.500000 0.372275
O O18 0.047744 0.328686 0.512530
O O19 0.000000 0.273786 0.372694
O O20 0.056706 0.500000 0.652734
O O21 0.086588 0.221721 0.653120
O O22 0.000000 0.274025 0.652332
O O23 0.357486 0.500000 0.643926
#
# Coordination Sequence:
#
# PCOD8172197 Si02
#       8
#     8   8   8   8   8   8   8   8
#     4  11  21  33  47  62  84 115 149 184 218 255
#     4  10  17  27  44  64  85 108 135 172 216 260
#     4  10  20  31  44  62  87 117 149 184 218 256
#     4   9  16  27  43  63  83 106 137 174 216 258
#     4  10  20  32  46  62  85 116 150 185 217 254
#     4   8  14  26  44  63  83 108 139 176 218 261
#     4   8  14  26  44  64  84 108 139 175 217 261
#     4  10  20  32  44  62  87 116 150 184 218 256
#
# _framework density 15.721609000000001
#
# number of rings (size 3 to 8) (size 9 to 14) (size 15 to 20)
#    0.000    2.500    0.000    6.000    0.000    4.000 
#    0.000    2.500    0.000    0.000    0.000    0.000 
#    0.000    1.000    0.000    8.750    0.000    5.625 
#
# Total GULP energy -396525.520024 kJ/mol
# GULP energy per Si atom -12391.422501 kJ/mol
# Density = 1.568583 g / cm^3
# Si number density = 15.721609 Si / 1000 Ang^3
#
#
#
# Elastic Constant Matrix: (Units=GPa)
#
#
# Indices 1 2 3 4 5 6 
#
# 1 82.7722 42.3898 34.4267 0.0000 0.0000 0.0000
# 2 42.3898 116.3461 39.3781 0.0000 0.0000 0.0000
# 3 34.4267 39.3781 47.9606 0.0000 0.0000 0.0000
# 4 0.0000 0.0000 0.0000 22.9263 0.0000 0.0000
# 5 0.0000 0.0000 0.0000 0.0000 0.1834 0.0000
# 6 0.0000 0.0000 0.0000 0.0000 0.0000 25.6855
#
#
#
# Elastic Compliance Matrix: (Units=1/GPa)
#
#
# Indices 1 2 3 4 5 6 
#
# 1 0.017958 -0.003019 -0.010412 0.000000 0.000000 0.000000
# 2 -0.003019 0.012410 -0.008022 0.000000 0.000000 0.000000
# 3 -0.010412 -0.008022 0.034911 0.000000 0.000000 0.000000
# 4 0.000000 0.000000 0.000000 0.043618 0.000000 0.000000
# 5 0.000000 0.000000 0.000000 0.000000 5.453021 0.000000
# 6 0.000000 0.000000 0.000000 0.000000 0.000000 0.038932
#
#
# Mechanical properties :
#
#
# Convention : Reuss Voigt Hill
#
# Bulk Modulus (GPa) = 44.69684 53.27425 48.98554
# Shear Modulus (GPa) = 0.88477 18.48464 9.68470
#
# Velocity S-wave (km/s) = 0.75099 3.43264 2.48465
# Velocity P-wave (km/s) = 5.40776 7.04771 6.28149
#
# Compressibility (1/GPa) = 0.02237295
#
# Stress axis : x y z
#
# Youngs Moduli (GPa) = 55.68589 80.57883 28.64429
#
# Poissons Ratio (x) = 0.24326 0.29824
# Poissons Ratio (y) = 0.16811 0.22980
# Poissons Ratio (z) = 0.57979 0.64644
#
# Static dielectric constant tensor:
#      x y z
#    x 2.980020 0.000000 0.000000 
#    y 0.000000 3.153290 0.000000 
#    z 0.000000 0.000000 3.361260 
# 
# 
# High freq. dielectric constant tensor:
#      x y z
#    x 1.572580 0.000000 0.000000 
#    y 0.000000 1.620300 0.000000 
#    z 0.000000 0.000000 1.579400 
# 
# From -- ./inp_files/17738.got.cif
#   From: 2010.03.12/outbox.cif.g09.slc.cpg/sg35_9_cif.got.tgz:17738.got - 2010.04.14 02:02:04.
