data_PCOD8172615
_publ_section_title
;
Structure prediction by ZEFSAII (Michael W. Deem and Ramdas Pophale) SiO2 
 PCOD8172615
Probable space group: C M M 2
;
_chemical_formula_sum "Si O2"
_cell_formula_units_Z 64
_cell_length_a 9.250993
_cell_length_b 18.083761
_cell_length_c 20.750558
_cell_angle_alpha 90.000000
_cell_angle_beta 90.000000
_cell_angle_gamma 90.000000
_cell_volume 3471.417838
_symmetry_space_group_name_H-M "C M M 2"
_symmetry_group_IT_number 35
_symmetry_cell_setting 'orthorhombic'
loop_
_space_group_symop_operation_xyz
x,y,z
-x,-y,z
-x,y,z
x,-y,z
1/2+x,1/2+y,z
1/2-x,1/2-y,z
1/2-x,1/2+y,z
1/2+x,1/2-y,z
loop_
_atom_site_type_symbol
_atom_site_label
_atom_site_fract_x
_atom_site_fract_y
_atom_site_fract_z
Si Si1 0.171645 0.827747 0.416560
Si Si2 0.171484 0.917245 0.541353
Si Si3 0.667801 0.414515 0.792425
Si Si4 0.832198 0.914516 0.040694
Si Si5 0.328517 0.582754 0.291766
Si Si6 0.329364 0.672762 0.168167
Si Si7 0.663255 0.087988 0.916560
Si Si8 0.170636 0.172762 0.664953
O O1 0.250000 0.750000 0.416559
O O2 0.224658 0.872934 0.478838
O O3 0.224653 0.872934 0.354282
O O4 0.000000 0.815359 0.416561
O O5 0.226900 0.875927 0.605180
O O6 0.000000 0.922199 0.541847
O O7 0.237089 0.000000 0.539849
O O8 0.500000 0.404216 0.808624
O O9 0.704494 0.500000 0.779135
O O10 0.757018 0.382274 0.852793
O O11 0.715014 0.369299 0.729859
O O12 0.784984 0.869299 0.103260
O O13 0.000000 0.904220 0.024497
O O14 0.795497 0.000000 0.053983
O O15 0.742984 0.882274 0.980326
O O16 0.500000 0.577800 0.291267
O O17 0.262911 0.500000 0.293271
O O18 0.273097 0.624074 0.227940
O O19 0.500000 0.685991 0.172232
O O20 0.250000 0.750000 0.170337
O O21 0.500000 0.117957 0.916560
O O22 0.669707 0.000000 0.916560
O O23 0.250000 0.250000 0.662781
O O24 0.000000 0.185991 0.660888
#
# Coordination Sequence:
#
# PCOD8172615 Si02
#       8
#     8   8   8   8   8   8   8   8
#     4  10  19  31  51  77 105 136 166 202 248 294
#     4   9  17  31  52  76  99 128 171 213 243 281
#     4   9  17  31  51  72  94 125 165 203 239 286
#     4   9  17  31  51  72  94 125 165 203 239 286
#     4   9  17  31  52  76  99 128 171 213 243 281
#     4  10  20  33  50  72  99 130 163 203 249 294
#     4   9  17  29  48  75 102 125 153 197 250 295
#     4  10  20  33  50  72  99 130 163 203 249 294
#
# _framework density 18.436271000000001
#
# number of rings (size 3 to 8) (size 9 to 14) (size 15 to 20)
#    0.000    2.625    0.000    2.250    0.000    7.000 
#    0.000    0.625    0.000    5.250    0.000    0.000 
#    0.000    0.000    0.000    0.000    0.000    0.000 
#
# Total GULP energy -396836.866652 kJ/mol
# GULP energy per Si atom -12401.152083 kJ/mol
# Density = 1.839431 g / cm^3
# Si number density = 18.436271 Si / 1000 Ang^3
#
#
#
# Elastic Constant Matrix: (Units=GPa)
#
#
# Indices 1 2 3 4 5 6 
#
# 1 44.0330 43.4360 55.5493 0.0000 0.0000 0.0000
# 2 43.4360 146.0491 97.2955 0.0000 0.0000 0.0000
# 3 55.5493 97.2955 207.3482 0.0000 0.0000 0.0000
# 4 0.0000 0.0000 0.0000 13.1256 0.0000 0.0000
# 5 0.0000 0.0000 0.0000 0.0000 12.7127 0.0000
# 6 0.0000 0.0000 0.0000 0.0000 0.0000 28.8023
#
#
#
# Elastic Compliance Matrix: (Units=1/GPa)
#
#
# Indices 1 2 3 4 5 6 
#
# 1 0.038247 -0.006618 -0.007141 0.000000 0.000000 0.000000
# 2 -0.006618 0.011106 -0.003438 0.000000 0.000000 0.000000
# 3 -0.007141 -0.003438 0.008349 0.000000 0.000000 0.000000
# 4 0.000000 0.000000 0.000000 0.076187 0.000000 0.000000
# 5 0.000000 0.000000 0.000000 0.000000 0.078661 0.000000
# 6 0.000000 0.000000 0.000000 0.000000 0.000000 0.034719
#
#
# Mechanical properties :
#
#
# Convention : Reuss Voigt Hill
#
# Bulk Modulus (GPa) = 42.90411 87.77689 65.34050
# Shear Modulus (GPa) = 17.27514 24.33811 20.80662
#
# Velocity S-wave (km/s) = 3.06440 3.63729 3.36306
# Velocity P-wave (km/s) = 5.98689 8.08419 7.11326
#
# Compressibility (1/GPa) = 0.02330779
#
# Stress axis : x y z
#
# Youngs Moduli (GPa) = 26.14574 90.04411 119.76910
#
# Poissons Ratio (x) = 0.59587 0.85531
# Poissons Ratio (y) = 0.17302 0.41181
# Poissons Ratio (z) = 0.18672 0.30960
#
# Static dielectric constant tensor:
#      x y z
#    x 3.097470 0.000000 0.000000 
#    y 0.000000 3.329660 0.000000 
#    z 0.000000 0.000000 3.715760 
# 
# 
# High freq. dielectric constant tensor:
#      x y z
#    x 1.680360 0.000000 0.000000 
#    y 0.000000 1.708740 0.000000 
#    z 0.000000 0.000000 1.736240 
# 
# From -- ./inp_files/18668.got.cif
#   From: 2010.03.12/outbox.cif.g09.slc.cpg/sg35_10_cif.got.tgz:18668.got - 2010.04.14 02:02:04.
