data_PCOD8172974
_publ_section_title
;
Structure prediction by ZEFSAII (Michael W. Deem and Ramdas Pophale) SiO2 
 PCOD8172974
Probable space group: C M M 2
;
_chemical_formula_sum "Si O2"
_cell_formula_units_Z 56
_cell_length_a 14.829387
_cell_length_b 17.919194
_cell_length_c 9.845573
_cell_angle_alpha 90.000000
_cell_angle_beta 90.000000
_cell_angle_gamma 90.000000
_cell_volume 2616.270637
_symmetry_space_group_name_H-M "C M M 2"
_symmetry_group_IT_number 35
_symmetry_cell_setting 'orthorhombic'
loop_
_space_group_symop_operation_xyz
x,y,z
-x,-y,z
-x,y,z
x,-y,z
1/2+x,1/2+y,z
1/2-x,1/2-y,z
1/2-x,1/2+y,z
1/2+x,1/2-y,z
loop_
_atom_site_type_symbol
_atom_site_label
_atom_site_fract_x
_atom_site_fract_y
_atom_site_fract_z
Si Si1 0.259383 0.584034 0.637430
Si Si2 0.232569 0.417198 0.321089
Si Si3 0.651700 0.721427 0.569765
Si Si4 0.097745 0.332556 0.769780
Si Si5 0.603911 0.583959 0.127834
Si Si6 0.598913 0.787438 0.297329
Si Si7 0.351667 0.730610 0.022489
O O1 0.287782 0.500000 0.676413
O O2 0.225572 0.590200 0.483063
O O3 0.348558 0.637454 0.634606
O O4 0.178392 0.609044 0.739614
O O5 0.200855 0.500000 0.277508
O O6 0.332304 0.402050 0.260118
O O7 0.162122 0.357684 0.264973
O O8 0.750000 0.750000 0.611457
O O9 0.582382 0.775359 0.645242
O O10 0.637530 0.728421 0.408186
O O11 0.000000 0.373399 0.788807
O O12 0.116862 0.281072 0.899112
O O13 0.500000 0.594902 0.173610
O O14 0.618623 0.500000 0.071285
O O15 0.632986 0.640796 0.004641
O O16 0.500000 0.815082 0.343502
O O17 0.588807 0.744520 0.156227
O O18 0.250000 0.750000 0.056909
#
# Coordination Sequence:
#
# PCOD8172974 Si02
#       7
#     8   8   8   8   8   8   8
#     4  10  21  38  63  88 121 168 209 252 315 384
#     4  10  20  37  62  95 132 167 208 263 323 384
#     4  10  19  37  61  85 120 160 207 258 306 370
#     4  11  23  40  61  91 121 159 215 265 311 374
#     4  10  21  39  64  96 133 171 213 267 331 390
#     4  12  22  36  62  95 129 169 212 262 322 382
#     4  12  23  40  63  90 125 168 213 266 321 386
#
# _framework density 21.404515
#
# number of rings (size 3 to 8) (size 9 to 14) (size 15 to 20)
#    0.000    1.286    4.286    4.286    0.000    0.571 
#    0.000    5.714    0.000    5.143    0.000    0.000 
#    0.000    0.000    0.000    0.000    0.000    0.000 
#
# Total GULP energy -346871.857713 kJ/mol
# GULP energy per Si atom -12388.280633 kJ/mol
# Density = 2.135580 g / cm^3
# Si number density = 21.404515 Si / 1000 Ang^3
#
#
#
# Elastic Constant Matrix: (Units=GPa)
#
#
# Indices 1 2 3 4 5 6 
#
# 1 111.8647 38.3181 3.9110 0.0000 0.0000 0.0000
# 2 38.3181 122.0346 16.4277 0.0000 0.0000 0.0000
# 3 3.9110 16.4277 80.0646 0.0000 0.0000 0.0000
# 4 0.0000 0.0000 0.0000 29.6389 0.0000 0.0000
# 5 0.0000 0.0000 0.0000 0.0000 11.2169 0.0000
# 6 0.0000 0.0000 0.0000 0.0000 0.0000 20.6802
#
#
#
# Elastic Compliance Matrix: (Units=1/GPa)
#
#
# Indices 1 2 3 4 5 6 
#
# 1 0.010019 -0.003167 0.000161 0.000000 0.000000 0.000000
# 2 -0.003167 0.009429 -0.001780 0.000000 0.000000 0.000000
# 3 0.000161 -0.001780 0.012847 0.000000 0.000000 0.000000
# 4 0.000000 0.000000 0.000000 0.033739 0.000000 0.000000
# 5 0.000000 0.000000 0.000000 0.000000 0.089151 0.000000
# 6 0.000000 0.000000 0.000000 0.000000 0.000000 0.048356
#
#
# Mechanical properties :
#
#
# Convention : Reuss Voigt Hill
#
# Bulk Modulus (GPa) = 44.01211 47.91972 45.96591
# Shear Modulus (GPa) = 22.65643 29.32767 25.99205
#
# Velocity S-wave (km/s) = 3.25697 3.70559 3.48850
# Velocity P-wave (km/s) = 5.89496 6.38316 6.14391
#
# Compressibility (1/GPa) = 0.02272102
#
# Stress axis : x y z
#
# Youngs Moduli (GPa) = 99.81305 106.06096 77.83761
#
# Poissons Ratio (x) = 0.33594 -0.01249
# Poissons Ratio (y) = 0.31615 0.13854
# Poissons Ratio (z) = -0.01602 0.18877
#
# Static dielectric constant tensor:
#      x y z
#    x 3.843890 0.000000 0.000000 
#    y 0.000000 4.399280 0.000000 
#    z 0.000000 0.000000 3.662190 
# 
# 
# High freq. dielectric constant tensor:
#      x y z
#    x 1.832910 0.000000 0.000000 
#    y 0.000000 1.845690 0.000000 
#    z 0.000000 0.000000 1.823520 
# 
# From -- ./inp_files/7653.got.cif
#   From: 2010.03.12/outbox.cif.g09.slc.cpg/sg35_4_cif.got.tgz:7653.got - 2010.04.14 02:02:04.
