data_PCOD8172756
_publ_section_title
;
Structure prediction by ZEFSAII (Michael W. Deem and Ramdas Pophale) SiO2 
 PCOD8172756
Probable space group: C M M 2
;
_chemical_formula_sum "Si O2"
_cell_formula_units_Z 48
_cell_length_a 17.685702
_cell_length_b 14.118765
_cell_length_c 9.936668
_cell_angle_alpha 90.000000
_cell_angle_beta 90.000000
_cell_angle_gamma 90.000000
_cell_volume 2481.188686
_symmetry_space_group_name_H-M "C M M 2"
_symmetry_group_IT_number 35
_symmetry_cell_setting 'orthorhombic'
loop_
_space_group_symop_operation_xyz
x,y,z
-x,-y,z
-x,y,z
x,-y,z
1/2+x,1/2+y,z
1/2-x,1/2-y,z
1/2-x,1/2+y,z
1/2+x,1/2-y,z
loop_
_atom_site_type_symbol
_atom_site_label
_atom_site_fract_x
_atom_site_fract_y
_atom_site_fract_z
Si Si1 0.088437 0.106480 0.520370
Si Si2 0.414689 0.100934 0.837455
Si Si3 0.352210 0.105928 0.116811
Si Si4 0.816548 0.890259 0.044454
Si Si5 0.089468 0.805110 0.801848
Si Si6 0.664004 0.273489 0.297136
O O1 0.106982 0.128732 0.675423
O O2 0.125685 0.188574 0.431745
O O3 0.000000 0.111040 0.493100
O O4 0.118999 0.000000 0.489331
O O5 0.500000 0.088805 0.790895
O O6 0.383834 0.196643 0.767440
O O7 0.372285 0.000000 0.799625
O O8 0.413785 0.114215 0.999418
O O9 0.272774 0.133476 0.043843
O O10 0.373069 0.176591 0.238968
O O11 0.347958 0.000000 0.178012
O O12 0.848244 0.855033 0.186878
O O13 0.834116 0.000000 0.029878
O O14 0.859697 0.837900 0.925391
O O15 0.000000 0.807922 0.839930
O O16 0.750000 0.250000 0.332411
#
# Coordination Sequence:
#
# PCOD8172756 Si02
#       6
#     8   8   8   8   8   8
#     4  10  22  40  59  81 116 155 189 232 286 337
#     4   9  17  31  52  78 108 140 176 224 278 328
#     4   9  18  33  54  80 110 141 178 228 280 324
#     4  10  19  32  54  81 110 140 180 231 278 328
#     4  10  20  35  56  82 111 146 186 231 282 333
#     4  10  20  36  54  81 111 151 185 230 277 334
#
# _framework density 19.345566000000002
#
# number of rings (size 3 to 8) (size 9 to 14) (size 15 to 20)
#    0.000    2.333    1.667    1.000    0.000    3.000 
#    3.000    0.833    0.000    1.000    0.000    0.000 
#    0.000    0.000    0.000    0.000    0.000    0.000 
#
# Total GULP energy -297380.181965 kJ/mol
# GULP energy per Si atom -12390.840915 kJ/mol
# Density = 1.930153 g / cm^3
# Si number density = 19.345566 Si / 1000 Ang^3
#
#
#
# Elastic Constant Matrix: (Units=GPa)
#
#
# Indices 1 2 3 4 5 6 
#
# 1 35.3305 30.3649 31.0359 0.0000 0.0000 0.0000
# 2 30.3649 141.2315 32.5235 0.0000 0.0000 0.0000
# 3 31.0359 32.5235 70.2133 0.0000 0.0000 0.0000
# 4 0.0000 0.0000 0.0000 34.8753 0.0000 0.0000
# 5 0.0000 0.0000 0.0000 0.0000 26.9564 0.0000
# 6 0.0000 0.0000 0.0000 0.0000 0.0000 25.8787
#
#
#
# Elastic Compliance Matrix: (Units=1/GPa)
#
#
# Indices 1 2 3 4 5 6 
#
# 1 0.051058 -0.006470 -0.019571 0.000000 0.000000 0.000000
# 2 -0.006470 0.008746 -0.001191 0.000000 0.000000 0.000000
# 3 -0.019571 -0.001191 0.023445 0.000000 0.000000 0.000000
# 4 0.000000 0.000000 0.000000 0.028674 0.000000 0.000000
# 5 0.000000 0.000000 0.000000 0.000000 0.037097 0.000000
# 6 0.000000 0.000000 0.000000 0.000000 0.000000 0.038642
#
#
# Mechanical properties :
#
#
# Convention : Reuss Voigt Hill
#
# Bulk Modulus (GPa) = 34.74317 48.29156 41.51736
# Shear Modulus (GPa) = 19.86324 27.73215 23.79769
#
# Velocity S-wave (km/s) = 3.20778 3.79029 3.51114
# Velocity P-wave (km/s) = 5.63188 6.64619 6.15995
#
# Compressibility (1/GPa) = 0.02878264
#
# Stress axis : x y z
#
# Youngs Moduli (GPa) = 19.58573 114.33761 42.65286
#
# Poissons Ratio (x) = 0.73981 0.83478
# Poissons Ratio (y) = 0.12673 0.05081
# Poissons Ratio (z) = 0.38332 0.13620
#
# Static dielectric constant tensor:
#      x y z
#    x 3.338480 0.000000 0.000000 
#    y 0.000000 4.137860 0.000000 
#    z 0.000000 0.000000 3.191940 
# 
# 
# High freq. dielectric constant tensor:
#      x y z
#    x 1.729040 0.000000 0.000000 
#    y 0.000000 1.784470 0.000000 
#    z 0.000000 0.000000 1.720550 
# 
# From -- ./inp_files/7305.got.cif
#   From: 2010.03.12/outbox.cif.g09.slc.cpg/sg35_4_cif.got.tgz:7305.got - 2010.04.14 02:02:04.
