data_PCOD8172724
_publ_section_title
;
Structure prediction by ZEFSAII (Michael W. Deem and Ramdas Pophale) SiO2 
 PCOD8172724
Probable space group: C M M 2
;
_chemical_formula_sum "Si O2"
_cell_formula_units_Z 48
_cell_length_a 15.608957
_cell_length_b 8.959563
_cell_length_c 17.199654
_cell_angle_alpha 90.000000
_cell_angle_beta 90.000000
_cell_angle_gamma 90.000000
_cell_volume 2405.361870
_symmetry_space_group_name_H-M "C M M 2"
_symmetry_group_IT_number 35
_symmetry_cell_setting 'orthorhombic'
loop_
_space_group_symop_operation_xyz
x,y,z
-x,-y,z
-x,y,z
x,-y,z
1/2+x,1/2+y,z
1/2-x,1/2-y,z
1/2-x,1/2+y,z
1/2+x,1/2-y,z
loop_
_atom_site_type_symbol
_atom_site_label
_atom_site_fract_x
_atom_site_fract_y
_atom_site_fract_z
Si Si1 0.836852 0.177044 0.965300
Si Si2 0.336043 0.676906 0.598899
Si Si3 0.602074 0.333239 0.269015
Si Si4 0.101008 0.671785 0.116436
Si Si5 0.500000 0.677551 0.693791
Si Si6 0.904885 0.177360 0.437524
Si Si7 0.500000 0.677383 0.868866
O O1 0.750000 0.250000 0.932056
O O2 0.915434 0.236281 0.912842
O O3 0.828777 0.000000 0.962567
O O4 0.850665 0.228334 0.053628
O O5 0.328579 0.500000 0.604762
O O6 0.250000 0.750000 0.632732
O O7 0.415543 0.736203 0.649898
O O8 0.347397 0.732256 0.509619
O O9 0.500000 0.337107 0.273076
O O10 0.636664 0.500000 0.251469
O O11 0.634010 0.222541 0.201473
O O12 0.634877 0.274008 0.353661
O O13 0.125456 0.500000 0.103781
O O14 0.000000 0.699532 0.108522
O O15 0.500000 0.500000 0.693786
O O16 0.500000 0.740895 0.781452
O O17 0.000000 0.245395 0.448449
O O18 0.912152 0.000000 0.438988
O O19 0.500000 0.500000 0.869170
#
# Coordination Sequence:
#
# PCOD8172724 Si02
#       7
#     8   8   8   8   4   8   4
#     4  11  22  38  59  84 113 146 186 228 277 333
#     4  10  19  33  56  83 112 145 184 226 271 323
#     4   8  14  25  46  74 103 139 188 235 273 316
#     4  10  19  32  52  79 112 147 187 231 278 328
#     4   9  18  36  61  84 109 146 184 219 267 333
#     4   8  13  26  49  75 101 140 191 231 263 315
#     4   9  20  38  61  86 111 142 182 225 273 333
#
# _framework density 19.955418999999999
#
# number of rings (size 3 to 8) (size 9 to 14) (size 15 to 20)
#    0.000    2.667    1.667    2.000    0.000    1.333 
#    0.000    2.083    0.000    6.000    0.000    0.000 
#    0.000    0.000    0.000    0.000    0.000    0.000 
#
# Total GULP energy -297517.114755 kJ/mol
# GULP energy per Si atom -12396.546448 kJ/mol
# Density = 1.991000 g / cm^3
# Si number density = 19.955419 Si / 1000 Ang^3
#
#
#
# Elastic Constant Matrix: (Units=GPa)
#
#
# Indices 1 2 3 4 5 6 
#
# 1 127.0614 33.3987 66.6414 0.0000 0.0000 0.0000
# 2 33.3987 51.8376 29.6034 0.0000 0.0000 0.0000
# 3 66.6414 29.6034 152.0494 0.0000 0.0000 0.0000
# 4 0.0000 0.0000 0.0000 12.8599 0.0000 0.0000
# 5 0.0000 0.0000 0.0000 0.0000 9.3075 0.0000
# 6 0.0000 0.0000 0.0000 0.0000 0.0000 26.4959
#
#
#
# Elastic Compliance Matrix: (Units=1/GPa)
#
#
# Indices 1 2 3 4 5 6 
#
# 1 0.011261 -0.004992 -0.003964 0.000000 0.000000 0.000000
# 2 -0.004992 0.023917 -0.002469 0.000000 0.000000 0.000000
# 3 -0.003964 -0.002469 0.008795 0.000000 0.000000 0.000000
# 4 0.000000 0.000000 0.000000 0.077761 0.000000 0.000000
# 5 0.000000 0.000000 0.000000 0.000000 0.107440 0.000000
# 6 0.000000 0.000000 0.000000 0.000000 0.000000 0.037742
#
#
# Mechanical properties :
#
#
# Convention : Reuss Voigt Hill
#
# Bulk Modulus (GPa) = 47.33875 65.58173 56.46024
# Shear Modulus (GPa) = 16.84599 23.15297 19.99948
#
# Velocity S-wave (km/s) = 2.90863 3.40992 3.16920
# Velocity P-wave (km/s) = 5.92064 6.95980 6.46114
#
# Compressibility (1/GPa) = 0.02112434
#
# Stress axis : x y z
#
# Youngs Moduli (GPa) = 88.79972 41.81110 113.70450
#
# Poissons Ratio (x) = 0.20872 0.45070
# Poissons Ratio (y) = 0.44328 0.28070
# Poissons Ratio (z) = 0.35198 0.10322
#
# Static dielectric constant tensor:
#      x y z
#    x 3.543240 0.000000 0.000000 
#    y 0.000000 3.195320 0.000000 
#    z 0.000000 0.000000 3.953370 
# 
# 
# High freq. dielectric constant tensor:
#      x y z
#    x 1.766930 0.000000 0.000000 
#    y 0.000000 1.736880 0.000000 
#    z 0.000000 0.000000 1.785060 
# 
# From -- ./inp_files/17920.got.cif
#   From: 2010.03.12/outbox.cif.g09.slc.cpg/sg35_9_cif.got.tgz:17920.got - 2010.04.14 02:02:04.
