data_PCOD8172835
_publ_section_title
;
Structure prediction by ZEFSAII (Michael W. Deem and Ramdas Pophale) SiO2 
 PCOD8172835
Probable space group: C M M 2
;
_chemical_formula_sum "Si O2"
_cell_formula_units_Z 64
_cell_length_a 18.069788
_cell_length_b 16.327991
_cell_length_c 11.816166
_cell_angle_alpha 90.000000
_cell_angle_beta 90.000000
_cell_angle_gamma 90.000000
_cell_volume 3486.281033
_symmetry_space_group_name_H-M "C M M 2"
_symmetry_group_IT_number 35
_symmetry_cell_setting 'orthorhombic'
loop_
_space_group_symop_operation_xyz
x,y,z
-x,-y,z
-x,y,z
x,-y,z
1/2+x,1/2+y,z
1/2-x,1/2-y,z
1/2-x,1/2+y,z
1/2+x,1/2-y,z
loop_
_atom_site_type_symbol
_atom_site_label
_atom_site_fract_x
_atom_site_fract_y
_atom_site_fract_z
Si Si1 0.300036 0.172653 0.267820
Si Si2 0.832084 0.406083 0.502709
Si Si3 0.581622 0.829393 0.879699
Si Si4 0.235470 0.593726 0.869068
Si Si5 0.082122 0.732984 0.632223
Si Si6 0.787479 0.835477 0.639321
Si Si7 0.309673 0.405634 0.101958
Si Si8 0.414896 0.739499 0.112218
O O1 0.250000 0.250000 0.304070
O O2 0.332224 0.126777 0.375885
O O3 0.250313 0.108137 0.199872
O O4 0.370013 0.199578 0.193336
O O5 0.859825 0.500000 0.505432
O O6 0.886383 0.350339 0.577594
O O7 0.749233 0.403051 0.557106
O O8 0.500000 0.872043 0.890022
O O9 0.646700 0.896152 0.875532
O O10 0.584339 0.775682 0.766953
O O11 0.594037 0.768278 0.983633
O O12 0.252964 0.500000 0.844493
O O13 0.274322 0.644956 0.770518
O O14 0.271781 0.623288 0.985503
O O15 0.126784 0.817727 0.607450
O O16 0.000000 0.746415 0.584755
O O17 0.750000 0.750000 0.610475
O O18 0.333736 0.500000 0.099813
O O19 0.382798 0.352129 0.122579
O O20 0.500000 0.738422 0.151680
#
# Coordination Sequence:
#
# PCOD8172835 Si02
#       8
#     8   8   8   8   8   8   8   8
#     4  10  20  36  58  79 105 140 184 226 267 321
#     4  11  22  36  56  81 109 140 177 228 277 319
#     4  10  19  33  54  82 115 146 174 215 267 321
#     4  11  20  32  54  83 111 144 181 219 266 317
#     4  10  21  35  55  81 109 144 182 217 264 321
#     4  10  19  33  56  79 107 140 185 221 260 310
#     4  10  21  34  55  83 111 142 178 225 271 313
#     4  10  21  36  57  81 108 144 183 219 265 323
#
# _framework density 18.357671
#
# number of rings (size 3 to 8) (size 9 to 14) (size 15 to 20)
#    0.000    1.750    3.750    2.625    0.000    1.250 
#    0.000    1.250    0.000    3.375    0.000    0.000 
#    0.000    0.000    0.000    0.000    0.000    0.000 
#
# Total GULP energy -396714.743496 kJ/mol
# GULP energy per Si atom -12397.335734 kJ/mol
# Density = 1.831589 g / cm^3
# Si number density = 18.357671 Si / 1000 Ang^3
#
#
#
# Elastic Constant Matrix: (Units=GPa)
#
#
# Indices 1 2 3 4 5 6 
#
# 1 131.7244 44.1247 34.8805 0.0000 0.0000 0.0000
# 2 44.1247 64.5460 30.0478 0.0000 0.0000 0.0000
# 3 34.8805 30.0478 101.9032 0.0000 0.0000 0.0000
# 4 0.0000 0.0000 0.0000 25.8523 0.0000 0.0000
# 5 0.0000 0.0000 0.0000 0.0000 4.6747 0.0000
# 6 0.0000 0.0000 0.0000 0.0000 0.0000 21.3815
#
#
#
# Elastic Compliance Matrix: (Units=1/GPa)
#
#
# Indices 1 2 3 4 5 6 
#
# 1 0.010078 -0.006125 -0.001644 0.000000 0.000000 0.000000
# 2 -0.006125 0.021680 -0.004296 0.000000 0.000000 0.000000
# 3 -0.001644 -0.004296 0.011643 0.000000 0.000000 0.000000
# 4 0.000000 0.000000 0.000000 0.038681 0.000000 0.000000
# 5 0.000000 0.000000 0.000000 0.000000 0.213917 0.000000
# 6 0.000000 0.000000 0.000000 0.000000 0.000000 0.046769
#
#
# Mechanical properties :
#
#
# Convention : Reuss Voigt Hill
#
# Bulk Modulus (GPa) = 51.88978 57.36440 54.62709
# Shear Modulus (GPa) = 13.39329 22.98975 18.19152
#
# Velocity S-wave (km/s) = 2.70399 3.54266 3.15135
# Velocity P-wave (km/s) = 6.17059 6.93181 6.56224
#
# Compressibility (1/GPa) = 0.01927162
#
# Stress axis : x y z
#
# Youngs Moduli (GPa) = 99.22128 46.12612 85.89057
#
# Poissons Ratio (x) = 0.28250 0.14119
# Poissons Ratio (y) = 0.60769 0.36901
# Poissons Ratio (z) = 0.16310 0.19817
#
# Static dielectric constant tensor:
#      x y z
#    x 3.732530 0.000000 0.000000 
#    y 0.000000 3.260190 0.000000 
#    z 0.000000 0.000000 3.410290 
# 
# 
# High freq. dielectric constant tensor:
#      x y z
#    x 1.708290 0.000000 0.000000 
#    y 0.000000 1.695170 0.000000 
#    z 0.000000 0.000000 1.718700 
# 
# From -- ./inp_files/13620.got.cif
#   From: 2010.03.12/outbox.cif.g09.slc.cpg/sg35_7_cif.got.tgz:13620.got - 2010.04.14 02:02:04.
