data_PCOD8172131
_publ_section_title
;
Structure prediction by ZEFSAII (Michael W. Deem and Ramdas Pophale) SiO2 
 PCOD8172131
Probable space group: P N N 2
;
_chemical_formula_sum "Si O2"
_cell_formula_units_Z 18
_cell_length_a 6.975496
_cell_length_b 16.598890
_cell_length_c 6.025450
_cell_angle_alpha 90.000000
_cell_angle_beta 90.000000
_cell_angle_gamma 90.000000
_cell_volume 697.659686
_symmetry_space_group_name_H-M "P N N 2"
_symmetry_group_IT_number 34
_symmetry_cell_setting 'orthorhombic'
loop_
_space_group_symop_operation_xyz
x,y,z
-x,-y,z
1/2-x,1/2+y,1/2+z
1/2+x,1/2-y,1/2+z
loop_
_atom_site_type_symbol
_atom_site_label
_atom_site_fract_x
_atom_site_fract_y
_atom_site_fract_z
Si Si1 0.949927 0.345928 0.797230
Si Si2 0.120587 0.187052 0.988320
Si Si3 0.247472 0.926655 0.015364
Si Si4 0.724326 0.931983 0.669813
Si Si5 0.000000 0.000000 0.371121
O O1 0.738097 0.313284 0.722622
O O2 0.077908 0.276189 0.906768
O O3 0.058848 0.380823 0.581054
O O4 0.940682 0.415189 0.987072
O O5 0.271721 0.146007 0.823456
O O6 0.927717 0.134622 0.985962
O O7 0.185452 0.982402 0.220858
O O8 0.298363 0.982785 0.802710
O O9 0.927303 0.930272 0.536271
#
# Coordination Sequence:
#
# PCOD8172131 Si02
#       5
#     4   4   4   4   2
#     4  12  31  48  83 120 163 212 271 333 416 485
#     4  12  27  52  74 120 164 214 267 332 412 484
#     4  12  26  51  80 117 162 208 284 328 404 485
#     4  12  25  51  81 113 160 214 267 338 394 473
#     4  12  22  46  80 114 148 206 272 340 380 462
#
# _framework density 25.800543999999999
#
# number of rings (size 3 to 8) (size 9 to 14) (size 15 to 20)
#    0.000    0.000    6.667    1.333    3.111   12.444 
#    0.000    0.000    0.000    0.000    0.000    0.000 
#    0.000    0.000    0.000    0.000    0.000    0.000 
#
# Total GULP energy -223030.516965 kJ/mol
# GULP energy per Si atom -12390.584276 kJ/mol
# Density = 2.574182 g / cm^3
# Si number density = 25.800544 Si / 1000 Ang^3
#
#
#
# Elastic Constant Matrix: (Units=GPa)
#
#
# Indices 1 2 3 4 5 6 
#
# 1 129.1484 62.7073 63.9489 0.0000 0.0000 0.0000
# 2 62.7073 135.9001 72.9739 0.0000 0.0000 0.0000
# 3 63.9489 72.9739 132.3227 0.0000 0.0000 0.0000
# 4 0.0000 0.0000 0.0000 32.4313 0.0000 0.0000
# 5 0.0000 0.0000 0.0000 0.0000 45.7076 0.0000
# 6 0.0000 0.0000 0.0000 0.0000 0.0000 18.3078
#
#
#
# Elastic Compliance Matrix: (Units=1/GPa)
#
#
# Indices 1 2 3 4 5 6 
#
# 1 0.011065 -0.003174 -0.003597 0.000000 0.000000 0.000000
# 2 -0.003174 0.011365 -0.004733 0.000000 0.000000 0.000000
# 3 -0.003597 -0.004733 0.011906 0.000000 0.000000 0.000000
# 4 0.000000 0.000000 0.000000 0.030834 0.000000 0.000000
# 5 0.000000 0.000000 0.000000 0.000000 0.021878 0.000000
# 6 0.000000 0.000000 0.000000 0.000000 0.000000 0.054621
#
#
# Mechanical properties :
#
#
# Convention : Reuss Voigt Hill
#
# Bulk Modulus (GPa) = 88.28762 88.51460 88.40111
# Shear Modulus (GPa) = 29.68143 32.47208 31.07676
#
# Velocity S-wave (km/s) = 3.39546 3.55150 3.47436
# Velocity P-wave (km/s) = 7.04740 7.15537 7.10159
#
# Compressibility (1/GPa) = 0.01132662
#
# Stress axis : x y z
#
# Youngs Moduli (GPa) = 90.37152 87.99166 83.99066
#
# Poissons Ratio (x) = 0.27931 0.30212
# Poissons Ratio (y) = 0.28687 0.39756
# Poissons Ratio (z) = 0.32508 0.41650
#
# Static dielectric constant tensor:
#      x y z
#    x 4.667270 0.000000 0.000000 
#    y 0.000000 4.559130 0.000000 
#    z 0.000000 0.000000 4.940100 
# 
# 
# High freq. dielectric constant tensor:
#      x y z
#    x 2.041090 0.000000 0.000000 
#    y 0.000000 2.016530 0.000000 
#    z 0.000000 0.000000 2.051550 
# 
# From -- ./inp_files/382.got.cif
#   From: 2010.03.12/outbox.cif.g09.slc.cpg/sg34_1_cif.got.tgz:382.got - 2010.04.14 01:56:33.
