data_PCOD8172394
_publ_section_title
;
Structure prediction by ZEFSAII (Michael W. Deem and Ramdas Pophale) SiO2 
 PCOD8172394
Probable space group: C M M 2
;
_chemical_formula_sum "Si O2"
_cell_formula_units_Z 48
_cell_length_a 8.743779
_cell_length_b 15.623257
_cell_length_c 17.109924
_cell_angle_alpha 90.000000
_cell_angle_beta 90.000000
_cell_angle_gamma 90.000000
_cell_volume 2337.323522
_symmetry_space_group_name_H-M "C M M 2"
_symmetry_group_IT_number 35
_symmetry_cell_setting 'orthorhombic'
loop_
_space_group_symop_operation_xyz
x,y,z
-x,-y,z
-x,y,z
x,-y,z
1/2+x,1/2+y,z
1/2-x,1/2-y,z
1/2-x,1/2+y,z
1/2+x,1/2-y,z
loop_
_atom_site_type_symbol
_atom_site_label
_atom_site_fract_x
_atom_site_fract_y
_atom_site_fract_z
Si Si1 0.681822 0.844410 0.712570
Si Si2 0.179006 0.336813 0.243046
Si Si3 0.822363 0.000000 0.983513
Si Si4 0.819267 0.500000 0.150998
Si Si5 0.673643 0.597357 0.390404
Si Si6 0.180273 0.156996 0.558337
Si Si7 0.180308 0.843499 0.871611
O O1 0.500000 0.845388 0.715143
O O2 0.750000 0.750000 0.707763
O O3 0.742714 0.890733 0.633569
O O4 0.747930 0.884150 0.792413
O O5 0.250000 0.250000 0.208720
O O6 0.248343 0.415704 0.193354
O O7 0.219850 0.346027 0.334667
O O8 0.000000 0.331146 0.233061
O O9 0.780124 0.086911 0.937497
O O10 0.000000 0.000000 0.005208
O O11 0.723222 0.000000 0.060922
O O12 0.000000 0.500000 0.160314
O O13 0.500000 0.629755 0.379958
O O14 0.692230 0.500000 0.363966
O O15 0.722504 0.604272 0.480809
O O16 0.250000 0.250000 0.546193
O O17 0.000000 0.162956 0.572759
O O18 0.250000 0.750000 0.892684
O O19 0.000000 0.831861 0.860247
#
# Coordination Sequence:
#
# PCOD8172394 Si02
#       7
#     8   8   4   4   8   8   8
#     4  10  18  31  53  80 111 151 196 242 291 342
#     4  11  23  41  64  92 121 158 199 243 296 355
#     4  10  24  42  64  91 120 155 194 235 292 357
#     4  10  24  44  64  89 124 155 190 241 296 351
#     4  10  21  37  57  83 116 157 201 247 298 350
#     4  10  19  32  51  77 111 150 197 246 292 344
#     4  10  20  38  61  88 119 155 196 241 292 349
#
# _framework density 20.536308999999999
#
# number of rings (size 3 to 8) (size 9 to 14) (size 15 to 20)
#    0.000    1.833    0.833    5.500    0.000    6.000 
#    1.500    3.333    0.000    0.000    0.000    0.000 
#    0.000    0.000    0.000    0.000    0.000    0.000 
#
# Total GULP energy -297546.910165 kJ/mol
# GULP energy per Si atom -12397.787924 kJ/mol
# Density = 2.048957 g / cm^3
# Si number density = 20.536309 Si / 1000 Ang^3
#
#
#
# Elastic Constant Matrix: (Units=GPa)
#
#
# Indices 1 2 3 4 5 6 
#
# 1 103.4147 41.5004 49.3368 0.0000 0.0000 0.0000
# 2 41.5004 111.8055 56.5090 0.0000 0.0000 0.0000
# 3 49.3368 56.5090 132.1194 0.0000 0.0000 0.0000
# 4 0.0000 0.0000 0.0000 26.3477 0.0000 0.0000
# 5 0.0000 0.0000 0.0000 0.0000 37.4365 0.0000
# 6 0.0000 0.0000 0.0000 0.0000 0.0000 25.3669
#
#
#
# Elastic Compliance Matrix: (Units=1/GPa)
#
#
# Indices 1 2 3 4 5 6 
#
# 1 0.012462 -0.002901 -0.003413 0.000000 0.000000 0.000000
# 2 -0.002901 0.012086 -0.004086 0.000000 0.000000 0.000000
# 3 -0.003413 -0.004086 0.010591 0.000000 0.000000 0.000000
# 4 0.000000 0.000000 0.000000 0.037954 0.000000 0.000000
# 5 0.000000 0.000000 0.000000 0.000000 0.026712 0.000000
# 6 0.000000 0.000000 0.000000 0.000000 0.000000 0.039421
#
#
# Mechanical properties :
#
#
# Convention : Reuss Voigt Hill
#
# Bulk Modulus (GPa) = 69.73726 71.33687 70.53707
# Shear Modulus (GPa) = 30.33865 31.16310 30.75087
#
# Velocity S-wave (km/s) = 3.84776 3.89969 3.87381
# Velocity P-wave (km/s) = 7.33294 7.42221 7.37771
#
# Compressibility (1/GPa) = 0.01433954
#
# Stress axis : x y z
#
# Youngs Moduli (GPa) = 80.24300 82.74021 94.41885
#
# Poissons Ratio (x) = 0.24001 0.32225
# Poissons Ratio (y) = 0.23276 0.38581
# Poissons Ratio (z) = 0.27387 0.33809
#
# Static dielectric constant tensor:
#      x y z
#    x 3.669710 0.000000 0.000000 
#    y 0.000000 3.704840 0.000000 
#    z 0.000000 0.000000 4.121800 
# 
# 
# High freq. dielectric constant tensor:
#      x y z
#    x 1.804140 0.000000 0.000000 
#    y 0.000000 1.791820 0.000000 
#    z 0.000000 0.000000 1.810180 
# 
# From -- ./inp_files/17883.got.cif
#   From: 2010.03.12/outbox.cif.g09.slc.cpg/sg35_9_cif.got.tgz:17883.got - 2010.04.14 02:02:04.
