data_PCOD8172322
_publ_section_title
;
Structure prediction by ZEFSAII (Michael W. Deem and Ramdas Pophale) SiO2 
 PCOD8172322
Probable space group: C M M 2
;
_chemical_formula_sum "Si O2"
_cell_formula_units_Z 48
_cell_length_a 17.409481
_cell_length_b 19.991502
_cell_length_c 7.651996
_cell_angle_alpha 90.000000
_cell_angle_beta 90.000000
_cell_angle_gamma 90.000000
_cell_volume 2663.213499
_symmetry_space_group_name_H-M "C M M 2"
_symmetry_group_IT_number 35
_symmetry_cell_setting 'orthorhombic'
loop_
_space_group_symop_operation_xyz
x,y,z
-x,-y,z
-x,y,z
x,-y,z
1/2+x,1/2+y,z
1/2-x,1/2-y,z
1/2-x,1/2+y,z
1/2+x,1/2-y,z
loop_
_atom_site_type_symbol
_atom_site_label
_atom_site_fract_x
_atom_site_fract_y
_atom_site_fract_z
Si Si1 0.414114 0.765072 0.865470
Si Si2 0.230045 0.322918 0.352521
Si Si3 0.291982 0.320648 0.715618
Si Si4 0.587369 0.000000 0.469751
Si Si5 0.186867 0.371240 0.003817
Si Si6 0.085401 0.643000 0.536968
Si Si7 0.089487 0.500000 0.056766
O O1 0.500000 0.747596 0.932397
O O2 0.378050 0.696026 0.785950
O O3 0.417760 0.824274 0.724659
O O4 0.361901 0.800934 0.013053
O O5 0.250000 0.250000 0.281353
O O6 0.285868 0.347040 0.514179
O O7 0.233754 0.374075 0.188259
O O8 0.141885 0.315208 0.415328
O O9 0.250000 0.250000 0.716998
O O10 0.248509 0.371614 0.845313
O O11 0.622449 0.931940 0.550475
O O12 0.597883 0.000000 0.263222
O O13 0.500000 0.000000 0.528942
O O14 0.131011 0.434398 0.980500
O O15 0.000000 0.640849 0.450967
O O16 0.000000 0.500000 0.998225
#
# Coordination Sequence:
#
# PCOD8172322 Si02
#       7
#     8   8   8   4   8   8   4
#     4  10  19  34  53  75 104 135 171 220 261 302
#     4  11  18  32  51  69  96 136 172 210 259 301
#     4   9  18  35  49  72 100 129 172 216 257 303
#     4   9  18  31  45  71 106 139 173 203 235 295
#     4  11  21  33  51  72 103 141 172 205 254 305
#     4  10  18  30  49  70 100 138 170 203 249 296
#     4  11  22  33  47  73 107 141 177 207 232 297
#
# _framework density 18.023340000000001
#
# number of rings (size 3 to 8) (size 9 to 14) (size 15 to 20)
#    0.000    1.833    6.667    2.000    0.000    1.333 
#    0.000    2.500    0.000    1.000    0.000    0.583 
#    0.000    0.000    0.000    0.917    0.000    0.000 
#
# Total GULP energy -297317.432788 kJ/mol
# GULP energy per Si atom -12388.226366 kJ/mol
# Density = 1.798232 g / cm^3
# Si number density = 18.023340 Si / 1000 Ang^3
#
#
#
# Elastic Constant Matrix: (Units=GPa)
#
#
# Indices 1 2 3 4 5 6 
#
# 1 82.1275 44.5025 19.0962 0.0000 0.0000 0.0000
# 2 44.5025 67.2360 23.7165 0.0000 0.0000 0.0000
# 3 19.0962 23.7165 84.7935 0.0000 0.0000 0.0000
# 4 0.0000 0.0000 0.0000 20.8378 0.0000 0.0000
# 5 0.0000 0.0000 0.0000 0.0000 19.7971 0.0000
# 6 0.0000 0.0000 0.0000 0.0000 0.0000 28.9882
#
#
#
# Elastic Compliance Matrix: (Units=1/GPa)
#
#
# Indices 1 2 3 4 5 6 
#
# 1 0.019040 -0.012304 -0.000847 0.000000 0.000000 0.000000
# 2 -0.012304 0.024452 -0.004068 0.000000 0.000000 0.000000
# 3 -0.000847 -0.004068 0.013122 0.000000 0.000000 0.000000
# 4 0.000000 0.000000 0.000000 0.047990 0.000000 0.000000
# 5 0.000000 0.000000 0.000000 0.000000 0.050513 0.000000
# 6 0.000000 0.000000 0.000000 0.000000 0.000000 0.034497
#
#
# Mechanical properties :
#
#
# Convention : Reuss Voigt Hill
#
# Bulk Modulus (GPa) = 45.09272 45.42082 45.25677
# Shear Modulus (GPa) = 21.60371 23.71407 22.65889
#
# Velocity S-wave (km/s) = 3.46591 3.63125 3.54954
# Velocity P-wave (km/s) = 6.41016 6.54501 6.47793
#
# Compressibility (1/GPa) = 0.02217653
#
# Stress axis : x y z
#
# Youngs Moduli (GPa) = 52.52084 40.89714 76.20859
#
# Poissons Ratio (x) = 0.50319 0.06452
# Poissons Ratio (y) = 0.64620 0.31003
# Poissons Ratio (z) = 0.04447 0.16638
#
# Static dielectric constant tensor:
#      x y z
#    x 3.827910 0.000000 0.000000 
#    y 0.000000 3.351330 0.000000 
#    z 0.000000 0.000000 3.539290 
# 
# 
# High freq. dielectric constant tensor:
#      x y z
#    x 1.673690 0.000000 0.000000 
#    y 0.000000 1.657480 0.000000 
#    z 0.000000 0.000000 1.706570 
# 
# From -- ./inp_files/9354.got.cif
#   From: 2010.03.12/outbox.cif.g09.slc.cpg/sg35_5_cif.got.tgz:9354.got - 2010.04.14 02:02:04.
