data_PCOD8172620
_publ_section_title
;
Structure prediction by ZEFSAII (Michael W. Deem and Ramdas Pophale) SiO2 
 PCOD8172620
Probable space group: C M M 2
;
_chemical_formula_sum "Si O2"
_cell_formula_units_Z 64
_cell_length_a 16.724523
_cell_length_b 16.551514
_cell_length_c 11.762609
_cell_angle_alpha 90.000000
_cell_angle_beta 90.000000
_cell_angle_gamma 90.000000
_cell_volume 3256.080450
_symmetry_space_group_name_H-M "C M M 2"
_symmetry_group_IT_number 35
_symmetry_cell_setting 'orthorhombic'
loop_
_space_group_symop_operation_xyz
x,y,z
-x,-y,z
-x,y,z
x,-y,z
1/2+x,1/2+y,z
1/2-x,1/2-y,z
1/2-x,1/2+y,z
1/2+x,1/2-y,z
loop_
_atom_site_type_symbol
_atom_site_label
_atom_site_fract_x
_atom_site_fract_y
_atom_site_fract_z
Si Si1 0.321903 0.905568 0.309630
Si Si2 0.324734 0.592469 0.783644
Si Si3 0.593409 0.778167 0.166349
Si Si4 0.844067 0.823276 0.365523
Si Si5 0.818390 0.683057 0.731750
Si Si6 0.904549 0.326554 0.500654
Si Si7 0.913529 0.093218 0.562676
Si Si8 0.594057 0.276004 0.918779
O O1 0.362910 0.861581 0.201964
O O2 0.245664 0.849151 0.336605
O O3 0.381720 0.901247 0.417801
O O4 0.302165 0.000000 0.283273
O O5 0.346364 0.500000 0.802633
O O6 0.229143 0.604376 0.777522
O O7 0.359085 0.629258 0.663875
O O8 0.363317 0.639464 0.889631
O O9 0.500000 0.796646 0.168047
O O10 0.611386 0.702707 0.250201
O O11 0.623603 0.752516 0.042395
O O12 0.855535 0.751005 0.455884
O O13 0.881225 0.898623 0.433855
O O14 0.750000 0.750000 0.707498
O O15 0.871426 0.656083 0.625221
O O16 0.880219 0.708897 0.828520
O O17 0.000000 0.313281 0.500021
O O18 0.000000 0.136449 0.571775
O O19 0.922036 0.000000 0.588373
O O20 0.500000 0.289485 0.915776
#
# Coordination Sequence:
#
# PCOD8172620 Si02
#       8
#     8   8   8   8   8   8   8   8
#     4  11  23  38  58  83 113 148 184 227 281 339
#     4  10  21  36  57  85 115 147 182 226 283 340
#     4  10  22  40  61  82 107 143 189 236 276 325
#     4  11  20  34  55  82 113 145 186 233 279 327
#     4  10  20  34  55  82 114 150 187 229 274 327
#     4  11  21  34  57  85 114 150 192 235 276 325
#     4  10  19  31  51  81 117 152 183 220 272 333
#     4  10  21  39  61  82 107 143 189 235 276 326
#
# _framework density 19.655532999999998
#
# number of rings (size 3 to 8) (size 9 to 14) (size 15 to 20)
#    0.000    1.625    0.000    7.875    0.000    6.250 
#    0.000    3.125    0.000    3.375    0.000    0.000 
#    0.000    0.000    0.000    0.000    0.000    0.000 
#
# Total GULP energy -396594.624018 kJ/mol
# GULP energy per Si atom -12393.582001 kJ/mol
# Density = 1.961080 g / cm^3
# Si number density = 19.655533 Si / 1000 Ang^3
#
#
#
# Elastic Constant Matrix: (Units=GPa)
#
#
# Indices 1 2 3 4 5 6 
#
# 1 95.9745 46.8737 40.4678 0.0000 0.0000 0.0000
# 2 46.8737 77.9724 53.3003 0.0000 0.0000 0.0000
# 3 40.4678 53.3003 144.6209 0.0000 0.0000 0.0000
# 4 0.0000 0.0000 0.0000 23.9462 0.0000 0.0000
# 5 0.0000 0.0000 0.0000 0.0000 30.4372 0.0000
# 6 0.0000 0.0000 0.0000 0.0000 0.0000 21.3967
#
#
#
# Elastic Compliance Matrix: (Units=1/GPa)
#
#
# Indices 1 2 3 4 5 6 
#
# 1 0.014894 -0.008161 -0.001160 0.000000 0.000000 0.000000
# 2 -0.008161 0.021616 -0.005683 0.000000 0.000000 0.000000
# 3 -0.001160 -0.005683 0.009334 0.000000 0.000000 0.000000
# 4 0.000000 0.000000 0.000000 0.041760 0.000000 0.000000
# 5 0.000000 0.000000 0.000000 0.000000 0.032854 0.000000
# 6 0.000000 0.000000 0.000000 0.000000 0.000000 0.046736
#
#
# Mechanical properties :
#
#
# Convention : Reuss Voigt Hill
#
# Bulk Modulus (GPa) = 63.14695 66.65018 64.89856
# Shear Modulus (GPa) = 24.69368 27.01777 25.85572
#
# Velocity S-wave (km/s) = 3.54831 3.71153 3.63084
# Velocity P-wave (km/s) = 6.99885 7.23533 7.11807
#
# Compressibility (1/GPa) = 0.01583608
#
# Stress axis : x y z
#
# Youngs Moduli (GPa) = 67.13973 46.26251 107.13869
#
# Poissons Ratio (x) = 0.37754 0.12428
# Poissons Ratio (y) = 0.54792 0.60887
# Poissons Ratio (z) = 0.07788 0.26291
#
# Static dielectric constant tensor:
#      x y z
#    x 3.924060 0.000000 0.000000 
#    y 0.000000 3.497880 0.000000 
#    z 0.000000 0.000000 3.728000 
# 
# 
# High freq. dielectric constant tensor:
#      x y z
#    x 1.778930 0.000000 0.000000 
#    y 0.000000 1.748530 0.000000 
#    z 0.000000 0.000000 1.761660 
# 
# From -- ./inp_files/13212.got.cif
#   From: 2010.03.12/outbox.cif.g09.slc.cpg/sg35_7_cif.got.tgz:13212.got - 2010.04.14 02:02:04.
