data_PCOD8172967
_publ_section_title
;
Structure prediction by ZEFSAII (Michael W. Deem and Ramdas Pophale) SiO2 
 PCOD8172967
Probable space group: C M M 2
;
_chemical_formula_sum "Si O2"
_cell_formula_units_Z 40
_cell_length_a 8.911819
_cell_length_b 25.899603
_cell_length_c 9.129510
_cell_angle_alpha 90.000000
_cell_angle_beta 90.000000
_cell_angle_gamma 90.000000
_cell_volume 2107.205703
_symmetry_space_group_name_H-M "C M M 2"
_symmetry_group_IT_number 35
_symmetry_cell_setting 'orthorhombic'
loop_
_space_group_symop_operation_xyz
x,y,z
-x,-y,z
-x,y,z
x,-y,z
1/2+x,1/2+y,z
1/2-x,1/2-y,z
1/2-x,1/2+y,z
1/2+x,1/2-y,z
loop_
_atom_site_type_symbol
_atom_site_label
_atom_site_fract_x
_atom_site_fract_y
_atom_site_fract_z
Si Si1 0.324239 0.302137 0.647190
Si Si2 0.821413 0.000000 0.967186
Si Si3 0.178160 0.905201 0.483788
Si Si4 0.677357 0.302468 0.981687
Si Si5 0.177814 0.901732 0.150863
Si Si6 0.678203 0.000000 0.650526
O O1 0.500000 0.294170 0.636474
O O2 0.250000 0.250000 0.584923
O O3 0.272116 0.350360 0.550114
O O4 0.273431 0.312397 0.814137
O O5 0.738405 0.000000 0.814250
O O6 0.766269 0.950363 0.057610
O O7 0.000000 0.000000 0.941462
O O8 0.234731 0.906820 0.316728
O O9 0.262313 0.949553 0.570099
O O10 0.000000 0.913976 0.498052
O O11 0.500000 0.297774 0.996223
O O12 0.750000 0.250000 0.042399
O O13 0.741715 0.349529 0.078156
O O14 0.000000 0.899767 0.149124
O O15 0.500000 0.000000 0.650524
#
# Coordination Sequence:
#
# PCOD8172967 Si02
#       6
#     8   4   8   8   8   4
#     4   9  18  32  53  78 107 142 180 219 260 307
#     4  10  19  36  60  80 100 134 177 222 266 316
#     4  10  20  37  59  81 106 142 182 220 264 320
#     4   9  17  31  49  74 105 138 176 216 255 303
#     4   9  18  33  57  83 104 131 177 225 262 308
#     4  12  25  38  54  80 110 140 175 222 272 320
#
# _framework density 18.982486000000002
#
# number of rings (size 3 to 8) (size 9 to 14) (size 15 to 20)
#    0.000    2.400    0.000    2.700    0.000    6.400 
#    0.000    8.000    0.000    0.000    0.000    0.000 
#    0.000    0.000    0.000    0.000    0.000    0.000 
#
# Total GULP energy -248030.110022 kJ/mol
# GULP energy per Si atom -12401.505501 kJ/mol
# Density = 1.893928 g / cm^3
# Si number density = 18.982486 Si / 1000 Ang^3
#
#
#
# Elastic Constant Matrix: (Units=GPa)
#
#
# Indices 1 2 3 4 5 6 
#
# 1 41.1908 50.3682 40.9030 0.0000 0.0000 0.0000
# 2 50.3682 206.3662 113.0716 0.0000 0.0000 0.0000
# 3 40.9030 113.0716 160.9359 0.0000 0.0000 0.0000
# 4 0.0000 0.0000 0.0000 786.0907 0.0000 0.0000
# 5 0.0000 0.0000 0.0000 0.0000 12.7137 0.0000
# 6 0.0000 0.0000 0.0000 0.0000 0.0000 31.3366
#
#
#
# Elastic Compliance Matrix: (Units=1/GPa)
#
#
# Indices 1 2 3 4 5 6 
#
# 1 0.036888 -0.006287 -0.004959 0.000000 0.000000 0.000000
# 2 -0.006287 0.008950 -0.004690 0.000000 0.000000 0.000000
# 3 -0.004959 -0.004690 0.010769 0.000000 0.000000 0.000000
# 4 0.000000 0.000000 0.000000 0.001272 0.000000 0.000000
# 5 0.000000 0.000000 0.000000 0.000000 0.078655 0.000000
# 6 0.000000 0.000000 0.000000 0.000000 0.000000 0.031912
#
#
# Mechanical properties :
#
#
# Convention : Reuss Voigt Hill
#
# Bulk Modulus (GPa) = 40.42574 90.79761 65.61168
# Shear Modulus (GPa) = 23.97346 179.63820 101.80583
#
# Velocity S-wave (km/s) = 3.55762 9.73854 7.33129
# Velocity P-wave (km/s) = 6.18208 13.20562 10.31034
#
# Compressibility (1/GPa) = 0.02473672
#
# Stress axis : x y z
#
# Youngs Moduli (GPa) = 27.10875 111.73040 92.85571
#
# Poissons Ratio (x) = 0.70240 0.46044
# Poissons Ratio (y) = 0.17042 0.43554
# Poissons Ratio (z) = 0.13442 0.52407
#
# Static dielectric constant tensor:
#      x y z
#    x 3.136840 0.000000 0.000000 
#    y 0.000000 -0.418950 0.000000 
#    z 0.000000 0.000000 3.687090 
# 
# 
# High freq. dielectric constant tensor:
#      x y z
#    x 1.701430 0.000000 0.000000 
#    y 0.000000 1.757200 0.000000 
#    z 0.000000 0.000000 1.744040 
# 
# From -- ./inp_files/5017.got.cif
#   From: 2010.03.12/outbox.cif.g09.slc.cpg/sg35_3_cif.got.tgz:5017.got - 2010.04.14 02:02:04.
