data_PCOD8172693
_publ_section_title
;
Structure prediction by ZEFSAII (Michael W. Deem and Ramdas Pophale) SiO2 
 PCOD8172693
Probable space group: C M M 2
;
_chemical_formula_sum "Si O2"
_cell_formula_units_Z 48
_cell_length_a 19.076116
_cell_length_b 8.744073
_cell_length_c 15.757727
_cell_angle_alpha 90.000000
_cell_angle_beta 90.000000
_cell_angle_gamma 90.000000
_cell_volume 2628.435362
_symmetry_space_group_name_H-M "C M M 2"
_symmetry_group_IT_number 35
_symmetry_cell_setting 'orthorhombic'
loop_
_space_group_symop_operation_xyz
x,y,z
-x,-y,z
-x,y,z
x,-y,z
1/2+x,1/2+y,z
1/2-x,1/2-y,z
1/2-x,1/2+y,z
1/2+x,1/2-y,z
loop_
_atom_site_type_symbol
_atom_site_label
_atom_site_fract_x
_atom_site_fract_y
_atom_site_fract_z
Si Si1 0.418105 0.177166 0.120440
Si Si2 0.172842 0.319397 0.433240
Si Si3 0.081342 0.176991 0.944525
Si Si4 0.673198 0.679817 0.264797
Si Si5 0.827284 0.319298 0.798432
Si Si6 0.824911 0.322814 0.614086
O O1 0.500000 0.209777 0.133925
O O2 0.376133 0.277110 0.187277
O O3 0.399424 0.000000 0.132233
O O4 0.394508 0.229169 0.026964
O O5 0.175398 0.500000 0.417565
O O6 0.250000 0.250000 0.436596
O O7 0.135969 0.242127 0.351619
O O8 0.135361 0.278579 0.524914
O O9 0.122695 0.238229 0.864300
O O10 0.000000 0.204203 0.925624
O O11 0.098622 0.000000 0.960007
O O12 0.680951 0.500000 0.270472
O O13 0.750000 0.750000 0.251177
O O14 0.824003 0.500000 0.815861
O O15 0.750000 0.250000 0.806720
O O16 0.861270 0.283048 0.704427
O O17 0.809751 0.500000 0.610244
O O18 0.750000 0.250000 0.614959
#
# Coordination Sequence:
#
# PCOD8172693 Si02
#       6
#     8   8   8   8   8   8
#     4  10  21  38  58  77  98 128 166 206 251 304
#     4   9  15  26  44  68  99 132 167 204 246 293
#     4  10  21  37  55  75 100 131 167 206 250 301
#     4  11  21  33  51  77 107 135 167 207 250 294
#     4  10  19  32  51  77 106 134 168 208 251 295
#     4   8  15  26  43  68  98 131 165 203 244 290
#
# _framework density 18.261816
#
# number of rings (size 3 to 8) (size 9 to 14) (size 15 to 20)
#    0.000    2.333    0.000    4.500    0.000    4.000 
#    0.000    3.333    0.000    1.000    0.000    2.333 
#    0.000    0.000    0.000    0.000    0.000    0.000 
#
# Total GULP energy -297320.043768 kJ/mol
# GULP energy per Si atom -12388.335157 kJ/mol
# Density = 1.822025 g / cm^3
# Si number density = 18.261816 Si / 1000 Ang^3
#
#
#
# Elastic Constant Matrix: (Units=GPa)
#
#
# Indices 1 2 3 4 5 6 
#
# 1 36.5118 29.9374 49.8062 0.0000 0.0000 0.0000
# 2 29.9374 93.0675 50.3621 0.0000 0.0000 0.0000
# 3 49.8062 50.3621 166.4333 0.0000 0.0000 0.0000
# 4 0.0000 0.0000 0.0000 13.6564 0.0000 0.0000
# 5 0.0000 0.0000 0.0000 0.0000 16.0346 0.0000
# 6 0.0000 0.0000 0.0000 0.0000 0.0000 22.9360
#
#
#
# Elastic Compliance Matrix: (Units=1/GPa)
#
#
# Indices 1 2 3 4 5 6 
#
# 1 0.053284 -0.010178 -0.012866 0.000000 0.000000 0.000000
# 2 -0.010178 0.014793 -0.001430 0.000000 0.000000 0.000000
# 3 -0.012866 -0.001430 0.010291 0.000000 0.000000 0.000000
# 4 0.000000 0.000000 0.000000 0.073226 0.000000 0.000000
# 5 0.000000 0.000000 0.000000 0.000000 0.062365 0.000000
# 6 0.000000 0.000000 0.000000 0.000000 0.000000 0.043600
#
#
# Mechanical properties :
#
#
# Convention : Reuss Voigt Hill
#
# Bulk Modulus (GPa) = 33.99044 61.80266 47.89655
# Shear Modulus (GPa) = 15.80708 21.58587 18.69647
#
# Velocity S-wave (km/s) = 2.94527 3.44178 3.20316
# Velocity P-wave (km/s) = 5.49722 7.05057 6.32178
#
# Compressibility (1/GPa) = 0.02942004
#
# Stress axis : x y z
#
# Youngs Moduli (GPa) = 18.76732 67.59976 97.16810
#
# Poissons Ratio (x) = 0.68803 1.25015
# Poissons Ratio (y) = 0.19101 0.13900
# Poissons Ratio (z) = 0.24146 0.09670
#
# Static dielectric constant tensor:
#      x y z
#    x 2.869570 0.000000 0.000000 
#    y 0.000000 5.188470 0.000000 
#    z 0.000000 0.000000 4.297590 
# 
# 
# High freq. dielectric constant tensor:
#      x y z
#    x 1.648940 0.000000 0.000000 
#    y 0.000000 1.725160 0.000000 
#    z 0.000000 0.000000 1.741480 
# 
# From -- ./inp_files/15384.got.cif
#   From: 2010.03.12/outbox.cif.g09.slc.cpg/sg35_8_cif.got.tgz:15384.got - 2010.04.14 02:02:04.
