data_PCOD8172648
_publ_section_title
;
Structure prediction by ZEFSAII (Michael W. Deem and Ramdas Pophale) SiO2 
 PCOD8172648
Probable space group: C M M 2
;
_chemical_formula_sum "Si O2"
_cell_formula_units_Z 56
_cell_length_a 9.021039
_cell_length_b 19.720169
_cell_length_c 18.098625
_cell_angle_alpha 90.000000
_cell_angle_beta 90.000000
_cell_angle_gamma 90.000000
_cell_volume 3219.680479
_symmetry_space_group_name_H-M "C M M 2"
_symmetry_group_IT_number 35
_symmetry_cell_setting 'orthorhombic'
loop_
_space_group_symop_operation_xyz
x,y,z
-x,-y,z
-x,y,z
x,-y,z
1/2+x,1/2+y,z
1/2-x,1/2-y,z
1/2-x,1/2+y,z
1/2+x,1/2-y,z
loop_
_atom_site_type_symbol
_atom_site_label
_atom_site_fract_x
_atom_site_fract_y
_atom_site_fract_z
Si Si1 0.677937 0.178944 0.685600
Si Si2 0.323695 0.075294 0.810189
Si Si3 0.335251 0.919312 0.971712
Si Si4 0.333527 0.919274 0.256979
Si Si5 0.333963 0.580956 0.113536
Si Si6 0.327333 0.422821 0.403042
Si Si7 0.323578 0.679433 0.532534
O O1 0.500000 0.184669 0.679689
O O2 0.750000 0.250000 0.708689
O O3 0.731686 0.125627 0.746896
O O4 0.747205 0.154736 0.608166
O O5 0.500000 0.072272 0.812624
O O6 0.268868 0.101043 0.891152
O O7 0.260739 0.000000 0.793068
O O8 0.500000 0.889200 0.982259
O O9 0.342345 0.000000 0.975921
O O10 0.234791 0.889881 0.037625
O O11 0.500000 0.891466 0.257099
O O12 0.253867 0.890032 0.184162
O O13 0.254300 0.893101 0.331104
O O14 0.328136 0.000000 0.255228
O O15 0.500000 0.608400 0.119182
O O16 0.328936 0.500000 0.113199
O O17 0.500000 0.419392 0.385431
O O18 0.277866 0.500000 0.420432
O O19 0.284160 0.377261 0.472668
O O20 0.500000 0.688707 0.543325
O O21 0.250000 0.750000 0.506993
#
# Coordination Sequence:
#
# PCOD8172648 Si02
#       7
#     8   8   8   8   8   8   8
#     4  10  19  32  50  69  91 119 152 189 227 271
#     4   8  15  28  46  68  92 119 152 190 230 269
#     4   8  13  23  39  58  82 112 147 185 222 262
#     4   9  16  25  39  61  88 118 152 187 222 263
#     4   9  15  22  34  55  86 121 151 179 218 267
#     4   9  18  32  48  67  93 122 150 185 231 275
#     4  10  20  34  51  69  91 120 153 188 226 271
#
# _framework density 17.39303
#
# number of rings (size 3 to 8) (size 9 to 14) (size 15 to 20)
#    0.000    3.000    0.000    3.429    0.000    5.143 
#    0.000    1.429    0.000    3.000    0.000    1.000 
#    0.000    4.571    0.000    0.000    0.000    0.000 
#
# Total GULP energy -347066.008815 kJ/mol
# GULP energy per Si atom -12395.214601 kJ/mol
# Density = 1.735344 g / cm^3
# Si number density = 17.393030 Si / 1000 Ang^3
#
#
#
# Elastic Constant Matrix: (Units=GPa)
#
#
# Indices 1 2 3 4 5 6 
#
# 1 95.7516 32.6161 74.0632 0.0000 0.0000 0.0000
# 2 32.6161 50.6975 70.5857 0.0000 0.0000 0.0000
# 3 74.0632 70.5857 182.1232 0.0000 0.0000 0.0000
# 4 0.0000 0.0000 0.0000 2.0590 0.0000 0.0000
# 5 0.0000 0.0000 0.0000 0.0000 30.0461 0.0000
# 6 0.0000 0.0000 0.0000 0.0000 0.0000 13.8066
#
#
#
# Elastic Compliance Matrix: (Units=1/GPa)
#
#
# Indices 1 2 3 4 5 6 
#
# 1 0.015390 -0.002579 -0.005259 0.000000 0.000000 0.000000
# 2 -0.002579 0.043276 -0.015724 0.000000 0.000000 0.000000
# 3 -0.005259 -0.015724 0.013724 0.000000 0.000000 0.000000
# 4 0.000000 0.000000 0.000000 0.485674 0.000000 0.000000
# 5 0.000000 0.000000 0.000000 0.000000 0.033282 0.000000
# 6 0.000000 0.000000 0.000000 0.000000 0.000000 0.072429
#
#
# Mechanical properties :
#
#
# Convention : Reuss Voigt Hill
#
# Bulk Modulus (GPa) = 39.57879 75.90024 57.73951
# Shear Modulus (GPa) = 6.95100 19.26948 13.11024
#
# Velocity S-wave (km/s) = 2.00127 3.33210 2.74845
# Velocity P-wave (km/s) = 5.30519 7.65094 6.58339
#
# Compressibility (1/GPa) = 0.02526606
#
# Stress axis : x y z
#
# Youngs Moduli (GPa) = 64.97727 23.10738 72.86739
#
# Poissons Ratio (x) = 0.05959 0.38321
# Poissons Ratio (y) = 0.16758 1.14575
# Poissons Ratio (z) = 0.34172 0.36334
#
# Static dielectric constant tensor:
#      x y z
#    x 3.256630 0.000000 0.000000 
#    y 0.000000 2.843820 0.000000 
#    z 0.000000 0.000000 3.527190 
# 
# 
# High freq. dielectric constant tensor:
#      x y z
#    x 1.668830 0.000000 0.000000 
#    y 0.000000 1.614470 0.000000 
#    z 0.000000 0.000000 1.689480 
# 
# From -- ./inp_files/18199.got.cif
#   From: 2010.03.12/outbox.cif.g09.slc.cpg/sg35_10_cif.got.tgz:18199.got - 2010.04.14 02:02:04.
