data_PCOD8172258
_publ_section_title
;
Structure prediction by ZEFSAII (Michael W. Deem and Ramdas Pophale) SiO2 
 PCOD8172258
Probable space group: C M M 2
;
_chemical_formula_sum "Si O2"
_cell_formula_units_Z 40
_cell_length_a 26.302469
_cell_length_b 8.513702
_cell_length_c 9.762380
_cell_angle_alpha 90.000000
_cell_angle_beta 90.000000
_cell_angle_gamma 90.000000
_cell_volume 2186.103254
_symmetry_space_group_name_H-M "C M M 2"
_symmetry_group_IT_number 35
_symmetry_cell_setting 'orthorhombic'
loop_
_space_group_symop_operation_xyz
x,y,z
-x,-y,z
-x,y,z
x,-y,z
1/2+x,1/2+y,z
1/2-x,1/2-y,z
1/2-x,1/2+y,z
1/2+x,1/2-y,z
loop_
_atom_site_type_symbol
_atom_site_label
_atom_site_fract_x
_atom_site_fract_y
_atom_site_fract_z
Si Si1 0.196688 0.686240 0.309370
Si Si2 0.391482 0.187247 0.501526
Si Si3 0.500000 0.817721 0.498501
Si Si4 0.196486 0.314329 0.999259
Si Si5 0.000000 0.183887 0.793571
Si Si6 0.603815 0.813735 0.814912
O O1 0.196919 0.500000 0.316613
O O2 0.250000 0.750000 0.366140
O O3 0.152751 0.758005 0.406547
O O4 0.187451 0.745695 0.154516
O O5 0.446308 0.252389 0.443197
O O6 0.384338 0.239969 0.658976
O O7 0.390946 0.000000 0.494212
O O8 0.500000 0.794033 0.660867
O O9 0.500000 0.000000 0.465417
O O10 0.198747 0.500000 0.993561
O O11 0.250000 0.250000 0.942057
O O12 0.150480 0.250691 0.906424
O O13 0.947889 0.231316 0.872323
O O14 0.000000 0.000000 0.758515
O O15 0.597625 0.000000 0.828009
#
# Coordination Sequence:
#
# PCOD8172258 Si02
#       6
#     8   8   4   8   4   8
#     4   9  17  30  45  64  88 116 147 180 217 260
#     4   8  14  26  46  66  85 110 144 179 214 256
#     4   8  14  28  47  64  86 118 146 176 220 266
#     4   9  18  31  47  65  89 119 151 184 222 264
#     4  10  18  28  45  70  94 116 144 184 226 264
#     4   9  17  31  48  66  89 120 151 181 218 265
#
# _framework density 18.297398000000001
#
# number of rings (size 3 to 8) (size 9 to 14) (size 15 to 20)
#    0.000    3.200    0.000    2.100    0.000    1.600 
#    0.000    5.000    0.000    4.800    0.000    5.600 
#    0.000    0.000    0.000    0.000    0.000    0.000 
#
# Total GULP energy -247800.720365 kJ/mol
# GULP energy per Si atom -12390.036018 kJ/mol
# Density = 1.825575 g / cm^3
# Si number density = 18.297398 Si / 1000 Ang^3
#
#
#
# Elastic Constant Matrix: (Units=GPa)
#
#
# Indices 1 2 3 4 5 6 
#
# 1 227.3327 19.1885 89.0738 0.0000 0.0000 0.0000
# 2 19.1885 9.0033 12.6815 0.0000 0.0000 0.0000
# 3 89.0738 12.6815 73.0712 0.0000 0.0000 0.0000
# 4 0.0000 0.0000 0.0000 10.8941 0.0000 0.0000
# 5 0.0000 0.0000 0.0000 0.0000 20.0412 0.0000
# 6 0.0000 0.0000 0.0000 0.0000 0.0000 27.1837
#
#
#
# Elastic Compliance Matrix: (Units=1/GPa)
#
#
# Indices 1 2 3 4 5 6 
#
# 1 0.008568 -0.004698 -0.009630 0.000000 0.000000 0.000000
# 2 -0.004698 0.149582 -0.020233 0.000000 0.000000 0.000000
# 3 -0.009630 -0.020233 0.028935 0.000000 0.000000 0.000000
# 4 0.000000 0.000000 0.000000 0.091792 0.000000 0.000000
# 5 0.000000 0.000000 0.000000 0.000000 0.049897 0.000000
# 6 0.000000 0.000000 0.000000 0.000000 0.000000 0.036787
#
#
# Mechanical properties :
#
#
# Convention : Reuss Voigt Hill
#
# Bulk Modulus (GPa) = 8.47713 61.25497 34.86605
# Shear Modulus (GPa) = 10.54840 24.18805 17.36822
#
# Velocity S-wave (km/s) = 2.40364 3.63979 3.08428
# Velocity P-wave (km/s) = 3.51374 7.15641 5.63740
#
# Compressibility (1/GPa) = 0.11796450
#
# Stress axis : x y z
#
# Youngs Moduli (GPa) = 116.70669 6.68528 34.55984
#
# Poissons Ratio (x) = 0.03141 0.33280
# Poissons Ratio (y) = 0.54829 0.69925
# Poissons Ratio (z) = 1.12385 0.13526
#
# Static dielectric constant tensor:
#      x y z
#    x 4.020840 0.000000 0.000000 
#    y 0.000000 2.958610 0.000000 
#    z 0.000000 0.000000 3.318910 
# 
# 
# High freq. dielectric constant tensor:
#      x y z
#    x 1.734740 0.000000 0.000000 
#    y 0.000000 1.674300 0.000000 
#    z 0.000000 0.000000 1.673230 
# 
# From -- ./inp_files/5023.got.cif
#   From: 2010.03.12/outbox.cif.g09.slc.cpg/sg35_3_cif.got.tgz:5023.got - 2010.04.14 02:02:04.
