data_PCOD8172777
_publ_section_title
;
Structure prediction by ZEFSAII (Michael W. Deem and Ramdas Pophale) SiO2 
 PCOD8172777
Probable space group: C M M 2
;
_chemical_formula_sum "Si O2"
_cell_formula_units_Z 40
_cell_length_a 8.689164
_cell_length_b 28.476780
_cell_length_c 10.075131
_cell_angle_alpha 90.000000
_cell_angle_beta 90.000000
_cell_angle_gamma 90.000000
_cell_volume 2492.984487
_symmetry_space_group_name_H-M "C M M 2"
_symmetry_group_IT_number 35
_symmetry_cell_setting 'orthorhombic'
loop_
_space_group_symop_operation_xyz
x,y,z
-x,-y,z
-x,y,z
x,-y,z
1/2+x,1/2+y,z
1/2-x,1/2-y,z
1/2-x,1/2+y,z
1/2+x,1/2-y,z
loop_
_atom_site_type_symbol
_atom_site_label
_atom_site_fract_x
_atom_site_fract_y
_atom_site_fract_z
Si Si1 0.680842 0.553210 0.352250
Si Si2 0.173555 0.633176 0.491084
Si Si3 0.674150 0.871392 0.199438
Si Si4 0.180894 0.200257 0.697950
Si Si5 0.183111 0.300372 0.978629
O O1 0.500000 0.555069 0.373345
O O2 0.741400 0.500000 0.344930
O O3 0.762936 0.579583 0.476908
O O4 0.726758 0.580478 0.215216
O O5 0.177319 0.655728 0.342350
O O6 0.284649 0.662049 0.586372
O O7 0.000000 0.632749 0.548358
O O8 0.500000 0.885605 0.162357
O O9 0.744146 0.837918 0.086339
O O10 0.250000 0.250000 0.652430
O O11 0.256456 0.183441 0.835420
O O12 0.000000 0.205910 0.718066
O O13 0.250000 0.250000 0.018283
O O14 0.000000 0.297339 0.977912
#
# Coordination Sequence:
#
# PCOD8172777 Si02
#       5
#     8   8   8   8   8
#     4   9  17  30  50  75  99 124 157 198 245 292
#     4   9  18  33  50  73  98 127 162 200 240 285
#     4   8  18  32  49  72  97 127 163 198 239 286
#     4  11  21  33  49  71  98 133 166 198 239 286
#     4  10  19  33  49  70  98 131 165 198 235 285
#
# _framework density 16.045024999999999
#
# number of rings (size 3 to 8) (size 9 to 14) (size 15 to 20)
#    1.200    1.400    0.000    4.200    0.000    4.000 
#    0.000    2.000    0.000    1.200    0.000    5.600 
#    0.000    0.000    0.000    0.000    0.000    0.000 
#
# Total GULP energy -247813.789741 kJ/mol
# GULP energy per Si atom -12390.689487 kJ/mol
# Density = 1.600851 g / cm^3
# Si number density = 16.045025 Si / 1000 Ang^3
#
#
#
# Elastic Constant Matrix: (Units=GPa)
#
#
# Indices 1 2 3 4 5 6 
#
# 1 76.3156 34.6710 25.3110 0.0000 0.0000 0.0000
# 2 34.6710 114.7576 62.7028 0.0000 0.0000 0.0000
# 3 25.3110 62.7028 72.8335 0.0000 0.0000 0.0000
# 4 0.0000 0.0000 0.0000 7.0785 0.0000 0.0000
# 5 0.0000 0.0000 0.0000 0.0000 24.6954 0.0000
# 6 0.0000 0.0000 0.0000 0.0000 0.0000 27.1627
#
#
#
# Elastic Compliance Matrix: (Units=1/GPa)
#
#
# Indices 1 2 3 4 5 6 
#
# 1 0.015435 -0.003271 -0.002548 0.000000 0.000000 0.000000
# 2 -0.003271 0.017147 -0.013625 0.000000 0.000000 0.000000
# 3 -0.002548 -0.013625 0.026345 0.000000 0.000000 0.000000
# 4 0.000000 0.000000 0.000000 0.141273 0.000000 0.000000
# 5 0.000000 0.000000 0.000000 0.000000 0.040493 0.000000
# 6 0.000000 0.000000 0.000000 0.000000 0.000000 0.036815
#
#
# Mechanical properties :
#
#
# Convention : Reuss Voigt Hill
#
# Bulk Modulus (GPa) = 49.90286 56.58623 53.24455
# Shear Modulus (GPa) = 15.47625 21.20213 18.33919
#
# Velocity S-wave (km/s) = 3.10909 3.63907 3.38447
# Velocity P-wave (km/s) = 6.63761 7.28017 6.96630
#
# Compressibility (1/GPa) = 0.02003893
#
# Stress axis : x y z
#
# Youngs Moduli (GPa) = 64.78970 58.31924 37.95746
#
# Poissons Ratio (x) = 0.19077 0.09670
# Poissons Ratio (y) = 0.21193 0.51718
# Poissons Ratio (z) = 0.16506 0.79461
#
# Static dielectric constant tensor:
#      x y z
#    x 3.047490 0.000000 0.000000 
#    y 0.000000 2.948070 0.000000 
#    z 0.000000 0.000000 2.925160 
# 
# 
# High freq. dielectric constant tensor:
#      x y z
#    x 1.631350 0.000000 0.000000 
#    y 0.000000 1.598590 0.000000 
#    z 0.000000 0.000000 1.597770 
# 
# From -- ./inp_files/11450.got.cif
#   From: 2010.03.12/outbox.cif.g09.slc.cpg/sg35_6_cif.got.tgz:11450.got - 2010.04.14 02:02:04.
