data_PCOD8172403
_publ_section_title
;
Structure prediction by ZEFSAII (Michael W. Deem and Ramdas Pophale) SiO2 
 PCOD8172403
Probable space group: C M M 2
;
_chemical_formula_sum "Si O2"
_cell_formula_units_Z 32
_cell_length_a 8.547744
_cell_length_b 24.591386
_cell_length_c 7.337005
_cell_angle_alpha 90.000000
_cell_angle_beta 90.000000
_cell_angle_gamma 90.000000
_cell_volume 1542.244850
_symmetry_space_group_name_H-M "C M M 2"
_symmetry_group_IT_number 35
_symmetry_cell_setting 'orthorhombic'
loop_
_space_group_symop_operation_xyz
x,y,z
-x,-y,z
-x,y,z
x,-y,z
1/2+x,1/2+y,z
1/2-x,1/2-y,z
1/2-x,1/2+y,z
1/2+x,1/2-y,z
loop_
_atom_site_type_symbol
_atom_site_label
_atom_site_fract_x
_atom_site_fract_y
_atom_site_fract_z
Si Si1 0.682282 0.500000 0.509990
Si Si2 0.682587 0.809499 0.812035
Si Si3 0.817509 0.500000 0.114104
Si Si4 0.181783 0.389744 0.489745
Si Si5 0.182669 0.109449 0.093563
O O1 0.500000 0.500000 0.556412
O O2 0.711465 0.500000 0.294191
O O3 0.761349 0.554667 0.589693
O O4 0.500000 0.807601 0.855855
O O5 0.750000 0.750000 0.788189
O O6 0.717938 0.840389 0.624116
O O7 0.767820 0.838161 0.979903
O O8 0.771347 0.555853 0.011097
O O9 0.000000 0.500000 0.161627
O O10 0.275012 0.379407 0.303696
O O11 0.000000 0.394971 0.441583
O O12 0.000000 0.099522 0.074761
#
# Coordination Sequence:
#
# PCOD8172403 Si02
#       5
#     4   8   4   8   8
#     4  10  18  31  56  89 121 151 189 236 290 351
#     4  11  25  43  62  85 115 154 201 248 292 344
#     4  10  18  33  58  87 121 155 193 238 288 349
#     4  10  21  39  62  87 119 156 194 239 293 350
#     4  11  22  38  62  90 122 156 193 240 294 351
#
# _framework density 20.748974
#
# number of rings (size 3 to 8) (size 9 to 14) (size 15 to 20)
#    0.000    1.500    0.000    9.000    0.000    6.000 
#    0.000    3.750    0.000    0.000    0.000    0.000 
#    0.000    0.000    0.000    0.000    0.000    0.000 
#
# Total GULP energy -198420.745609 kJ/mol
# GULP energy per Si atom -12401.296601 kJ/mol
# Density = 2.070175 g / cm^3
# Si number density = 20.748974 Si / 1000 Ang^3
#
#
#
# Elastic Constant Matrix: (Units=GPa)
#
#
# Indices 1 2 3 4 5 6 
#
# 1 116.6173 64.6121 43.7732 0.0000 0.0000 0.0000
# 2 64.6121 184.1941 54.4524 0.0000 0.0000 0.0000
# 3 43.7732 54.4524 69.9922 0.0000 0.0000 0.0000
# 4 0.0000 0.0000 0.0000 -718.5541 0.0000 0.0000
# 5 0.0000 0.0000 0.0000 0.0000 23.4260 0.0000
# 6 0.0000 0.0000 0.0000 0.0000 0.0000 40.2868
#
#
#
# Elastic Compliance Matrix: (Units=1/GPa)
#
#
# Indices 1 2 3 4 5 6 
#
# 1 0.012098 -0.002607 -0.005538 0.000000 0.000000 0.000000
# 2 -0.002607 0.007612 -0.004292 0.000000 0.000000 0.000000
# 3 -0.005538 -0.004292 0.021090 0.000000 0.000000 0.000000
# 4 0.000000 0.000000 0.000000 -0.001392 0.000000 0.000000
# 5 0.000000 0.000000 0.000000 0.000000 0.042688 0.000000
# 6 0.000000 0.000000 0.000000 0.000000 0.000000 0.024822
#
#
# Mechanical properties :
#
#
# Convention : Reuss Voigt Hill
#
# Bulk Modulus (GPa) = 62.78795 77.38657 70.08726
# Shear Modulus (GPa) = 36.46950 -117.10387 -40.31718
#
# Velocity S-wave (km/s) = 4.19699 -7.52070 -4.41283
# Velocity P-wave (km/s) = 7.33571 6.16741 2.80853
#
# Compressibility (1/GPa) = 0.01592662
#
# Stress axis : x y z
#
# Youngs Moduli (GPa) = 82.65786 131.36798 47.41569
#
# Poissons Ratio (x) = 0.34241 0.26260
# Poissons Ratio (y) = 0.21545 0.20351
# Poissons Ratio (z) = 0.45779 0.56383
#
# Static dielectric constant tensor:
#      x y z
#    x 3.806370 0.000000 0.000000 
#    y 0.000000 4.793320 0.000000 
#    z 0.000000 0.000000 3.491610 
# 
# 
# High freq. dielectric constant tensor:
#      x y z
#    x 1.827760 0.000000 0.000000 
#    y 0.000000 1.822250 0.000000 
#    z 0.000000 0.000000 1.796120 
# 
# From -- ./inp_files/4767.got.cif
#   From: 2010.03.12/outbox.cif.g09.slc.cpg/sg35_3_cif.got.tgz:4767.got - 2010.04.14 02:02:04.
