data_PCOD8172501
_publ_section_title
;
Structure prediction by ZEFSAII (Michael W. Deem and Ramdas Pophale) SiO2 
 PCOD8172501
Probable space group: C M M 2
;
_chemical_formula_sum "Si O2"
_cell_formula_units_Z 48
_cell_length_a 27.128272
_cell_length_b 9.021837
_cell_length_c 12.930260
_cell_angle_alpha 90.000000
_cell_angle_beta 90.000000
_cell_angle_gamma 90.000000
_cell_volume 3164.640380
_symmetry_space_group_name_H-M "C M M 2"
_symmetry_group_IT_number 35
_symmetry_cell_setting 'orthorhombic'
loop_
_space_group_symop_operation_xyz
x,y,z
-x,-y,z
-x,y,z
x,-y,z
1/2+x,1/2+y,z
1/2-x,1/2-y,z
1/2-x,1/2+y,z
1/2+x,1/2-y,z
loop_
_atom_site_type_symbol
_atom_site_label
_atom_site_fract_x
_atom_site_fract_y
_atom_site_fract_z
Si Si1 0.385190 0.824374 0.017190
Si Si2 0.941580 0.163434 0.426596
Si Si3 0.395628 0.332650 0.817794
Si Si4 0.057747 0.328979 0.627282
Si Si5 0.442669 0.327366 0.196293
Si Si6 0.699961 0.332308 0.924874
O O1 0.411898 0.777064 0.121413
O O2 0.329694 0.754914 0.015943
O O3 0.382348 0.000000 0.009735
O O4 0.415510 0.760147 0.917519
O O5 0.923726 0.278149 0.513945
O O6 0.923950 0.211877 0.312297
O O7 0.000000 0.155615 0.423451
O O8 0.920729 0.000000 0.453794
O O9 0.416408 0.500000 0.824567
O O10 0.412271 0.260769 0.711790
O O11 0.335591 0.332709 0.823342
O O12 0.070376 0.500000 0.640050
O O13 0.000000 0.296374 0.641860
O O14 0.500000 0.288936 0.182843
O O15 0.433037 0.500000 0.171539
O O16 0.711152 0.500000 0.961452
O O17 0.750000 0.250000 0.895870
#
# Coordination Sequence:
#
# PCOD8172501 Si02
#       6
#     8   8   8   8   8   8
#     4  10  19  30  45  67  94 119 149 186 226 272
#     4   8  15  28  45  62  83 118 159 191 221 259
#     4   9  19  32  46  65  89 118 153 184 220 273
#     4  10  19  29  43  65  93 122 153 190 226 262
#     4   9  17  30  46  64  90 124 159 191 222 263
#     4   9  18  32  50  69  89 115 146 183 225 271
#
# _framework density 15.167600999999999
#
# number of rings (size 3 to 8) (size 9 to 14) (size 15 to 20)
#    1.000    1.833    0.000    3.500    0.000    2.667 
#    0.000    1.667    0.000    0.000    0.000    1.167 
#    0.000    5.333    0.000    0.000    0.000    0.000 
#
# Total GULP energy -297369.627983 kJ/mol
# GULP energy per Si atom -12390.401166 kJ/mol
# Density = 1.513308 g / cm^3
# Si number density = 15.167601 Si / 1000 Ang^3
#
#
#
# Elastic Constant Matrix: (Units=GPa)
#
#
# Indices 1 2 3 4 5 6 
#
# 1 47.0291 43.1893 34.0847 0.0000 0.0000 0.0000
# 2 43.1893 133.5569 63.1255 0.0000 0.0000 0.0000
# 3 34.0847 63.1255 104.4194 0.0000 0.0000 0.0000
# 4 0.0000 0.0000 0.0000 25.5303 0.0000 0.0000
# 5 0.0000 0.0000 0.0000 0.0000 -2.0198 0.0000
# 6 0.0000 0.0000 0.0000 0.0000 0.0000 21.1813
#
#
#
# Elastic Compliance Matrix: (Units=1/GPa)
#
#
# Indices 1 2 3 4 5 6 
#
# 1 0.032726 -0.007748 -0.005999 0.000000 0.000000 0.000000
# 2 -0.007748 0.012317 -0.004917 0.000000 0.000000 0.000000
# 3 -0.005999 -0.004917 0.014507 0.000000 0.000000 0.000000
# 4 0.000000 0.000000 0.000000 0.039169 0.000000 0.000000
# 5 0.000000 0.000000 0.000000 0.000000 -0.495106 0.000000
# 6 0.000000 0.000000 0.000000 0.000000 0.000000 0.047211
#
#
# Mechanical properties :
#
#
# Convention : Reuss Voigt Hill
#
# Bulk Modulus (GPa) = 44.99721 62.86715 53.93218
# Shear Modulus (GPa) = -16.42357 18.57877 1.07760
#
# Velocity S-wave (km/s) = -3.29417 3.50365 0.84380
# Velocity P-wave (km/s) = 3.90670 7.60958 6.04847
#
# Compressibility (1/GPa) = 0.02222360
#
# Stress axis : x y z
#
# Youngs Moduli (GPa) = 30.55666 81.18957 68.93016
#
# Poissons Ratio (x) = 0.62902 0.41350
# Poissons Ratio (y) = 0.23674 0.33893
# Poissons Ratio (z) = 0.18330 0.39921
#
# Static dielectric constant tensor:
#      x y z
#    x 2.567330 0.000000 0.000000 
#    y 0.000000 3.022240 0.000000 
#    z 0.000000 0.000000 2.914600 
# 
# 
# High freq. dielectric constant tensor:
#      x y z
#    x 1.537660 0.000000 0.000000 
#    y 0.000000 1.595850 0.000000 
#    z 0.000000 0.000000 1.573400 
# 
# From -- ./inp_files/14390.got.cif
#   From: 2010.03.12/outbox.cif.g09.slc.cpg/sg35_8_cif.got.tgz:14390.got - 2010.04.14 02:02:04.
