data_PCOD8172741
_publ_section_title
;
Structure prediction by ZEFSAII (Michael W. Deem and Ramdas Pophale) SiO2 
 PCOD8172741
Probable space group: C M M 2
;
_chemical_formula_sum "Si O2"
_cell_formula_units_Z 64
_cell_length_a 32.062317
_cell_length_b 8.927854
_cell_length_c 11.522132
_cell_angle_alpha 90.000000
_cell_angle_beta 90.000000
_cell_angle_gamma 90.000000
_cell_volume 3298.183612
_symmetry_space_group_name_H-M "C M M 2"
_symmetry_group_IT_number 35
_symmetry_cell_setting 'orthorhombic'
loop_
_space_group_symop_operation_xyz
x,y,z
-x,-y,z
-x,y,z
x,-y,z
1/2+x,1/2+y,z
1/2-x,1/2-y,z
1/2-x,1/2+y,z
1/2+x,1/2-y,z
loop_
_atom_site_type_symbol
_atom_site_label
_atom_site_fract_x
_atom_site_fract_y
_atom_site_fract_z
Si Si1 0.125188 0.676161 0.962300
Si Si2 0.865860 0.827049 0.720852
Si Si3 0.401956 0.327578 0.482954
Si Si4 0.174893 0.331093 0.364230
Si Si5 0.951744 0.337082 0.313894
Si Si6 0.294408 0.177436 0.113763
Si Si7 0.951904 0.176702 0.083740
Si Si8 0.709362 0.170398 0.605364
O O1 0.120147 0.500000 0.978173
O O2 0.128932 0.716945 0.827830
O O3 0.166954 0.730669 0.031079
O O4 0.081710 0.752269 0.997842
O O5 0.901083 0.802549 0.621995
O O6 0.824895 0.781355 0.653231
O O7 0.863917 0.000000 0.761670
O O8 0.406660 0.500000 0.453097
O O9 0.363208 0.269097 0.406979
O O10 0.441830 0.237545 0.437504
O O11 0.158521 0.500000 0.343370
O O12 0.194647 0.269200 0.244659
O O13 0.209632 0.330032 0.465247
O O14 0.929743 0.500000 0.300820
O O15 0.937185 0.228623 0.210740
O O16 0.000000 0.362100 0.307383
O O17 0.250000 0.250000 0.075279
O O18 0.288596 0.000000 0.105476
O O19 0.000000 0.227373 0.055683
O O20 0.948579 0.000000 0.074957
O O21 0.750000 0.250000 0.653778
O O22 0.704887 0.000000 0.652876
#
# Coordination Sequence:
#
# PCOD8172741 Si02
#       8
#     8   8   8   8   8   8   8   8
#     4  11  23  39  59  83 113 151 195 239 286 339
#     4  10  22  39  56  76 105 143 188 234 279 331
#     4  10  20  34  55  81 107 140 181 225 277 333
#     4   9  18  33  53  78 109 141 175 221 277 337
#     4  10  20  34  55  84 116 146 175 213 267 331
#     4  10  22  37  54  80 112 147 186 228 276 332
#     4  10  21  38  62  91 119 148 186 231 280 335
#     4  10  19  32  53  79 106 139 179 226 280 336
#
# _framework density 19.404619
#
# number of rings (size 3 to 8) (size 9 to 14) (size 15 to 20)
#    0.000    2.000    0.000    3.375    0.000    6.500 
#    0.000    1.875    0.000    0.750    0.000    0.000 
#    0.000    0.000    0.000    0.000    0.000    0.000 
#
# Total GULP energy -396583.867614 kJ/mol
# GULP energy per Si atom -12393.245863 kJ/mol
# Density = 1.936045 g / cm^3
# Si number density = 19.404619 Si / 1000 Ang^3
#
#
#
# Elastic Constant Matrix: (Units=GPa)
#
#
# Indices 1 2 3 4 5 6 
#
# 1 59.0371 30.1232 43.0348 0.0000 0.0000 0.0000
# 2 30.1232 75.3456 33.9936 0.0000 0.0000 0.0000
# 3 43.0348 33.9936 98.9052 0.0000 0.0000 0.0000
# 4 0.0000 0.0000 0.0000 53.0964 0.0000 0.0000
# 5 0.0000 0.0000 0.0000 0.0000 7.2017 0.0000
# 6 0.0000 0.0000 0.0000 0.0000 0.0000 31.4700
#
#
#
# Elastic Compliance Matrix: (Units=1/GPa)
#
#
# Indices 1 2 3 4 5 6 
#
# 1 0.027308 -0.006577 -0.009622 0.000000 0.000000 0.000000
# 2 -0.006577 0.017292 -0.003082 0.000000 0.000000 0.000000
# 3 -0.009622 -0.003082 0.015356 0.000000 0.000000 0.000000
# 4 0.000000 0.000000 0.000000 0.018834 0.000000 0.000000
# 5 0.000000 0.000000 0.000000 0.000000 0.138855 0.000000
# 6 0.000000 0.000000 0.000000 0.000000 0.000000 0.031776
#
#
# Mechanical properties :
#
#
# Convention : Reuss Voigt Hill
#
# Bulk Modulus (GPa) = 46.73717 49.73235 48.23476
# Shear Modulus (GPa) = 16.94266 26.76271 21.85269
#
# Velocity S-wave (km/s) = 2.95807 3.71778 3.35947
# Velocity P-wave (km/s) = 5.98371 6.64183 6.32134
#
# Compressibility (1/GPa) = 0.02139625
#
# Stress axis : x y z
#
# Youngs Moduli (GPa) = 36.61957 57.83065 65.11995
#
# Poissons Ratio (x) = 0.38034 0.62655
# Poissons Ratio (y) = 0.24084 0.20067
# Poissons Ratio (z) = 0.35234 0.17821
#
# Static dielectric constant tensor:
#      x y z
#    x 3.576890 0.000000 0.000000 
#    y 0.000000 3.543350 0.000000 
#    z 0.000000 0.000000 3.686600 
# 
# 
# High freq. dielectric constant tensor:
#      x y z
#    x 1.749720 0.000000 0.000000 
#    y 0.000000 1.764530 0.000000 
#    z 0.000000 0.000000 1.748160 
# 
# From -- ./inp_files/14558.got.cif
#   From: 2010.03.12/outbox.cif.g09.slc.cpg/sg35_8_cif.got.tgz:14558.got - 2010.04.14 02:02:04.
