data_PCOD8172028
_publ_section_title
;
Structure prediction by ZEFSAII (Michael W. Deem and Ramdas Pophale) SiO2 
 PCOD8172028
Probable space group: P N N 2
;
_chemical_formula_sum "Si O2"
_cell_formula_units_Z 32
_cell_length_a 8.897999
_cell_length_b 28.177347
_cell_length_c 5.854935
_cell_angle_alpha 90.000000
_cell_angle_beta 90.000000
_cell_angle_gamma 90.000000
_cell_volume 1467.961045
_symmetry_space_group_name_H-M "P N N 2"
_symmetry_group_IT_number 34
_symmetry_cell_setting 'orthorhombic'
loop_
_space_group_symop_operation_xyz
x,y,z
-x,-y,z
1/2-x,1/2+y,1/2+z
1/2+x,1/2-y,1/2+z
loop_
_atom_site_type_symbol
_atom_site_label
_atom_site_fract_x
_atom_site_fract_y
_atom_site_fract_z
Si Si1 0.002004 0.127787 0.470230
Si Si2 0.401223 0.789659 0.428931
Si Si3 0.906727 0.953392 0.154172
Si Si4 0.109354 0.786571 0.165732
Si Si5 0.245808 0.850525 0.794876
Si Si6 0.601322 0.954164 0.408432
Si Si7 0.746193 0.898805 0.780392
Si Si8 0.004884 0.631759 0.609912
O O1 0.974984 0.176385 0.332194
O O2 0.877549 0.117537 0.665553
O O3 0.994382 0.082946 0.303217
O O4 0.167408 0.131998 0.586868
O O5 0.255278 0.766112 0.303154
O O6 0.494784 0.753544 0.583908
O O7 0.352452 0.829917 0.602102
O O8 0.499586 0.817236 0.237412
O O9 0.754850 0.967879 0.282845
O O10 0.871476 0.928200 0.915781
O O11 0.000000 0.000000 0.100372
O O12 0.158125 0.809763 0.929097
O O13 0.350877 0.879012 0.971318
O O14 0.633065 0.936241 0.664462
O O15 0.515448 0.912219 0.279174
O O16 0.500000 0.000000 0.424155
O O17 0.651195 0.864727 0.947141
#
# Coordination Sequence:
#
# PCOD8172028 Si02
#       8
#     4   4   4   4   4   4   4   4
#     4  10  22  43  67  94 132 170 221 267 323 395
#     4  10  23  45  66  97 130 171 225 272 332 397
#     4  10  23  42  63  97 133 170 220 265 319 385
#     4  10  23  45  66  97 130 171 225 272 332 397
#     4  10  22  44  65  92 130 168 216 264 333 376
#     4  10  23  42  63  97 133 170 220 265 319 385
#     4  10  22  42  63 100 130 172 214 262 333 376
#     4  10  22  43  67  94 132 170 221 267 323 395
#
# _framework density 21.798943999999999
#
# number of rings (size 3 to 8) (size 9 to 14) (size 15 to 20)
#    0.000    2.000    0.000    1.500    0.000   13.000 
#   29.250    2.500    0.000    0.000    0.000    0.000 
#    0.000    0.000    0.000    0.000    0.000    0.000 
#
# Total GULP energy -396755.064194 kJ/mol
# GULP energy per Si atom -12398.595756 kJ/mol
# Density = 2.174933 g / cm^3
# Si number density = 21.798944 Si / 1000 Ang^3
#
#
#
# Elastic Constant Matrix: (Units=GPa)
#
#
# Indices 1 2 3 4 5 6 
#
# 1 111.1569 65.2999 43.0486 0.0000 0.0000 0.0000
# 2 65.2999 83.2915 32.3455 0.0000 0.0000 0.0000
# 3 43.0486 32.3455 103.5416 0.0000 0.0000 0.0000
# 4 0.0000 0.0000 0.0000 16.0793 0.0000 0.0000
# 5 0.0000 0.0000 0.0000 0.0000 51.3318 0.0000
# 6 0.0000 0.0000 0.0000 0.0000 0.0000 39.6865
#
#
#
# Elastic Compliance Matrix: (Units=1/GPa)
#
#
# Indices 1 2 3 4 5 6 
#
# 1 0.017692 -0.012535 -0.003440 0.000000 0.000000 0.000000
# 2 -0.012535 0.022544 -0.001831 0.000000 0.000000 0.000000
# 3 -0.003440 -0.001831 0.011660 0.000000 0.000000 0.000000
# 4 0.000000 0.000000 0.000000 0.062192 0.000000 0.000000
# 5 0.000000 0.000000 0.000000 0.000000 0.019481 0.000000
# 6 0.000000 0.000000 0.000000 0.000000 0.000000 0.025197
#
#
# Mechanical properties :
#
#
# Convention : Reuss Voigt Hill
#
# Bulk Modulus (GPa) = 61.40647 64.37532 62.89089
# Shear Modulus (GPa) = 25.02422 31.90592 28.46507
#
# Velocity S-wave (km/s) = 3.39182 3.82991 3.61751
# Velocity P-wave (km/s) = 6.60075 7.01093 6.80893
#
# Compressibility (1/GPa) = 0.01628493
#
# Stress axis : x y z
#
# Youngs Moduli (GPa) = 56.52266 44.35738 85.76163
#
# Poissons Ratio (x) = 0.55600 0.29502
# Poissons Ratio (y) = 0.70849 0.15705
# Poissons Ratio (z) = 0.19444 0.08123
#
# Static dielectric constant tensor:
#      x y z
#    x 4.663350 0.000000 0.000000 
#    y 0.000000 3.614490 0.000000 
#    z 0.000000 0.000000 4.309620 
# 
# 
# High freq. dielectric constant tensor:
#      x y z
#    x 1.868950 0.000000 0.000000 
#    y 0.000000 1.825550 0.000000 
#    z 0.000000 0.000000 1.882540 
# 
# From -- ./inp_files/665.got.cif
#   From: 2010.03.12/outbox.cif.g09.slc.cpg/sg34_1_cif.got.tgz:665.got - 2010.04.14 01:56:33.
