data_PCOD8172986
_publ_section_title
;
Structure prediction by ZEFSAII (Michael W. Deem and Ramdas Pophale) SiO2 
 PCOD8172986
Probable space group: C M M 2
;
_chemical_formula_sum "Si O2"
_cell_formula_units_Z 64
_cell_length_a 14.401009
_cell_length_b 28.359831
_cell_length_c 9.184910
_cell_angle_alpha 90.000000
_cell_angle_beta 90.000000
_cell_angle_gamma 90.000000
_cell_volume 3751.210760
_symmetry_space_group_name_H-M "C M M 2"
_symmetry_group_IT_number 35
_symmetry_cell_setting 'orthorhombic'
loop_
_space_group_symop_operation_xyz
x,y,z
-x,-y,z
-x,y,z
x,-y,z
1/2+x,1/2+y,z
1/2-x,1/2-y,z
1/2-x,1/2+y,z
1/2+x,1/2-y,z
loop_
_atom_site_type_symbol
_atom_site_label
_atom_site_fract_x
_atom_site_fract_y
_atom_site_fract_z
Si Si1 0.276005 0.361593 0.400640
Si Si2 0.223995 0.861593 0.746041
Si Si3 0.603225 0.178169 0.906550
Si Si4 0.396775 0.821831 0.240130
Si Si5 0.145625 0.765871 0.731832
Si Si6 0.145625 0.765871 0.414849
Si Si7 0.896162 0.947527 0.400395
Si Si8 0.103838 0.052473 0.746286
O O1 0.258721 0.362386 0.573340
O O2 0.175807 0.354370 0.326385
O O3 0.349399 0.320062 0.359442
O O4 0.321537 0.409861 0.340507
O O5 0.324193 0.854370 0.820296
O O6 0.150601 0.820062 0.787238
O O7 0.178463 0.909861 0.806174
O O8 0.500000 0.155854 0.892385
O O9 0.596047 0.231728 0.846205
O O10 0.635411 0.180965 0.073340
O O11 0.500000 0.844146 0.254296
O O12 0.403953 0.768272 0.300476
O O13 0.250000 0.750000 0.711047
O O14 0.095488 0.762961 0.573340
O O15 0.250000 0.750000 0.435633
O O16 0.898140 0.944518 0.573340
O O17 0.000000 0.936441 0.341358
O O18 0.865630 0.000000 0.349972
O O19 0.000000 0.063559 0.805322
O O20 0.134370 0.000000 0.796708
#
# Coordination Sequence:
#
# PCOD8172986 Si02
#       8
#     8   8   8   8   8   8   8   8
#     4   9  17  29  47  70  92 117 150 184 220 264
#     4   9  17  29  47  70  92 117 150 184 220 264
#     4  10  20  31  43  62  90 124 158 188 220 260
#     4  10  20  31  43  62  90 124 158 188 220 260
#     4   8  15  27  42  62  87 114 146 183 219 255
#     4   8  15  27  42  62  87 114 146 183 219 255
#     4   8  14  26  46  72  97 116 138 176 226 274
#     4   8  14  26  46  72  97 116 138 176 226 274
#
# _framework density 17.061157999999999
#
# number of rings (size 3 to 8) (size 9 to 14) (size 15 to 20)
#    0.000    3.250    0.000    3.000    0.000    7.500 
#    0.000    2.500    0.000    2.250    0.000    7.000 
#    0.000    0.000    0.000    0.000    0.000    0.000 
#
# Total GULP energy -396458.394007 kJ/mol
# GULP energy per Si atom -12389.324813 kJ/mol
# Density = 1.702233 g / cm^3
# Si number density = 17.061158 Si / 1000 Ang^3
#
#
#
# Elastic Constant Matrix: (Units=GPa)
#
#
# Indices 1 2 3 4 5 6 
#
# 1 95.3884 64.1640 36.9442 0.0000 0.0000 0.0000
# 2 64.1640 134.4451 33.3096 0.0000 0.0000 0.0000
# 3 36.9442 33.3096 56.3159 0.0000 0.0000 0.0000
# 4 0.0000 0.0000 0.0000 -10.5276 0.0000 0.0000
# 5 0.0000 0.0000 0.0000 0.0000 17.5764 0.0000
# 6 0.0000 0.0000 0.0000 0.0000 0.0000 23.2721
#
#
#
# Elastic Compliance Matrix: (Units=1/GPa)
#
#
# Indices 1 2 3 4 5 6 
#
# 1 0.018002 -0.006638 -0.007883 0.000000 0.000000 0.000000
# 2 -0.006638 0.011163 -0.002248 0.000000 0.000000 0.000000
# 3 -0.007883 -0.002248 0.024258 0.000000 0.000000 0.000000
# 4 0.000000 0.000000 0.000000 -0.094988 0.000000 0.000000
# 5 0.000000 0.000000 0.000000 0.000000 0.056895 0.000000
# 6 0.000000 0.000000 0.000000 0.000000 0.000000 0.042970
#
#
# Mechanical properties :
#
#
# Convention : Reuss Voigt Hill
#
# Bulk Modulus (GPa) = 50.29080 61.66500 55.97790
# Shear Modulus (GPa) = 50.77860 16.17958 33.47909
#
# Velocity S-wave (km/s) = 5.46144 3.08283 4.43459
# Velocity P-wave (km/s) = 8.32529 6.99241 7.68779
#
# Compressibility (1/GPa) = 0.01988435
#
# Stress axis : x y z
#
# Youngs Moduli (GPa) = 55.54930 89.58118 41.22342
#
# Poissons Ratio (x) = 0.59467 0.32497
# Poissons Ratio (y) = 0.36876 0.09266
# Poissons Ratio (z) = 0.43791 0.20136
#
# Static dielectric constant tensor:
#      x y z
#    x 3.116080 0.000000 0.000000 
#    y 0.000000 3.636990 0.000000 
#    z 0.000000 0.000000 2.934780 
# 
# 
# High freq. dielectric constant tensor:
#      x y z
#    x 1.650010 0.000000 0.000000 
#    y 0.000000 1.643450 0.000000 
#    z 0.000000 0.000000 1.628120 
# 
# From -- ./inp_files/7988.got.cif
#   From: 2010.03.12/outbox.cif.g09.slc.cpg/sg35_4_cif.got.tgz:7988.got - 2010.04.14 02:02:04.
