data_PCOD8172998
_publ_section_title
;
Structure prediction by ZEFSAII (Michael W. Deem and Ramdas Pophale) SiO2 
 PCOD8172998
Probable space group: C M M 2
;
_chemical_formula_sum "Si O2"
_cell_formula_units_Z 64
_cell_length_a 28.657092
_cell_length_b 8.811231
_cell_length_c 15.526716
_cell_angle_alpha 90.000000
_cell_angle_beta 90.000000
_cell_angle_gamma 90.000000
_cell_volume 3920.561893
_symmetry_space_group_name_H-M "C M M 2"
_symmetry_group_IT_number 35
_symmetry_cell_setting 'orthorhombic'
loop_
_space_group_symop_operation_xyz
x,y,z
-x,-y,z
-x,y,z
x,-y,z
1/2+x,1/2+y,z
1/2-x,1/2-y,z
1/2-x,1/2+y,z
1/2+x,1/2-y,z
loop_
_atom_site_type_symbol
_atom_site_label
_atom_site_fract_x
_atom_site_fract_y
_atom_site_fract_z
Si Si1 0.144793 0.677325 0.900760
Si Si2 0.300792 0.820990 0.074683
Si Si3 0.800306 0.824026 0.750051
Si Si4 0.551582 0.672913 0.159910
Si Si5 0.698760 0.179354 0.391293
Si Si6 0.551121 0.179290 0.980514
Si Si7 0.852699 0.176510 0.234098
Si Si8 0.699727 0.676942 0.560144
O O1 0.144785 0.500000 0.880558
O O2 0.162475 0.762851 0.817061
O O3 0.092344 0.739567 0.918860
O O4 0.177426 0.714082 0.981843
O O5 0.250000 0.750000 0.076949
O O6 0.331513 0.738110 0.145887
O O7 0.298805 0.000000 0.094078
O O8 0.750000 0.750000 0.763398
O O9 0.822516 0.794717 0.654591
O O10 0.792147 0.000000 0.766120
O O11 0.500000 0.708974 0.198783
O O12 0.554082 0.500000 0.127305
O O13 0.591221 0.701499 0.231674
O O14 0.562100 0.776842 0.078186
O O15 0.750000 0.250000 0.378647
O O16 0.666056 0.227546 0.313384
O O17 0.674235 0.239683 0.480024
O O18 0.703349 0.000000 0.393864
O O19 0.500000 0.242297 0.951493
O O20 0.551603 0.000000 0.977438
O O21 0.839495 0.000000 0.245370
O O22 0.703276 0.500000 0.538397
O O23 0.750000 0.750000 0.565116
#
# Coordination Sequence:
#
# PCOD8172998 Si02
#       8
#     8   8   8   8   8   8   8   8
#     4  10  20  32  47  69  96 127 161 197 235 281
#     4  11  22  34  45  63  93 129 166 197 230 273
#     4  10  20  32  49  71  97 128 160 197 236 280
#     4   9  18  32  50  71  93 120 156 197 240 283
#     4  11  21  33  50  71  97 127 160 196 235 281
#     4   9  17  31  50  70  93 122 157 198 242 282
#     4  11  21  33  49  69  95 127 159 195 236 280
#     4   9  17  31  49  70  94 121 156 196 239 281
#
# _framework density 16.324190999999999
#
# number of rings (size 3 to 8) (size 9 to 14) (size 15 to 20)
#    0.000    2.000    1.250    4.125    0.000    4.500 
#    0.000    0.000    0.000    0.000    0.000    0.875 
#    0.000    1.000    0.000    0.000    0.000    0.000 
#
# Total GULP energy -396639.641569 kJ/mol
# GULP energy per Si atom -12394.988799 kJ/mol
# Density = 1.628704 g / cm^3
# Si number density = 16.324191 Si / 1000 Ang^3
#
#
#
# Elastic Constant Matrix: (Units=GPa)
#
#
# Indices 1 2 3 4 5 6 
#
# 1 99.9004 34.3913 47.3465 0.0000 0.0000 0.0000
# 2 34.3913 75.8173 43.5133 0.0000 0.0000 0.0000
# 3 47.3465 43.5133 104.9964 0.0000 0.0000 0.0000
# 4 0.0000 0.0000 0.0000 25.0554 0.0000 0.0000
# 5 0.0000 0.0000 0.0000 0.0000 7.0917 0.0000
# 6 0.0000 0.0000 0.0000 0.0000 0.0000 14.0350
#
#
#
# Elastic Compliance Matrix: (Units=1/GPa)
#
#
# Indices 1 2 3 4 5 6 
#
# 1 0.013373 -0.003418 -0.004614 0.000000 0.000000 0.000000
# 2 -0.003418 0.018179 -0.005993 0.000000 0.000000 0.000000
# 3 -0.004614 -0.005993 0.014088 0.000000 0.000000 0.000000
# 4 0.000000 0.000000 0.000000 0.039912 0.000000 0.000000
# 5 0.000000 0.000000 0.000000 0.000000 0.141009 0.000000
# 6 0.000000 0.000000 0.000000 0.000000 0.000000 0.071251
#
#
# Mechanical properties :
#
#
# Convention : Reuss Voigt Hill
#
# Bulk Modulus (GPa) = 56.84572 59.02403 57.93487
# Shear Modulus (GPa) = 15.07268 19.60063 17.33666
#
# Velocity S-wave (km/s) = 3.04194 3.46889 3.26240
# Velocity P-wave (km/s) = 6.87288 7.23050 7.05396
#
# Compressibility (1/GPa) = 0.01759148
#
# Stress axis : x y z
#
# Youngs Moduli (GPa) = 74.77515 55.00717 70.98126
#
# Poissons Ratio (x) = 0.18803 0.32750
# Poissons Ratio (y) = 0.25560 0.42537
# Poissons Ratio (z) = 0.34501 0.32964
#
# Static dielectric constant tensor:
#      x y z
#    x 3.232960 0.000000 0.000000 
#    y 0.000000 3.226070 0.000000 
#    z 0.000000 0.000000 3.447220 
# 
# 
# High freq. dielectric constant tensor:
#      x y z
#    x 1.610260 0.000000 0.000000 
#    y 0.000000 1.641500 0.000000 
#    z 0.000000 0.000000 1.618750 
# 
# From -- ./inp_files/16171.got.cif
#   From: 2010.03.12/outbox.cif.g09.slc.cpg/sg35_9_cif.got.tgz:16171.got - 2010.04.14 02:02:04.
