data_PCOD8172275
_publ_section_title
;
Structure prediction by ZEFSAII (Michael W. Deem and Ramdas Pophale) SiO2 
 PCOD8172275
Probable space group: C M M 2
;
_chemical_formula_sum "Si O2"
_cell_formula_units_Z 64
_cell_length_a 8.999338
_cell_length_b 28.602911
_cell_length_c 15.722008
_cell_angle_alpha 90.000000
_cell_angle_beta 90.000000
_cell_angle_gamma 90.000000
_cell_volume 4046.959062
_symmetry_space_group_name_H-M "C M M 2"
_symmetry_group_IT_number 35
_symmetry_cell_setting 'orthorhombic'
loop_
_space_group_symop_operation_xyz
x,y,z
-x,-y,z
-x,y,z
x,-y,z
1/2+x,1/2+y,z
1/2-x,1/2-y,z
1/2-x,1/2+y,z
1/2+x,1/2-y,z
loop_
_atom_site_type_symbol
_atom_site_label
_atom_site_fract_x
_atom_site_fract_y
_atom_site_fract_z
Si Si1 0.677588 0.947474 0.441890
Si Si2 0.175092 0.606202 0.603598
Si Si3 0.673812 0.703837 0.856249
Si Si4 0.672353 0.395455 0.922948
Si Si5 0.664978 0.944352 0.256846
Si Si6 0.176027 0.703345 0.675836
Si Si7 0.825159 0.946875 0.090496
Si Si8 0.176330 0.446791 0.768485
O O1 0.500000 0.947821 0.441045
O O2 0.742478 0.913607 0.515398
O O3 0.731775 0.928942 0.348969
O O4 0.736005 0.000000 0.459888
O O5 0.214851 0.660872 0.612460
O O6 0.240787 0.577642 0.683617
O O7 0.000000 0.598394 0.602567
O O8 0.500000 0.713276 0.839861
O O9 0.750000 0.750000 0.897046
O O10 0.698351 0.660359 0.919623
O O11 0.753069 0.692309 0.767225
O O12 0.500000 0.408013 0.910133
O O13 0.763076 0.420685 0.850143
O O14 0.731037 0.414364 0.013428
O O15 0.500000 0.923769 0.244458
O O16 0.763265 0.925745 0.178709
O O17 0.660225 0.000000 0.256817
O O18 0.250000 0.750000 0.636710
O O19 0.000000 0.709791 0.686677
O O20 0.000000 0.945746 0.097843
O O21 0.768553 0.000000 0.074886
O O22 0.231929 0.500000 0.769147
O O23 0.000000 0.443391 0.770929
#
# Coordination Sequence:
#
# PCOD8172275 Si02
#       8
#     8   8   8   8   8   8   8   8
#     4   8  13  23  41  64  89 114 140 173 213 256
#     4   9  16  26  41  63  88 115 145 176 213 255
#     4  10  19  31  47  64  83 110 144 184 224 260
#     4  10  20  32  45  62  86 118 150 177 214 263
#     4   8  14  25  42  64  86 108 139 180 218 248
#     4  10  18  29  45  63  85 112 144 183 220 256
#     4   9  17  29  44  61  85 117 147 173 206 255
#     4  10  19  29  42  62  89 119 150 181 209 243
#
# _framework density 15.814342999999999
#
# number of rings (size 3 to 8) (size 9 to 14) (size 15 to 20)
#    0.000    2.750    1.250    3.000    0.000    3.250 
#    0.000    1.250    0.000    2.250    0.000    2.625 
#    0.000    6.000    0.000    0.000    0.000    0.000 
#
# Total GULP energy -396626.676273 kJ/mol
# GULP energy per Si atom -12394.583634 kJ/mol
# Density = 1.577835 g / cm^3
# Si number density = 15.814343 Si / 1000 Ang^3
#
#
#
# Elastic Constant Matrix: (Units=GPa)
#
#
# Indices 1 2 3 4 5 6 
#
# 1 37.5712 29.6547 26.4256 0.0000 0.0000 0.0000
# 2 29.6547 105.8226 67.7004 0.0000 0.0000 0.0000
# 3 26.4256 67.7004 138.6900 0.0000 0.0000 0.0000
# 4 0.0000 0.0000 0.0000 12.1667 0.0000 0.0000
# 5 0.0000 0.0000 0.0000 0.0000 12.2478 0.0000
# 6 0.0000 0.0000 0.0000 0.0000 0.0000 16.7284
#
#
#
# Elastic Compliance Matrix: (Units=1/GPa)
#
#
# Indices 1 2 3 4 5 6 
#
# 1 0.034869 -0.008028 -0.002725 0.000000 0.000000 0.000000
# 2 -0.008028 0.015589 -0.006080 0.000000 0.000000 0.000000
# 3 -0.002725 -0.006080 0.010698 0.000000 0.000000 0.000000
# 4 0.000000 0.000000 0.000000 0.082192 0.000000 0.000000
# 5 0.000000 0.000000 0.000000 0.000000 0.081647 0.000000
# 6 0.000000 0.000000 0.000000 0.000000 0.000000 0.059779
#
#
# Mechanical properties :
#
#
# Convention : Reuss Voigt Hill
#
# Bulk Modulus (GPa) = 36.37747 58.84947 47.61347
# Shear Modulus (GPa) = 15.26237 18.78212 17.02224
#
# Velocity S-wave (km/s) = 3.10997 3.44999 3.28438
# Velocity P-wave (km/s) = 5.99572 7.29132 6.67503
#
# Compressibility (1/GPa) = 0.02748954
#
# Stress axis : x y z
#
# Youngs Moduli (GPa) = 28.67854 64.14667 93.47961
#
# Poissons Ratio (x) = 0.51497 0.25474
# Poissons Ratio (y) = 0.23023 0.56837
# Poissons Ratio (z) = 0.07815 0.39002
#
# Static dielectric constant tensor:
#      x y z
#    x 2.855040 0.000000 0.000000 
#    y 0.000000 3.103110 0.000000 
#    z 0.000000 0.000000 3.213450 
# 
# 
# High freq. dielectric constant tensor:
#      x y z
#    x 1.587800 0.000000 0.000000 
#    y 0.000000 1.591680 0.000000 
#    z 0.000000 0.000000 1.598380 
# 
# From -- ./inp_files/16130.got.cif
#   From: 2010.03.12/outbox.cif.g09.slc.cpg/sg35_9_cif.got.tgz:16130.got - 2010.04.14 02:02:04.
