data_PCOD8172144
_publ_section_title
;
Structure prediction by ZEFSAII (Michael W. Deem and Ramdas Pophale) SiO2 
 PCOD8172144
Probable space group: P N N 2
;
_chemical_formula_sum "Si O2"
_cell_formula_units_Z 22
_cell_length_a 30.869488
_cell_length_b 5.071250
_cell_length_c 5.179712
_cell_angle_alpha 90.000000
_cell_angle_beta 90.000000
_cell_angle_gamma 90.000000
_cell_volume 810.867810
_symmetry_space_group_name_H-M "P N N 2"
_symmetry_group_IT_number 34
_symmetry_cell_setting 'orthorhombic'
loop_
_space_group_symop_operation_xyz
x,y,z
-x,-y,z
1/2-x,1/2+y,1/2+z
1/2+x,1/2-y,1/2+z
loop_
_atom_site_type_symbol
_atom_site_label
_atom_site_fract_x
_atom_site_fract_y
_atom_site_fract_z
Si Si1 0.793731 0.625067 0.627520
Si Si2 0.500000 0.000000 0.240161
Si Si3 0.424817 0.673789 0.463860
Si Si4 0.360699 0.015596 0.745064
Si Si5 0.302122 0.373870 0.445006
Si Si6 0.567841 0.664858 0.972872
O O1 0.822737 0.666010 0.370890
O O2 0.743259 0.676614 0.587042
O O3 0.802677 0.323534 0.702584
O O4 0.808371 0.826872 0.851592
O O5 0.465197 0.868769 0.428642
O O6 0.521308 0.780031 0.055322
O O7 0.414472 0.523835 0.198018
O O8 0.381936 0.842447 0.519845
O O9 0.436802 0.478883 0.698295
O O10 0.341325 0.289736 0.632497
O O11 0.397867 0.094804 0.950420
#
# Coordination Sequence:
#
# PCOD8172144 Si02
#       6
#     4   2   4   4   4   4
#     4  12  29  52  83 122 170 233 297 366 440 521
#     4  12  30  58  84 132 164 234 290 362 454 534
#     4  12  31  54  86 125 175 227 291 367 445 538
#     4  12  32  49  82 124 174 226 302 357 452 514
#     4  12  29  52  83 122 170 233 297 366 440 521
#     4  12  31  54  86 125 175 227 291 367 445 538
#
# _framework density 27.131430999999999
#
# number of rings (size 3 to 8) (size 9 to 14) (size 15 to 20)
#    0.000    0.000    1.818    3.818   12.727   10.909 
#    0.000    0.000    0.000    0.000    0.000    0.000 
#    0.000    0.000    0.000    0.000    0.000    0.000 
#
# Total GULP energy -273013.196337 kJ/mol
# GULP energy per Si atom -12409.690743 kJ/mol
# Density = 2.706968 g / cm^3
# Si number density = 27.131431 Si / 1000 Ang^3
#
#
#
# Elastic Constant Matrix: (Units=GPa)
#
#
# Indices 1 2 3 4 5 6 
#
# 1 119.6280 10.2478 19.2892 0.0000 0.0000 0.0000
# 2 10.2478 80.1339 11.6092 0.0000 0.0000 0.0000
# 3 19.2892 11.6092 95.7803 0.0000 0.0000 0.0000
# 4 0.0000 0.0000 0.0000 55.4405 0.0000 0.0000
# 5 0.0000 0.0000 0.0000 0.0000 54.0476 0.0000
# 6 0.0000 0.0000 0.0000 0.0000 0.0000 43.3020
#
#
#
# Elastic Compliance Matrix: (Units=1/GPa)
#
#
# Indices 1 2 3 4 5 6 
#
# 1 0.008700 -0.000874 -0.001646 0.000000 0.000000 0.000000
# 2 -0.000874 0.012790 -0.001374 0.000000 0.000000 0.000000
# 3 -0.001646 -0.001374 0.010939 0.000000 0.000000 0.000000
# 4 0.000000 0.000000 0.000000 0.018037 0.000000 0.000000
# 5 0.000000 0.000000 0.000000 0.000000 0.018502 0.000000
# 6 0.000000 0.000000 0.000000 0.000000 0.000000 0.023094
#
#
# Mechanical properties :
#
#
# Convention : Reuss Voigt Hill
#
# Bulk Modulus (GPa) = 40.58524 41.98161 41.28342
# Shear Modulus (GPa) = 46.26926 47.51776 46.89351
#
# Velocity S-wave (km/s) = 4.13410 4.18950 4.16189
# Velocity P-wave (km/s) = 6.14646 6.23776 6.19227
#
# Compressibility (1/GPa) = 0.02463950
#
# Stress axis : x y z
#
# Youngs Moduli (GPa) = 114.94859 78.18624 91.41919
#
# Poissons Ratio (x) = 0.06834 0.15048
# Poissons Ratio (y) = 0.10047 0.12563
# Poissons Ratio (z) = 0.18921 0.10744
#
# Static dielectric constant tensor:
#      x y z
#    x 5.077560 0.000000 0.000000 
#    y 0.000000 4.974970 0.000000 
#    z 0.000000 0.000000 4.825540 
# 
# 
# High freq. dielectric constant tensor:
#      x y z
#    x 2.112730 0.000000 0.000000 
#    y 0.000000 2.100490 0.000000 
#    z 0.000000 0.000000 2.097750 
# 
# From -- ./inp_files/1799.got.cif
#   From: 2010.03.12/outbox.cif.g09.slc.cpg/sg34_1_cif.got.tgz:1799.got - 2010.04.14 01:56:33.
