data_PCOD8172077
_publ_section_title
;
Structure prediction by ZEFSAII (Michael W. Deem and Ramdas Pophale) SiO2 
 PCOD8172077
Probable space group: P N N 2
;
_chemical_formula_sum "Si O2"
_cell_formula_units_Z 14
_cell_length_a 5.150784
_cell_length_b 5.590443
_cell_length_c 19.248491
_cell_angle_alpha 90.000000
_cell_angle_beta 90.000000
_cell_angle_gamma 90.000000
_cell_volume 554.263462
_symmetry_space_group_name_H-M "P N N 2"
_symmetry_group_IT_number 34
_symmetry_cell_setting 'orthorhombic'
loop_
_space_group_symop_operation_xyz
x,y,z
-x,-y,z
1/2-x,1/2+y,1/2+z
1/2+x,1/2-y,1/2+z
loop_
_atom_site_type_symbol
_atom_site_label
_atom_site_fract_x
_atom_site_fract_y
_atom_site_fract_z
Si Si1 0.761024 0.154118 0.164630
Si Si2 0.346401 0.750455 0.314766
Si Si3 0.000000 0.500000 0.064685
Si Si4 0.242165 0.651049 0.461264
O O1 0.816443 0.241907 0.243361
O O2 0.779230 0.374972 0.111999
O O3 0.500000 0.000000 0.157314
O O4 0.000000 0.000000 0.138099
O O5 0.500000 0.500000 0.310485
O O6 0.166926 0.750566 0.384125
O O7 0.500000 0.000000 0.318512
O O8 0.193856 0.352244 0.016319
O O9 0.500000 0.500000 0.450751
O O10 0.000000 0.500000 0.490702
#
# Coordination Sequence:
#
# PCOD8172077 Si02
#       4
#     4   4   2   4
#     4  11  29  49  80 116 158 208 274 333 412 488
#     4  10  24  51  83 118 158 210 276 343 403 494
#     4  12  28  52  78 118 164 224 260 358 406 506
#     4  11  27  50  78 114 159 210 272 332 412 491
#
# _framework density 25.258747
#
# number of rings (size 3 to 8) (size 9 to 14) (size 15 to 20)
#    0.000    1.143    1.429    0.857   10.000   12.571 
#    0.000    0.000    0.000    0.000    0.000    0.000 
#    0.000    0.000    0.000    0.000    0.000    0.000 
#
# Total GULP energy -173460.294717 kJ/mol
# GULP energy per Si atom -12390.021051 kJ/mol
# Density = 2.520126 g / cm^3
# Si number density = 25.258747 Si / 1000 Ang^3
#
#
#
# Elastic Constant Matrix: (Units=GPa)
#
#
# Indices 1 2 3 4 5 6 
#
# 1 143.4389 54.8652 49.3887 0.0000 0.0000 0.0000
# 2 54.8652 162.7328 75.4496 0.0000 0.0000 0.0000
# 3 49.3887 75.4496 227.4300 0.0000 0.0000 0.0000
# 4 0.0000 0.0000 0.0000 73.7867 0.0000 0.0000
# 5 0.0000 0.0000 0.0000 0.0000 98.1131 0.0000
# 6 0.0000 0.0000 0.0000 0.0000 0.0000 37.8148
#
#
#
# Elastic Compliance Matrix: (Units=1/GPa)
#
#
# Indices 1 2 3 4 5 6 
#
# 1 0.008199 -0.002291 -0.001020 0.000000 0.000000 0.000000
# 2 -0.002291 0.007902 -0.002124 0.000000 0.000000 0.000000
# 3 -0.001020 -0.002124 0.005323 0.000000 0.000000 0.000000
# 4 0.000000 0.000000 0.000000 0.013553 0.000000 0.000000
# 5 0.000000 0.000000 0.000000 0.000000 0.010192 0.000000
# 6 0.000000 0.000000 0.000000 0.000000 0.000000 0.026445
#
#
# Mechanical properties :
#
#
# Convention : Reuss Voigt Hill
#
# Bulk Modulus (GPa) = 94.75608 99.22317 96.98962
# Shear Modulus (GPa) = 58.13697 65.53613 61.83655
#
# Velocity S-wave (km/s) = 4.80276 5.09924 4.95322
# Velocity P-wave (km/s) = 8.26747 8.60451 8.43767
#
# Compressibility (1/GPa) = 0.01055341
#
# Stress axis : x y z
#
# Youngs Moduli (GPa) = 121.96041 126.54503 187.85718
#
# Poissons Ratio (x) = 0.28995 0.19170
# Poissons Ratio (y) = 0.27945 0.39901
# Poissons Ratio (z) = 0.12445 0.26878
#
# Static dielectric constant tensor:
#      x y z
#    x 3.835580 0.000000 0.000000 
#    y 0.000000 4.899400 0.000000 
#    z 0.000000 0.000000 5.467210 
# 
# 
# High freq. dielectric constant tensor:
#      x y z
#    x 1.979750 0.000000 0.000000 
#    y 0.000000 2.023550 0.000000 
#    z 0.000000 0.000000 2.050360 
# 
# From -- ./inp_files/7836.got.cif
#   From: 2010.03.12/outbox.cif.g09.slc.cpg/sg34_4_cif.got.tgz:7836.got - 2010.04.14 01:56:33.
