data_PCOD8172926
_publ_section_title
;
Structure prediction by ZEFSAII (Michael W. Deem and Ramdas Pophale) SiO2 
 PCOD8172926
Probable space group: C M M 2
;
_chemical_formula_sum "Si O2"
_cell_formula_units_Z 64
_cell_length_a 9.296865
_cell_length_b 30.695553
_cell_length_c 11.944704
_cell_angle_alpha 90.000000
_cell_angle_beta 90.000000
_cell_angle_gamma 90.000000
_cell_volume 3408.688995
_symmetry_space_group_name_H-M "C M M 2"
_symmetry_group_IT_number 35
_symmetry_cell_setting 'orthorhombic'
loop_
_space_group_symop_operation_xyz
x,y,z
-x,-y,z
-x,y,z
x,-y,z
1/2+x,1/2+y,z
1/2-x,1/2-y,z
1/2-x,1/2+y,z
1/2+x,1/2-y,z
loop_
_atom_site_type_symbol
_atom_site_label
_atom_site_fract_x
_atom_site_fract_y
_atom_site_fract_z
Si Si1 0.170598 0.375488 0.682190
Si Si2 0.165629 0.450899 0.842699
Si Si3 0.666643 0.792752 0.296542
Si Si4 0.334701 0.450079 0.296352
Si Si5 0.170922 0.622260 0.429537
Si Si6 0.335358 0.829599 0.057800
Si Si7 0.331703 0.581620 0.051556
Si Si8 0.333248 0.207387 0.818466
O O1 0.224941 0.418626 0.746706
O O2 0.230260 0.375478 0.556132
O O3 0.228581 0.333280 0.748039
O O4 0.000000 0.374703 0.680078
O O5 0.181884 0.500000 0.797267
O O6 0.000000 0.439704 0.871110
O O7 0.256998 0.445916 0.954669
O O8 0.500000 0.784829 0.321574
O O9 0.750000 0.750000 0.337728
O O10 0.723564 0.834442 0.365409
O O11 0.696832 0.800191 0.165556
O O12 0.500000 0.437815 0.319761
O O13 0.302609 0.500000 0.327557
O O14 0.234815 0.420361 0.372499
O O15 0.297899 0.443019 0.166515
O O16 0.000000 0.618091 0.424120
O O17 0.500000 0.846763 0.058907
O O18 0.229255 0.869979 0.057243
O O19 0.305445 0.800364 0.949538
O O20 0.500000 0.584250 0.026227
O O21 0.500000 0.214659 0.792530
O O22 0.250000 0.250000 0.778125
#
# Coordination Sequence:
#
# PCOD8172926 Si02
#       8
#     8   8   8   8   8   8   8   8
#     4   9  19  37  58  81 111 145 184 233 279 315
#     4  10  20  36  59  83 110 147 186 224 275 335
#     4  10  21  35  55  83 114 145 183 229 277 331
#     4  10  22  39  57  81 115 150 181 223 284 340
#     4  10  21  38  60  84 109 144 194 239 271 318
#     4  10  19  35  57  81 111 146 183 227 278 332
#     4  11  21  34  57  85 115 146 179 225 279 334
#     4  10  20  35  56  80 112 146 179 225 276 329
#
# _framework density 18.775545999999999
#
# number of rings (size 3 to 8) (size 9 to 14) (size 15 to 20)
#    0.000    2.000    2.500    1.125    0.000    4.000 
#    0.000    2.500    0.000    0.000    0.000    0.000 
#    0.000    0.000    0.000    0.000    0.000    0.000 
#
# Total GULP energy -396897.137773 kJ/mol
# GULP energy per Si atom -12403.035555 kJ/mol
# Density = 1.873281 g / cm^3
# Si number density = 18.775546 Si / 1000 Ang^3
#
#
#
# Elastic Constant Matrix: (Units=GPa)
#
#
# Indices 1 2 3 4 5 6 
#
# 1 49.7347 46.4458 39.8225 0.0000 0.0000 0.0000
# 2 46.4458 148.6014 66.0988 0.0000 0.0000 0.0000
# 3 39.8225 66.0988 135.6901 0.0000 0.0000 0.0000
# 4 0.0000 0.0000 0.0000 19.3938 0.0000 0.0000
# 5 0.0000 0.0000 0.0000 0.0000 13.0493 0.0000
# 6 0.0000 0.0000 0.0000 0.0000 0.0000 33.6977
#
#
#
# Elastic Compliance Matrix: (Units=1/GPa)
#
#
# Indices 1 2 3 4 5 6 
#
# 1 0.031483 -0.007315 -0.005676 0.000000 0.000000 0.000000
# 2 -0.007315 0.010291 -0.002866 0.000000 0.000000 0.000000
# 3 -0.005676 -0.002866 0.010432 0.000000 0.000000 0.000000
# 4 0.000000 0.000000 0.000000 0.051563 0.000000 0.000000
# 5 0.000000 0.000000 0.000000 0.000000 0.076633 0.000000
# 6 0.000000 0.000000 0.000000 0.000000 0.000000 0.029676
#
#
# Mechanical properties :
#
#
# Convention : Reuss Voigt Hill
#
# Bulk Modulus (GPa) = 48.80307 70.97337 59.88822
# Shear Modulus (GPa) = 20.11087 25.33877 22.72482
#
# Velocity S-wave (km/s) = 3.27635 3.67762 3.48277
# Velocity P-wave (km/s) = 6.35310 7.47772 6.93823
#
# Compressibility (1/GPa) = 0.02049051
#
# Stress axis : x y z
#
# Youngs Moduli (GPa) = 31.76294 97.17557 95.86172
#
# Poissons Ratio (x) = 0.71087 0.54413
# Poissons Ratio (y) = 0.23236 0.27474
# Poissons Ratio (z) = 0.18029 0.27850
#
# Static dielectric constant tensor:
#      x y z
#    x 3.269780 0.000000 0.000000 
#    y 0.000000 3.449780 0.000000 
#    z 0.000000 0.000000 3.596610 
# 
# 
# High freq. dielectric constant tensor:
#      x y z
#    x 1.708740 0.000000 0.000000 
#    y 0.000000 1.739170 0.000000 
#    z 0.000000 0.000000 1.730120 
# 
# From -- ./inp_files/11845.got.cif
#   From: 2010.03.12/outbox.cif.g09.slc.cpg/sg35_6_cif.got.tgz:11845.got - 2010.04.14 02:02:04.
