data_PCOD8172580
_publ_section_title
;
Structure prediction by ZEFSAII (Michael W. Deem and Ramdas Pophale) SiO2 
 PCOD8172580
Probable space group: C M M 2
;
_chemical_formula_sum "Si O2"
_cell_formula_units_Z 56
_cell_length_a 17.498174
_cell_length_b 15.689268
_cell_length_c 11.317348
_cell_angle_alpha 90.000000
_cell_angle_beta 90.000000
_cell_angle_gamma 90.000000
_cell_volume 3106.991626
_symmetry_space_group_name_H-M "C M M 2"
_symmetry_group_IT_number 35
_symmetry_cell_setting 'orthorhombic'
loop_
_space_group_symop_operation_xyz
x,y,z
-x,-y,z
-x,y,z
x,-y,z
1/2+x,1/2+y,z
1/2-x,1/2-y,z
1/2-x,1/2+y,z
1/2+x,1/2-y,z
loop_
_atom_site_type_symbol
_atom_site_label
_atom_site_fract_x
_atom_site_fract_y
_atom_site_fract_z
Si Si1 0.233826 0.594716 0.964250
Si Si2 0.586082 0.243023 0.740204
Si Si3 0.799701 0.403950 0.701806
Si Si4 0.585940 0.600282 0.345745
Si Si5 0.820945 0.801265 0.156162
Si Si6 0.142482 0.902072 0.602443
Si Si7 0.086069 0.686441 0.000869
O O1 0.257263 0.500000 0.999702
O O2 0.244976 0.612067 0.825220
O O3 0.143921 0.607126 0.993747
O O4 0.288420 0.655926 0.037438
O O5 0.500000 0.222936 0.700475
O O6 0.636818 0.168218 0.680195
O O7 0.608409 0.337581 0.698727
O O8 0.593598 0.242282 0.881725
O O9 0.835926 0.500000 0.701067
O O10 0.734814 0.396099 0.601461
O O11 0.500000 0.634959 0.323208
O O12 0.587511 0.500000 0.333261
O O13 0.646302 0.634484 0.251525
O O14 0.612422 0.628191 0.475575
O O15 0.750000 0.750000 0.214822
O O16 0.890961 0.742438 0.114325
O O17 0.116795 0.000000 0.630935
O O18 0.000000 0.652097 0.018047
#
# Coordination Sequence:
#
# PCOD8172580 Si02
#       7
#     8   8   8   8   8   8   8
#     4   9  17  30  49  72  97 125 157 192 231 277
#     4  10  19  31  50  74 101 131 159 195 241 284
#     4   9  18  32  51  74  99 129 162 197 236 281
#     4  10  21  36  52  69  92 123 159 200 241 282
#     4  10  19  31  49  72  96 123 156 194 236 281
#     4  10  20  34  51  70  94 126 164 202 241 288
#     4   9  18  31  47  70  99 128 157 190 231 281
#
# _framework density 18.023865000000001
#
# number of rings (size 3 to 8) (size 9 to 14) (size 15 to 20)
#    0.000    2.429    0.000    2.571    0.000    4.857 
#    0.000    3.571    0.000    1.714    0.000    0.000 
#    0.000    6.857    0.000    0.000    0.000    0.000 
#
# Total GULP energy -347097.944202 kJ/mol
# GULP energy per Si atom -12396.355150 kJ/mol
# Density = 1.798284 g / cm^3
# Si number density = 18.023865 Si / 1000 Ang^3
#
#
#
# Elastic Constant Matrix: (Units=GPa)
#
#
# Indices 1 2 3 4 5 6 
#
# 1 102.6225 26.8513 29.4989 0.0000 0.0000 0.0000
# 2 26.8513 64.5050 22.0487 0.0000 0.0000 0.0000
# 3 29.4989 22.0487 47.0923 0.0000 0.0000 0.0000
# 4 0.0000 0.0000 0.0000 25.1025 0.0000 0.0000
# 5 0.0000 0.0000 0.0000 0.0000 24.9286 0.0000
# 6 0.0000 0.0000 0.0000 0.0000 0.0000 24.6772
#
#
#
# Elastic Compliance Matrix: (Units=1/GPa)
#
#
# Indices 1 2 3 4 5 6 
#
# 1 0.012345 -0.002971 -0.006342 0.000000 0.000000 0.000000
# 2 -0.002971 0.019171 -0.007115 0.000000 0.000000 0.000000
# 3 -0.006342 -0.007115 0.028539 0.000000 0.000000 0.000000
# 4 0.000000 0.000000 0.000000 0.039837 0.000000 0.000000
# 5 0.000000 0.000000 0.000000 0.000000 0.040115 0.000000
# 6 0.000000 0.000000 0.000000 0.000000 0.000000 0.040523
#
#
# Mechanical properties :
#
#
# Convention : Reuss Voigt Hill
#
# Bulk Modulus (GPa) = 36.76577 41.22417 38.99497
# Shear Modulus (GPa) = 22.47681 23.99639 23.23660
#
# Velocity S-wave (km/s) = 3.53520 3.65275 3.59446
# Velocity P-wave (km/s) = 6.09149 6.38058 6.23771
#
# Compressibility (1/GPa) = 0.02719921
#
# Stress axis : x y z
#
# Youngs Moduli (GPa) = 81.00596 52.16101 35.04009
#
# Poissons Ratio (x) = 0.15497 0.22222
# Poissons Ratio (y) = 0.24067 0.24931
# Poissons Ratio (z) = 0.51373 0.37113
#
# Static dielectric constant tensor:
#      x y z
#    x 3.432010 0.000000 0.000000 
#    y 0.000000 3.292560 0.000000 
#    z 0.000000 0.000000 3.137180 
# 
# 
# High freq. dielectric constant tensor:
#      x y z
#    x 1.703330 0.000000 0.000000 
#    y 0.000000 1.694450 0.000000 
#    z 0.000000 0.000000 1.675310 
# 
# From -- ./inp_files/13636.got.cif
#   From: 2010.03.12/outbox.cif.g09.slc.cpg/sg35_7_cif.got.tgz:13636.got - 2010.04.14 02:02:04.
