data_PCOD8172815
_publ_section_title
;
Structure prediction by ZEFSAII (Michael W. Deem and Ramdas Pophale) SiO2 
 PCOD8172815
Probable space group: C M M 2
;
_chemical_formula_sum "Si O2"
_cell_formula_units_Z 64
_cell_length_a 18.078961
_cell_length_b 25.599390
_cell_length_c 7.687690
_cell_angle_alpha 90.000000
_cell_angle_beta 90.000000
_cell_angle_gamma 90.000000
_cell_volume 3557.942680
_symmetry_space_group_name_H-M "C M M 2"
_symmetry_group_IT_number 35
_symmetry_cell_setting 'orthorhombic'
loop_
_space_group_symop_operation_xyz
x,y,z
-x,-y,z
-x,y,z
x,-y,z
1/2+x,1/2+y,z
1/2-x,1/2-y,z
1/2-x,1/2+y,z
1/2+x,1/2-y,z
loop_
_atom_site_type_symbol
_atom_site_label
_atom_site_fract_x
_atom_site_fract_y
_atom_site_fract_z
Si Si1 0.582134 0.368874 0.871080
Si Si2 0.231988 0.810361 0.871080
Si Si3 0.636485 0.560272 0.570721
Si Si4 0.219494 0.379027 0.562739
Si Si5 0.416498 0.059053 0.073820
Si Si6 0.280506 0.879027 0.179421
Si Si7 0.636485 0.439728 0.171438
Si Si8 0.416498 0.940947 0.668340
O O1 0.500000 0.343435 0.871080
O O2 0.643947 0.323102 0.871080
O O3 0.587900 0.404446 0.698771
O O4 0.587900 0.404446 0.043388
O O5 0.250000 0.750000 0.871080
O O6 0.270834 0.833156 0.700460
O O7 0.270834 0.833156 0.041700
O O8 0.625202 0.500000 0.620418
O O9 0.722496 0.574417 0.600093
O O10 0.612115 0.570778 0.371080
O O11 0.232711 0.355018 0.371080
O O12 0.137651 0.402656 0.566774
O O13 0.500000 0.077936 0.110003
O O14 0.362349 0.097344 0.175386
O O15 0.406275 0.000000 0.141658
O O16 0.397635 0.061753 0.871080
O O17 0.222496 0.925583 0.142067
O O18 0.625202 0.500000 0.121741
O O19 0.500000 0.922064 0.632157
O O20 0.406275 0.000000 0.600502
#
# Coordination Sequence:
#
# PCOD8172815 Si02
#       8
#     8   8   8   8   8   8   8   8
#     4  10  21  36  54  77 102 132 168 206 251 305
#     4  10  22  41  59  75  97 129 172 221 275 313
#     4   9  18  31  49  77 110 141 170 199 237 295
#     4  10  19  33  54  77 102 136 177 218 259 308
#     4   9  17  29  47  75 112 149 178 207 251 307
#     4  10  19  33  54  77 102 136 177 218 259 308
#     4   9  18  31  49  77 110 141 170 199 237 295
#     4   9  17  29  47  75 112 149 178 207 251 307
#
# _framework density 17.987922999999999
#
# number of rings (size 3 to 8) (size 9 to 14) (size 15 to 20)
#    0.000    2.500    1.250    1.875    0.000    4.000 
#    0.000    3.750    0.000    0.000    0.000    0.000 
#    0.000    0.000    0.000    0.000    0.000    0.000 
#
# Total GULP energy -396761.888868 kJ/mol
# GULP energy per Si atom -12398.809027 kJ/mol
# Density = 1.794698 g / cm^3
# Si number density = 17.987923 Si / 1000 Ang^3
#
#
#
# Elastic Constant Matrix: (Units=GPa)
#
#
# Indices 1 2 3 4 5 6 
#
# 1 111.4565 44.8346 37.7488 0.0000 0.0000 0.0000
# 2 44.8346 100.7497 48.4045 0.0000 0.0000 0.0000
# 3 37.7488 48.4045 103.3725 0.0000 0.0000 0.0000
# 4 0.0000 0.0000 0.0000 2.7708 0.0000 0.0000
# 5 0.0000 0.0000 0.0000 0.0000 18.8368 0.0000
# 6 0.0000 0.0000 0.0000 0.0000 0.0000 15.4179
#
#
#
# Elastic Compliance Matrix: (Units=1/GPa)
#
#
# Indices 1 2 3 4 5 6 
#
# 1 0.011335 -0.003942 -0.002293 0.000000 0.000000 0.000000
# 2 -0.003942 0.014178 -0.005199 0.000000 0.000000 0.000000
# 3 -0.002293 -0.005199 0.012946 0.000000 0.000000 0.000000
# 4 0.000000 0.000000 0.000000 0.360900 0.000000 0.000000
# 5 0.000000 0.000000 0.000000 0.000000 0.053087 0.000000
# 6 0.000000 0.000000 0.000000 0.000000 0.000000 0.064860
#
#
# Mechanical properties :
#
#
# Convention : Reuss Voigt Hill
#
# Bulk Modulus (GPa) = 64.14809 64.17273 64.16041
# Shear Modulus (GPa) = 9.16807 19.71118 14.43962
#
# Velocity S-wave (km/s) = 2.26006 3.31388 2.83634
# Velocity P-wave (km/s) = 6.52301 7.09896 6.81707
#
# Compressibility (1/GPa) = 0.01558893
#
# Stress axis : x y z
#
# Youngs Moduli (GPa) = 88.22565 70.53243 77.24583
#
# Poissons Ratio (x) = 0.27806 0.17713
# Poissons Ratio (y) = 0.34781 0.40162
# Poissons Ratio (z) = 0.20231 0.36671
#
# Static dielectric constant tensor:
#      x y z
#    x 3.308150 0.000000 0.000000 
#    y 0.000000 2.885570 0.000000 
#    z 0.000000 0.000000 3.622160 
# 
# 
# High freq. dielectric constant tensor:
#      x y z
#    x 1.696950 0.000000 0.000000 
#    y 0.000000 1.648890 0.000000 
#    z 0.000000 0.000000 1.712610 
# 
# From -- ./inp_files/8856.got.cif
#   From: 2010.03.12/outbox.cif.g09.slc.cpg/sg35_5_cif.got.tgz:8856.got - 2010.04.14 02:02:04.
