data_PCOD8172297
_publ_section_title
;
Structure prediction by ZEFSAII (Michael W. Deem and Ramdas Pophale) SiO2 
 PCOD8172297
Probable space group: C M M 2
;
_chemical_formula_sum "Si O2"
_cell_formula_units_Z 48
_cell_length_a 15.689375
_cell_length_b 8.506185
_cell_length_c 17.323385
_cell_angle_alpha 90.000000
_cell_angle_beta 90.000000
_cell_angle_gamma 90.000000
_cell_volume 2311.922250
_symmetry_space_group_name_H-M "C M M 2"
_symmetry_group_IT_number 35
_symmetry_cell_setting 'orthorhombic'
loop_
_space_group_symop_operation_xyz
x,y,z
-x,-y,z
-x,y,z
x,-y,z
1/2+x,1/2+y,z
1/2-x,1/2-y,z
1/2-x,1/2+y,z
1/2+x,1/2-y,z
loop_
_atom_site_type_symbol
_atom_site_label
_atom_site_fract_x
_atom_site_fract_y
_atom_site_fract_z
Si Si1 0.655706 0.186664 0.825350
Si Si2 0.154352 0.314030 0.140108
Si Si3 0.500000 0.684229 0.236187
Si Si4 0.845141 0.186078 0.980218
Si Si5 0.904795 0.685396 0.662570
Si Si6 0.000000 0.313103 0.404666
Si Si7 0.161760 0.314181 0.503970
O O1 0.750000 0.250000 0.828953
O O2 0.616838 0.257901 0.746397
O O3 0.651752 0.000000 0.827105
O O4 0.607331 0.252364 0.902169
O O5 0.160613 0.500000 0.139463
O O6 0.250000 0.250000 0.156728
O O7 0.114457 0.253643 0.058788
O O8 0.087139 0.259756 0.204198
O O9 0.500000 0.500000 0.218366
O O10 0.500000 0.716099 0.326627
O O11 0.750000 0.250000 0.978495
O O12 0.847718 0.000000 0.982679
O O13 0.893489 0.500000 0.669203
O O14 0.847635 0.751215 0.592130
O O15 0.000000 0.732102 0.640349
O O16 0.916642 0.258083 0.451719
O O17 0.000000 0.500000 0.389369
O O18 0.163224 0.500000 0.505510
O O19 0.250000 0.250000 0.468841
#
# Coordination Sequence:
#
# PCOD8172297 Si02
#       7
#     8   8   4   8   8   4   8
#     4  10  18  29  49  76 109 148 197 248 295 350
#     4  11  22  41  67  95 126 163 207 253 307 368
#     4  12  26  44  66  95 128 161 200 251 306 369
#     4  10  18  32  54  80 115 156 200 249 301 354
#     4   9  17  32  53  78 110 152 198 245 293 351
#     4  10  22  42  64  87 120 159 196 241 298 369
#     4  10  20  37  63  89 117 154 199 244 298 358
#
# _framework density 20.761945000000001
#
# number of rings (size 3 to 8) (size 9 to 14) (size 15 to 20)
#    0.000    1.833    0.833    6.750    0.000    1.333 
#    1.500    2.500    0.000    3.500    0.000    0.000 
#    0.000    0.000    0.000    0.000    0.000    0.000 
#
# Total GULP energy -297447.049455 kJ/mol
# GULP energy per Si atom -12393.627061 kJ/mol
# Density = 2.071469 g / cm^3
# Si number density = 20.761945 Si / 1000 Ang^3
#
#
#
# Elastic Constant Matrix: (Units=GPa)
#
#
# Indices 1 2 3 4 5 6 
#
# 1 104.1741 25.2883 64.4515 0.0000 0.0000 0.0000
# 2 25.2883 112.7024 45.5084 0.0000 0.0000 0.0000
# 3 64.4515 45.5084 161.3267 0.0000 0.0000 0.0000
# 4 0.0000 0.0000 0.0000 29.0131 0.0000 0.0000
# 5 0.0000 0.0000 0.0000 0.0000 21.2678 0.0000
# 6 0.0000 0.0000 0.0000 0.0000 0.0000 24.6784
#
#
#
# Elastic Compliance Matrix: (Units=1/GPa)
#
#
# Indices 1 2 3 4 5 6 
#
# 1 0.012834 -0.000913 -0.004870 0.000000 0.000000 0.000000
# 2 -0.000913 0.010079 -0.002478 0.000000 0.000000 0.000000
# 3 -0.004870 -0.002478 0.008843 0.000000 0.000000 0.000000
# 4 0.000000 0.000000 0.000000 0.034467 0.000000 0.000000
# 5 0.000000 0.000000 0.000000 0.000000 0.047019 0.000000
# 6 0.000000 0.000000 0.000000 0.000000 0.000000 0.040521
#
#
# Mechanical properties :
#
#
# Convention : Reuss Voigt Hill
#
# Bulk Modulus (GPa) = 65.64583 72.07776 68.86179
# Shear Modulus (GPa) = 28.51227 31.18888 29.85057
#
# Velocity S-wave (km/s) = 3.70982 3.88004 3.79589
# Velocity P-wave (km/s) = 7.07371 7.40707 7.24231
#
# Compressibility (1/GPa) = 0.01523326
#
# Stress axis : x y z
#
# Youngs Moduli (GPa) = 77.91935 99.22094 113.08262
#
# Poissons Ratio (x) = 0.09062 0.55066
# Poissons Ratio (y) = 0.07117 0.28023
# Poissons Ratio (z) = 0.37943 0.24588
#
# Static dielectric constant tensor:
#      x y z
#    x 3.962060 0.000000 0.000000 
#    y 0.000000 3.529440 0.000000 
#    z 0.000000 0.000000 4.681420 
# 
# 
# High freq. dielectric constant tensor:
#      x y z
#    x 1.799200 0.000000 0.000000 
#    y 0.000000 1.797750 0.000000 
#    z 0.000000 0.000000 1.830570 
# 
# From -- ./inp_files/17118.got.cif
#   From: 2010.03.12/outbox.cif.g09.slc.cpg/sg35_9_cif.got.tgz:17118.got - 2010.04.14 02:02:04.
