data_PCOD8172066
_publ_section_title
;
Structure prediction by ZEFSAII (Michael W. Deem and Ramdas Pophale) SiO2 
 PCOD8172066
Probable space group: P N N 2
;
_chemical_formula_sum "Si O2"
_cell_formula_units_Z 30
_cell_length_a 11.489262
_cell_length_b 14.886179
_cell_length_c 7.609902
_cell_angle_alpha 90.000000
_cell_angle_beta 90.000000
_cell_angle_gamma 90.000000
_cell_volume 1301.530752
_symmetry_space_group_name_H-M "P N N 2"
_symmetry_group_IT_number 34
_symmetry_cell_setting 'orthorhombic'
loop_
_space_group_symop_operation_xyz
x,y,z
-x,-y,z
1/2-x,1/2+y,1/2+z
1/2+x,1/2-y,1/2+z
loop_
_atom_site_type_symbol
_atom_site_label
_atom_site_fract_x
_atom_site_fract_y
_atom_site_fract_z
Si Si1 0.108323 0.446463 0.561110
Si Si2 0.094197 0.715079 0.951380
Si Si3 0.068528 0.413728 0.155600
Si Si4 0.000000 0.000000 0.724367
Si Si5 0.685866 0.564939 0.974987
Si Si6 0.744176 0.204199 0.223530
Si Si7 0.606482 0.345218 0.424163
Si Si8 0.253994 0.590142 0.728529
O O1 0.085378 0.414991 0.364014
O O2 0.131913 0.358931 0.681386
O O3 0.212581 0.518550 0.579954
O O4 0.000000 0.500000 0.642906
O O5 0.203021 0.763600 0.041184
O O6 0.013920 0.667483 0.097858
O O7 0.147872 0.653291 0.796597
O O8 0.013059 0.794130 0.879563
O O9 0.193650 0.406856 0.066636
O O10 0.000000 0.500000 0.087027
O O11 0.089954 0.056223 0.842442
O O12 0.921870 0.066670 0.606811
O O13 0.663210 0.642555 0.830138
O O14 0.693901 0.464677 0.893320
O O15 0.711405 0.292754 0.330926
O O16 0.643891 0.353521 0.630298
#
# Coordination Sequence:
#
# PCOD8172066 Si02
#       8
#     4   4   4   2   4   4   4   4
#     4  10  24  43  78 101 138 186 249 298 362 435
#     4  12  27  44  72 104 149 189 242 307 362 433
#     4  11  23  45  73 106 138 190 248 305 364 424
#     4  12  30  46  76 102 154 192 240 298 384 436
#     4  11  25  48  73 102 145 191 247 298 365 442
#     4  11  27  45  70 107 144 187 245 298 369 424
#     4  12  29  46  70 107 145 191 241 295 368 443
#     4  11  26  46  72 102 147 187 241 300 366 429
#
# _framework density 23.049783999999999
#
# number of rings (size 3 to 8) (size 9 to 14) (size 15 to 20)
#    0.000    0.800    2.667    2.400   16.800    1.067 
#    0.000    0.000    0.000    0.000    0.000    0.000 
#    0.000    0.000    0.000    0.000    0.000    0.000 
#
# Total GULP energy -371993.299703 kJ/mol
# GULP energy per Si atom -12399.776657 kJ/mol
# Density = 2.299732 g / cm^3
# Si number density = 23.049784 Si / 1000 Ang^3
#
#
#
# Elastic Constant Matrix: (Units=GPa)
#
#
# Indices 1 2 3 4 5 6 
#
# 1 85.8097 28.0130 34.6789 0.0000 0.0000 0.0000
# 2 28.0130 100.6459 37.9585 0.0000 0.0000 0.0000
# 3 34.6789 37.9585 98.8790 0.0000 0.0000 0.0000
# 4 0.0000 0.0000 0.0000 34.6355 0.0000 0.0000
# 5 0.0000 0.0000 0.0000 0.0000 30.4259 0.0000
# 6 0.0000 0.0000 0.0000 0.0000 0.0000 35.8281
#
#
#
# Elastic Compliance Matrix: (Units=1/GPa)
#
#
# Indices 1 2 3 4 5 6 
#
# 1 0.014057 -0.002401 -0.004009 0.000000 0.000000 0.000000
# 2 -0.002401 0.012028 -0.003775 0.000000 0.000000 0.000000
# 3 -0.004009 -0.003775 0.012969 0.000000 0.000000 0.000000
# 4 0.000000 0.000000 0.000000 0.028872 0.000000 0.000000
# 5 0.000000 0.000000 0.000000 0.000000 0.032867 0.000000
# 6 0.000000 0.000000 0.000000 0.000000 0.000000 0.027911
#
#
# Mechanical properties :
#
#
# Convention : Reuss Voigt Hill
#
# Bulk Modulus (GPa) = 53.52048 54.07058 53.79553
# Shear Modulus (GPa) = 32.19542 32.49019 32.34281
#
# Velocity S-wave (km/s) = 3.74140 3.75849 3.74996
# Velocity P-wave (km/s) = 6.47565 6.50724 6.49146
#
# Compressibility (1/GPa) = 0.01868444
#
# Stress axis : x y z
#
# Youngs Moduli (GPa) = 71.13653 83.13982 77.10937
#
# Poissons Ratio (x) = 0.19960 0.30910
# Poissons Ratio (y) = 0.17079 0.29112
# Poissons Ratio (z) = 0.28516 0.31388
#
# Static dielectric constant tensor:
#      x y z
#    x 4.010780 0.000000 0.000000 
#    y 0.000000 4.250530 0.000000 
#    z 0.000000 0.000000 4.085220 
# 
# 
# High freq. dielectric constant tensor:
#      x y z
#    x 1.905600 0.000000 0.000000 
#    y 0.000000 1.919910 0.000000 
#    z 0.000000 0.000000 1.910020 
# 
# From -- ./inp_files/3321.got.cif
#   From: 2010.03.12/outbox.cif.g09.slc.cpg/sg34_2_cif.got.tgz:3321.got - 2010.04.14 01:56:33.
