data_PCOD8172753
_publ_section_title
;
Structure prediction by ZEFSAII (Michael W. Deem and Ramdas Pophale) SiO2 
 PCOD8172753
Probable space group: C M M 2
;
_chemical_formula_sum "Si O2"
_cell_formula_units_Z 48
_cell_length_a 15.536485
_cell_length_b 8.808686
_cell_length_c 17.002234
_cell_angle_alpha 90.000000
_cell_angle_beta 90.000000
_cell_angle_gamma 90.000000
_cell_volume 2326.858041
_symmetry_space_group_name_H-M "C M M 2"
_symmetry_group_IT_number 35
_symmetry_cell_setting 'orthorhombic'
loop_
_space_group_symop_operation_xyz
x,y,z
-x,-y,z
-x,y,z
x,-y,z
1/2+x,1/2+y,z
1/2-x,1/2-y,z
1/2-x,1/2+y,z
1/2+x,1/2-y,z
loop_
_atom_site_type_symbol
_atom_site_label
_atom_site_fract_x
_atom_site_fract_y
_atom_site_fract_z
Si Si1 0.602244 0.668381 0.669260
Si Si2 0.000000 0.180013 0.074806
Si Si3 0.000000 0.180623 0.254585
Si Si4 0.100457 0.822669 0.495128
Si Si5 0.337778 0.678913 0.978269
Si Si6 0.338507 0.820631 0.342472
Si Si7 0.898634 0.673662 0.824234
O O1 0.500000 0.662707 0.667429
O O2 0.637962 0.500000 0.687313
O O3 0.632788 0.722907 0.582807
O O4 0.635234 0.781234 0.737278
O O5 0.000000 0.234575 0.164368
O O6 0.084326 0.244881 0.030915
O O7 0.000000 0.000000 0.068746
O O8 0.084286 0.246537 0.294647
O O9 0.000000 0.000000 0.263527
O O10 0.153224 0.719863 0.434551
O O11 0.000000 0.786730 0.484194
O O12 0.118250 0.000000 0.478674
O O13 0.331619 0.500000 0.985109
O O14 0.250000 0.750000 0.011480
O O15 0.350638 0.723458 0.887568
O O16 0.250000 0.750000 0.309472
O O17 0.338540 0.000000 0.330395
O O18 0.874727 0.500000 0.840150
O O19 0.000000 0.703886 0.830778
#
# Coordination Sequence:
#
# PCOD8172753 Si02
#       7
#     8   4   4   8   8   8   8
#     4   8  15  28  50  81 115 158 206 250 301 356
#     4   9  22  43  69  94 121 158 195 239 304 369
#     4  11  23  45  71  96 127 158 197 251 308 373
#     4   9  17  33  58  86 120 162 205 253 307 361
#     4  11  22  40  63  91 123 159 201 246 299 361
#     4  12  25  41  63  94 127 166 209 252 306 366
#     4  10  19  32  53  84 120 160 205 252 301 352
#
# _framework density 20.628675999999999
#
# number of rings (size 3 to 8) (size 9 to 14) (size 15 to 20)
#    0.000    2.000    1.667    3.750    0.000    2.000 
#    0.000    7.500    0.000    4.000    0.000    0.000 
#    0.000    0.000    0.000    0.000    0.000    0.000 
#
# Total GULP energy -297624.206196 kJ/mol
# GULP energy per Si atom -12401.008592 kJ/mol
# Density = 2.058172 g / cm^3
# Si number density = 20.628676 Si / 1000 Ang^3
#
#
#
# Elastic Constant Matrix: (Units=GPa)
#
#
# Indices 1 2 3 4 5 6 
#
# 1 125.2990 50.9868 61.0891 0.0000 0.0000 0.0000
# 2 50.9868 101.2937 43.3725 0.0000 0.0000 0.0000
# 3 61.0891 43.3725 138.3478 0.0000 0.0000 0.0000
# 4 0.0000 0.0000 0.0000 22.4119 0.0000 0.0000
# 5 0.0000 0.0000 0.0000 0.0000 2.2383 0.0000
# 6 0.0000 0.0000 0.0000 0.0000 0.0000 30.4746
#
#
#
# Elastic Compliance Matrix: (Units=1/GPa)
#
#
# Indices 1 2 3 4 5 6 
#
# 1 0.011525 -0.004184 -0.003777 0.000000 0.000000 0.000000
# 2 -0.004184 0.012922 -0.002204 0.000000 0.000000 0.000000
# 3 -0.003777 -0.002204 0.009587 0.000000 0.000000 0.000000
# 4 0.000000 0.000000 0.000000 0.044619 0.000000 0.000000
# 5 0.000000 0.000000 0.000000 0.000000 0.446777 0.000000
# 6 0.000000 0.000000 0.000000 0.000000 0.000000 0.032814
#
#
# Mechanical properties :
#
#
# Convention : Reuss Voigt Hill
#
# Bulk Modulus (GPa) = 72.97042 75.09306 74.03174
# Shear Modulus (GPa) = 8.57424 24.99108 16.78266
#
# Velocity S-wave (km/s) = 2.04095 3.48440 2.85539
# Velocity P-wave (km/s) = 6.40344 7.25736 6.84373
#
# Compressibility (1/GPa) = 0.01370418
#
# Stress axis : x y z
#
# Youngs Moduli (GPa) = 86.76777 77.38884 104.30843
#
# Poissons Ratio (x) = 0.32378 0.39401
# Poissons Ratio (y) = 0.36302 0.22986
# Poissons Ratio (z) = 0.32776 0.17054
#
# Static dielectric constant tensor:
#      x y z
#    x 3.690060 0.000000 0.000000 
#    y 0.000000 3.601110 0.000000 
#    z 0.000000 0.000000 3.926150 
# 
# 
# High freq. dielectric constant tensor:
#      x y z
#    x 1.798950 0.000000 0.000000 
#    y 0.000000 1.796520 0.000000 
#    z 0.000000 0.000000 1.809240 
# 
# From -- ./inp_files/18777.got.cif
#   From: 2010.03.12/outbox.cif.g09.slc.cpg/sg35_10_cif.got.tgz:18777.got - 2010.04.14 02:02:04.
