data_PCOD8172560
_publ_section_title
;
Structure prediction by ZEFSAII (Michael W. Deem and Ramdas Pophale) SiO2 
 PCOD8172560
Probable space group: C M M 2
;
_chemical_formula_sum "Si O2"
_cell_formula_units_Z 64
_cell_length_a 9.064314
_cell_length_b 28.304530
_cell_length_c 15.603887
_cell_angle_alpha 90.000000
_cell_angle_beta 90.000000
_cell_angle_gamma 90.000000
_cell_volume 4003.351155
_symmetry_space_group_name_H-M "C M M 2"
_symmetry_group_IT_number 35
_symmetry_cell_setting 'orthorhombic'
loop_
_space_group_symop_operation_xyz
x,y,z
-x,-y,z
-x,y,z
x,-y,z
1/2+x,1/2+y,z
1/2-x,1/2-y,z
1/2-x,1/2+y,z
1/2+x,1/2-y,z
loop_
_atom_site_type_symbol
_atom_site_label
_atom_site_fract_x
_atom_site_fract_y
_atom_site_fract_z
Si Si1 0.829278 0.446075 0.170090
Si Si2 0.172523 0.799659 0.263744
Si Si3 0.326667 0.199338 0.582247
Si Si4 0.332240 0.447218 0.345430
Si Si5 0.173516 0.300934 0.954216
Si Si6 0.668054 0.798144 0.768201
Si Si7 0.173927 0.139576 0.098887
Si Si8 0.670869 0.646428 0.434642
O O1 0.803616 0.500000 0.141158
O O2 0.777095 0.438617 0.267232
O O3 0.734555 0.413626 0.106381
O O4 0.000000 0.431754 0.164816
O O5 0.250000 0.750000 0.252788
O O6 0.218436 0.832707 0.184887
O O7 0.223392 0.824591 0.351262
O O8 0.000000 0.790344 0.263937
O O9 0.500000 0.206304 0.567137
O O10 0.250000 0.250000 0.568936
O O11 0.290452 0.177095 0.677349
O O12 0.266725 0.161581 0.515310
O O13 0.500000 0.439517 0.311463
O O14 0.312137 0.500000 0.383681
O O15 0.298701 0.409257 0.419555
O O16 0.250000 0.250000 0.963258
O O17 0.198847 0.324498 0.858792
O O18 0.000000 0.294983 0.974310
O O19 0.247026 0.336932 0.018811
O O20 0.500000 0.783431 0.763026
O O21 0.750000 0.750000 0.774300
O O22 0.000000 0.138837 0.083233
O O23 0.500000 0.656316 0.454285
#
# Coordination Sequence:
#
# PCOD8172560 Si02
#       8
#     8   8   8   8   8   8   8   8
#     4  10  20  33  50  72  95 120 155 199 243 284
#     4  10  21  33  43  60  90 127 160 188 222 267
#     4  10  19  31  47  69  94 126 160 195 235 278
#     4   9  17  32  52  69  90 122 157 195 239 283
#     4  10  19  32  49  71  97 127 159 198 239 283
#     4   8  16  30  47  66  92 121 155 195 238 280
#     4  11  21  34  49  68  94 128 164 197 234 280
#     4  10  19  32  46  67  94 123 158 194 232 279
#
# _framework density 15.986606
#
# number of rings (size 3 to 8) (size 9 to 14) (size 15 to 20)
#    0.000    2.250    1.250    2.250    0.000    5.750 
#    0.000    0.000    0.000    0.000    0.000    0.875 
#    0.000    5.000    0.000    0.000    0.000    0.000 
#
# Total GULP energy -396605.695535 kJ/mol
# GULP energy per Si atom -12393.927985 kJ/mol
# Density = 1.595022 g / cm^3
# Si number density = 15.986606 Si / 1000 Ang^3
#
#
#
# Elastic Constant Matrix: (Units=GPa)
#
#
# Indices 1 2 3 4 5 6 
#
# 1 74.5211 46.8600 56.1786 0.0000 0.0000 0.0000
# 2 46.8600 95.0585 54.7589 0.0000 0.0000 0.0000
# 3 56.1786 54.7589 123.9543 0.0000 0.0000 0.0000
# 4 0.0000 0.0000 0.0000 -0.3582 0.0000 0.0000
# 5 0.0000 0.0000 0.0000 0.0000 24.3095 0.0000
# 6 0.0000 0.0000 0.0000 0.0000 0.0000 23.6304
#
#
#
# Elastic Compliance Matrix: (Units=1/GPa)
#
#
# Indices 1 2 3 4 5 6 
#
# 1 0.023694 -0.007370 -0.007483 0.000000 0.000000 0.000000
# 2 -0.007370 0.016403 -0.003906 0.000000 0.000000 0.000000
# 3 -0.007483 -0.003906 0.013185 0.000000 0.000000 0.000000
# 4 0.000000 0.000000 0.000000 -2.791719 0.000000 0.000000
# 5 0.000000 0.000000 0.000000 0.000000 0.041136 0.000000
# 6 0.000000 0.000000 0.000000 0.000000 0.000000 0.042318
#
#
# Mechanical properties :
#
#
# Convention : Reuss Voigt Hill
#
# Bulk Modulus (GPa) = 63.43566 67.68100 65.55833
# Shear Modulus (GPa) = -1.91409 18.56543 8.32567
#
# Velocity S-wave (km/s) = -1.09540 3.41150 2.28456
# Velocity P-wave (km/s) = 6.17793 7.61221 6.93226
#
# Compressibility (1/GPa) = 0.01576401
#
# Stress axis : x y z
#
# Youngs Moduli (GPa) = 42.20399 60.96448 75.84600
#
# Poissons Ratio (x) = 0.44929 0.56756
# Poissons Ratio (y) = 0.31103 0.29627
# Poissons Ratio (z) = 0.31582 0.23814
#
# Static dielectric constant tensor:
#      x y z
#    x 3.131850 0.000000 0.000000 
#    y 0.000000 2.987760 0.000000 
#    z 0.000000 0.000000 3.389810 
# 
# 
# High freq. dielectric constant tensor:
#      x y z
#    x 1.626630 0.000000 0.000000 
#    y 0.000000 1.592490 0.000000 
#    z 0.000000 0.000000 1.607940 
# 
# From -- ./inp_files/16166.got.cif
#   From: 2010.03.12/outbox.cif.g09.slc.cpg/sg35_9_cif.got.tgz:16166.got - 2010.04.14 02:02:04.
