data_PCOD8172382
_publ_section_title
;
Structure prediction by ZEFSAII (Michael W. Deem and Ramdas Pophale) SiO2 
 PCOD8172382
Probable space group: C M M 2
;
_chemical_formula_sum "Si O2"
_cell_formula_units_Z 64
_cell_length_a 8.961426
_cell_length_b 27.699919
_cell_length_c 14.097116
_cell_angle_alpha 90.000000
_cell_angle_beta 90.000000
_cell_angle_gamma 90.000000
_cell_volume 3499.338020
_symmetry_space_group_name_H-M "C M M 2"
_symmetry_group_IT_number 35
_symmetry_cell_setting 'orthorhombic'
loop_
_space_group_symop_operation_xyz
x,y,z
-x,-y,z
-x,y,z
x,-y,z
1/2+x,1/2+y,z
1/2-x,1/2-y,z
1/2-x,1/2+y,z
1/2+x,1/2-y,z
loop_
_atom_site_type_symbol
_atom_site_label
_atom_site_fract_x
_atom_site_fract_y
_atom_site_fract_z
Si Si1 0.330021 0.391835 0.133410
Si Si2 0.675904 0.634818 0.740026
Si Si3 0.174294 0.554855 0.283974
Si Si4 0.326339 0.699188 0.565368
Si Si5 0.323587 0.798022 0.112800
Si Si6 0.823541 0.894950 0.454530
Si Si7 0.170376 0.842702 0.950673
Si Si8 0.827517 0.555553 0.625450
O O1 0.500000 0.392314 0.169597
O O2 0.242048 0.436967 0.178547
O O3 0.247554 0.342922 0.170588
O O4 0.323004 0.391363 0.017463
O O5 0.500000 0.624090 0.735554
O O6 0.718761 0.678490 0.669063
O O7 0.730385 0.647625 0.845577
O O8 0.762364 0.586446 0.712012
O O9 0.207634 0.500000 0.315286
O O10 0.253102 0.592999 0.353206
O O11 0.000000 0.565354 0.282346
O O12 0.500000 0.709205 0.561163
O O13 0.250000 0.750000 0.544308
O O14 0.279586 0.659484 0.486370
O O15 0.500000 0.796717 0.124153
O O16 0.250000 0.750000 0.155907
O O17 0.275151 0.802697 0.001177
O O18 0.760525 0.933293 0.529324
O O19 0.000000 0.901125 0.450266
O O20 0.000000 0.823366 0.947512
O O21 0.805414 0.500000 0.652561
O O22 0.000000 0.568461 0.608923
#
# Coordination Sequence:
#
# PCOD8172382 Si02
#       8
#     8   8   8   8   8   8   8   8
#     4   9  19  36  56  78 107 142 180 224 271 322
#     4   9  18  34  53  76 108 143 183 226 266 318
#     4  11  23  38  58  85 112 139 175 224 281 336
#     4   9  19  34  53  78 109 143 178 218 266 319
#     4  10  18  31  52  77 106 140 176 217 266 317
#     4  10  21  37  57  80 106 140 182 226 270 323
#     4   8  17  33  52  75 106 142 182 228 269 316
#     4  10  20  33  50  76 108 140 177 222 272 326
#
# _framework density 18.289173999999999
#
# number of rings (size 3 to 8) (size 9 to 14) (size 15 to 20)
#    0.750    1.750    0.000    3.375    0.000    7.000 
#    0.000    2.500    0.000    5.250    0.000    0.000 
#    0.000    0.000    0.000    0.000    0.000    0.000 
#
# Total GULP energy -396581.483209 kJ/mol
# GULP energy per Si atom -12393.171350 kJ/mol
# Density = 1.824755 g / cm^3
# Si number density = 18.289174 Si / 1000 Ang^3
#
#
#
# Elastic Constant Matrix: (Units=GPa)
#
#
# Indices 1 2 3 4 5 6 
#
# 1 102.0040 52.4132 27.7318 0.0000 0.0000 0.0000
# 2 52.4132 97.5667 31.7582 0.0000 0.0000 0.0000
# 3 27.7318 31.7582 65.8187 0.0000 0.0000 0.0000
# 4 0.0000 0.0000 0.0000 20.7615 0.0000 0.0000
# 5 0.0000 0.0000 0.0000 0.0000 26.7737 0.0000
# 6 0.0000 0.0000 0.0000 0.0000 0.0000 33.9253
#
#
#
# Elastic Compliance Matrix: (Units=1/GPa)
#
#
# Indices 1 2 3 4 5 6 
#
# 1 0.013929 -0.006610 -0.002679 0.000000 0.000000 0.000000
# 2 -0.006610 0.015296 -0.004595 0.000000 0.000000 0.000000
# 3 -0.002679 -0.004595 0.018539 0.000000 0.000000 0.000000
# 4 0.000000 0.000000 0.000000 0.048166 0.000000 0.000000
# 5 0.000000 0.000000 0.000000 0.000000 0.037350 0.000000
# 6 0.000000 0.000000 0.000000 0.000000 0.000000 0.029476
#
#
# Mechanical properties :
#
#
# Convention : Reuss Voigt Hill
#
# Bulk Modulus (GPa) = 50.01369 54.35509 52.18439
# Shear Modulus (GPa) = 25.35607 26.52453 25.94030
#
# Velocity S-wave (km/s) = 3.72748 3.81239 3.77017
# Velocity P-wave (km/s) = 6.77723 7.01167 6.89544
#
# Compressibility (1/GPa) = 0.01999453
#
# Stress axis : x y z
#
# Youngs Moduli (GPa) = 71.79501 65.37499 53.93931
#
# Poissons Ratio (x) = 0.43216 0.14450
# Poissons Ratio (y) = 0.47460 0.24787
# Poissons Ratio (z) = 0.19234 0.30043
#
# Static dielectric constant tensor:
#      x y z
#    x 3.356460 0.000000 0.000000 
#    y 0.000000 3.238120 0.000000 
#    z 0.000000 0.000000 3.292270 
# 
# 
# High freq. dielectric constant tensor:
#      x y z
#    x 1.717280 0.000000 0.000000 
#    y 0.000000 1.695930 0.000000 
#    z 0.000000 0.000000 1.693710 
# 
# From -- ./inp_files/16207.got.cif
#   From: 2010.03.12/outbox.cif.g09.slc.cpg/sg35_9_cif.got.tgz:16207.got - 2010.04.14 02:02:04.
