data_PCOD8172737
_publ_section_title
;
Structure prediction by ZEFSAII (Michael W. Deem and Ramdas Pophale) SiO2 
 PCOD8172737
Probable space group: C M M 2
;
_chemical_formula_sum "Si O2"
_cell_formula_units_Z 64
_cell_length_a 32.792746
_cell_length_b 9.257031
_cell_length_c 11.233834
_cell_angle_alpha 90.000000
_cell_angle_beta 90.000000
_cell_angle_gamma 90.000000
_cell_volume 3410.181589
_symmetry_space_group_name_H-M "C M M 2"
_symmetry_group_IT_number 35
_symmetry_cell_setting 'orthorhombic'
loop_
_space_group_symop_operation_xyz
x,y,z
-x,-y,z
-x,y,z
x,-y,z
1/2+x,1/2+y,z
1/2-x,1/2-y,z
1/2-x,1/2+y,z
1/2+x,1/2-y,z
loop_
_atom_site_type_symbol
_atom_site_label
_atom_site_fract_x
_atom_site_fract_y
_atom_site_fract_z
Si Si1 0.856980 0.660613 0.033070
Si Si2 0.787454 0.162318 0.931210
Si Si3 0.680948 0.667916 0.673235
Si Si4 0.454106 0.343083 0.672698
Si Si5 0.292076 0.174015 0.437632
Si Si6 0.624314 0.166005 0.301290
Si Si7 0.954213 0.168265 0.397090
Si Si8 0.891576 0.337472 0.784322
O O1 0.836910 0.500000 0.030716
O O2 0.876464 0.690759 0.160151
O O3 0.825174 0.784639 0.007057
O O4 0.889730 0.672638 0.927074
O O5 0.750000 0.250000 0.981082
O O6 0.791142 0.183628 0.789714
O O7 0.779858 0.000000 0.966855
O O8 0.676926 0.500000 0.633914
O O9 0.700699 0.763584 0.569600
O O10 0.637269 0.730971 0.709130
O O11 0.500000 0.356181 0.714538
O O12 0.432861 0.500000 0.694563
O O13 0.450929 0.300241 0.535791
O O14 0.436356 0.214473 0.751824
O O15 0.250000 0.250000 0.388820
O O16 0.331956 0.216958 0.357678
O O17 0.286014 0.000000 0.441538
O O18 0.584183 0.250091 0.341447
O O19 0.618158 0.000000 0.336468
O O20 0.000000 0.218764 0.353348
O O21 0.949299 0.000000 0.367641
O O22 0.882832 0.500000 0.740486
#
# Coordination Sequence:
#
# PCOD8172737 Si02
#       8
#     8   8   8   8   8   8   8   8
#     4   9  20  38  54  71 101 138 176 217 259 308
#     4  10  20  33  52  77 102 132 171 215 263 313
#     4  10  20  34  53  77 106 138 172 214 266 321
#     4   9  18  33  53  78 109 140 168 205 258 319
#     4  11  23  37  54  79 110 143 182 224 269 323
#     4  10  22  39  57  78 106 143 185 227 269 314
#     4   9  19  36  58  84 111 140 176 218 267 323
#     4  10  19  32  53  78 104 136 173 215 263 315
#
# _framework density 18.767330000000001
#
# number of rings (size 3 to 8) (size 9 to 14) (size 15 to 20)
#    0.000    2.250    0.000    3.375    0.000    8.000 
#    0.000    3.125    0.000    3.750    0.000    0.000 
#    0.000    0.000    0.000    0.000    0.000    0.000 
#
# Total GULP energy -396519.595826 kJ/mol
# GULP energy per Si atom -12391.237370 kJ/mol
# Density = 1.872461 g / cm^3
# Si number density = 18.767330 Si / 1000 Ang^3
#
#
#
# Elastic Constant Matrix: (Units=GPa)
#
#
# Indices 1 2 3 4 5 6 
#
# 1 127.9328 73.7903 57.8551 0.0000 0.0000 0.0000
# 2 73.7903 110.9716 45.4635 0.0000 0.0000 0.0000
# 3 57.8551 45.4635 58.4890 0.0000 0.0000 0.0000
# 4 0.0000 0.0000 0.0000 94.9212 0.0000 0.0000
# 5 0.0000 0.0000 0.0000 0.0000 4.8973 0.0000
# 6 0.0000 0.0000 0.0000 0.0000 0.0000 37.9392
#
#
#
# Elastic Compliance Matrix: (Units=1/GPa)
#
#
# Indices 1 2 3 4 5 6 
#
# 1 0.016744 -0.006380 -0.011603 0.000000 0.000000 0.000000
# 2 -0.006380 0.015653 -0.005856 0.000000 0.000000 0.000000
# 3 -0.011603 -0.005856 0.033126 0.000000 0.000000 0.000000
# 4 0.000000 0.000000 0.000000 0.010535 0.000000 0.000000
# 5 0.000000 0.000000 0.000000 0.000000 0.204194 0.000000
# 6 0.000000 0.000000 0.000000 0.000000 0.000000 0.026358
#
#
# Mechanical properties :
#
#
# Convention : Reuss Voigt Hill
#
# Bulk Modulus (GPa) = 56.03905 72.40123 64.22014
# Shear Modulus (GPa) = 13.87974 35.57053 24.72513
#
# Velocity S-wave (km/s) = 2.72245 4.35828 3.63362
# Velocity P-wave (km/s) = 6.30928 7.99926 7.20400
#
# Compressibility (1/GPa) = 0.01784470
#
# Stress axis : x y z
#
# Youngs Moduli (GPa) = 59.72327 63.88588 30.18742
#
# Poissons Ratio (x) = 0.40760 0.35027
# Poissons Ratio (y) = 0.38105 0.17678
# Poissons Ratio (z) = 0.69297 0.37411
#
# Static dielectric constant tensor:
#      x y z
#    x 3.538960 0.000000 0.000000 
#    y 0.000000 3.543250 0.000000 
#    z 0.000000 0.000000 3.349570 
# 
# 
# High freq. dielectric constant tensor:
#      x y z
#    x 1.728050 0.000000 0.000000 
#    y 0.000000 1.737900 0.000000 
#    z 0.000000 0.000000 1.714100 
# 
# From -- ./inp_files/11909.got.cif
#   From: 2010.03.12/outbox.cif.g09.slc.cpg/sg35_6_cif.got.tgz:11909.got - 2010.04.14 02:02:04.
