data_PCOD8172254
_publ_section_title
;
Structure prediction by ZEFSAII (Michael W. Deem and Ramdas Pophale) SiO2 
 PCOD8172254
Probable space group: C M M 2
;
_chemical_formula_sum "Si O2"
_cell_formula_units_Z 64
_cell_length_a 18.768297
_cell_length_b 14.958195
_cell_length_c 13.823481
_cell_angle_alpha 90.000000
_cell_angle_beta 90.000000
_cell_angle_gamma 90.000000
_cell_volume 3880.801932
_symmetry_space_group_name_H-M "C M M 2"
_symmetry_group_IT_number 35
_symmetry_cell_setting 'orthorhombic'
loop_
_space_group_symop_operation_xyz
x,y,z
-x,-y,z
-x,y,z
x,-y,z
1/2+x,1/2+y,z
1/2-x,1/2-y,z
1/2-x,1/2+y,z
1/2+x,1/2-y,z
loop_
_atom_site_type_symbol
_atom_site_label
_atom_site_fract_x
_atom_site_fract_y
_atom_site_fract_z
Si Si1 0.303885 0.897721 0.155760
Si Si2 0.846521 0.896201 0.245896
Si Si3 0.920240 0.105750 0.437591
Si Si4 0.079760 0.894249 0.649748
Si Si5 0.803885 0.397721 0.931579
Si Si6 0.421756 0.237695 0.930799
Si Si7 0.921756 0.737695 0.156540
Si Si8 0.346521 0.396201 0.841443
O O1 0.235620 0.877676 0.222033
O O2 0.366502 0.835446 0.198224
O O3 0.328694 0.000000 0.165963
O O4 0.285263 0.875435 0.043670
O O5 0.863644 0.864408 0.355832
O O6 0.895595 0.838328 0.175150
O O7 0.866030 0.000000 0.228744
O O8 0.896996 0.143051 0.543669
O O9 0.000000 0.140800 0.411858
O O10 0.922175 0.000000 0.442191
O O11 0.136356 0.864408 0.731507
O O12 0.000000 0.859199 0.675481
O O13 0.077824 0.000000 0.645147
O O14 0.828695 0.500000 0.921376
O O15 0.866501 0.335446 0.889115
O O16 0.735620 0.377677 0.865306
O O17 0.500000 0.223178 0.883823
O O18 0.395595 0.338328 0.912189
O O19 0.427428 0.221892 0.043669
O O20 0.000000 0.723178 0.203516
O O21 0.366030 0.500000 0.858595
#
# Coordination Sequence:
#
# PCOD8172254 Si02
#       8
#     8   8   8   8   8   8   8   8
#     4   9  18  32  48  64  84 115 153 188 220 253
#     4  10  18  28  45  68  93 118 142 172 217 270
#     4   8  14  25  41  62  89 119 147 174 208 254
#     4   8  14  25  41  62  89 119 147 174 208 254
#     4   9  18  32  48  64  84 115 153 188 220 253
#     4  10  20  31  44  64  89 118 151 184 217 256
#     4  10  20  31  44  64  89 118 151 184 217 256
#     4  10  18  28  45  68  93 118 142 172 217 270
#
# _framework density 16.491437000000001
#
# number of rings (size 3 to 8) (size 9 to 14) (size 15 to 20)
#    0.000    2.750    0.000    3.000    0.000    5.500 
#    0.000    3.750    0.000    3.000    0.000    0.000 
#    0.000    0.000    0.000   15.000    0.000    0.750 
#
# Total GULP energy -396596.888700 kJ/mol
# GULP energy per Si atom -12393.652772 kJ/mol
# Density = 1.645390 g / cm^3
# Si number density = 16.491437 Si / 1000 Ang^3
#
#
#
# Elastic Constant Matrix: (Units=GPa)
#
#
# Indices 1 2 3 4 5 6 
#
# 1 136.4719 62.4175 49.1042 0.0000 0.0000 0.0000
# 2 62.4175 65.9356 29.8052 0.0000 0.0000 0.0000
# 3 49.1042 29.8052 51.2212 0.0000 0.0000 0.0000
# 4 0.0000 0.0000 0.0000 10.7310 0.0000 0.0000
# 5 0.0000 0.0000 0.0000 0.0000 16.9712 0.0000
# 6 0.0000 0.0000 0.0000 0.0000 0.0000 20.9454
#
#
#
# Elastic Compliance Matrix: (Units=1/GPa)
#
#
# Indices 1 2 3 4 5 6 
#
# 1 0.015192 -0.010581 -0.008407 0.000000 0.000000 0.000000
# 2 -0.010581 0.027949 -0.006120 0.000000 0.000000 0.000000
# 3 -0.008407 -0.006120 0.031144 0.000000 0.000000 0.000000
# 4 0.000000 0.000000 0.000000 0.093188 0.000000 0.000000
# 5 0.000000 0.000000 0.000000 0.000000 0.058923 0.000000
# 6 0.000000 0.000000 0.000000 0.000000 0.000000 0.047743
#
#
# Mechanical properties :
#
#
# Convention : Reuss Voigt Hill
#
# Bulk Modulus (GPa) = 41.54668 59.58693 50.56680
# Shear Modulus (GPa) = 15.04314 17.21630 16.12972
#
# Velocity S-wave (km/s) = 3.02351 3.23453 3.13080
# Velocity P-wave (km/s) = 6.11853 7.08238 6.61802
#
# Compressibility (1/GPa) = 0.02406931
#
# Stress axis : x y z
#
# Youngs Moduli (GPa) = 65.82503 35.77950 32.10939
#
# Poissons Ratio (x) = 0.37858 0.26994
# Poissons Ratio (y) = 0.69649 0.19650
# Poissons Ratio (z) = 0.55339 0.21896
#
# Static dielectric constant tensor:
#      x y z
#    x 3.364690 0.000000 0.000000 
#    y 0.000000 2.971350 0.000000 
#    z 0.000000 0.000000 3.281260 
# 
# 
# High freq. dielectric constant tensor:
#      x y z
#    x 1.634260 0.000000 0.000000 
#    y 0.000000 1.614120 0.000000 
#    z 0.000000 0.000000 1.612980 
# 
# From -- ./inp_files/16875.got.cif
#   From: 2010.03.12/outbox.cif.g09.slc.cpg/sg35_9_cif.got.tgz:16875.got - 2010.04.14 02:02:04.
