data_PCOD8172727
_publ_section_title
;
Structure prediction by ZEFSAII (Michael W. Deem and Ramdas Pophale) SiO2 
 PCOD8172727
Probable space group: C M M 2
;
_chemical_formula_sum "Si O2"
_cell_formula_units_Z 48
_cell_length_a 8.733205
_cell_length_b 15.570017
_cell_length_c 17.195827
_cell_angle_alpha 90.000000
_cell_angle_beta 90.000000
_cell_angle_gamma 90.000000
_cell_volume 2338.222357
_symmetry_space_group_name_H-M "C M M 2"
_symmetry_group_IT_number 35
_symmetry_cell_setting 'orthorhombic'
loop_
_space_group_symop_operation_xyz
x,y,z
-x,-y,z
-x,y,z
x,-y,z
1/2+x,1/2+y,z
1/2-x,1/2-y,z
1/2-x,1/2+y,z
1/2+x,1/2-y,z
loop_
_atom_site_type_symbol
_atom_site_label
_atom_site_fract_x
_atom_site_fract_y
_atom_site_fract_z
Si Si1 0.678359 0.658683 0.048740
Si Si2 0.181018 0.500000 0.493945
Si Si3 0.817696 0.000000 0.325285
Si Si4 0.680903 0.656129 0.217757
Si Si5 0.319242 0.661495 0.581314
Si Si6 0.327218 0.902807 0.730049
Si Si7 0.319290 0.344519 0.881526
O O1 0.500000 0.672115 0.054632
O O2 0.750000 0.750000 0.038927
O O3 0.733054 0.619593 0.131706
O O4 0.717198 0.611043 0.966724
O O5 0.225317 0.500000 0.404290
O O6 0.249020 0.584560 0.532478
O O7 0.000000 0.500000 0.504829
O O8 0.764095 0.085302 0.279219
O O9 0.000000 0.000000 0.339324
O O10 0.500000 0.666347 0.222017
O O11 0.750000 0.750000 0.236056
O O12 0.500000 0.661559 0.571229
O O13 0.250000 0.750000 0.548110
O O14 0.275099 0.653683 0.672114
O O15 0.500000 0.866073 0.730636
O O16 0.257501 0.902964 0.816210
O O17 0.326717 0.000000 0.699040
O O18 0.500000 0.339722 0.867283
O O19 0.250000 0.250000 0.874697
#
# Coordination Sequence:
#
# PCOD8172727 Si02
#       7
#     8   4   4   8   8   8   8
#     4   8  15  29  50  78 109 150 196 247 298 349
#     4  12  26  46  68  95 130 161 200 253 306 367
#     4  10  22  40  62  89 122 159 198 243 304 371
#     4   9  18  35  59  86 118 157 201 248 302 360
#     4  12  25  44  71  98 126 162 205 250 306 369
#     4  11  23  39  58  82 120 162 204 253 306 359
#     4  10  19  32  52  80 114 153 203 252 301 356
#
# _framework density 20.528414999999999
#
# number of rings (size 3 to 8) (size 9 to 14) (size 15 to 20)
#    0.000    1.833    0.833    3.750    0.000    3.000 
#    1.500    1.667    0.000    0.000    0.000    0.000 
#    0.000    0.000    0.000    0.000    0.000    0.000 
#
# Total GULP energy -297396.683004 kJ/mol
# GULP energy per Si atom -12391.528459 kJ/mol
# Density = 2.048169 g / cm^3
# Si number density = 20.528415 Si / 1000 Ang^3
#
#
#
# Elastic Constant Matrix: (Units=GPa)
#
#
# Indices 1 2 3 4 5 6 
#
# 1 115.6524 49.2117 56.9767 0.0000 0.0000 0.0000
# 2 49.2117 118.4625 63.2948 0.0000 0.0000 0.0000
# 3 56.9767 63.2948 147.9846 0.0000 0.0000 0.0000
# 4 0.0000 0.0000 0.0000 25.9253 0.0000 0.0000
# 5 0.0000 0.0000 0.0000 0.0000 36.3073 0.0000
# 6 0.0000 0.0000 0.0000 0.0000 0.0000 27.5230
#
#
#
# Elastic Compliance Matrix: (Units=1/GPa)
#
#
# Indices 1 2 3 4 5 6 
#
# 1 0.011499 -0.003126 -0.003090 0.000000 0.000000 0.000000
# 2 -0.003126 0.011792 -0.003840 0.000000 0.000000 0.000000
# 3 -0.003090 -0.003840 0.009590 0.000000 0.000000 0.000000
# 4 0.000000 0.000000 0.000000 0.038572 0.000000 0.000000
# 5 0.000000 0.000000 0.000000 0.000000 0.027543 0.000000
# 6 0.000000 0.000000 0.000000 0.000000 0.000000 0.036333
#
#
# Mechanical properties :
#
#
# Convention : Reuss Voigt Hill
#
# Bulk Modulus (GPa) = 78.31935 80.11842 79.21889
# Shear Modulus (GPa) = 31.30921 32.12553 31.71737
#
# Velocity S-wave (km/s) = 3.90957 3.96021 3.93497
# Velocity P-wave (km/s) = 7.65599 7.74750 7.70188
#
# Compressibility (1/GPa) = 0.01276824
#
# Stress axis : x y z
#
# Youngs Moduli (GPa) = 86.96266 84.80539 104.27797
#
# Poissons Ratio (x) = 0.26508 0.32227
# Poissons Ratio (y) = 0.27182 0.40043
# Poissons Ratio (z) = 0.26876 0.32565
#
# Static dielectric constant tensor:
#      x y z
#    x 2.975800 0.000000 0.000000 
#    y 0.000000 3.555250 0.000000 
#    z 0.000000 0.000000 4.232650 
# 
# 
# High freq. dielectric constant tensor:
#      x y z
#    x 1.802860 0.000000 0.000000 
#    y 0.000000 1.786810 0.000000 
#    z 0.000000 0.000000 1.818830 
# 
# From -- ./inp_files/17862.got.cif
#   From: 2010.03.12/outbox.cif.g09.slc.cpg/sg35_9_cif.got.tgz:17862.got - 2010.04.14 02:02:04.
