data_PCOD8172578
_publ_section_title
;
Structure prediction by ZEFSAII (Michael W. Deem and Ramdas Pophale) SiO2 
 PCOD8172578
Probable space group: C M M 2
;
_chemical_formula_sum "Si O2"
_cell_formula_units_Z 64
_cell_length_a 28.556538
_cell_length_b 8.737942
_cell_length_c 15.511770
_cell_angle_alpha 90.000000
_cell_angle_beta 90.000000
_cell_angle_gamma 90.000000
_cell_volume 3870.580191
_symmetry_space_group_name_H-M "C M M 2"
_symmetry_group_IT_number 35
_symmetry_cell_setting 'orthorhombic'
loop_
_space_group_symop_operation_xyz
x,y,z
-x,-y,z
-x,y,z
x,-y,z
1/2+x,1/2+y,z
1/2-x,1/2-y,z
1/2-x,1/2+y,z
1/2+x,1/2-y,z
loop_
_atom_site_type_symbol
_atom_site_label
_atom_site_fract_x
_atom_site_fract_y
_atom_site_fract_z
Si Si1 0.300775 0.822708 0.243760
Si Si2 0.300934 0.319453 0.917044
Si Si3 0.552783 0.322141 0.815631
Si Si4 0.199374 0.678242 0.433719
Si Si5 0.301744 0.680954 0.603759
Si Si6 0.949112 0.818172 0.011488
Si Si7 0.354302 0.679638 0.089960
Si Si8 0.356925 0.179961 0.761232
O O1 0.250000 0.750000 0.230745
O O2 0.323207 0.793940 0.339213
O O3 0.337963 0.758225 0.177000
O O4 0.293333 0.000000 0.226286
O O5 0.299582 0.500000 0.900245
O O6 0.250000 0.250000 0.903941
O O7 0.335926 0.243004 0.849857
O O8 0.318988 0.280002 0.012549
O O9 0.500000 0.297275 0.781007
O O10 0.567058 0.500000 0.809602
O O11 0.588058 0.221837 0.758083
O O12 0.556761 0.261928 0.913572
O O13 0.202690 0.500000 0.456194
O O14 0.250000 0.750000 0.426444
O O15 0.173838 0.763469 0.513597
O O16 0.298497 0.500000 0.606055
O O17 0.250000 0.750000 0.612294
O O18 0.332798 0.738503 0.681528
O O19 0.906313 0.754869 0.068877
O O20 0.000000 0.762676 0.047621
O O21 0.947387 0.000000 0.010205
O O22 0.356023 0.500000 0.105725
O O23 0.349097 0.000000 0.754387
#
# Coordination Sequence:
#
# PCOD8172578 Si02
#       8
#     8   8   8   8   8   8   8   8
#     4  10  20  32  48  70  99 131 163 200 241 288
#     4  11  22  35  47  65  95 132 171 204 241 285
#     4   9  17  33  55  74  95 125 163 206 249 291
#     4   9  17  31  49  70  95 124 159 200 245 289
#     4  11  21  34  52  73  99 129 164 203 245 293
#     4   8  14  28  50  72  93 121 159 202 245 285
#     4  10  19  31  49  71  96 127 164 202 241 287
#     4  12  23  34  49  71 100 132 165 202 243 292
#
# _framework density 16.534988999999999
#
# number of rings (size 3 to 8) (size 9 to 14) (size 15 to 20)
#    0.000    2.000    1.250    5.625    0.000    3.750 
#    0.000    0.000    0.000    0.375    0.000    0.875 
#    0.000    3.000    0.000    0.000    0.000    0.000 
#
# Total GULP energy -396666.076086 kJ/mol
# GULP energy per Si atom -12395.814878 kJ/mol
# Density = 1.649735 g / cm^3
# Si number density = 16.534989 Si / 1000 Ang^3
#
#
#
# Elastic Constant Matrix: (Units=GPa)
#
#
# Indices 1 2 3 4 5 6 
#
# 1 93.5700 36.4533 40.4622 0.0000 0.0000 0.0000
# 2 36.4533 97.1122 52.0021 0.0000 0.0000 0.0000
# 3 40.4622 52.0021 104.7201 0.0000 0.0000 0.0000
# 4 0.0000 0.0000 0.0000 25.2481 0.0000 0.0000
# 5 0.0000 0.0000 0.0000 0.0000 -20.5875 0.0000
# 6 0.0000 0.0000 0.0000 0.0000 0.0000 22.1843
#
#
#
# Elastic Compliance Matrix: (Units=1/GPa)
#
#
# Indices 1 2 3 4 5 6 
#
# 1 0.013480 -0.003094 -0.003672 0.000000 0.000000 0.000000
# 2 -0.003094 0.014737 -0.006123 0.000000 0.000000 0.000000
# 3 -0.003672 -0.006123 0.014009 0.000000 0.000000 0.000000
# 4 0.000000 0.000000 0.000000 0.039607 0.000000 0.000000
# 5 0.000000 0.000000 0.000000 0.000000 -0.048573 0.000000
# 6 0.000000 0.000000 0.000000 0.000000 0.000000 0.045077
#
#
# Mechanical properties :
#
#
# Convention : Reuss Voigt Hill
#
# Bulk Modulus (GPa) = 60.79559 61.47084 61.13322
# Shear Modulus (GPa) = 45.62122 16.46798 31.04460
#
# Velocity S-wave (km/s) = 5.25838 3.15929 4.33772
# Velocity P-wave (km/s) = 8.58575 7.11091 7.88290
#
# Compressibility (1/GPa) = 0.01644856
#
# Stress axis : x y z
#
# Youngs Moduli (GPa) = 74.18137 67.85444 71.38386
#
# Poissons Ratio (x) = 0.20992 0.26215
# Poissons Ratio (y) = 0.22950 0.43708
# Poissons Ratio (z) = 0.27242 0.41547
#
# Static dielectric constant tensor:
#      x y z
#    x 6.302060 0.000000 0.000000 
#    y 0.000000 3.133600 0.000000 
#    z 0.000000 0.000000 3.556960 
# 
# 
# High freq. dielectric constant tensor:
#      x y z
#    x 1.617710 0.000000 0.000000 
#    y 0.000000 1.638440 0.000000 
#    z 0.000000 0.000000 1.630120 
# 
# From -- ./inp_files/17746.got.cif
#   From: 2010.03.12/outbox.cif.g09.slc.cpg/sg35_9_cif.got.tgz:17746.got - 2010.04.14 02:02:04.
