data_PCOD8172685
_publ_section_title
;
Structure prediction by ZEFSAII (Michael W. Deem and Ramdas Pophale) SiO2 
 PCOD8172685
Probable space group: C M M 2
;
_chemical_formula_sum "Si O2"
_cell_formula_units_Z 64
_cell_length_a 8.951199
_cell_length_b 33.456055
_cell_length_c 11.089391
_cell_angle_alpha 90.000000
_cell_angle_beta 90.000000
_cell_angle_gamma 90.000000
_cell_volume 3320.959951
_symmetry_space_group_name_H-M "C M M 2"
_symmetry_group_IT_number 35
_symmetry_cell_setting 'orthorhombic'
loop_
_space_group_symop_operation_xyz
x,y,z
-x,-y,z
-x,y,z
x,-y,z
1/2+x,1/2+y,z
1/2-x,1/2-y,z
1/2-x,1/2+y,z
1/2+x,1/2-y,z
loop_
_atom_site_type_symbol
_atom_site_label
_atom_site_fract_x
_atom_site_fract_y
_atom_site_fract_z
Si Si1 0.321712 0.627952 0.595910
Si Si2 0.669174 0.209061 0.504138
Si Si3 0.674688 0.387123 0.859873
Si Si4 0.675007 0.362021 0.119029
Si Si5 0.664669 0.956006 0.961337
Si Si6 0.675428 0.544708 0.468714
Si Si7 0.168926 0.711237 0.218853
Si Si8 0.325079 0.934975 0.225213
O O1 0.500000 0.631185 0.584241
O O2 0.251728 0.667411 0.535677
O O3 0.262939 0.630146 0.734388
O O4 0.267149 0.584524 0.541708
O O5 0.500000 0.208611 0.556182
O O6 0.750000 0.250000 0.552424
O O7 0.664652 0.210372 0.361559
O O8 0.500000 0.385249 0.850596
O O9 0.722536 0.433012 0.874644
O O10 0.732523 0.364609 0.980048
O O11 0.500000 0.371702 0.127785
O O12 0.713141 0.319170 0.165810
O O13 0.765047 0.390271 0.209950
O O14 0.500000 0.936023 0.955232
O O15 0.660948 0.000000 0.907745
O O16 0.716142 0.957682 0.101068
O O17 0.500000 0.549183 0.454442
O O18 0.712564 0.500000 0.525974
O O19 0.746327 0.543751 0.336384
O O20 0.250000 0.750000 0.169289
O O21 0.000000 0.706566 0.167645
O O22 0.500000 0.934584 0.252157
#
# Coordination Sequence:
#
# PCOD8172685 Si02
#       8
#     8   8   8   8   8   8   8   8
#     4  10  21  38  57  77 107 145 184 227 270 313
#     4  10  21  37  59  86 112 139 175 218 266 321
#     4   9  20  36  53  74 100 135 178 219 259 308
#     4  10  19  33  53  77 105 136 172 215 263 315
#     4   9  18  32  50  73 101 133 170 216 268 316
#     4  10  21  35  52  77 109 145 183 223 270 323
#     4  10  20  34  54  82 112 138 166 205 256 315
#     4  10  19  32  51  75 104 137 173 216 268 323
#
# _framework density 19.271536999999999
#
# number of rings (size 3 to 8) (size 9 to 14) (size 15 to 20)
#    0.000    2.250    0.000    2.625    0.000    7.000 
#    0.000    1.875    0.000    0.000    0.000    0.000 
#    0.000    0.000    0.000    0.000    0.000    0.000 
#
# Total GULP energy -396432.618582 kJ/mol
# GULP energy per Si atom -12388.519331 kJ/mol
# Density = 1.922767 g / cm^3
# Si number density = 19.271537 Si / 1000 Ang^3
#
#
#
# Elastic Constant Matrix: (Units=GPa)
#
#
# Indices 1 2 3 4 5 6 
#
# 1 14.4992 20.1058 11.7311 0.0000 0.0000 0.0000
# 2 20.1058 128.6936 9.0016 0.0000 0.0000 0.0000
# 3 11.7311 9.0016 21.5505 0.0000 0.0000 0.0000
# 4 0.0000 0.0000 0.0000 3.9122 0.0000 0.0000
# 5 0.0000 0.0000 0.0000 0.0000 19.4456 0.0000
# 6 0.0000 0.0000 0.0000 0.0000 0.0000 27.8937
#
#
#
# Elastic Compliance Matrix: (Units=1/GPa)
#
#
# Indices 1 2 3 4 5 6 
#
# 1 0.159679 -0.019435 -0.078804 0.000000 0.000000 0.000000
# 2 -0.019435 0.010370 0.006248 0.000000 0.000000 0.000000
# 3 -0.078804 0.006248 0.086690 0.000000 0.000000 0.000000
# 4 0.000000 0.000000 0.000000 0.255611 0.000000 0.000000
# 5 0.000000 0.000000 0.000000 0.000000 0.051425 0.000000
# 6 0.000000 0.000000 0.000000 0.000000 0.000000 0.035850
#
#
# Mechanical properties :
#
#
# Convention : Reuss Voigt Hill
#
# Bulk Modulus (GPa) = 13.74435 27.38002 20.56219
# Shear Modulus (GPa) = 6.18920 18.51062 12.34991
#
# Velocity S-wave (km/s) = 1.79403 3.10258 2.53422
# Velocity P-wave (km/s) = 3.38213 5.20317 4.38816
#
# Compressibility (1/GPa) = 0.07275719
#
# Stress axis : x y z
#
# Youngs Moduli (GPa) = 6.26256 96.43533 11.53532
#
# Poissons Ratio (x) = 1.87418 0.90903
# Poissons Ratio (y) = 0.12171 -0.07207
# Poissons Ratio (z) = 0.49352 -0.60253
#
# Static dielectric constant tensor:
#      x y z
#    x 3.577310 0.000000 0.000000 
#    y 0.000000 3.870660 0.000000 
#    z 0.000000 0.000000 3.626300 
# 
# 
# High freq. dielectric constant tensor:
#      x y z
#    x 1.749350 0.000000 0.000000 
#    y 0.000000 1.756630 0.000000 
#    z 0.000000 0.000000 1.731490 
# 
# From -- ./inp_files/12010.got.cif
#   From: 2010.03.12/outbox.cif.g09.slc.cpg/sg35_7_cif.got.tgz:12010.got - 2010.04.14 02:02:04.
