data_PCOD8172112
_publ_section_title
;
Structure prediction by ZEFSAII (Michael W. Deem and Ramdas Pophale) SiO2 
 PCOD8172112
Probable space group: P N N 2
;
_chemical_formula_sum "Si O2"
_cell_formula_units_Z 26
_cell_length_a 15.642592
_cell_length_b 6.514863
_cell_length_c 11.475060
_cell_angle_alpha 90.000000
_cell_angle_beta 90.000000
_cell_angle_gamma 90.000000
_cell_volume 1169.415835
_symmetry_space_group_name_H-M "P N N 2"
_symmetry_group_IT_number 34
_symmetry_cell_setting 'orthorhombic'
loop_
_space_group_symop_operation_xyz
x,y,z
-x,-y,z
1/2-x,1/2+y,1/2+z
1/2+x,1/2-y,1/2+z
loop_
_atom_site_type_symbol
_atom_site_label
_atom_site_fract_x
_atom_site_fract_y
_atom_site_fract_z
Si Si1 0.129038 0.327338 0.961330
Si Si2 0.000000 0.000000 0.881275
Si Si3 0.593571 0.588302 0.845391
Si Si4 0.200170 0.308180 0.368447
Si Si5 0.406310 0.054769 0.691274
Si Si6 0.872267 0.317179 0.790513
Si Si7 0.316245 0.157752 0.025914
O O1 0.117168 0.449898 0.839097
O O2 0.067390 0.126755 0.961928
O O3 0.099042 0.497265 0.055890
O O4 0.225711 0.258279 0.988537
O O5 0.044439 0.827507 0.799514
O O6 0.500000 0.500000 0.852827
O O7 0.664730 0.418311 0.860356
O O8 0.607388 0.703571 0.720556
O O9 0.606667 0.741533 0.953041
O O10 0.166844 0.431608 0.257423
O O11 0.301986 0.299486 0.366606
O O12 0.179585 0.417825 0.490754
O O13 0.500000 0.000000 0.741427
O O14 0.837180 0.327043 0.660198
#
# Coordination Sequence:
#
# PCOD8172112 Si02
#       7
#     4   2   4   4   4   4   4
#     4  12  26  49  73 109 146 195 252 308 377 450
#     4  12  28  50  72 108 154 200 252 308 374 452
#     4  11  24  45  74 109 143 185 240 305 369 445
#     4  11  23  45  72 106 139 188 239 300 370 436
#     4  11  23  42  71 109 142 180 242 303 371 434
#     4  12  26  49  73 105 147 198 250 306 373 450
#     4  11  26  46  75 105 147 196 246 307 377 447
#
# _framework density 22.233324
#
# number of rings (size 3 to 8) (size 9 to 14) (size 15 to 20)
#    0.000    0.615    6.154    1.385    1.077    4.923 
#    4.154    0.000    0.000    0.000    0.000    0.000 
#    0.000    0.000    0.000    0.000    0.000    0.000 
#
# Total GULP energy -322314.708805 kJ/mol
# GULP energy per Si atom -12396.719569 kJ/mol
# Density = 2.218272 g / cm^3
# Si number density = 22.233324 Si / 1000 Ang^3
#
#
#
# Elastic Constant Matrix: (Units=GPa)
#
#
# Indices 1 2 3 4 5 6 
#
# 1 85.4513 41.4312 30.9371 0.0000 0.0000 0.0000
# 2 41.4312 137.1672 67.9611 0.0000 0.0000 0.0000
# 3 30.9371 67.9611 113.8770 0.0000 0.0000 0.0000
# 4 0.0000 0.0000 0.0000 32.4262 0.0000 0.0000
# 5 0.0000 0.0000 0.0000 0.0000 28.2778 0.0000
# 6 0.0000 0.0000 0.0000 0.0000 0.0000 49.3710
#
#
#
# Elastic Compliance Matrix: (Units=1/GPa)
#
#
# Indices 1 2 3 4 5 6 
#
# 1 0.013969 -0.003321 -0.001813 0.000000 0.000000 0.000000
# 2 -0.003321 0.011141 -0.005746 0.000000 0.000000 0.000000
# 3 -0.001813 -0.005746 0.012703 0.000000 0.000000 0.000000
# 4 0.000000 0.000000 0.000000 0.030839 0.000000 0.000000
# 5 0.000000 0.000000 0.000000 0.000000 0.035363 0.000000
# 6 0.000000 0.000000 0.000000 0.000000 0.000000 0.020255
#
#
# Mechanical properties :
#
#
# Convention : Reuss Voigt Hill
#
# Bulk Modulus (GPa) = 62.29698 68.57272 65.43485
# Shear Modulus (GPa) = 33.02890 35.09272 34.06081
#
# Velocity S-wave (km/s) = 3.85848 3.97720 3.91829
# Velocity P-wave (km/s) = 6.92322 7.21111 7.06863
#
# Compressibility (1/GPa) = 0.01605214
#
# Stress axis : x y z
#
# Youngs Moduli (GPa) = 71.58607 89.76146 78.71924
#
# Poissons Ratio (x) = 0.29811 0.14272
# Poissons Ratio (y) = 0.23774 0.45235
# Poissons Ratio (z) = 0.12979 0.51581
#
# Static dielectric constant tensor:
#      x y z
#    x 4.099120 0.000000 0.000000 
#    y 0.000000 4.377250 0.000000 
#    z 0.000000 0.000000 3.807380 
# 
# 
# High freq. dielectric constant tensor:
#      x y z
#    x 1.892330 0.000000 0.000000 
#    y 0.000000 1.889500 0.000000 
#    z 0.000000 0.000000 1.857330 
# 
# From -- ./inp_files/4459.got.cif
#   From: 2010.03.12/outbox.cif.g09.slc.cpg/sg34_3_cif.got.tgz:4459.got - 2010.04.14 01:56:33.
