data_PCOD8172119
_publ_section_title
;
Structure prediction by ZEFSAII (Michael W. Deem and Ramdas Pophale) SiO2 
 PCOD8172119
Probable space group: P N N 2
;
_chemical_formula_sum "Si O2"
_cell_formula_units_Z 20
_cell_length_a 7.909273
_cell_length_b 9.359732
_cell_length_c 11.718523
_cell_angle_alpha 90.000000
_cell_angle_beta 90.000000
_cell_angle_gamma 90.000000
_cell_volume 867.506738
_symmetry_space_group_name_H-M "P N N 2"
_symmetry_group_IT_number 34
_symmetry_cell_setting 'orthorhombic'
loop_
_space_group_symop_operation_xyz
x,y,z
-x,-y,z
1/2-x,1/2+y,1/2+z
1/2+x,1/2-y,1/2+z
loop_
_atom_site_type_symbol
_atom_site_label
_atom_site_fract_x
_atom_site_fract_y
_atom_site_fract_z
Si Si1 0.836199 0.923484 0.520820
Si Si2 0.632256 0.107918 0.700462
Si Si3 0.879730 0.281941 0.844176
Si Si4 0.425924 0.655027 0.542342
Si Si5 0.038089 0.654642 0.596444
O O1 0.694129 0.908736 0.423283
O O2 0.893191 0.764984 0.559443
O O3 0.768575 0.024053 0.622260
O O4 0.000000 0.000000 0.467361
O O5 0.727360 0.178963 0.805952
O O6 0.513160 0.222175 0.630854
O O7 0.500000 0.000000 0.756576
O O8 0.966563 0.349632 0.734075
O O9 0.013901 0.187476 0.914408
O O10 0.500000 0.500000 0.580544
O O11 0.225236 0.683937 0.549698
O O12 0.000000 0.500000 0.546684
#
# Coordination Sequence:
#
# PCOD8172119 Si02
#       5
#     4   4   4   4   4
#     4  12  24  49  71 104 148 184 246 305 350 438
#     4  11  25  49  73 105 142 191 244 298 358 438
#     4  11  26  43  75 102 140 194 233 291 377 407
#     4  11  24  44  72 101 143 189 237 299 357 428
#     4  11  27  46  68 106 145 187 245 300 356 440
#
# _framework density 23.054575
#
# number of rings (size 3 to 8) (size 9 to 14) (size 15 to 20)
#    0.000    0.800    6.000    1.200    5.600    5.600 
#    0.000    0.000    0.000    0.000    0.000    0.000 
#    0.000    0.000    0.000    0.000    0.000    0.000 
#
# Total GULP energy -247919.823419 kJ/mol
# GULP energy per Si atom -12395.991171 kJ/mol
# Density = 2.300210 g / cm^3
# Si number density = 23.054575 Si / 1000 Ang^3
#
#
#
# Elastic Constant Matrix: (Units=GPa)
#
#
# Indices 1 2 3 4 5 6 
#
# 1 35.9004 13.8758 24.4318 0.0000 0.0000 0.0000
# 2 13.8758 122.4248 13.8133 0.0000 0.0000 0.0000
# 3 24.4318 13.8133 98.1910 0.0000 0.0000 0.0000
# 4 0.0000 0.0000 0.0000 28.2119 0.0000 0.0000
# 5 0.0000 0.0000 0.0000 0.0000 35.6532 0.0000
# 6 0.0000 0.0000 0.0000 0.0000 0.0000 41.7130
#
#
#
# Elastic Compliance Matrix: (Units=1/GPa)
#
#
# Indices 1 2 3 4 5 6 
#
# 1 0.034582 -0.002996 -0.008183 0.000000 0.000000 0.000000
# 2 -0.002996 0.008560 -0.000459 0.000000 0.000000 0.000000
# 3 -0.008183 -0.000459 0.012285 0.000000 0.000000 0.000000
# 4 0.000000 0.000000 0.000000 0.035446 0.000000 0.000000
# 5 0.000000 0.000000 0.000000 0.000000 0.028048 0.000000
# 6 0.000000 0.000000 0.000000 0.000000 0.000000 0.023973
#
#
# Mechanical properties :
#
#
# Convention : Reuss Voigt Hill
#
# Bulk Modulus (GPa) = 31.10385 40.08424 35.59404
# Shear Modulus (GPa) = 28.26671 34.74198 31.50434
#
# Velocity S-wave (km/s) = 3.50534 3.88615 3.70065
# Velocity P-wave (km/s) = 5.46844 6.12867 5.80795
#
# Compressibility (1/GPa) = 0.03215036
#
# Stress axis : x y z
#
# Youngs Moduli (GPa) = 28.91689 116.82754 81.40093
#
# Poissons Ratio (x) = 0.35004 0.66611
# Poissons Ratio (y) = 0.08664 0.03733
# Poissons Ratio (z) = 0.23663 0.05358
#
# Static dielectric constant tensor:
#      x y z
#    x 4.156860 0.000000 0.000000 
#    y 0.000000 5.182350 0.000000 
#    z 0.000000 0.000000 3.901330 
# 
# 
# High freq. dielectric constant tensor:
#      x y z
#    x 1.916710 0.000000 0.000000 
#    y 0.000000 1.931830 0.000000 
#    z 0.000000 0.000000 1.892730 
# 
# From -- ./inp_files/4790.got.cif
#   From: 2010.03.12/outbox.cif.g09.slc.cpg/sg34_3_cif.got.tgz:4790.got - 2010.04.14 01:56:33.
