data_PCOD8172365
_publ_section_title
;
Structure prediction by ZEFSAII (Michael W. Deem and Ramdas Pophale) SiO2 
 PCOD8172365
Probable space group: C M M 2
;
_chemical_formula_sum "Si O2"
_cell_formula_units_Z 64
_cell_length_a 24.847195
_cell_length_b 17.320598
_cell_length_c 8.285553
_cell_angle_alpha 90.000000
_cell_angle_beta 90.000000
_cell_angle_gamma 90.000000
_cell_volume 3565.839161
_symmetry_space_group_name_H-M "C M M 2"
_symmetry_group_IT_number 35
_symmetry_cell_setting 'orthorhombic'
loop_
_space_group_symop_operation_xyz
x,y,z
-x,-y,z
-x,y,z
x,-y,z
1/2+x,1/2+y,z
1/2-x,1/2-y,z
1/2-x,1/2+y,z
1/2+x,1/2-y,z
loop_
_atom_site_type_symbol
_atom_site_label
_atom_site_fract_x
_atom_site_fract_y
_atom_site_fract_z
Si Si1 0.440126 0.731825 0.602640
Si Si2 0.350655 0.326859 0.015557
Si Si3 0.714968 0.818906 0.497169
Si Si4 0.137777 0.413483 0.093731
Si Si5 0.385538 0.223379 0.293702
Si Si6 0.648783 0.185744 0.795755
Si Si7 0.241739 0.087235 0.213951
Si Si8 0.438129 0.588773 0.807767
O O1 0.500000 0.755163 0.647625
O O2 0.431455 0.746642 0.413148
O O3 0.404772 0.789567 0.705370
O O4 0.429303 0.642023 0.649031
O O5 0.385348 0.283775 0.149577
O O6 0.299844 0.367763 0.099415
O O7 0.328354 0.261874 0.889815
O O8 0.392714 0.387420 0.938162
O O9 0.750000 0.750000 0.565459
O O10 0.671654 0.778625 0.381711
O O11 0.688932 0.852203 0.662234
O O12 0.751332 0.879314 0.396135
O O13 0.115413 0.500000 0.107051
O O14 0.103677 0.362396 0.221468
O O15 0.201047 0.408766 0.128246
O O16 0.131002 0.382584 0.913355
O O17 0.220951 0.000000 0.232937
O O18 0.500000 0.599173 0.873132
O O19 0.428094 0.500000 0.758248
#
# Coordination Sequence:
#
# PCOD8172365 Si02
#       8
#     8   8   8   8   8   8   8   8
#     4   9  18  35  55  76 100 129 173 215 250 305
#     4  10  18  32  51  75 102 132 178 214 246 297
#     4  10  18  31  49  70  98 134 172 207 240 304
#     4   9  19  34  52  76 104 132 165 206 257 310
#     4   9  18  32  53  76  95 134 169 206 257 302
#     4   9  20  31  54  77  97 135 175 204 256 298
#     4  10  20  32  48  72 104 140 167 207 257 293
#     4   9  18  33  52  73 103 140 172 212 260 296
#
# _framework density 17.948089
#
# number of rings (size 3 to 8) (size 9 to 14) (size 15 to 20)
#    0.000    2.625    1.250    0.375    1.750    1.000 
#    0.000    5.000    0.000    3.750    0.000    0.000 
#    0.000    0.000    0.000    0.000    0.000    0.000 
#
# Total GULP energy -396520.084234 kJ/mol
# GULP energy per Si atom -12391.252632 kJ/mol
# Density = 1.790724 g / cm^3
# Si number density = 17.948089 Si / 1000 Ang^3
#
#
#
# Elastic Constant Matrix: (Units=GPa)
#
#
# Indices 1 2 3 4 5 6 
#
# 1 43.4475 34.0618 38.3360 0.0000 0.0000 0.0000
# 2 34.0618 117.3371 60.2264 0.0000 0.0000 0.0000
# 3 38.3360 60.2264 125.0861 0.0000 0.0000 0.0000
# 4 0.0000 0.0000 0.0000 16.2937 0.0000 0.0000
# 5 0.0000 0.0000 0.0000 0.0000 24.3087 0.0000
# 6 0.0000 0.0000 0.0000 0.0000 0.0000 17.4229
#
#
#
# Elastic Compliance Matrix: (Units=1/GPa)
#
#
# Indices 1 2 3 4 5 6 
#
# 1 0.034552 -0.006103 -0.007651 0.000000 0.000000 0.000000
# 2 -0.006103 0.012398 -0.004099 0.000000 0.000000 0.000000
# 3 -0.007651 -0.004099 0.012313 0.000000 0.000000 0.000000
# 4 0.000000 0.000000 0.000000 0.061374 0.000000 0.000000
# 5 0.000000 0.000000 0.000000 0.000000 0.041138 0.000000
# 6 0.000000 0.000000 0.000000 0.000000 0.000000 0.057396
#
#
# Mechanical properties :
#
#
# Convention : Reuss Voigt Hill
#
# Bulk Modulus (GPa) = 42.45032 61.23544 51.84288
# Shear Modulus (GPa) = 19.03116 21.82149 20.42633
#
# Velocity S-wave (km/s) = 3.25983 3.49063 3.37720
# Velocity P-wave (km/s) = 6.15400 7.10198 6.64492
#
# Compressibility (1/GPa) = 0.02355695
#
# Stress axis : x y z
#
# Youngs Moduli (GPa) = 28.94222 80.65825 81.21604
#
# Poissons Ratio (x) = 0.49226 0.62137
# Poissons Ratio (y) = 0.17663 0.33290
# Poissons Ratio (z) = 0.22143 0.33061
#
# Static dielectric constant tensor:
#      x y z
#    x 3.153120 0.000000 0.000000 
#    y 0.000000 3.407580 0.000000 
#    z 0.000000 0.000000 3.506580 
# 
# 
# High freq. dielectric constant tensor:
#      x y z
#    x 1.676130 0.000000 0.000000 
#    y 0.000000 1.688440 0.000000 
#    z 0.000000 0.000000 1.699130 
# 
# From -- ./inp_files/8797.got.cif
#   From: 2010.03.12/outbox.cif.g09.slc.cpg/sg35_5_cif.got.tgz:8797.got - 2010.04.14 02:02:04.
