data_PCOD8172818
_publ_section_title
;
Structure prediction by ZEFSAII (Michael W. Deem and Ramdas Pophale) SiO2 
 PCOD8172818
Probable space group: C M M 2
;
_chemical_formula_sum "Si O2"
_cell_formula_units_Z 64
_cell_length_a 9.071154
_cell_length_b 18.669886
_cell_length_c 20.728899
_cell_angle_alpha 90.000000
_cell_angle_beta 90.000000
_cell_angle_gamma 90.000000
_cell_volume 3510.592669
_symmetry_space_group_name_H-M "C M M 2"
_symmetry_group_IT_number 35
_symmetry_cell_setting 'orthorhombic'
loop_
_space_group_symop_operation_xyz
x,y,z
-x,-y,z
-x,y,z
x,-y,z
1/2+x,1/2+y,z
1/2-x,1/2-y,z
1/2-x,1/2+y,z
1/2+x,1/2-y,z
loop_
_atom_site_type_symbol
_atom_site_label
_atom_site_fract_x
_atom_site_fract_y
_atom_site_fract_z
Si Si1 0.673438 0.326903 0.320330
Si Si2 0.671614 0.417319 0.557662
Si Si3 0.328386 0.582681 0.803334
Si Si4 0.326228 0.326168 0.680498
Si Si5 0.168213 0.823216 0.180498
Si Si6 0.668665 0.084457 0.932591
Si Si7 0.673438 0.673097 0.040666
Si Si8 0.668664 0.084457 0.428405
O O1 0.500000 0.317718 0.333324
O O2 0.750000 0.250000 0.327300
O O3 0.704310 0.362306 0.248735
O O4 0.740183 0.381348 0.370908
O O5 0.500000 0.405988 0.542365
O O6 0.705081 0.500000 0.573946
O O7 0.724566 0.370402 0.617967
O O8 0.763833 0.390327 0.496316
O O9 0.500000 0.594012 0.818631
O O10 0.294918 0.500000 0.787050
O O11 0.275434 0.629598 0.743029
O O12 0.236168 0.609674 0.864680
O O13 0.500000 0.315043 0.680498
O O14 0.250000 0.250000 0.680498
O O15 0.250000 0.750000 0.180500
O O16 0.000000 0.800968 0.180497
O O17 0.204314 0.862305 0.112261
O O18 0.500000 0.110041 0.935687
O O19 0.759816 0.118652 0.990088
O O20 0.683775 0.000000 0.940040
O O21 0.500000 0.682282 0.027672
O O22 0.750000 0.750000 0.033696
O O23 0.500000 0.110042 0.425309
O O24 0.683772 0.000000 0.420956
#
# Coordination Sequence:
#
# PCOD8172818 Si02
#       8
#     8   8   8   8   8   8   8   8
#     4  10  19  33  54  78 104 135 172 214 260 309
#     4   9  18  35  57  76  97 132 175 212 249 299
#     4   9  18  35  57  76  97 132 175 212 249 299
#     4  10  21  35  53  79 107 132 162 206 256 304
#     4   8  16  30  49  74 101 131 169 211 255 306
#     4  10  21  36  53  76 106 138 174 215 257 304
#     4  10  19  33  54  78 104 135 172 214 260 309
#     4  10  21  36  53  76 106 138 174 215 257 304
#
# _framework density 18.230540000000001
#
# number of rings (size 3 to 8) (size 9 to 14) (size 15 to 20)
#    0.000    2.500    0.000    1.875    0.000    6.000 
#    0.000    3.125    0.000    7.500    0.000    0.000 
#    0.000    0.000    0.000    0.000    0.000    0.000 
#
# Total GULP energy -396636.847082 kJ/mol
# GULP energy per Si atom -12394.901471 kJ/mol
# Density = 1.818905 g / cm^3
# Si number density = 18.230540 Si / 1000 Ang^3
#
#
#
# Elastic Constant Matrix: (Units=GPa)
#
#
# Indices 1 2 3 4 5 6 
#
# 1 94.5572 38.4512 81.3752 0.0000 0.0000 0.0000
# 2 38.4512 56.7928 66.3300 0.0000 0.0000 0.0000
# 3 81.3752 66.3300 191.6475 0.0000 0.0000 0.0000
# 4 0.0000 0.0000 0.0000 30.8178 0.0000 0.0000
# 5 0.0000 0.0000 0.0000 0.0000 26.0235 0.0000
# 6 0.0000 0.0000 0.0000 0.0000 0.0000 31.3583
#
#
#
# Elastic Compliance Matrix: (Units=1/GPa)
#
#
# Indices 1 2 3 4 5 6 
#
# 1 0.017582 -0.005345 -0.005615 0.000000 0.000000 0.000000
# 2 -0.005345 0.031180 -0.008522 0.000000 0.000000 0.000000
# 3 -0.005615 -0.008522 0.010552 0.000000 0.000000 0.000000
# 4 0.000000 0.000000 0.000000 0.032449 0.000000 0.000000
# 5 0.000000 0.000000 0.000000 0.000000 0.038427 0.000000
# 6 0.000000 0.000000 0.000000 0.000000 0.000000 0.031889
#
#
# Mechanical properties :
#
#
# Convention : Reuss Voigt Hill
#
# Bulk Modulus (GPa) = 49.14415 79.47894 64.31154
# Shear Modulus (GPa) = 24.05860 28.09598 26.07729
#
# Velocity S-wave (km/s) = 3.63669 3.93001 3.78619
# Velocity P-wave (km/s) = 6.68203 8.01776 7.38018
#
# Compressibility (1/GPa) = 0.02034830
#
# Stress axis : x y z
#
# Youngs Moduli (GPa) = 56.87706 32.07213 94.77184
#
# Poissons Ratio (x) = 0.17144 0.53218
# Poissons Ratio (y) = 0.30403 0.80762
# Poissons Ratio (z) = 0.31938 0.27331
#
# Static dielectric constant tensor:
#      x y z
#    x 3.466820 0.000000 0.000000 
#    y 0.000000 3.071750 0.000000 
#    z 0.000000 0.000000 3.904570 
# 
# 
# High freq. dielectric constant tensor:
#      x y z
#    x 1.713760 0.000000 0.000000 
#    y 0.000000 1.679590 0.000000 
#    z 0.000000 0.000000 1.728870 
# 
# From -- ./inp_files/18436.got.cif
#   From: 2010.03.12/outbox.cif.g09.slc.cpg/sg35_10_cif.got.tgz:18436.got - 2010.04.14 02:02:04.
