data_PCOD8172326
_publ_section_title
;
Structure prediction by ZEFSAII (Michael W. Deem and Ramdas Pophale) SiO2 
 PCOD8172326
Probable space group: C M M 2
;
_chemical_formula_sum "Si O2"
_cell_formula_units_Z 56
_cell_length_a 29.168278
_cell_length_b 8.634299
_cell_length_c 12.868409
_cell_angle_alpha 90.000000
_cell_angle_beta 90.000000
_cell_angle_gamma 90.000000
_cell_volume 3240.878354
_symmetry_space_group_name_H-M "C M M 2"
_symmetry_group_IT_number 35
_symmetry_cell_setting 'orthorhombic'
loop_
_space_group_symop_operation_xyz
x,y,z
-x,-y,z
-x,y,z
x,-y,z
1/2+x,1/2+y,z
1/2-x,1/2-y,z
1/2-x,1/2+y,z
1/2+x,1/2-y,z
loop_
_atom_site_type_symbol
_atom_site_label
_atom_site_fract_x
_atom_site_fract_y
_atom_site_fract_z
Si Si1 0.355829 0.182950 0.796850
Si Si2 0.699770 0.182612 0.592692
Si Si3 0.200643 0.683967 0.199277
Si Si4 0.355804 0.815737 0.394868
Si Si5 0.200896 0.817802 0.979261
Si Si6 0.549957 0.184304 0.475941
Si Si7 0.449970 0.183531 0.709506
O O1 0.328306 0.232670 0.694304
O O2 0.336734 0.275677 0.894411
O O3 0.408615 0.239209 0.783344
O O4 0.351822 0.000000 0.817524
O O5 0.750000 0.250000 0.600566
O O6 0.674283 0.249414 0.490719
O O7 0.703314 0.000000 0.585343
O O8 0.203550 0.500000 0.194223
O O9 0.250000 0.750000 0.230074
O O10 0.164805 0.742979 0.286005
O O11 0.184199 0.748063 0.088593
O O12 0.408233 0.753347 0.404805
O O13 0.355136 0.000000 0.399157
O O14 0.250000 0.750000 0.945459
O O15 0.206089 0.000000 0.990507
O O16 0.500000 0.239741 0.432889
O O17 0.556867 0.248384 0.592879
O O18 0.551370 0.000000 0.478580
O O19 0.500000 0.237222 0.753088
O O20 0.447880 0.000000 0.702742
#
# Coordination Sequence:
#
# PCOD8172326 Si02
#       7
#     8   8   8   8   8   8   8
#     4  10  18  30  49  72 100 128 157 195 238 285
#     4  10  19  29  42  65  98 129 153 183 228 282
#     4  10  19  32  50  69  93 124 161 200 237 278
#     4   9  16  27  43  67  97 126 153 187 233 281
#     4  11  22  36  52  69  92 123 165 206 243 285
#     4   8  12  21  40  67  98 127 154 186 229 280
#     4   8  13  23  43  71 100 128 158 193 234 280
#
# _framework density 17.279266
#
# number of rings (size 3 to 8) (size 9 to 14) (size 15 to 20)
#    0.000    2.571    1.429    4.286    0.000    1.714 
#    0.000    0.714    0.000    1.286    0.000    4.000 
#    0.000    4.571    0.000    0.000    0.000    0.000 
#
# Total GULP energy -347045.843015 kJ/mol
# GULP energy per Si atom -12394.494393 kJ/mol
# Density = 1.723994 g / cm^3
# Si number density = 17.279266 Si / 1000 Ang^3
#
#
#
# Elastic Constant Matrix: (Units=GPa)
#
#
# Indices 1 2 3 4 5 6 
#
# 1 165.3907 27.2783 85.9944 0.0000 0.0000 0.0000
# 2 27.2783 41.0531 30.2881 0.0000 0.0000 0.0000
# 3 85.9944 30.2881 119.6150 0.0000 0.0000 0.0000
# 4 0.0000 0.0000 0.0000 14.5011 0.0000 0.0000
# 5 0.0000 0.0000 0.0000 0.0000 27.7104 0.0000
# 6 0.0000 0.0000 0.0000 0.0000 0.0000 16.7828
#
#
#
# Elastic Compliance Matrix: (Units=1/GPa)
#
#
# Indices 1 2 3 4 5 6 
#
# 1 0.009741 -0.001606 -0.006596 0.000000 0.000000 0.000000
# 2 -0.001606 0.030219 -0.006497 0.000000 0.000000 0.000000
# 3 -0.006596 -0.006497 0.014748 0.000000 0.000000 0.000000
# 4 0.000000 0.000000 0.000000 0.068960 0.000000 0.000000
# 5 0.000000 0.000000 0.000000 0.000000 0.036088 0.000000
# 6 0.000000 0.000000 0.000000 0.000000 0.000000 0.059585
#
#
# Mechanical properties :
#
#
# Convention : Reuss Voigt Hill
#
# Bulk Modulus (GPa) = 39.51217 68.13116 53.82167
# Shear Modulus (GPa) = 19.44193 23.96540 21.70366
#
# Velocity S-wave (km/s) = 3.35798 3.72821 3.54793
# Velocity P-wave (km/s) = 6.16045 7.61891 6.92816
#
# Compressibility (1/GPa) = 0.02530866
#
# Stress axis : x y z
#
# Youngs Moduli (GPa) = 102.65972 33.09134 67.80713
#
# Poissons Ratio (x) = 0.05314 0.44728
# Poissons Ratio (y) = 0.16485 0.44057
# Poissons Ratio (z) = 0.67718 0.21501
#
# Static dielectric constant tensor:
#      x y z
#    x 3.592450 0.000000 0.000000 
#    y 0.000000 2.836040 0.000000 
#    z 0.000000 0.000000 3.234340 
# 
# 
# High freq. dielectric constant tensor:
#      x y z
#    x 1.676160 0.000000 0.000000 
#    y 0.000000 1.629610 0.000000 
#    z 0.000000 0.000000 1.652050 
# 
# From -- ./inp_files/17684.got.cif
#   From: 2010.03.12/outbox.cif.g09.slc.cpg/sg35_9_cif.got.tgz:17684.got - 2010.04.14 02:02:04.
