data_PCOD8172358
_publ_section_title
;
Structure prediction by ZEFSAII (Michael W. Deem and Ramdas Pophale) SiO2 
 PCOD8172358
Probable space group: C M M 2
;
_chemical_formula_sum "Si O2"
_cell_formula_units_Z 64
_cell_length_a 8.943860
_cell_length_b 28.969602
_cell_length_c 12.256212
_cell_angle_alpha 90.000000
_cell_angle_beta 90.000000
_cell_angle_gamma 90.000000
_cell_volume 3175.585320
_symmetry_space_group_name_H-M "C M M 2"
_symmetry_group_IT_number 35
_symmetry_cell_setting 'orthorhombic'
loop_
_space_group_symop_operation_xyz
x,y,z
-x,-y,z
-x,y,z
x,-y,z
1/2+x,1/2+y,z
1/2-x,1/2-y,z
1/2-x,1/2+y,z
1/2+x,1/2-y,z
loop_
_atom_site_type_symbol
_atom_site_label
_atom_site_fract_x
_atom_site_fract_y
_atom_site_fract_z
Si Si1 0.671923 0.571214 0.340240
Si Si2 0.331784 0.204880 0.194332
Si Si3 0.326746 0.449059 0.583299
Si Si4 0.328648 0.051592 0.119175
Si Si5 0.166306 0.657918 0.404402
Si Si6 0.676752 0.300088 0.836077
Si Si7 0.176264 0.862145 0.041148
Si Si8 0.327166 0.856413 0.646812
O O1 0.500000 0.564862 0.307197
O O2 0.709959 0.546553 0.454661
O O3 0.769297 0.550529 0.243018
O O4 0.706975 0.624769 0.357719
O O5 0.500000 0.206523 0.149420
O O6 0.250000 0.250000 0.150198
O O7 0.327755 0.203049 0.326840
O O8 0.249397 0.160073 0.148113
O O9 0.500000 0.435702 0.600250
O O10 0.292164 0.500000 0.633853
O O11 0.228771 0.409592 0.641915
O O12 0.500000 0.067963 0.121359
O O13 0.237233 0.085444 0.038176
O O14 0.313225 0.000000 0.070951
O O15 0.196618 0.669288 0.530738
O O16 0.000000 0.635177 0.394748
O O17 0.500000 0.293348 0.829968
O O18 0.750000 0.250000 0.850018
O O19 0.731731 0.325672 0.728282
O O20 0.725074 0.332978 0.935832
O O21 0.000000 0.863379 0.054875
O O22 0.500000 0.856848 0.682744
#
# Coordination Sequence:
#
# PCOD8172358 Si02
#       8
#     8   8   8   8   8   8   8   8
#     4  10  18  30  53  83 118 161 205 245 287 344
#     4  11  22  36  57  85 121 158 194 238 295 358
#     4   9  18  33  54  84 123 165 206 247 294 348
#     4  11  23  37  56  85 122 162 200 242 296 354
#     4   9  19  35  54  82 121 161 196 239 294 350
#     4  11  25  45  68  92 116 149 197 251 305 359
#     4  11  24  42  64  89 117 151 198 251 302 355
#     4  10  21  38  61  89 121 156 200 249 299 354
#
# _framework density 20.153765
#
# number of rings (size 3 to 8) (size 9 to 14) (size 15 to 20)
#    0.000    1.750    1.250    3.000    0.000    6.750 
#    0.000    1.875    0.000    0.750    0.000    0.000 
#    0.000    0.000    0.000    0.000    0.000    0.000 
#
# Total GULP energy -396716.228393 kJ/mol
# GULP energy per Si atom -12397.382137 kJ/mol
# Density = 2.010789 g / cm^3
# Si number density = 20.153765 Si / 1000 Ang^3
#
#
#
# Elastic Constant Matrix: (Units=GPa)
#
#
# Indices 1 2 3 4 5 6 
#
# 1 105.3780 57.0023 44.8282 0.0000 0.0000 0.0000
# 2 57.0023 115.7111 48.4694 0.0000 0.0000 0.0000
# 3 44.8282 48.4694 91.1647 0.0000 0.0000 0.0000
# 4 0.0000 0.0000 0.0000 15.3617 0.0000 0.0000
# 5 0.0000 0.0000 0.0000 0.0000 28.8147 0.0000
# 6 0.0000 0.0000 0.0000 0.0000 0.0000 34.8558
#
#
#
# Elastic Compliance Matrix: (Units=1/GPa)
#
#
# Indices 1 2 3 4 5 6 
#
# 1 0.014064 -0.005187 -0.004158 0.000000 0.000000 0.000000
# 2 -0.005187 0.013031 -0.004378 0.000000 0.000000 0.000000
# 3 -0.004158 -0.004378 0.015341 0.000000 0.000000 0.000000
# 4 0.000000 0.000000 0.000000 0.065097 0.000000 0.000000
# 5 0.000000 0.000000 0.000000 0.000000 0.034704 0.000000
# 6 0.000000 0.000000 0.000000 0.000000 0.000000 0.028690
#
#
# Mechanical properties :
#
#
# Convention : Reuss Voigt Hill
#
# Bulk Modulus (GPa) = 66.70476 68.09485 67.39980
# Shear Modulus (GPa) = 24.58572 26.60335 25.59454
#
# Velocity S-wave (km/s) = 3.49651 3.63715 3.56752
# Velocity P-wave (km/s) = 7.03353 7.17631 7.10528
#
# Compressibility (1/GPa) = 0.01499143
#
# Stress axis : x y z
#
# Youngs Moduli (GPa) = 71.10283 76.73977 65.18304
#
# Poissons Ratio (x) = 0.39802 0.27104
# Poissons Ratio (y) = 0.36878 0.28536
# Poissons Ratio (z) = 0.29566 0.33595
#
# Static dielectric constant tensor:
#      x y z
#    x 3.736530 0.000000 0.000000 
#    y 0.000000 3.727840 0.000000 
#    z 0.000000 0.000000 3.540100 
# 
# 
# High freq. dielectric constant tensor:
#      x y z
#    x 1.797370 0.000000 0.000000 
#    y 0.000000 1.784960 0.000000 
#    z 0.000000 0.000000 1.768990 
# 
# From -- ./inp_files/12001.got.cif
#   From: 2010.03.12/outbox.cif.g09.slc.cpg/sg35_7_cif.got.tgz:12001.got - 2010.04.14 02:02:04.
