data_PCOD8172893
_publ_section_title
;
Structure prediction by ZEFSAII (Michael W. Deem and Ramdas Pophale) SiO2 
 PCOD8172893
Probable space group: C M M 2
;
_chemical_formula_sum "Si O2"
_cell_formula_units_Z 64
_cell_length_a 14.743833
_cell_length_b 23.485244
_cell_length_c 9.360843
_cell_angle_alpha 90.000000
_cell_angle_beta 90.000000
_cell_angle_gamma 90.000000
_cell_volume 3241.309044
_symmetry_space_group_name_H-M "C M M 2"
_symmetry_group_IT_number 35
_symmetry_cell_setting 'orthorhombic'
loop_
_space_group_symop_operation_xyz
x,y,z
-x,-y,z
-x,y,z
x,-y,z
1/2+x,1/2+y,z
1/2-x,1/2-y,z
1/2-x,1/2+y,z
1/2+x,1/2-y,z
loop_
_atom_site_type_symbol
_atom_site_label
_atom_site_fract_x
_atom_site_fract_y
_atom_site_fract_z
Si Si1 0.393097 0.743862 0.079230
Si Si2 0.396470 0.281667 0.394441
Si Si3 0.102975 0.879465 0.020225
Si Si4 0.717867 0.384152 0.522929
Si Si5 0.255703 0.566703 0.828099
Si Si6 0.399754 0.561985 0.307250
Si Si7 0.599171 0.833267 0.561288
Si Si8 0.895651 0.347612 0.887787
O O1 0.500000 0.751091 0.086932
O O2 0.355057 0.737391 0.240592
O O3 0.368494 0.686222 0.991120
O O4 0.354898 0.799784 0.997322
O O5 0.500000 0.303920 0.376434
O O6 0.338155 0.328428 0.477887
O O7 0.391799 0.227906 0.494678
O O8 0.113527 0.888788 0.190453
O O9 0.000000 0.890929 0.971844
O O10 0.164864 0.925122 0.941677
O O11 0.707364 0.401416 0.687628
O O12 0.678438 0.434792 0.426716
O O13 0.825267 0.375230 0.495176
O O14 0.236851 0.500000 0.800615
O O15 0.164433 0.595019 0.893255
O O16 0.500000 0.568331 0.377389
O O17 0.390907 0.500000 0.233912
O O18 0.500000 0.860418 0.528950
O O19 0.611863 0.822377 0.729342
O O20 0.000000 0.363166 0.926057
#
# Coordination Sequence:
#
# PCOD8172893 Si02
#       8
#     8   8   8   8   8   8   8   8
#     4   9  18  35  59  88 117 147 186 232 293 358
#     4  10  19  34  56  86 120 147 183 235 293 360
#     4  10  21  38  57  82 118 155 190 235 293 354
#     4  11  21  36  56  82 115 152 201 243 287 348
#     4  11  25  40  56  84 118 157 205 248 289 342
#     4  10  20  36  58  82 113 155 198 239 288 350
#     4   9  20  36  55  80 115 152 187 238 299 351
#     4   9  20  40  63  85 112 150 194 243 298 350
#
# _framework density 19.745108999999999
#
# number of rings (size 3 to 8) (size 9 to 14) (size 15 to 20)
#    0.000    2.125    1.250    1.500    1.750    3.500 
#    2.250    0.000    0.000    1.125    0.000    0.000 
#    0.000    5.000    0.000    0.000    0.000    0.000 
#
# Total GULP energy -396600.292930 kJ/mol
# GULP energy per Si atom -12393.759154 kJ/mol
# Density = 1.970017 g / cm^3
# Si number density = 19.745109 Si / 1000 Ang^3
#
#
#
# Elastic Constant Matrix: (Units=GPa)
#
#
# Indices 1 2 3 4 5 6 
#
# 1 112.1048 56.2187 52.9111 0.0000 0.0000 0.0000
# 2 56.2187 106.9251 50.9131 0.0000 0.0000 0.0000
# 3 52.9111 50.9131 76.7992 0.0000 0.0000 0.0000
# 4 0.0000 0.0000 0.0000 30.3832 0.0000 0.0000
# 5 0.0000 0.0000 0.0000 0.0000 21.7109 0.0000
# 6 0.0000 0.0000 0.0000 0.0000 0.0000 28.1958
#
#
#
# Elastic Compliance Matrix: (Units=1/GPa)
#
#
# Indices 1 2 3 4 5 6 
#
# 1 0.014380 -0.004155 -0.007153 0.000000 0.000000 0.000000
# 2 -0.004155 0.014867 -0.006993 0.000000 0.000000 0.000000
# 3 -0.007153 -0.006993 0.022585 0.000000 0.000000 0.000000
# 4 0.000000 0.000000 0.000000 0.032913 0.000000 0.000000
# 5 0.000000 0.000000 0.000000 0.000000 0.046060 0.000000
# 6 0.000000 0.000000 0.000000 0.000000 0.000000 0.035466
#
#
# Mechanical properties :
#
#
# Convention : Reuss Voigt Hill
#
# Bulk Modulus (GPa) = 65.65973 68.43499 67.04736
# Shear Modulus (GPa) = 24.04447 25.11039 24.57743
#
# Velocity S-wave (km/s) = 3.49340 3.57000 3.53191
# Velocity P-wave (km/s) = 7.04256 7.19219 7.11777
#
# Compressibility (1/GPa) = 0.01523003
#
# Stress axis : x y z
#
# Youngs Moduli (GPa) = 69.54294 67.26442 44.27744
#
# Poissons Ratio (x) = 0.27947 0.31670
# Poissons Ratio (y) = 0.28893 0.30964
# Poissons Ratio (z) = 0.49741 0.47040
#
# Static dielectric constant tensor:
#      x y z
#    x 3.794800 0.000000 0.000000 
#    y 0.000000 3.542330 0.000000 
#    z 0.000000 0.000000 3.598930 
# 
# 
# High freq. dielectric constant tensor:
#      x y z
#    x 1.769430 0.000000 0.000000 
#    y 0.000000 1.763660 0.000000 
#    z 0.000000 0.000000 1.762020 
# 
# From -- ./inp_files/7873.got.cif
#   From: 2010.03.12/outbox.cif.g09.slc.cpg/sg35_4_cif.got.tgz:7873.got - 2010.04.14 02:02:04.
