data_PCOD8172568
_publ_section_title
;
Structure prediction by ZEFSAII (Michael W. Deem and Ramdas Pophale) SiO2 
 PCOD8172568
Probable space group: C M M 2
;
_chemical_formula_sum "Si O2"
_cell_formula_units_Z 64
_cell_length_a 9.061656
_cell_length_b 28.274026
_cell_length_c 15.428798
_cell_angle_alpha 90.000000
_cell_angle_beta 90.000000
_cell_angle_gamma 90.000000
_cell_volume 3953.004580
_symmetry_space_group_name_H-M "C M M 2"
_symmetry_group_IT_number 35
_symmetry_cell_setting 'orthorhombic'
loop_
_space_group_symop_operation_xyz
x,y,z
-x,-y,z
-x,y,z
x,-y,z
1/2+x,1/2+y,z
1/2-x,1/2-y,z
1/2-x,1/2+y,z
1/2+x,1/2-y,z
loop_
_atom_site_type_symbol
_atom_site_label
_atom_site_fract_x
_atom_site_fract_y
_atom_site_fract_z
Si Si1 0.831135 0.444812 0.265470
Si Si2 0.333824 0.556181 0.775996
Si Si3 0.671838 0.296749 0.180499
Si Si4 0.172021 0.554465 0.606004
Si Si5 0.827523 0.388173 0.436783
Si Si6 0.674069 0.702436 0.379003
Si Si7 0.326280 0.054900 0.948712
Si Si8 0.826114 0.102974 0.108771
O O1 0.808925 0.500000 0.280869
O O2 0.785338 0.419473 0.353988
O O3 0.723358 0.428072 0.190087
O O4 0.000000 0.433238 0.239366
O O5 0.500000 0.575853 0.782740
O O6 0.331324 0.500000 0.773509
O O7 0.259341 0.575575 0.688317
O O8 0.241714 0.573668 0.858859
O O9 0.500000 0.286656 0.176469
O O10 0.750000 0.250000 0.142599
O O11 0.721525 0.306441 0.279317
O O12 0.716096 0.342189 0.123824
O O13 0.213312 0.500000 0.588838
O O14 0.220432 0.583402 0.521853
O O15 0.000000 0.559951 0.626144
O O16 0.734335 0.340267 0.436666
O O17 0.000000 0.375900 0.437493
O O18 0.500000 0.706658 0.390245
O O19 0.750000 0.750000 0.413797
O O20 0.500000 0.062735 0.945673
O O21 0.286722 0.000000 0.965399
O O22 0.257937 0.086228 0.024036
O O23 0.000000 0.096146 0.096367
#
# Coordination Sequence:
#
# PCOD8172568 Si02
#       8
#     8   8   8   8   8   8   8   8
#     4  10  20  32  45  64  94 132 169 198 227 273
#     4   9  17  30  48  70  95 124 159 201 246 284
#     4   9  19  33  49  68  91 120 157 200 244 286
#     4   9  17  30  48  70  98 131 165 200 237 282
#     4  10  19  31  48  70  96 129 165 200 239 282
#     4  10  19  33  50  69  93 122 160 204 248 290
#     4  10  20  33  49  70  96 128 165 200 236 283
#     4  11  21  33  47  69  97 126 160 199 242 286
#
# _framework density 16.190217000000001
#
# number of rings (size 3 to 8) (size 9 to 14) (size 15 to 20)
#    0.000    2.250    1.250    2.250    0.000    7.500 
#    0.000    0.000    0.000    2.250    0.000    0.875 
#    0.000    2.000    0.000    0.000    0.000    0.000 
#
# Total GULP energy -396876.680785 kJ/mol
# GULP energy per Si atom -12402.396275 kJ/mol
# Density = 1.615337 g / cm^3
# Si number density = 16.190217 Si / 1000 Ang^3
#
#
#
# Elastic Constant Matrix: (Units=GPa)
#
#
# Indices 1 2 3 4 5 6 
#
# 1 74.3262 47.2674 54.4141 0.0000 0.0000 0.0000
# 2 47.2674 95.4086 54.3963 0.0000 0.0000 0.0000
# 3 54.4141 54.3963 123.7043 0.0000 0.0000 0.0000
# 4 0.0000 0.0000 0.0000 0.5026 0.0000 0.0000
# 5 0.0000 0.0000 0.0000 0.0000 22.3023 0.0000
# 6 0.0000 0.0000 0.0000 0.0000 0.0000 27.1052
#
#
#
# Elastic Compliance Matrix: (Units=1/GPa)
#
#
# Indices 1 2 3 4 5 6 
#
# 1 0.023380 -0.007633 -0.006928 0.000000 0.000000 0.000000
# 2 -0.007633 0.016480 -0.003889 0.000000 0.000000 0.000000
# 3 -0.006928 -0.003889 0.012841 0.000000 0.000000 0.000000
# 4 0.000000 0.000000 0.000000 1.989780 0.000000 0.000000
# 5 0.000000 0.000000 0.000000 0.000000 0.044838 0.000000
# 6 0.000000 0.000000 0.000000 0.000000 0.000000 0.036893
#
#
# Mechanical properties :
#
#
# Convention : Reuss Voigt Hill
#
# Bulk Modulus (GPa) = 63.28536 67.28832 65.28684
# Shear Modulus (GPa) = 2.30800 19.13943 10.72371
#
# Velocity S-wave (km/s) = 1.19526 3.44199 2.57642
# Velocity P-wave (km/s) = 6.40924 7.57942 7.01876
#
# Compressibility (1/GPa) = 0.01580144
#
# Stress axis : x y z
#
# Youngs Moduli (GPa) = 42.77078 60.67843 77.87357
#
# Poissons Ratio (x) = 0.46318 0.53949
# Poissons Ratio (y) = 0.32648 0.30286
# Poissons Ratio (z) = 0.29631 0.23599
#
# Static dielectric constant tensor:
#      x y z
#    x 3.184400 0.000000 0.000000 
#    y 0.000000 2.970110 0.000000 
#    z 0.000000 0.000000 3.084810 
# 
# 
# High freq. dielectric constant tensor:
#      x y z
#    x 1.631340 0.000000 0.000000 
#    y 0.000000 1.602950 0.000000 
#    z 0.000000 0.000000 1.611940 
# 
# From -- ./inp_files/15944.got.cif
#   From: 2010.03.12/outbox.cif.g09.slc.cpg/sg35_8_cif.got.tgz:15944.got - 2010.04.14 02:02:04.
