data_PCOD8172867
_publ_section_title
;
Structure prediction by ZEFSAII (Michael W. Deem and Ramdas Pophale) SiO2 
 PCOD8172867
Probable space group: C M M 2
;
_chemical_formula_sum "Si O2"
_cell_formula_units_Z 56
_cell_length_a 23.688794
_cell_length_b 18.358928
_cell_length_c 7.818191
_cell_angle_alpha 90.000000
_cell_angle_beta 90.000000
_cell_angle_gamma 90.000000
_cell_volume 3400.138017
_symmetry_space_group_name_H-M "C M M 2"
_symmetry_group_IT_number 35
_symmetry_cell_setting 'orthorhombic'
loop_
_space_group_symop_operation_xyz
x,y,z
-x,-y,z
-x,y,z
x,-y,z
1/2+x,1/2+y,z
1/2-x,1/2-y,z
1/2-x,1/2+y,z
1/2+x,1/2-y,z
loop_
_atom_site_type_symbol
_atom_site_label
_atom_site_fract_x
_atom_site_fract_y
_atom_site_fract_z
Si Si1 0.809124 0.281176 0.799510
Si Si2 0.433524 0.583928 0.602039
Si Si3 0.255515 0.919254 0.900712
Si Si4 0.190876 0.718824 0.404568
Si Si5 0.135952 0.147004 0.297262
Si Si6 0.635952 0.352996 0.906815
Si Si7 0.744485 0.919254 0.303366
O O1 0.750000 0.250000 0.868451
O O2 0.807093 0.367896 0.835526
O O3 0.818508 0.264997 0.602039
O O4 0.857640 0.235544 0.898248
O O5 0.500000 0.593394 0.602039
O O6 0.414971 0.500000 0.602039
O O7 0.411880 0.621186 0.427634
O O8 0.411880 0.621186 0.776444
O O9 0.194422 0.889538 0.842222
O O10 0.264425 0.000000 0.822927
O O11 0.257833 0.922037 0.102039
O O12 0.250000 0.750000 0.335627
O O13 0.142360 0.764456 0.305830
O O14 0.192907 0.632104 0.368551
O O15 0.194422 0.110462 0.361856
O O16 0.120402 0.124398 0.102039
O O17 0.735575 0.000000 0.381151
#
# Coordination Sequence:
#
# PCOD8172867 Si02
#       7
#     8   8   8   8   8   8   8
#     4   9  16  27  44  68  94 125 161 191 225 273
#     4  11  24  38  51  70  93 117 156 209 250 280
#     4   9  17  27  42  69 101 131 161 190 224 274
#     4   9  16  27  44  68  94 125 161 191 225 273
#     4  10  19  34  52  68  92 129 164 194 234 281
#     4  10  19  34  52  68  92 129 164 194 234 281
#     4   9  17  27  42  69 101 131 161 190 224 274
#
# _framework density 16.469919000000001
#
# number of rings (size 3 to 8) (size 9 to 14) (size 15 to 20)
#    0.000    2.429    1.429    1.714    2.000    6.286 
#    0.000    1.429    0.000    0.000    0.000    0.000 
#    0.000    2.286    0.000    6.000    0.000    0.000 
#
# Total GULP energy -347005.956102 kJ/mol
# GULP energy per Si atom -12393.069861 kJ/mol
# Density = 1.643243 g / cm^3
# Si number density = 16.469919 Si / 1000 Ang^3
#
#
#
# Elastic Constant Matrix: (Units=GPa)
#
#
# Indices 1 2 3 4 5 6 
#
# 1 46.7140 38.2901 30.4572 0.0000 0.0000 0.0000
# 2 38.2901 127.0532 27.3210 0.0000 0.0000 0.0000
# 3 30.4572 27.3210 76.5788 0.0000 0.0000 0.0000
# 4 0.0000 0.0000 0.0000 24.1513 0.0000 0.0000
# 5 0.0000 0.0000 0.0000 0.0000 18.8742 0.0000
# 6 0.0000 0.0000 0.0000 0.0000 0.0000 19.4993
#
#
#
# Elastic Compliance Matrix: (Units=1/GPa)
#
#
# Indices 1 2 3 4 5 6 
#
# 1 0.035474 -0.008293 -0.011150 0.000000 0.000000 0.000000
# 2 -0.008293 0.010464 -0.000435 0.000000 0.000000 0.000000
# 3 -0.011150 -0.000435 0.017648 0.000000 0.000000 0.000000
# 4 0.000000 0.000000 0.000000 0.041406 0.000000 0.000000
# 5 0.000000 0.000000 0.000000 0.000000 0.052982 0.000000
# 6 0.000000 0.000000 0.000000 0.000000 0.000000 0.051284
#
#
# Mechanical properties :
#
#
# Convention : Reuss Voigt Hill
#
# Bulk Modulus (GPa) = 41.96406 49.16473 45.56440
# Shear Modulus (GPa) = 19.45847 22.79016 21.12431
#
# Velocity S-wave (km/s) = 3.44096 3.72391 3.58523
# Velocity P-wave (km/s) = 6.42818 6.95744 6.69804
#
# Compressibility (1/GPa) = 0.02382991
#
# Stress axis : x y z
#
# Youngs Moduli (GPa) = 28.18929 95.57001 56.66295
#
# Poissons Ratio (x) = 0.79259 0.63181
# Poissons Ratio (y) = 0.23378 0.02463
# Poissons Ratio (z) = 0.31432 0.04154
#
# Static dielectric constant tensor:
#      x y z
#    x 2.626270 0.000000 0.000000 
#    y 0.000000 3.586920 0.000000 
#    z 0.000000 0.000000 3.055040 
# 
# 
# High freq. dielectric constant tensor:
#      x y z
#    x 1.560540 0.000000 0.000000 
#    y 0.000000 1.644230 0.000000 
#    z 0.000000 0.000000 1.646540 
# 
# From -- ./inp_files/8804.got.cif
#   From: 2010.03.12/outbox.cif.g09.slc.cpg/sg35_5_cif.got.tgz:8804.got - 2010.04.14 02:02:04.
