data_PCOD8172563
_publ_section_title
;
Structure prediction by ZEFSAII (Michael W. Deem and Ramdas Pophale) SiO2 
 PCOD8172563
Probable space group: C M M 2
;
_chemical_formula_sum "Si O2"
_cell_formula_units_Z 64
_cell_length_a 28.280344
_cell_length_b 8.842479
_cell_length_c 15.677415
_cell_angle_alpha 90.000000
_cell_angle_beta 90.000000
_cell_angle_gamma 90.000000
_cell_volume 3920.425269
_symmetry_space_group_name_H-M "C M M 2"
_symmetry_group_IT_number 35
_symmetry_cell_setting 'orthorhombic'
loop_
_space_group_symop_operation_xyz
x,y,z
-x,-y,z
-x,y,z
x,-y,z
1/2+x,1/2+y,z
1/2-x,1/2-y,z
1/2-x,1/2+y,z
1/2+x,1/2-y,z
loop_
_atom_site_type_symbol
_atom_site_label
_atom_site_fract_x
_atom_site_fract_y
_atom_site_fract_z
Si Si1 0.801194 0.322432 0.524600
Si Si2 0.301190 0.321785 0.020485
Si Si3 0.053698 0.176331 0.109594
Si Si4 0.639025 0.676885 0.854754
Si Si5 0.946542 0.325298 0.929237
Si Si6 0.199376 0.323780 0.337726
Si Si7 0.857845 0.678637 0.175252
Si Si8 0.301609 0.321235 0.691330
O O1 0.798216 0.500000 0.542672
O O2 0.750000 0.250000 0.522045
O O3 0.823568 0.287620 0.431238
O O4 0.827121 0.241939 0.604746
O O5 0.295955 0.500000 0.030823
O O6 0.250000 0.250000 0.014534
O O7 0.328541 0.257701 0.101232
O O8 0.329197 0.277129 0.935358
O O9 0.087845 0.266811 0.173328
O O10 0.000000 0.211563 0.137251
O O11 0.065528 0.000000 0.114460
O O12 0.063293 0.228545 0.013531
O O13 0.627786 0.500000 0.853681
O O14 0.589496 0.767228 0.857205
O O15 0.665910 0.728961 0.769880
O O16 0.937280 0.500000 0.950977
O O17 0.000000 0.300053 0.896027
O O18 0.208918 0.500000 0.329168
O O19 0.250000 0.250000 0.322797
O O20 0.162875 0.267934 0.266129
O O21 0.855057 0.500000 0.163115
O O22 0.296229 0.500000 0.685964
O O23 0.250000 0.250000 0.704197
#
# Coordination Sequence:
#
# PCOD8172563 Si02
#       8
#     8   8   8   8   8   8   8   8
#     4   9  16  29  47  67  92 123 157 197 240 280
#     4  11  22  34  46  64  94 132 167 195 230 276
#     4  10  20  34  51  70  94 124 158 198 243 287
#     4  10  21  34  48  68  96 129 162 195 236 284
#     4  10  20  33  51  73  94 120 158 201 241 282
#     4   9  19  32  47  69  97 127 160 196 237 281
#     4  11  21  33  49  71  96 126 162 200 238 283
#     4  10  19  31  47  70  97 127 162 197 235 280
#
# _framework density 16.324760000000001
#
# number of rings (size 3 to 8) (size 9 to 14) (size 15 to 20)
#    0.000    2.000    1.250    3.750    0.000    5.500 
#    0.000    0.000    0.000    0.000    0.000    0.875 
#    0.000    1.000    0.000    0.000    0.000    0.000 
#
# Total GULP energy -396734.232857 kJ/mol
# GULP energy per Si atom -12397.944777 kJ/mol
# Density = 1.628760 g / cm^3
# Si number density = 16.324760 Si / 1000 Ang^3
#
#
#
# Elastic Constant Matrix: (Units=GPa)
#
#
# Indices 1 2 3 4 5 6 
#
# 1 100.2798 40.5256 62.5101 0.0000 0.0000 0.0000
# 2 40.5256 65.8796 49.7784 0.0000 0.0000 0.0000
# 3 62.5101 49.7784 144.7426 0.0000 0.0000 0.0000
# 4 0.0000 0.0000 0.0000 23.6173 0.0000 0.0000
# 5 0.0000 0.0000 0.0000 0.0000 11.4484 0.0000
# 6 0.0000 0.0000 0.0000 0.0000 0.0000 28.2420
#
#
#
# Elastic Compliance Matrix: (Units=1/GPa)
#
#
# Indices 1 2 3 4 5 6 
#
# 1 0.015184 -0.005925 -0.004520 0.000000 0.000000 0.000000
# 2 -0.005925 0.022821 -0.005289 0.000000 0.000000 0.000000
# 3 -0.004520 -0.005289 0.010680 0.000000 0.000000 0.000000
# 4 0.000000 0.000000 0.000000 0.042342 0.000000 0.000000
# 5 0.000000 0.000000 0.000000 0.000000 0.087348 0.000000
# 6 0.000000 0.000000 0.000000 0.000000 0.000000 0.035408
#
#
# Mechanical properties :
#
#
# Convention : Reuss Voigt Hill
#
# Bulk Modulus (GPa) = 58.08605 68.50334 63.29470
# Shear Modulus (GPa) = 19.92107 23.20074 21.56090
#
# Velocity S-wave (km/s) = 3.49707 3.77397 3.63815
# Velocity P-wave (km/s) = 7.20866 7.81309 7.51695
#
# Compressibility (1/GPa) = 0.01721584
#
# Stress axis : x y z
#
# Youngs Moduli (GPa) = 65.85834 43.81985 93.63440
#
# Poissons Ratio (x) = 0.25965 0.42321
# Poissons Ratio (y) = 0.39023 0.49526
# Poissons Ratio (z) = 0.29767 0.23178
#
# Static dielectric constant tensor:
#      x y z
#    x 3.059170 0.000000 0.000000 
#    y 0.000000 3.191300 0.000000 
#    z 0.000000 0.000000 3.589150 
# 
# 
# High freq. dielectric constant tensor:
#      x y z
#    x 1.606640 0.000000 0.000000 
#    y 0.000000 1.643960 0.000000 
#    z 0.000000 0.000000 1.622250 
# 
# From -- ./inp_files/16203.got.cif
#   From: 2010.03.12/outbox.cif.g09.slc.cpg/sg35_9_cif.got.tgz:16203.got - 2010.04.14 02:02:04.
