data_PCOD8172857
_publ_section_title
;
Structure prediction by ZEFSAII (Michael W. Deem and Ramdas Pophale) SiO2 
 PCOD8172857
Probable space group: C M M 2
;
_chemical_formula_sum "Si O2"
_cell_formula_units_Z 40
_cell_length_a 15.635810
_cell_length_b 8.411693
_cell_length_c 14.516544
_cell_angle_alpha 90.000000
_cell_angle_beta 90.000000
_cell_angle_gamma 90.000000
_cell_volume 1909.268613
_symmetry_space_group_name_H-M "C M M 2"
_symmetry_group_IT_number 35
_symmetry_cell_setting 'orthorhombic'
loop_
_space_group_symop_operation_xyz
x,y,z
-x,-y,z
-x,y,z
x,-y,z
1/2+x,1/2+y,z
1/2-x,1/2-y,z
1/2-x,1/2+y,z
1/2+x,1/2-y,z
loop_
_atom_site_type_symbol
_atom_site_label
_atom_site_fract_x
_atom_site_fract_y
_atom_site_fract_z
Si Si1 0.159603 0.688312 0.546590
Si Si2 0.500000 0.815354 0.856445
Si Si3 0.406005 0.812314 0.354593
Si Si4 0.500000 0.315078 0.657144
Si Si5 0.655831 0.811919 0.161291
Si Si6 0.846090 0.186995 0.971770
O O1 0.149857 0.500000 0.559827
O O2 0.250000 0.750000 0.585631
O O3 0.155667 0.737987 0.438267
O O4 0.084368 0.775909 0.599468
O O5 0.500000 0.792452 0.747373
O O6 0.412497 0.737367 0.893164
O O7 0.500000 0.000000 0.881595
O O8 0.500000 0.751028 0.380923
O O9 0.381114 0.736519 0.255766
O O10 0.404915 0.000000 0.342812
O O11 0.500000 0.500000 0.683736
O O12 0.750000 0.750000 0.151552
O O13 0.650070 0.000000 0.163844
O O14 0.611514 0.750021 0.067794
O O15 0.750000 0.250000 0.951158
O O16 0.839056 0.000000 0.975996
#
# Coordination Sequence:
#
# PCOD8172857 Si02
#       6
#     8   4   8   4   8   8
#     4  11  22  41  67  94 128 169 211 259 315 372
#     4  12  26  46  71  96 123 162 205 258 324 380
#     4   9  18  33  56  87 124 167 212 258 308 365
#     4  12  26  46  67  96 127 158 207 262 316 380
#     4  10  19  33  56  85 122 167 212 257 307 365
#     4  11  23  42  65  95 131 168 211 260 311 372
#
# _framework density 20.950430999999998
#
# number of rings (size 3 to 8) (size 9 to 14) (size 15 to 20)
#    0.000    1.400    1.000    6.600    1.400    0.800 
#    0.000    7.000    0.000    0.000    0.000    0.000 
#    0.000    0.000    0.000    0.000    0.000    0.000 
#
# Total GULP energy -247929.001844 kJ/mol
# GULP energy per Si atom -12396.450092 kJ/mol
# Density = 2.090275 g / cm^3
# Si number density = 20.950431 Si / 1000 Ang^3
#
#
#
# Elastic Constant Matrix: (Units=GPa)
#
#
# Indices 1 2 3 4 5 6 
#
# 1 115.8455 18.9182 42.6335 0.0000 0.0000 0.0000
# 2 18.9182 96.5917 19.0900 0.0000 0.0000 0.0000
# 3 42.6335 19.0900 114.9948 0.0000 0.0000 0.0000
# 4 0.0000 0.0000 0.0000 28.9842 0.0000 0.0000
# 5 0.0000 0.0000 0.0000 0.0000 0.7895 0.0000
# 6 0.0000 0.0000 0.0000 0.0000 0.0000 29.6000
#
#
#
# Elastic Compliance Matrix: (Units=1/GPa)
#
#
# Indices 1 2 3 4 5 6 
#
# 1 0.010148 -0.001286 -0.003549 0.000000 0.000000 0.000000
# 2 -0.001286 0.010867 -0.001327 0.000000 0.000000 0.000000
# 3 -0.003549 -0.001327 0.010232 0.000000 0.000000 0.000000
# 4 0.000000 0.000000 0.000000 0.034502 0.000000 0.000000
# 5 0.000000 0.000000 0.000000 0.000000 1.266693 0.000000
# 6 0.000000 0.000000 0.000000 0.000000 0.000000 0.033784
#
#
# Mechanical properties :
#
#
# Convention : Reuss Voigt Hill
#
# Bulk Modulus (GPa) = 52.84601 54.30173 53.57387
# Shear Modulus (GPa) = 3.61048 28.32741 15.96894
#
# Velocity S-wave (km/s) = 1.31419 3.68110 2.76384
# Velocity P-wave (km/s) = 5.25184 6.63647 5.98434
#
# Compressibility (1/GPa) = 0.01892291
#
# Stress axis : x y z
#
# Youngs Moduli (GPa) = 98.53869 92.02115 97.73181
#
# Poissons Ratio (x) = 0.11836 0.34684
# Poissons Ratio (y) = 0.12674 0.12971
# Poissons Ratio (z) = 0.34970 0.12213
#
# Static dielectric constant tensor:
#      x y z
#    x 4.307870 0.000000 0.000000 
#    y 0.000000 3.649270 0.000000 
#    z 0.000000 0.000000 4.220880 
# 
# 
# High freq. dielectric constant tensor:
#      x y z
#    x 1.825020 0.000000 0.000000 
#    y 0.000000 1.811970 0.000000 
#    z 0.000000 0.000000 1.830040 
# 
# From -- ./inp_files/14812.got.cif
#   From: 2010.03.12/outbox.cif.g09.slc.cpg/sg35_8_cif.got.tgz:14812.got - 2010.04.14 02:02:04.
