data_PCOD8172847
_publ_section_title
;
Structure prediction by ZEFSAII (Michael W. Deem and Ramdas Pophale) SiO2 
 PCOD8172847
Probable space group: C M M 2
;
_chemical_formula_sum "Si O2"
_cell_formula_units_Z 56
_cell_length_a 8.750971
_cell_length_b 18.488694
_cell_length_c 18.240715
_cell_angle_alpha 90.000000
_cell_angle_beta 90.000000
_cell_angle_gamma 90.000000
_cell_volume 2951.238699
_symmetry_space_group_name_H-M "C M M 2"
_symmetry_group_IT_number 35
_symmetry_cell_setting 'orthorhombic'
loop_
_space_group_symop_operation_xyz
x,y,z
-x,-y,z
-x,y,z
x,-y,z
1/2+x,1/2+y,z
1/2-x,1/2-y,z
1/2-x,1/2+y,z
1/2+x,1/2-y,z
loop_
_atom_site_type_symbol
_atom_site_label
_atom_site_fract_x
_atom_site_fract_y
_atom_site_fract_z
Si Si1 0.324644 0.583978 0.730980
Si Si2 0.818970 0.830008 0.185729
Si Si3 0.819895 0.171006 0.449738
Si Si4 0.178489 0.416314 0.579628
Si Si5 0.319285 0.328847 0.869072
Si Si6 0.678411 0.915278 0.316970
Si Si7 0.822400 0.172791 0.026358
O O1 0.500000 0.605727 0.715169
O O2 0.309552 0.500000 0.747195
O O3 0.223033 0.607152 0.661683
O O4 0.255800 0.622680 0.802878
O O5 0.750000 0.750000 0.195676
O O6 0.740434 0.884861 0.240891
O O7 0.780678 0.864139 0.104467
O O8 0.000000 0.825933 0.200278
O O9 0.750000 0.250000 0.442270
O O10 0.771894 0.134212 0.525416
O O11 0.765461 0.121674 0.383388
O O12 0.000000 0.178568 0.447061
O O13 0.222937 0.500000 0.565672
O O14 0.000000 0.403440 0.566965
O O15 0.500000 0.323121 0.862176
O O16 0.250000 0.250000 0.861303
O O17 0.273800 0.365174 0.948920
O O18 0.500000 0.898324 0.324345
O O19 0.712613 0.000000 0.319933
O O20 0.750000 0.250000 0.027180
O O21 0.000000 0.186351 0.024425
#
# Coordination Sequence:
#
# PCOD8172847 Si02
#       7
#     8   8   8   8   8   8   8
#     4   9  18  33  52  74 103 141 182 220 262 316
#     4  10  19  33  55  81 109 141 181 226 270 319
#     4  12  25  41  62  86 112 140 175 218 263 314
#     4  10  21  38  59  82 110 143 179 220 267 318
#     4   9  17  30  49  74 103 136 176 221 268 315
#     4  11  24  41  59  80 110 145 179 217 264 317
#     4   8  15  28  47  73 103 136 174 217 266 316
#
# _framework density 18.975082
#
# number of rings (size 3 to 8) (size 9 to 14) (size 15 to 20)
#    0.000    2.143    0.000    3.429    0.000    5.429 
#    0.000    2.143    0.000    2.571    0.000    2.000 
#    0.000    0.000    0.000    0.000    0.000    0.000 
#
# Total GULP energy -347007.708094 kJ/mol
# GULP energy per Si atom -12393.132432 kJ/mol
# Density = 1.893189 g / cm^3
# Si number density = 18.975082 Si / 1000 Ang^3
#
#
#
# Elastic Constant Matrix: (Units=GPa)
#
#
# Indices 1 2 3 4 5 6 
#
# 1 86.8610 48.2143 54.5566 0.0000 0.0000 0.0000
# 2 48.2143 79.8277 66.7075 0.0000 0.0000 0.0000
# 3 54.5566 66.7075 164.5664 0.0000 0.0000 0.0000
# 4 0.0000 0.0000 0.0000 22.6165 0.0000 0.0000
# 5 0.0000 0.0000 0.0000 0.0000 29.9256 0.0000
# 6 0.0000 0.0000 0.0000 0.0000 0.0000 26.8444
#
#
#
# Elastic Compliance Matrix: (Units=1/GPa)
#
#
# Indices 1 2 3 4 5 6 
#
# 1 0.017899 -0.008850 -0.002347 0.000000 0.000000 0.000000
# 2 -0.008850 0.023319 -0.006519 0.000000 0.000000 0.000000
# 3 -0.002347 -0.006519 0.009497 0.000000 0.000000 0.000000
# 4 0.000000 0.000000 0.000000 0.044215 0.000000 0.000000
# 5 0.000000 0.000000 0.000000 0.000000 0.033416 0.000000
# 6 0.000000 0.000000 0.000000 0.000000 0.000000 0.037252
#
#
# Mechanical properties :
#
#
# Convention : Reuss Voigt Hill
#
# Bulk Modulus (GPa) = 65.42304 74.46801 69.94552
# Shear Modulus (GPa) = 24.25737 26.66242 25.45990
#
# Velocity S-wave (km/s) = 3.57932 3.75257 3.66697
# Velocity P-wave (km/s) = 7.18577 7.62273 7.40748
#
# Compressibility (1/GPa) = 0.01528513
#
# Stress axis : x y z
#
# Youngs Moduli (GPa) = 55.87017 42.88294 105.29775
#
# Poissons Ratio (x) = 0.37950 0.24708
# Poissons Ratio (y) = 0.49443 0.68641
# Poissons Ratio (z) = 0.13110 0.27954
#
# Static dielectric constant tensor:
#      x y z
#    x 3.551130 0.000000 0.000000 
#    y 0.000000 3.285050 0.000000 
#    z 0.000000 0.000000 4.184030 
# 
# 
# High freq. dielectric constant tensor:
#      x y z
#    x 1.742160 0.000000 0.000000 
#    y 0.000000 1.711440 0.000000 
#    z 0.000000 0.000000 1.766800 
# 
# From -- ./inp_files/18248.got.cif
#   From: 2010.03.12/outbox.cif.g09.slc.cpg/sg35_10_cif.got.tgz:18248.got - 2010.04.14 02:02:04.
