data_PCOD8172792
_publ_section_title
;
Structure prediction by ZEFSAII (Michael W. Deem and Ramdas Pophale) SiO2 
 PCOD8172792
Probable space group: C M M 2
;
_chemical_formula_sum "Si O2"
_cell_formula_units_Z 48
_cell_length_a 33.485067
_cell_length_b 9.132321
_cell_length_c 9.069799
_cell_angle_alpha 90.000000
_cell_angle_beta 90.000000
_cell_angle_gamma 90.000000
_cell_volume 2773.511707
_symmetry_space_group_name_H-M "C M M 2"
_symmetry_group_IT_number 35
_symmetry_cell_setting 'orthorhombic'
loop_
_space_group_symop_operation_xyz
x,y,z
-x,-y,z
-x,y,z
x,-y,z
1/2+x,1/2+y,z
1/2-x,1/2-y,z
1/2-x,1/2+y,z
1/2+x,1/2-y,z
loop_
_atom_site_type_symbol
_atom_site_label
_atom_site_fract_x
_atom_site_fract_y
_atom_site_fract_z
Si Si1 0.544169 0.329230 0.982540
Si Si2 0.136711 0.671239 0.477829
Si Si3 0.343538 0.336135 0.893024
Si Si4 0.411969 0.832377 0.749869
Si Si5 0.790777 0.831601 0.635016
Si Si6 0.381625 0.333202 0.183676
O O1 0.500000 0.281957 0.038105
O O2 0.546645 0.500000 0.956351
O O3 0.551851 0.258988 0.820828
O O4 0.577612 0.281864 0.101268
O O5 0.148060 0.500000 0.478135
O O6 0.096884 0.699141 0.577066
O O7 0.174159 0.762562 0.537323
O O8 0.125960 0.722190 0.314830
O O9 0.360545 0.500000 0.854487
O O10 0.371338 0.208603 0.832729
O O11 0.300889 0.317845 0.811042
O O12 0.343626 0.321564 0.070960
O O13 0.422134 0.000000 0.778363
O O14 0.750000 0.750000 0.600552
O O15 0.785969 0.000000 0.587999
O O16 0.385937 0.500000 0.241896
#
# Coordination Sequence:
#
# PCOD8172792 Si02
#       6
#     8   8   8   8   8   8
#     4   9  18  33  52  73  97 126 163 206 249 294
#     4  10  20  33  49  72 101 133 167 200 240 292
#     4   8  16  31  50  70  93 124 161 197 235 285
#     4   9  17  29  47  70  95 123 158 199 239 283
#     4  10  19  33  53  75  99 127 161 203 248 290
#     4   9  17  31  51  73  98 129 164 202 244 290
#
# _framework density 17.306578999999999
#
# number of rings (size 3 to 8) (size 9 to 14) (size 15 to 20)
#    0.000    2.833    0.000    2.500    0.000    5.667 
#    0.000    1.667    0.000    5.000    0.000    0.000 
#    0.000    0.000    0.000    0.000    0.000    0.000 
#
# Total GULP energy -297337.063224 kJ/mol
# GULP energy per Si atom -12389.044301 kJ/mol
# Density = 1.726719 g / cm^3
# Si number density = 17.306579 Si / 1000 Ang^3
#
#
#
# Elastic Constant Matrix: (Units=GPa)
#
#
# Indices 1 2 3 4 5 6 
#
# 1 91.4322 41.7293 43.5710 0.0000 0.0000 0.0000
# 2 41.7293 77.8604 52.5656 0.0000 0.0000 0.0000
# 3 43.5710 52.5656 107.6161 0.0000 0.0000 0.0000
# 4 0.0000 0.0000 0.0000 29.8000 0.0000 0.0000
# 5 0.0000 0.0000 0.0000 0.0000 17.6222 0.0000
# 6 0.0000 0.0000 0.0000 0.0000 0.0000 23.6254
#
#
#
# Elastic Compliance Matrix: (Units=1/GPa)
#
#
# Indices 1 2 3 4 5 6 
#
# 1 0.015202 -0.005956 -0.003246 0.000000 0.000000 0.000000
# 2 -0.005956 0.021497 -0.008089 0.000000 0.000000 0.000000
# 3 -0.003246 -0.008089 0.014557 0.000000 0.000000 0.000000
# 4 0.000000 0.000000 0.000000 0.033557 0.000000 0.000000
# 5 0.000000 0.000000 0.000000 0.000000 0.056747 0.000000
# 6 0.000000 0.000000 0.000000 0.000000 0.000000 0.042327
#
#
# Mechanical properties :
#
#
# Convention : Reuss Voigt Hill
#
# Bulk Modulus (GPa) = 59.96995 61.40449 60.68722
# Shear Modulus (GPa) = 22.31880 23.47904 22.89892
#
# Velocity S-wave (km/s) = 3.59502 3.68727 3.64144
# Velocity P-wave (km/s) = 7.20826 7.32704 7.26789
#
# Compressibility (1/GPa) = 0.01667502
#
# Stress axis : x y z
#
# Youngs Moduli (GPa) = 65.77999 46.51892 68.69461
#
# Poissons Ratio (x) = 0.27709 0.22295
# Poissons Ratio (y) = 0.39182 0.55564
# Poissons Ratio (z) = 0.21349 0.37627
#
# Static dielectric constant tensor:
#      x y z
#    x 3.235660 0.000000 0.000000 
#    y 0.000000 3.263260 0.000000 
#    z 0.000000 0.000000 3.251690 
# 
# 
# High freq. dielectric constant tensor:
#      x y z
#    x 1.642570 0.000000 0.000000 
#    y 0.000000 1.677330 0.000000 
#    z 0.000000 0.000000 1.657200 
# 
# From -- ./inp_files/5282.got.cif
#   From: 2010.03.12/outbox.cif.g09.slc.cpg/sg35_3_cif.got.tgz:5282.got - 2010.04.14 02:02:04.
