data_PCOD8172900
_publ_section_title
;
Structure prediction by ZEFSAII (Michael W. Deem and Ramdas Pophale) SiO2 
 PCOD8172900
Probable space group: C M M 2
;
_chemical_formula_sum "Si O2"
_cell_formula_units_Z 48
_cell_length_a 28.059925
_cell_length_b 8.638013
_cell_length_c 10.265988
_cell_angle_alpha 90.000000
_cell_angle_beta 90.000000
_cell_angle_gamma 90.000000
_cell_volume 2488.290672
_symmetry_space_group_name_H-M "C M M 2"
_symmetry_group_IT_number 35
_symmetry_cell_setting 'orthorhombic'
loop_
_space_group_symop_operation_xyz
x,y,z
-x,-y,z
-x,y,z
x,-y,z
1/2+x,1/2+y,z
1/2-x,1/2-y,z
1/2-x,1/2+y,z
1/2+x,1/2-y,z
loop_
_atom_site_type_symbol
_atom_site_label
_atom_site_fract_x
_atom_site_fract_y
_atom_site_fract_z
Si Si1 0.108549 0.182396 0.119360
Si Si2 0.603768 0.319983 0.607550
Si Si3 0.299247 0.319866 0.734699
Si Si4 0.199488 0.317455 0.014505
Si Si5 0.446987 0.683937 0.868920
Si Si6 0.555175 0.819720 0.361204
O O1 0.078778 0.221878 0.246913
O O2 0.116064 0.000000 0.111557
O O3 0.160257 0.262757 0.119380
O O4 0.080141 0.248630 0.994917
O O5 0.592362 0.500000 0.579990
O O6 0.660388 0.292945 0.625459
O O7 0.578667 0.259976 0.738413
O O8 0.584004 0.216293 0.491902
O O9 0.292387 0.500000 0.764776
O O10 0.250000 0.250000 0.679945
O O11 0.314367 0.241998 0.870581
O O12 0.202709 0.500000 0.012591
O O13 0.250000 0.250000 0.059974
O O14 0.500000 0.753312 0.869965
O O15 0.447837 0.500000 0.874597
O O16 0.500000 0.769921 0.377158
O O17 0.559637 0.000000 0.328843
#
# Coordination Sequence:
#
# PCOD8172900 Si02
#       6
#     8   8   8   8   8   8
#     4  11  21  38  61  87 117 153 200 247 294 351
#     4  10  20  37  60  85 115 152 199 244 290 351
#     4  10  19  34  57  88 120 153 194 242 293 351
#     4  11  21  35  58  88 122 157 193 239 296 353
#     4   9  17  31  55  85 113 142 187 245 293 341
#     4  11  25  42  58  83 121 160 198 243 299 359
#
# _framework density 19.29035
#
# number of rings (size 3 to 8) (size 9 to 14) (size 15 to 20)
#    0.000    1.667    1.667    5.000    0.000    4.000 
#    0.000    0.833    0.000    5.000    0.000    0.000 
#    0.000    0.000    0.000    0.000    0.000    0.000 
#
# Total GULP energy -297668.507600 kJ/mol
# GULP energy per Si atom -12402.854483 kJ/mol
# Density = 1.924644 g / cm^3
# Si number density = 19.290350 Si / 1000 Ang^3
#
#
#
# Elastic Constant Matrix: (Units=GPa)
#
#
# Indices 1 2 3 4 5 6 
#
# 1 147.0236 48.3681 53.6848 0.0000 0.0000 0.0000
# 2 48.3681 95.9547 25.0362 0.0000 0.0000 0.0000
# 3 53.6848 25.0362 102.9694 0.0000 0.0000 0.0000
# 4 0.0000 0.0000 0.0000 26.5663 0.0000 0.0000
# 5 0.0000 0.0000 0.0000 0.0000 34.1155 0.0000
# 6 0.0000 0.0000 0.0000 0.0000 0.0000 29.6814
#
#
#
# Elastic Compliance Matrix: (Units=1/GPa)
#
#
# Indices 1 2 3 4 5 6 
#
# 1 0.009510 -0.003737 -0.004049 0.000000 0.000000 0.000000
# 2 -0.003737 0.012596 -0.001114 0.000000 0.000000 0.000000
# 3 -0.004049 -0.001114 0.012094 0.000000 0.000000 0.000000
# 4 0.000000 0.000000 0.000000 0.037642 0.000000 0.000000
# 5 0.000000 0.000000 0.000000 0.000000 0.029312 0.000000
# 6 0.000000 0.000000 0.000000 0.000000 0.000000 0.033691
#
#
# Mechanical properties :
#
#
# Convention : Reuss Voigt Hill
#
# Bulk Modulus (GPa) = 60.98261 66.68065 63.83163
# Shear Modulus (GPa) = 31.62319 32.66321 32.14320
#
# Velocity S-wave (km/s) = 4.05325 4.11937 4.08644
# Velocity P-wave (km/s) = 7.32030 7.56753 7.44494
#
# Compressibility (1/GPa) = 0.01639812
#
# Stress axis : x y z
#
# Youngs Moduli (GPa) = 105.15637 79.39003 82.68726
#
# Poissons Ratio (x) = 0.29668 0.33483
# Poissons Ratio (y) = 0.39297 0.09214
# Poissons Ratio (z) = 0.42582 0.08846
#
# Static dielectric constant tensor:
#      x y z
#    x 3.832090 0.000000 0.000000 
#    y 0.000000 3.359000 0.000000 
#    z 0.000000 0.000000 3.390450 
# 
# 
# High freq. dielectric constant tensor:
#      x y z
#    x 1.770120 0.000000 0.000000 
#    y 0.000000 1.742910 0.000000 
#    z 0.000000 0.000000 1.731650 
# 
# From -- ./inp_files/10469.got.cif
#   From: 2010.03.12/outbox.cif.g09.slc.cpg/sg35_6_cif.got.tgz:10469.got - 2010.04.14 02:02:04.
