data_PCOD8172519
_publ_section_title
;
Structure prediction by ZEFSAII (Michael W. Deem and Ramdas Pophale) SiO2 
 PCOD8172519
Probable space group: C M M 2
;
_chemical_formula_sum "Si O2"
_cell_formula_units_Z 48
_cell_length_a 8.649345
_cell_length_b 26.736643
_cell_length_c 11.479926
_cell_angle_alpha 90.000000
_cell_angle_beta 90.000000
_cell_angle_gamma 90.000000
_cell_volume 2654.783967
_symmetry_space_group_name_H-M "C M M 2"
_symmetry_group_IT_number 35
_symmetry_cell_setting 'orthorhombic'
loop_
_space_group_symop_operation_xyz
x,y,z
-x,-y,z
-x,y,z
x,-y,z
1/2+x,1/2+y,z
1/2-x,1/2-y,z
1/2-x,1/2+y,z
1/2+x,1/2-y,z
loop_
_atom_site_type_symbol
_atom_site_label
_atom_site_fract_x
_atom_site_fract_y
_atom_site_fract_z
Si Si1 0.683887 0.056954 0.460330
Si Si2 0.332289 0.202589 0.458837
Si Si3 0.817669 0.802330 0.084934
Si Si4 0.180131 0.865068 0.634581
Si Si5 0.168596 0.374930 0.259398
Si Si6 0.316678 0.803006 0.830983
O O1 0.500000 0.062504 0.465750
O O2 0.751502 0.085480 0.572873
O O3 0.741190 0.078537 0.333740
O O4 0.739822 0.000000 0.468502
O O5 0.500000 0.214175 0.517568
O O6 0.250000 0.250000 0.402572
O O7 0.212199 0.182211 0.553060
O O8 0.363470 0.165948 0.355297
O O9 0.750000 0.750000 0.136637
O O10 0.742841 0.812652 0.960588
O O11 0.000000 0.796341 0.073248
O O12 0.781758 0.851421 0.163181
O O13 0.261067 0.851206 0.756803
O O14 0.000000 0.873279 0.655643
O O15 0.000000 0.388997 0.203824
O O16 0.500000 0.799919 0.830352
O O17 0.250000 0.750000 0.783043
#
# Coordination Sequence:
#
# PCOD8172519 Si02
#       6
#     8   8   8   8   8   8
#     4   9  19  37  59  80 102 131 169 213 262 313
#     4  10  19  30  45  68  99 133 168 205 248 299
#     4  11  21  33  50  74 105 140 176 211 249 298
#     4  11  21  33  50  74 103 133 168 209 255 305
#     4   9  18  32  50  73 100 131 167 207 251 301
#     4  11  21  35  53  74 104 140 177 213 251 300
#
# _framework density 18.080568
#
# number of rings (size 3 to 8) (size 9 to 14) (size 15 to 20)
#    0.000    1.833    0.000    8.000    0.000    5.000 
#    0.000    0.000    0.000    1.000    0.000    2.333 
#    0.000    0.000    0.000    0.000    0.000    0.000 
#
# Total GULP energy -297388.283555 kJ/mol
# GULP energy per Si atom -12391.178481 kJ/mol
# Density = 1.803942 g / cm^3
# Si number density = 18.080568 Si / 1000 Ang^3
#
#
#
# Elastic Constant Matrix: (Units=GPa)
#
#
# Indices 1 2 3 4 5 6 
#
# 1 122.6610 49.8705 40.9124 0.0000 0.0000 0.0000
# 2 49.8705 106.9526 48.5251 0.0000 0.0000 0.0000
# 3 40.9124 48.5251 85.6144 0.0000 0.0000 0.0000
# 4 0.0000 0.0000 0.0000 31.3507 0.0000 0.0000
# 5 0.0000 0.0000 0.0000 0.0000 27.7911 0.0000
# 6 0.0000 0.0000 0.0000 0.0000 0.0000 18.6900
#
#
#
# Elastic Compliance Matrix: (Units=1/GPa)
#
#
# Indices 1 2 3 4 5 6 
#
# 1 0.010621 -0.003567 -0.003054 0.000000 0.000000 0.000000
# 2 -0.003567 0.013785 -0.006108 0.000000 0.000000 0.000000
# 3 -0.003054 -0.006108 0.016602 0.000000 0.000000 0.000000
# 4 0.000000 0.000000 0.000000 0.031897 0.000000 0.000000
# 5 0.000000 0.000000 0.000000 0.000000 0.035983 0.000000
# 6 0.000000 0.000000 0.000000 0.000000 0.000000 0.053505
#
#
# Mechanical properties :
#
#
# Convention : Reuss Voigt Hill
#
# Bulk Modulus (GPa) = 64.31193 65.98267 65.14730
# Shear Modulus (GPa) = 25.90218 27.29436 26.59827
#
# Velocity S-wave (km/s) = 3.78907 3.88957 3.83965
# Velocity P-wave (km/s) = 7.40200 7.53290 7.46774
#
# Compressibility (1/GPa) = 0.01554922
#
# Stress axis : x y z
#
# Youngs Moduli (GPa) = 94.14959 72.54474 60.23451
#
# Poissons Ratio (x) = 0.25877 0.18395
# Poissons Ratio (y) = 0.33583 0.36793
# Poissons Ratio (z) = 0.28752 0.44313
#
# Static dielectric constant tensor:
#      x y z
#    x 3.350110 0.000000 0.000000 
#    y 0.000000 2.216310 0.000000 
#    z 0.000000 0.000000 3.529280 
# 
# 
# High freq. dielectric constant tensor:
#      x y z
#    x 1.710740 0.000000 0.000000 
#    y 0.000000 1.674680 0.000000 
#    z 0.000000 0.000000 1.690710 
# 
# From -- ./inp_files/11481.got.cif
#   From: 2010.03.12/outbox.cif.g09.slc.cpg/sg35_6_cif.got.tgz:11481.got - 2010.04.14 02:02:04.
