data_PCOD8172759
_publ_section_title
;
Structure prediction by ZEFSAII (Michael W. Deem and Ramdas Pophale) SiO2 
 PCOD8172759
Probable space group: C M M 2
;
_chemical_formula_sum "Si O2"
_cell_formula_units_Z 56
_cell_length_a 16.665042
_cell_length_b 14.182293
_cell_length_c 11.980460
_cell_angle_alpha 90.000000
_cell_angle_beta 90.000000
_cell_angle_gamma 90.000000
_cell_volume 2831.563852
_symmetry_space_group_name_H-M "C M M 2"
_symmetry_group_IT_number 35
_symmetry_cell_setting 'orthorhombic'
loop_
_space_group_symop_operation_xyz
x,y,z
-x,-y,z
-x,y,z
x,-y,z
1/2+x,1/2+y,z
1/2-x,1/2-y,z
1/2-x,1/2+y,z
1/2+x,1/2-y,z
loop_
_atom_site_type_symbol
_atom_site_label
_atom_site_fract_x
_atom_site_fract_y
_atom_site_fract_z
Si Si1 0.739635 0.892485 0.856620
Si Si2 0.408815 0.393208 0.955440
Si Si3 0.412325 0.230055 0.456797
Si Si4 0.313478 0.893562 0.611649
Si Si5 0.799003 0.103673 0.406819
Si Si6 0.641940 0.108300 0.269321
Si Si7 0.666019 0.779492 0.059458
O O1 0.715522 0.861123 0.733053
O O2 0.715676 0.000000 0.880961
O O3 0.836703 0.879942 0.865820
O O4 0.687889 0.829029 0.941440
O O5 0.500000 0.379514 0.906504
O O6 0.402416 0.500000 0.006429
O O7 0.392345 0.311605 0.046856
O O8 0.500000 0.266074 0.489465
O O9 0.376462 0.183857 0.568887
O O10 0.366048 0.317367 0.402109
O O11 0.417871 0.152212 0.359805
O O12 0.237893 0.892321 0.530069
O O13 0.350349 0.000000 0.614082
O O14 0.732772 0.124981 0.312575
O O15 0.836714 0.000000 0.386018
O O16 0.625109 0.150225 0.146696
O O17 0.620299 0.000000 0.260966
O O18 0.750000 0.750000 0.115210
#
# Coordination Sequence:
#
# PCOD8172759 Si02
#       7
#     8   8   8   8   8   8   8
#     4   9  18  34  57  82 107 139 179 220 263 315
#     4   9  19  35  53  77 111 146 179 217 264 320
#     4  11  22  35  55  81 108 139 175 221 277 327
#     4   9  18  35  58  80 104 137 178 221 263 315
#     4   9  19  36  56  77 104 141 182 221 261 310
#     4  10  20  36  58  80 105 140 184 227 262 309
#     4  10  19  32  54  82 110 142 178 218 262 314
#
# _framework density 19.777056999999999
#
# number of rings (size 3 to 8) (size 9 to 14) (size 15 to 20)
#    0.000    2.429    0.000    4.286    0.000    6.000 
#    0.000    3.571    0.000    4.714    0.000    0.000 
#    0.000    0.000    0.000    0.000    0.000    0.000 
#
# Total GULP energy -346950.059415 kJ/mol
# GULP energy per Si atom -12391.073551 kJ/mol
# Density = 1.973204 g / cm^3
# Si number density = 19.777057 Si / 1000 Ang^3
#
#
#
# Elastic Constant Matrix: (Units=GPa)
#
#
# Indices 1 2 3 4 5 6 
#
# 1 83.5564 45.8772 19.2258 0.0000 0.0000 0.0000
# 2 45.8772 127.1415 43.4036 0.0000 0.0000 0.0000
# 3 19.2258 43.4036 114.1788 0.0000 0.0000 0.0000
# 4 0.0000 0.0000 0.0000 31.4889 0.0000 0.0000
# 5 0.0000 0.0000 0.0000 0.0000 5.5450 0.0000
# 6 0.0000 0.0000 0.0000 0.0000 0.0000 16.3274
#
#
#
# Elastic Compliance Matrix: (Units=1/GPa)
#
#
# Indices 1 2 3 4 5 6 
#
# 1 0.014953 -0.005213 -0.000536 0.000000 0.000000 0.000000
# 2 -0.005213 0.010855 -0.003249 0.000000 0.000000 0.000000
# 3 -0.000536 -0.003249 0.010083 0.000000 0.000000 0.000000
# 4 0.000000 0.000000 0.000000 0.031757 0.000000 0.000000
# 5 0.000000 0.000000 0.000000 0.000000 0.180342 0.000000
# 6 0.000000 0.000000 0.000000 0.000000 0.000000 0.061247
#
#
# Mechanical properties :
#
#
# Convention : Reuss Voigt Hill
#
# Bulk Modulus (GPa) = 55.87660 60.21000 58.04330
# Shear Modulus (GPa) = 15.00604 25.09694 20.05149
#
# Velocity S-wave (km/s) = 2.75755 3.56616 3.18760
# Velocity P-wave (km/s) = 6.20108 6.88964 6.55440
#
# Compressibility (1/GPa) = 0.01789658
#
# Stress axis : x y z
#
# Youngs Moduli (GPa) = 66.87440 92.12169 99.17200
#
# Poissons Ratio (x) = 0.48019 0.05320
# Poissons Ratio (y) = 0.34859 0.32219
# Poissons Ratio (z) = 0.03587 0.29928
#
# Static dielectric constant tensor:
#      x y z
#    x 3.328130 0.000000 0.000000 
#    y 0.000000 3.944360 0.000000 
#    z 0.000000 0.000000 3.407610 
# 
# 
# High freq. dielectric constant tensor:
#      x y z
#    x 1.738000 0.000000 0.000000 
#    y 0.000000 1.795410 0.000000 
#    z 0.000000 0.000000 1.754660 
# 
# From -- ./inp_files/13016.got.cif
#   From: 2010.03.12/outbox.cif.g09.slc.cpg/sg35_7_cif.got.tgz:13016.got - 2010.04.14 02:02:04.
