data_PCOD8172151
_publ_section_title
;
Structure prediction by ZEFSAII (Michael W. Deem and Ramdas Pophale) SiO2 
 PCOD8172151
Probable space group: C M M 2
;
_chemical_formula_sum "Si O2"
_cell_formula_units_Z 56
_cell_length_a 8.664812
_cell_length_b 19.660087
_cell_length_c 18.280881
_cell_angle_alpha 90.000000
_cell_angle_beta 90.000000
_cell_angle_gamma 90.000000
_cell_volume 3114.165587
_symmetry_space_group_name_H-M "C M M 2"
_symmetry_group_IT_number 35
_symmetry_cell_setting 'orthorhombic'
loop_
_space_group_symop_operation_xyz
x,y,z
-x,-y,z
-x,y,z
x,-y,z
1/2+x,1/2+y,z
1/2-x,1/2-y,z
1/2-x,1/2+y,z
1/2+x,1/2-y,z
loop_
_atom_site_type_symbol
_atom_site_label
_atom_site_fract_x
_atom_site_fract_y
_atom_site_fract_z
Si Si1 0.819583 0.824032 0.274800
Si Si2 0.680979 0.175748 0.872267
Si Si3 0.182844 0.925023 0.154155
Si Si4 0.817037 0.825520 0.724228
Si Si5 0.821295 0.079354 0.989061
Si Si6 0.817750 0.325907 0.578667
Si Si7 0.320038 0.324192 0.435240
O O1 0.750000 0.750000 0.265654
O O2 0.745514 0.873252 0.213504
O O3 0.788916 0.857524 0.355427
O O4 0.000000 0.815809 0.261832
O O5 0.500000 0.184044 0.860034
O O6 0.750000 0.250000 0.889348
O O7 0.756160 0.141234 0.799480
O O8 0.713550 0.125070 0.938526
O O9 0.224493 0.901537 0.072136
O O10 0.000000 0.928603 0.162562
O O11 0.252261 0.000000 0.169060
O O12 0.750000 0.750000 0.724099
O O13 0.751694 0.863017 0.651110
O O14 0.000000 0.825781 0.722312
O O15 0.000000 0.096466 0.973740
O O16 0.788973 0.000000 0.973997
O O17 0.750000 0.250000 0.575052
O O18 0.763448 0.363411 0.503221
O O19 0.000000 0.324778 0.584480
O O20 0.500000 0.319857 0.453461
O O21 0.250000 0.250000 0.428711
#
# Coordination Sequence:
#
# PCOD8172151 Si02
#       7
#     8   8   8   8   8   8   8
#     4   9  17  28  44  67  94 122 153 191 234 276
#     4  11  21  33  49  71 100 129 160 198 241 287
#     4   8  15  30  51  71  91 119 156 194 231 276
#     4  10  17  27  42  62  90 121 154 191 233 279
#     4   9  18  34  54  73  95 125 161 199 240 288
#     4  10  16  23  36  56  84 118 153 186 225 273
#     4   9  15  23  35  55  84 116 149 185 225 270
#
# _framework density 17.982346
#
# number of rings (size 3 to 8) (size 9 to 14) (size 15 to 20)
#    0.000    2.571    0.000    7.714    0.000    1.429 
#    0.000    2.143    0.000    1.286    0.000    1.000 
#    0.000    5.714    0.000    0.000    0.000    0.000 
#
# Total GULP energy -346935.487172 kJ/mol
# GULP energy per Si atom -12390.553113 kJ/mol
# Density = 1.794142 g / cm^3
# Si number density = 17.982346 Si / 1000 Ang^3
#
#
#
# Elastic Constant Matrix: (Units=GPa)
#
#
# Indices 1 2 3 4 5 6 
#
# 1 118.0750 23.7487 58.8263 0.0000 0.0000 0.0000
# 2 23.7487 44.3987 55.0164 0.0000 0.0000 0.0000
# 3 58.8263 55.0164 176.2589 0.0000 0.0000 0.0000
# 4 0.0000 0.0000 0.0000 2.1777 0.0000 0.0000
# 5 0.0000 0.0000 0.0000 0.0000 26.3774 0.0000
# 6 0.0000 0.0000 0.0000 0.0000 0.0000 14.2696
#
#
#
# Elastic Compliance Matrix: (Units=1/GPa)
#
#
# Indices 1 2 3 4 5 6 
#
# 1 0.010269 -0.002032 -0.002793 0.000000 0.000000 0.000000
# 2 -0.002032 0.037131 -0.010912 0.000000 0.000000 0.000000
# 3 -0.002793 -0.010912 0.010012 0.000000 0.000000 0.000000
# 4 0.000000 0.000000 0.000000 0.459190 0.000000 0.000000
# 5 0.000000 0.000000 0.000000 0.000000 0.037911 0.000000
# 6 0.000000 0.000000 0.000000 0.000000 0.000000 0.070079
#
#
# Mechanical properties :
#
#
# Convention : Reuss Voigt Hill
#
# Bulk Modulus (GPa) = 38.55258 68.21283 53.38271
# Shear Modulus (GPa) = 7.52205 21.97437 14.74821
#
# Velocity S-wave (km/s) = 2.04746 3.49950 2.86693
# Velocity P-wave (km/s) = 5.20338 7.37185 6.38041
#
# Compressibility (1/GPa) = 0.02593860
#
# Stress axis : x y z
#
# Youngs Moduli (GPa) = 97.37586 26.93143 99.88365
#
# Poissons Ratio (x) = 0.05472 0.27899
# Poissons Ratio (y) = 0.19786 1.08991
# Poissons Ratio (z) = 0.27199 0.29387
#
# Static dielectric constant tensor:
#      x y z
#    x 3.229570 0.000000 0.000000 
#    y 0.000000 2.931200 0.000000 
#    z 0.000000 0.000000 4.649650 
# 
# 
# High freq. dielectric constant tensor:
#      x y z
#    x 1.693010 0.000000 0.000000 
#    y 0.000000 1.625440 0.000000 
#    z 0.000000 0.000000 1.728800 
# 
# From -- ./inp_files/18274.got.cif
#   From: 2010.03.12/outbox.cif.g09.slc.cpg/sg35_10_cif.got.tgz:18274.got - 2010.04.14 02:02:04.
