data_PCOD8172449
_publ_section_title
;
Structure prediction by ZEFSAII (Michael W. Deem and Ramdas Pophale) SiO2 
 PCOD8172449
Probable space group: C M M 2
;
_chemical_formula_sum "Si O2"
_cell_formula_units_Z 52
_cell_length_a 21.932050
_cell_length_b 7.950237
_cell_length_c 15.292842
_cell_angle_alpha 90.000000
_cell_angle_beta 90.000000
_cell_angle_gamma 90.000000
_cell_volume 2666.536325
_symmetry_space_group_name_H-M "C M M 2"
_symmetry_group_IT_number 35
_symmetry_cell_setting 'orthorhombic'
loop_
_space_group_symop_operation_xyz
x,y,z
-x,-y,z
-x,y,z
x,-y,z
1/2+x,1/2+y,z
1/2-x,1/2-y,z
1/2-x,1/2+y,z
1/2+x,1/2-y,z
loop_
_atom_site_type_symbol
_atom_site_label
_atom_site_fract_x
_atom_site_fract_y
_atom_site_fract_z
Si Si1 0.566499 0.500000 0.723891
Si Si2 0.814896 0.692145 0.569530
Si Si3 0.146011 0.312908 0.760932
Si Si4 0.068328 0.000000 0.338324
Si Si5 0.397722 0.500000 0.530984
Si Si6 0.928252 0.681984 0.241822
Si Si7 0.931366 0.192643 0.053348
Si Si8 0.815847 0.310098 0.950798
O O1 0.500000 0.500000 0.764261
O O2 0.595741 0.668787 0.761017
O O3 0.562241 0.500000 0.618489
O O4 0.830560 0.500000 0.540617
O O5 0.750000 0.750000 0.533137
O O6 0.812903 0.706701 0.674724
O O7 0.860929 0.825486 0.528484
O O8 0.115387 0.500000 0.762190
O O9 0.187821 0.289031 0.846049
O O10 0.101410 0.831733 0.300512
O O11 0.063496 0.000000 0.442967
O O12 0.000000 0.000000 0.300373
O O13 0.900688 0.500000 0.270190
O O14 0.913856 0.704079 0.139524
O O15 0.000000 0.679623 0.258266
O O16 0.000000 0.245804 0.018527
O O17 0.934050 0.000000 0.081499
O O18 0.876602 0.214440 0.983719
O O19 0.824533 0.500000 0.980862
O O20 0.750000 0.250000 0.988416
#
# Coordination Sequence:
#
# PCOD8172449 Si02
#       8
#     4   8   8   4   4   8   8   8
#     4  10  21  36  55  78 111 155 189 227 281 341
#     4  10  18  33  55  78 102 140 184 233 277 325
#     4   9  21  36  53  79 110 145 194 235 279 326
#     4  10  19  34  55  82 113 143 178 227 276 326
#     4  10  21  34  52  82 112 140 179 226 283 341
#     4   9  17  32  56  83 108 139 181 226 275 332
#     4  10  20  36  58  85 116 150 191 237 286 343
#     4  11  23  37  55  83 116 153 192 245 292 338
#
# _framework density 19.500954
#
# number of rings (size 3 to 8) (size 9 to 14) (size 15 to 20)
#    0.000    2.154    1.538    1.615    2.154    2.462 
#    0.000    1.538    0.000    3.692    0.000    0.000 
#    0.000    0.000    0.000    0.000    0.000    0.000 
#
# Total GULP energy -322137.216782 kJ/mol
# GULP energy per Si atom -12389.892953 kJ/mol
# Density = 1.945657 g / cm^3
# Si number density = 19.500954 Si / 1000 Ang^3
#
#
#
# Elastic Constant Matrix: (Units=GPa)
#
#
# Indices 1 2 3 4 5 6 
#
# 1 89.0778 37.6104 11.0206 0.0000 0.0000 0.0000
# 2 37.6104 161.1595 30.0581 0.0000 0.0000 0.0000
# 3 11.0206 30.0581 60.3911 0.0000 0.0000 0.0000
# 4 0.0000 0.0000 0.0000 18.3203 0.0000 0.0000
# 5 0.0000 0.0000 0.0000 0.0000 15.3431 0.0000
# 6 0.0000 0.0000 0.0000 0.0000 0.0000 10.1855
#
#
#
# Elastic Compliance Matrix: (Units=1/GPa)
#
#
# Indices 1 2 3 4 5 6 
#
# 1 0.012499 -0.002746 -0.000914 0.000000 0.000000 0.000000
# 2 -0.002746 0.007443 -0.003204 0.000000 0.000000 0.000000
# 3 -0.000914 -0.003204 0.018320 0.000000 0.000000 0.000000
# 4 0.000000 0.000000 0.000000 0.054584 0.000000 0.000000
# 5 0.000000 0.000000 0.000000 0.000000 0.065176 0.000000
# 6 0.000000 0.000000 0.000000 0.000000 0.000000 0.098179
#
#
# Mechanical properties :
#
#
# Convention : Reuss Voigt Hill
#
# Bulk Modulus (GPa) = 40.75909 52.00073 46.37991
# Shear Modulus (GPa) = 17.97867 24.23240 21.10553
#
# Velocity S-wave (km/s) = 3.03964 3.52891 3.29337
# Velocity P-wave (km/s) = 5.76764 6.58240 6.18844
#
# Compressibility (1/GPa) = 0.02453441
#
# Stress axis : x y z
#
# Youngs Moduli (GPa) = 80.00758 134.34555 54.58512
#
# Poissons Ratio (x) = 0.36897 0.04989
# Poissons Ratio (y) = 0.21974 0.17487
# Poissons Ratio (z) = 0.07312 0.43039
#
# Static dielectric constant tensor:
#      x y z
#    x 3.192990 0.000000 0.000000 
#    y 0.000000 3.991630 0.000000 
#    z 0.000000 0.000000 3.250760 
# 
# 
# High freq. dielectric constant tensor:
#      x y z
#    x 1.721640 0.000000 0.000000 
#    y 0.000000 1.785630 0.000000 
#    z 0.000000 0.000000 1.736710 
# 
# From -- ./inp_files/15561.got.cif
#   From: 2010.03.12/outbox.cif.g09.slc.cpg/sg35_8_cif.got.tgz:15561.got - 2010.04.14 02:02:04.
