data_PCOD8172240
_publ_section_title
;
Structure prediction by ZEFSAII (Michael W. Deem and Ramdas Pophale) SiO2 
 PCOD8172240
Probable space group: C M M 2
;
_chemical_formula_sum "Si O2"
_cell_formula_units_Z 44
_cell_length_a 22.904974
_cell_length_b 14.332958
_cell_length_c 6.867773
_cell_angle_alpha 90.000000
_cell_angle_beta 90.000000
_cell_angle_gamma 90.000000
_cell_volume 2254.662613
_symmetry_space_group_name_H-M "C M M 2"
_symmetry_group_IT_number 35
_symmetry_cell_setting 'orthorhombic'
loop_
_space_group_symop_operation_xyz
x,y,z
-x,-y,z
-x,y,z
x,-y,z
1/2+x,1/2+y,z
1/2-x,1/2-y,z
1/2-x,1/2+y,z
1/2+x,1/2-y,z
loop_
_atom_site_type_symbol
_atom_site_label
_atom_site_fract_x
_atom_site_fract_y
_atom_site_fract_z
Si Si1 0.432255 0.500000 0.262070
Si Si2 0.362901 0.500000 0.659701
Si Si3 0.372576 0.859899 0.019128
Si Si4 0.253571 0.644915 0.136059
Si Si5 0.566000 0.000000 0.755662
Si Si6 0.883804 0.500000 0.359450
Si Si7 0.245701 0.500000 0.459063
Si Si8 0.377459 0.358116 0.979798
O O1 0.500000 0.500000 0.321227
O O2 0.391710 0.500000 0.449712
O O3 0.418188 0.407475 0.138571
O O4 0.291322 0.500000 0.639869
O O5 0.386885 0.406567 0.769308
O O6 0.402773 0.907920 0.836384
O O7 0.303048 0.878179 0.004337
O O8 0.390687 0.751727 0.998843
O O9 0.391339 0.907443 0.224840
O O10 0.250000 0.750000 0.206765
O O11 0.259039 0.591271 0.335969
O O12 0.309442 0.620739 0.009576
O O13 0.565746 0.000000 0.520842
O O14 0.500000 0.000000 0.830619
O O15 0.824447 0.500000 0.492849
#
# Coordination Sequence:
#
# PCOD8172240 Si02
#       8
#     4   4   8   8   4   4   4   8
#     4  11  24  41  59  81 119 162 205 241 285 351
#     4  11  22  34  59  90 117 154 198 244 294 346
#     4   9  21  40  61  88 120 154 193 244 294 351
#     4   9  17  35  60  87 120 150 189 236 292 358
#     4  11  24  40  59  88 120 154 204 246 288 348
#     4   9  21  37  61  85 117 157 196 239 293 352
#     4  10  17  34  56  84 119 153 185 238 294 339
#     4  10  21  39  61  88 119 156 193 241 298 351
#
# _framework density 19.515115999999999
#
# number of rings (size 3 to 8) (size 9 to 14) (size 15 to 20)
#    0.000    2.182    1.818    1.091    2.545    5.091 
#    3.273    1.818    0.000    0.000    0.000    0.000 
#    0.000    0.000    0.000    0.000    0.000    0.000 
#
# Total GULP energy -272625.199180 kJ/mol
# GULP energy per Si atom -12392.054508 kJ/mol
# Density = 1.947070 g / cm^3
# Si number density = 19.515116 Si / 1000 Ang^3
#
#
#
# Elastic Constant Matrix: (Units=GPa)
#
#
# Indices 1 2 3 4 5 6 
#
# 1 67.3137 34.8121 21.4503 0.0000 0.0000 0.0000
# 2 34.8121 134.3976 37.0588 0.0000 0.0000 0.0000
# 3 21.4503 37.0588 84.2930 0.0000 0.0000 0.0000
# 4 0.0000 0.0000 0.0000 12.4511 0.0000 0.0000
# 5 0.0000 0.0000 0.0000 0.0000 21.3177 0.0000
# 6 0.0000 0.0000 0.0000 0.0000 0.0000 29.3564
#
#
#
# Elastic Compliance Matrix: (Units=1/GPa)
#
#
# Indices 1 2 3 4 5 6 
#
# 1 0.017730 -0.003810 -0.002837 0.000000 0.000000 0.000000
# 2 -0.003810 0.009286 -0.003113 0.000000 0.000000 0.000000
# 3 -0.002837 -0.003113 0.013954 0.000000 0.000000 0.000000
# 4 0.000000 0.000000 0.000000 0.080314 0.000000 0.000000
# 5 0.000000 0.000000 0.000000 0.000000 0.046909 0.000000
# 6 0.000000 0.000000 0.000000 0.000000 0.000000 0.034064
#
#
# Mechanical properties :
#
#
# Convention : Reuss Voigt Hill
#
# Bulk Modulus (GPa) = 46.61959 52.51629 49.56794
# Shear Modulus (GPa) = 21.84097 25.47058 23.65578
#
# Velocity S-wave (km/s) = 3.34905 3.61664 3.48541
# Velocity P-wave (km/s) = 6.23664 6.66401 6.45386
#
# Compressibility (1/GPa) = 0.02145021
#
# Stress axis : x y z
#
# Youngs Moduli (GPa) = 56.40047 107.68987 71.66514
#
# Poissons Ratio (x) = 0.41034 0.20329
# Poissons Ratio (y) = 0.21491 0.22308
# Poissons Ratio (z) = 0.15999 0.33522
#
# Static dielectric constant tensor:
#      x y z
#    x 3.551410 0.000000 0.000000 
#    y 0.000000 3.700890 0.000000 
#    z 0.000000 0.000000 3.288630 
# 
# 
# High freq. dielectric constant tensor:
#      x y z
#    x 1.752910 0.000000 0.000000 
#    y 0.000000 1.768580 0.000000 
#    z 0.000000 0.000000 1.745150 
# 
# From -- ./inp_files/3684.got.cif
#   From: 2010.03.12/outbox.cif.g09.slc.cpg/sg35_2_cif.got.tgz:3684.got - 2010.04.14 02:02:04.
