data_PCOD8172836
_publ_section_title
;
Structure prediction by ZEFSAII (Michael W. Deem and Ramdas Pophale) SiO2 
 PCOD8172836
Probable space group: C M M 2
;
_chemical_formula_sum "Si O2"
_cell_formula_units_Z 64
_cell_length_a 8.804374
_cell_length_b 29.296101
_cell_length_c 12.344829
_cell_angle_alpha 90.000000
_cell_angle_beta 90.000000
_cell_angle_gamma 90.000000
_cell_volume 3184.149024
_symmetry_space_group_name_H-M "C M M 2"
_symmetry_group_IT_number 35
_symmetry_cell_setting 'orthorhombic'
loop_
_space_group_symop_operation_xyz
x,y,z
-x,-y,z
-x,y,z
x,-y,z
1/2+x,1/2+y,z
1/2-x,1/2-y,z
1/2-x,1/2+y,z
1/2+x,1/2-y,z
loop_
_atom_site_type_symbol
_atom_site_label
_atom_site_fract_x
_atom_site_fract_y
_atom_site_fract_z
Si Si1 0.680268 0.552470 0.340410
Si Si2 0.321141 0.703732 0.088474
Si Si3 0.320672 0.203782 0.621805
Si Si4 0.175699 0.610038 0.151882
Si Si5 0.171723 0.049777 0.735224
Si Si6 0.679849 0.613148 0.541836
Si Si7 0.827829 0.406814 0.909387
Si Si8 0.675419 0.681994 0.845453
O O1 0.500000 0.552342 0.335505
O O2 0.739522 0.500000 0.350747
O O3 0.743409 0.575777 0.232934
O O4 0.738152 0.583647 0.439862
O O5 0.500000 0.702515 0.108511
O O6 0.250000 0.750000 0.138457
O O7 0.249519 0.660369 0.149865
O O8 0.280743 0.704352 0.960621
O O9 0.500000 0.205088 0.612076
O O10 0.250000 0.250000 0.572089
O O11 0.258743 0.162357 0.548395
O O12 0.275752 0.202037 0.748722
O O13 0.000000 0.615692 0.182903
O O14 0.197873 0.585642 0.036133
O O15 0.230620 0.086100 0.648342
O O16 0.282096 0.048585 0.840874
O O17 0.000000 0.060488 0.771318
O O18 0.180699 0.000000 0.680247
O O19 0.500000 0.620111 0.536546
O O20 0.709849 0.371134 0.858054
O O21 0.000000 0.391030 0.887318
O O22 0.500000 0.689343 0.815028
#
# Coordination Sequence:
#
# PCOD8172836 Si02
#       8
#     8   8   8   8   8   8   8   8
#     4  10  22  42  68  93 116 150 199 251 303 361
#     4  10  20  34  56  86 121 160 202 245 294 352
#     4  12  24  37  57  86 121 160 201 242 292 351
#     4  10  22  39  59  85 120 158 200 249 300 352
#     4  10  20  34  56  85 117 155 194 235 294 363
#     4  10  21  40  63  87 119 153 194 248 302 352
#     4  10  20  34  53  81 119 160 197 242 296 349
#     4  10  19  33  54  82 118 160 201 243 289 346
#
# _framework density 20.099561000000001
#
# number of rings (size 3 to 8) (size 9 to 14) (size 15 to 20)
#    0.000    1.750    1.250    3.375    0.000    7.000 
#    0.000    3.125    0.000    5.250    0.000    0.000 
#    0.000    0.000    0.000    0.000    0.000    0.000 
#
# Total GULP energy -396735.658605 kJ/mol
# GULP energy per Si atom -12397.989331 kJ/mol
# Density = 2.005381 g / cm^3
# Si number density = 20.099561 Si / 1000 Ang^3
#
#
#
# Elastic Constant Matrix: (Units=GPa)
#
#
# Indices 1 2 3 4 5 6 
#
# 1 65.3223 51.5581 39.5430 0.0000 0.0000 0.0000
# 2 51.5581 155.8688 65.1634 0.0000 0.0000 0.0000
# 3 39.5430 65.1634 93.9295 0.0000 0.0000 0.0000
# 4 0.0000 0.0000 0.0000 14.4008 0.0000 0.0000
# 5 0.0000 0.0000 0.0000 0.0000 26.8583 0.0000
# 6 0.0000 0.0000 0.0000 0.0000 0.0000 31.7517
#
#
#
# Elastic Compliance Matrix: (Units=1/GPa)
#
#
# Indices 1 2 3 4 5 6 
#
# 1 0.023033 -0.005021 -0.006213 0.000000 0.000000 0.000000
# 2 -0.005021 0.010131 -0.004915 0.000000 0.000000 0.000000
# 3 -0.006213 -0.004915 0.016671 0.000000 0.000000 0.000000
# 4 0.000000 0.000000 0.000000 0.069441 0.000000 0.000000
# 5 0.000000 0.000000 0.000000 0.000000 0.037232 0.000000
# 6 0.000000 0.000000 0.000000 0.000000 0.000000 0.031494
#
#
# Mechanical properties :
#
#
# Convention : Reuss Voigt Hill
#
# Bulk Modulus (GPa) = 57.02009 69.73884 63.37946
# Shear Modulus (GPa) = 22.10948 25.19256 23.65102
#
# Velocity S-wave (km/s) = 3.32022 3.54416 3.43402
# Velocity P-wave (km/s) = 6.56726 7.17775 6.87928
#
# Compressibility (1/GPa) = 0.01753768
#
# Stress axis : x y z
#
# Youngs Moduli (GPa) = 43.41573 98.70450 59.98301
#
# Poissons Ratio (x) = 0.49564 0.37268
# Poissons Ratio (y) = 0.21801 0.29479
# Poissons Ratio (z) = 0.26974 0.48509
#
# Static dielectric constant tensor:
#      x y z
#    x 3.558360 0.000000 0.000000 
#    y 0.000000 3.846080 0.000000 
#    z 0.000000 0.000000 3.543370 
# 
# 
# High freq. dielectric constant tensor:
#      x y z
#    x 1.783660 0.000000 0.000000 
#    y 0.000000 1.795180 0.000000 
#    z 0.000000 0.000000 1.764740 
# 
# From -- ./inp_files/11828.got.cif
#   From: 2010.03.12/outbox.cif.g09.slc.cpg/sg35_6_cif.got.tgz:11828.got - 2010.04.14 02:02:04.
