data_PCOD8172113
_publ_section_title
;
Structure prediction by ZEFSAII (Michael W. Deem and Ramdas Pophale) SiO2 
 PCOD8172113
Probable space group: P N N 2
;
_chemical_formula_sum "Si O2"
_cell_formula_units_Z 30
_cell_length_a 13.707220
_cell_length_b 12.133108
_cell_length_c 8.349319
_cell_angle_alpha 90.000000
_cell_angle_beta 90.000000
_cell_angle_gamma 90.000000
_cell_volume 1388.585100
_symmetry_space_group_name_H-M "P N N 2"
_symmetry_group_IT_number 34
_symmetry_cell_setting 'orthorhombic'
loop_
_space_group_symop_operation_xyz
x,y,z
-x,-y,z
1/2-x,1/2+y,1/2+z
1/2+x,1/2-y,1/2+z
loop_
_atom_site_type_symbol
_atom_site_label
_atom_site_fract_x
_atom_site_fract_y
_atom_site_fract_z
Si Si1 0.000000 0.500000 0.949501
Si Si2 0.159517 0.233191 0.438625
Si Si3 0.516397 0.628005 0.387677
Si Si4 0.291249 0.345769 0.205368
Si Si5 0.896033 0.687639 0.760090
Si Si6 0.491452 0.371348 0.744867
Si Si7 0.692094 0.741235 0.874505
Si Si8 0.802317 0.426458 0.123727
O O1 0.968053 0.596223 0.828809
O O2 0.910324 0.457332 0.058859
O O3 0.193739 0.298501 0.283014
O O4 0.128496 0.324001 0.571612
O O5 0.245480 0.153314 0.501164
O O6 0.064495 0.169148 0.380452
O O7 0.500000 0.500000 0.364812
O O8 0.627847 0.652635 0.343617
O O9 0.443474 0.690959 0.269796
O O10 0.490469 0.673532 0.565097
O O11 0.266309 0.467436 0.141787
O O12 0.328202 0.262172 0.065319
O O13 0.796935 0.683712 0.859807
O O14 0.500000 0.500000 0.736390
O O15 0.382474 0.338824 0.787469
O O16 0.686694 0.863573 0.795878
#
# Coordination Sequence:
#
# PCOD8172113 Si02
#       8
#     2   4   4   4   4   4   4   4
#     4  12  24  46  76 104 154 186 238 296 386 430
#     4  11  25  45  67 102 141 180 245 291 356 429
#     4  11  23  43  70  99 136 183 240 299 356 424
#     4  12  24  45  69 101 140 190 234 295 361 429
#     4  11  23  44  68 100 141 187 233 294 363 436
#     4  11  24  41  70 101 137 186 239 296 356 426
#     4  11  23  43  69 102 140 184 239 292 360 430
#     4  11  26  46  74 105 145 190 234 307 366 442
#
# _framework density 21.604724999999998
#
# number of rings (size 3 to 8) (size 9 to 14) (size 15 to 20)
#    0.000    0.800    1.333    7.200    1.867    2.133 
#    7.200    0.000    0.000    0.000    0.000    0.000 
#    0.000    0.000    0.000    0.000    0.000    0.000 
#
# Total GULP energy -372014.582126 kJ/mol
# GULP energy per Si atom -12400.486071 kJ/mol
# Density = 2.155555 g / cm^3
# Si number density = 21.604725 Si / 1000 Ang^3
#
#
#
# Elastic Constant Matrix: (Units=GPa)
#
#
# Indices 1 2 3 4 5 6 
#
# 1 110.6899 42.6931 17.1178 0.0000 0.0000 0.0000
# 2 42.6931 80.9559 62.7933 0.0000 0.0000 0.0000
# 3 17.1178 62.7933 104.2972 0.0000 0.0000 0.0000
# 4 0.0000 0.0000 0.0000 26.0229 0.0000 0.0000
# 5 0.0000 0.0000 0.0000 0.0000 52.2215 0.0000
# 6 0.0000 0.0000 0.0000 0.0000 0.0000 36.3322
#
#
#
# Elastic Compliance Matrix: (Units=1/GPa)
#
#
# Indices 1 2 3 4 5 6 
#
# 1 0.011966 -0.008981 0.003443 0.000000 0.000000 0.000000
# 2 -0.008981 0.029916 -0.016537 0.000000 0.000000 0.000000
# 3 0.003443 -0.016537 0.018979 0.000000 0.000000 0.000000
# 4 0.000000 0.000000 0.000000 0.038428 0.000000 0.000000
# 5 0.000000 0.000000 0.000000 0.000000 0.019149 0.000000
# 6 0.000000 0.000000 0.000000 0.000000 0.000000 0.027524
#
#
# Mechanical properties :
#
#
# Convention : Reuss Voigt Hill
#
# Bulk Modulus (GPa) = 59.84116 60.12793 59.98455
# Shear Modulus (GPa) = 25.55176 34.47122 30.01149
#
# Velocity S-wave (km/s) = 3.44276 3.99876 3.73113
# Velocity P-wave (km/s) = 6.60014 7.01508 6.81077
#
# Compressibility (1/GPa) = 0.01671090
#
# Stress axis : x y z
#
# Youngs Moduli (GPa) = 83.57176 33.42732 52.68930
#
# Poissons Ratio (x) = 0.30021 -0.18142
# Poissons Ratio (y) = 0.75056 0.87133
# Poissons Ratio (z) = -0.28776 0.55279
#
# Static dielectric constant tensor:
#      x y z
#    x 3.968550 0.000000 0.000000 
#    y 0.000000 3.842690 0.000000 
#    z 0.000000 0.000000 4.114880 
# 
# 
# High freq. dielectric constant tensor:
#      x y z
#    x 1.864720 0.000000 0.000000 
#    y 0.000000 1.841630 0.000000 
#    z 0.000000 0.000000 1.859810 
# 
# From -- ./inp_files/3315.got.cif
#   From: 2010.03.12/outbox.cif.g09.slc.cpg/sg34_2_cif.got.tgz:3315.got - 2010.04.14 01:56:33.
