data_PCOD8172462
_publ_section_title
;
Structure prediction by ZEFSAII (Michael W. Deem and Ramdas Pophale) SiO2 
 PCOD8172462
Probable space group: C M M 2
;
_chemical_formula_sum "Si O2"
_cell_formula_units_Z 56
_cell_length_a 17.181858
_cell_length_b 19.431254
_cell_length_c 8.897401
_cell_angle_alpha 90.000000
_cell_angle_beta 90.000000
_cell_angle_gamma 90.000000
_cell_volume 2970.531203
_symmetry_space_group_name_H-M "C M M 2"
_symmetry_group_IT_number 35
_symmetry_cell_setting 'orthorhombic'
loop_
_space_group_symop_operation_xyz
x,y,z
-x,-y,z
-x,y,z
x,-y,z
1/2+x,1/2+y,z
1/2-x,1/2-y,z
1/2-x,1/2+y,z
1/2+x,1/2-y,z
loop_
_atom_site_type_symbol
_atom_site_label
_atom_site_fract_x
_atom_site_fract_y
_atom_site_fract_z
Si Si1 0.843426 0.295489 0.133490
Si Si2 0.632330 0.577007 0.251758
Si Si3 0.723335 0.075465 0.459212
Si Si4 0.700778 0.315691 0.666112
Si Si5 0.323073 0.664832 0.997846
Si Si6 0.411520 0.288329 0.402958
Si Si7 0.411943 0.076525 0.244719
O O1 0.755471 0.317887 0.093021
O O2 0.872747 0.236244 0.017648
O O3 0.856427 0.261351 0.301038
O O4 0.894619 0.365038 0.119403
O O5 0.595555 0.500000 0.263107
O O6 0.718838 0.577434 0.318431
O O7 0.636796 0.599295 0.076545
O O8 0.581815 0.633613 0.339676
O O9 0.743479 0.131923 0.580928
O O10 0.638547 0.091999 0.393008
O O11 0.725264 0.000000 0.535769
O O12 0.750000 0.250000 0.713524
O O13 0.625769 0.293721 0.569281
O O14 0.679815 0.352995 0.822626
O O15 0.500000 0.259300 0.413216
O O16 0.500000 0.081413 0.298374
O O17 0.393177 0.000000 0.179376
#
# Coordination Sequence:
#
# PCOD8172462 Si02
#       7
#     8   8   8   8   8   8   8
#     4  10  18  34  53  78 107 142 183 227 271 317
#     4   9  18  34  59  82 103 139 187 234 273 320
#     4   9  18  32  51  80 107 138 186 231 268 318
#     4  11  21  34  56  80 112 146 183 226 276 331
#     4  10  20  33  54  83 112 138 179 231 281 320
#     4  10  22  36  57  83 110 146 182 229 280 329
#     4  10  19  31  53  82 109 139 178 227 276 319
#
# _framework density 18.851845999999998
#
# number of rings (size 3 to 8) (size 9 to 14) (size 15 to 20)
#    0.000    2.143    2.857    1.286    6.000    0.857 
#    0.000    3.571    0.000    1.714    0.000    2.000 
#    0.000    0.000    0.000    0.000    0.000    0.000 
#
# Total GULP energy -346874.334210 kJ/mol
# GULP energy per Si atom -12388.369079 kJ/mol
# Density = 1.880894 g / cm^3
# Si number density = 18.851846 Si / 1000 Ang^3
#
#
#
# Elastic Constant Matrix: (Units=GPa)
#
#
# Indices 1 2 3 4 5 6 
#
# 1 73.5172 9.9084 27.9545 0.0000 0.0000 0.0000
# 2 9.9084 107.0872 23.8979 0.0000 0.0000 0.0000
# 3 27.9545 23.8979 92.6354 0.0000 0.0000 0.0000
# 4 0.0000 0.0000 0.0000 17.6815 0.0000 0.0000
# 5 0.0000 0.0000 0.0000 0.0000 11.5505 0.0000
# 6 0.0000 0.0000 0.0000 0.0000 0.0000 19.4447
#
#
#
# Elastic Compliance Matrix: (Units=1/GPa)
#
#
# Indices 1 2 3 4 5 6 
#
# 1 0.015382 -0.000411 -0.004536 0.000000 0.000000 0.000000
# 2 -0.000411 0.009920 -0.002435 0.000000 0.000000 0.000000
# 3 -0.004536 -0.002435 0.012792 0.000000 0.000000 0.000000
# 4 0.000000 0.000000 0.000000 0.056556 0.000000 0.000000
# 5 0.000000 0.000000 0.000000 0.000000 0.086576 0.000000
# 6 0.000000 0.000000 0.000000 0.000000 0.000000 0.051428
#
#
# Mechanical properties :
#
#
# Convention : Reuss Voigt Hill
#
# Bulk Modulus (GPa) = 42.86305 44.08461 43.47383
# Shear Modulus (GPa) = 19.59285 23.83393 21.71339
#
# Velocity S-wave (km/s) = 3.22733 3.55952 3.39749
# Velocity P-wave (km/s) = 6.05588 6.35052 6.20495
#
# Compressibility (1/GPa) = 0.02333012
#
# Stress axis : x y z
#
# Youngs Moduli (GPa) = 65.00932 100.81037 78.17396
#
# Poissons Ratio (x) = 0.04144 0.35459
# Poissons Ratio (y) = 0.02672 0.19035
# Poissons Ratio (z) = 0.29488 0.24547
#
# Static dielectric constant tensor:
#      x y z
#    x 3.259020 0.000000 0.000000 
#    y 0.000000 4.030140 0.000000 
#    z 0.000000 0.000000 3.127630 
# 
# 
# High freq. dielectric constant tensor:
#      x y z
#    x 1.709220 0.000000 0.000000 
#    y 0.000000 1.755560 0.000000 
#    z 0.000000 0.000000 1.695130 
# 
# From -- ./inp_files/8656.got.cif
#   From: 2010.03.12/outbox.cif.g09.slc.cpg/sg35_5_cif.got.tgz:8656.got - 2010.04.14 02:02:04.
