data_PCOD8172417
_publ_section_title
;
Structure prediction by ZEFSAII (Michael W. Deem and Ramdas Pophale) SiO2 
 PCOD8172417
Probable space group: C M M 2
;
_chemical_formula_sum "Si O2"
_cell_formula_units_Z 64
_cell_length_a 16.364583
_cell_length_b 17.933602
_cell_length_c 11.033745
_cell_angle_alpha 90.000000
_cell_angle_beta 90.000000
_cell_angle_gamma 90.000000
_cell_volume 3238.138447
_symmetry_space_group_name_H-M "C M M 2"
_symmetry_group_IT_number 35
_symmetry_cell_setting 'orthorhombic'
loop_
_space_group_symop_operation_xyz
x,y,z
-x,-y,z
-x,y,z
x,-y,z
1/2+x,1/2+y,z
1/2-x,1/2-y,z
1/2-x,1/2+y,z
1/2+x,1/2-y,z
loop_
_atom_site_type_symbol
_atom_site_label
_atom_site_fract_x
_atom_site_fract_y
_atom_site_fract_z
Si Si1 0.765364 0.586014 0.774740
Si Si2 0.908068 0.146831 0.813125
Si Si3 0.366374 0.639330 0.087536
Si Si4 0.590202 0.583012 0.332780
Si Si5 0.155372 0.764929 0.414939
Si Si6 0.194714 0.584991 0.049281
Si Si7 0.594317 0.792705 0.173311
Si Si8 0.658888 0.777511 0.679861
O O1 0.780421 0.500000 0.744730
O O2 0.668319 0.603495 0.749521
O O3 0.831167 0.633093 0.695711
O O4 0.790464 0.608371 0.910661
O O5 0.897423 0.235039 0.779837
O O6 0.000000 0.121774 0.770273
O O7 0.904280 0.127907 0.955362
O O8 0.422823 0.602998 0.190626
O O9 0.280550 0.599367 0.113623
O O10 0.354656 0.727487 0.108331
O O11 0.500000 0.584236 0.390866
O O12 0.628794 0.500000 0.350210
O O13 0.643745 0.646005 0.399167
O O14 0.250000 0.750000 0.398984
O O15 0.106222 0.714852 0.318177
O O16 0.123626 0.740692 0.547103
O O17 0.167593 0.500000 0.060377
O O18 0.124321 0.629819 0.118122
O O19 0.500000 0.783424 0.140827
O O20 0.750000 0.750000 0.700417
#
# Coordination Sequence:
#
# PCOD8172417 Si02
#       8
#     8   8   8   8   8   8   8   8
#     4   9  19  36  56  78 106 141 180 220 264 318
#     4  10  19  31  53  84 113 141 173 215 267 315
#     4  10  18  32  52  80 111 140 177 210 251 318
#     4  10  20  34  54  80 111 142 170 211 267 322
#     4  10  20  36  55  76 104 143 189 225 258 311
#     4  10  20  34  54  78 107 143 177 217 268 320
#     4  11  21  33  53  79 107 138 174 223 275 318
#     4   9  19  36  55  74 102 144 188 223 257 309
#
# _framework density 19.764443
#
# number of rings (size 3 to 8) (size 9 to 14) (size 15 to 20)
#    0.000    2.125    0.000    5.250    0.000    4.000 
#    0.000    6.250    0.000    1.125    0.000    0.000 
#    0.000    0.000    0.000    0.000    0.000    0.000 
#
# Total GULP energy -396548.409591 kJ/mol
# GULP energy per Si atom -12392.137800 kJ/mol
# Density = 1.971946 g / cm^3
# Si number density = 19.764443 Si / 1000 Ang^3
#
#
#
# Elastic Constant Matrix: (Units=GPa)
#
#
# Indices 1 2 3 4 5 6 
#
# 1 52.6265 37.3739 24.9670 0.0000 0.0000 0.0000
# 2 37.3739 137.1969 43.2924 0.0000 0.0000 0.0000
# 3 24.9670 43.2924 67.3402 0.0000 0.0000 0.0000
# 4 0.0000 0.0000 0.0000 22.2651 0.0000 0.0000
# 5 0.0000 0.0000 0.0000 0.0000 14.8643 0.0000
# 6 0.0000 0.0000 0.0000 0.0000 0.0000 24.5393
#
#
#
# Elastic Compliance Matrix: (Units=1/GPa)
#
#
# Indices 1 2 3 4 5 6 
#
# 1 0.025502 -0.004972 -0.006259 0.000000 0.000000 0.000000
# 2 -0.004972 0.010113 -0.004658 0.000000 0.000000 0.000000
# 3 -0.006259 -0.004658 0.020165 0.000000 0.000000 0.000000
# 4 0.000000 0.000000 0.000000 0.044913 0.000000 0.000000
# 5 0.000000 0.000000 0.000000 0.000000 0.067275 0.000000
# 6 0.000000 0.000000 0.000000 0.000000 0.000000 0.040751
#
#
# Mechanical properties :
#
#
# Convention : Reuss Voigt Hill
#
# Bulk Modulus (GPa) = 41.66234 52.04782 46.85508
# Shear Modulus (GPa) = 20.12084 22.43575 21.27829
#
# Velocity S-wave (km/s) = 3.19412 3.37286 3.28471
# Velocity P-wave (km/s) = 5.89308 6.44667 6.17608
#
# Compressibility (1/GPa) = 0.02400249
#
# Stress axis : x y z
#
# Youngs Moduli (GPa) = 39.21244 98.88118 49.59066
#
# Poissons Ratio (x) = 0.49165 0.31037
# Poissons Ratio (y) = 0.19497 0.23100
# Poissons Ratio (z) = 0.24542 0.46061
#
# Static dielectric constant tensor:
#      x y z
#    x 3.470180 0.000000 0.000000 
#    y 0.000000 3.697390 0.000000 
#    z 0.000000 0.000000 3.567900 
# 
# 
# High freq. dielectric constant tensor:
#      x y z
#    x 1.755380 0.000000 0.000000 
#    y 0.000000 1.764430 0.000000 
#    z 0.000000 0.000000 1.759040 
# 
# From -- ./inp_files/13186.got.cif
#   From: 2010.03.12/outbox.cif.g09.slc.cpg/sg35_7_cif.got.tgz:13186.got - 2010.04.14 02:02:04.
