data_PCOD8172689
_publ_section_title
;
Structure prediction by ZEFSAII (Michael W. Deem and Ramdas Pophale) SiO2 
 PCOD8172689
Probable space group: C M M 2
;
_chemical_formula_sum "Si O2"
_cell_formula_units_Z 64
_cell_length_a 8.691615
_cell_length_b 19.074572
_cell_length_c 20.731669
_cell_angle_alpha 90.000000
_cell_angle_beta 90.000000
_cell_angle_gamma 90.000000
_cell_volume 3437.079274
_symmetry_space_group_name_H-M "C M M 2"
_symmetry_group_IT_number 35
_symmetry_cell_setting 'orthorhombic'
loop_
_space_group_symop_operation_xyz
x,y,z
-x,-y,z
-x,y,z
x,-y,z
1/2+x,1/2+y,z
1/2-x,1/2-y,z
1/2-x,1/2+y,z
1/2+x,1/2-y,z
loop_
_atom_site_type_symbol
_atom_site_label
_atom_site_fract_x
_atom_site_fract_y
_atom_site_fract_z
Si Si1 0.321338 0.675012 0.511350
Si Si2 0.181872 0.827596 0.651095
Si Si3 0.823247 0.082403 0.896318
Si Si4 0.182930 0.921323 0.256190
Si Si5 0.317780 0.672801 0.372050
Si Si6 0.182519 0.825077 0.139376
Si Si7 0.678762 0.918863 0.762968
Si Si8 0.680894 0.175642 0.003216
O O1 0.500000 0.687494 0.508176
O O2 0.250000 0.750000 0.514527
O O3 0.280603 0.638057 0.579820
O O4 0.270649 0.640012 0.442942
O O5 0.250000 0.750000 0.657498
O O6 0.263587 0.877130 0.701588
O O7 0.000000 0.824884 0.664081
O O8 0.770383 0.107609 0.825740
O O9 0.717736 0.118763 0.949302
O O10 0.000000 0.103913 0.906589
O O11 0.797300 0.000000 0.903726
O O12 0.248923 0.879882 0.318304
O O13 0.237436 0.881942 0.191601
O O14 0.000000 0.924044 0.259226
O O15 0.251165 0.000000 0.255933
O O16 0.500000 0.679205 0.364578
O O17 0.250000 0.750000 0.361725
O O18 0.250000 0.750000 0.159525
O O19 0.000000 0.819054 0.135885
O O20 0.245972 0.849832 0.070413
O O21 0.500000 0.904423 0.774899
O O22 0.713078 0.000000 0.749678
O O23 0.500000 0.183653 0.012181
O O24 0.750000 0.250000 0.981639
#
# Coordination Sequence:
#
# PCOD8172689 Si02
#       8
#     8   8   8   8   8   8   8   8
#     4   8  15  27  45  71  99 128 164 207 253 301
#     4  10  19  32  51  76 105 135 172 216 262 309
#     4  10  21  38  59  81 106 137 172 210 254 305
#     4   9  18  31  48  72 101 132 167 208 252 299
#     4   9  16  29  50  73  97 128 167 208 252 301
#     4  10  19  33  53  75 100 132 170 209 252 302
#     4  10  21  37  55  76 104 138 175 213 255 305
#     4  11  22  37  57  81 109 137 170 212 257 304
#
# _framework density 18.620460000000001
#
# number of rings (size 3 to 8) (size 9 to 14) (size 15 to 20)
#    0.000    2.375    0.000    3.750    0.000    3.000 
#    0.000    5.000    0.000    5.250    0.000    0.000 
#    0.000    0.000    0.000    0.000    0.000    0.000 
#
# Total GULP energy -396603.585731 kJ/mol
# GULP energy per Si atom -12393.862054 kJ/mol
# Density = 1.857808 g / cm^3
# Si number density = 18.620460 Si / 1000 Ang^3
#
#
#
# Elastic Constant Matrix: (Units=GPa)
#
#
# Indices 1 2 3 4 5 6 
#
# 1 56.7328 27.6555 33.9435 0.0000 0.0000 0.0000
# 2 27.6555 85.8042 76.8404 0.0000 0.0000 0.0000
# 3 33.9435 76.8404 157.8840 0.0000 0.0000 0.0000
# 4 0.0000 0.0000 0.0000 10.1611 0.0000 0.0000
# 5 0.0000 0.0000 0.0000 0.0000 26.8339 0.0000
# 6 0.0000 0.0000 0.0000 0.0000 0.0000 24.5227
#
#
#
# Elastic Compliance Matrix: (Units=1/GPa)
#
#
# Indices 1 2 3 4 5 6 
#
# 1 0.021334 -0.004908 -0.002198 0.000000 0.000000 0.000000
# 2 -0.004908 0.021787 -0.009549 0.000000 0.000000 0.000000
# 3 -0.002198 -0.009549 0.011453 0.000000 0.000000 0.000000
# 4 0.000000 0.000000 0.000000 0.098415 0.000000 0.000000
# 5 0.000000 0.000000 0.000000 0.000000 0.037266 0.000000
# 6 0.000000 0.000000 0.000000 0.000000 0.000000 0.040779
#
#
# Mechanical properties :
#
#
# Convention : Reuss Voigt Hill
#
# Bulk Modulus (GPa) = 47.02311 64.14443 55.58377
# Shear Modulus (GPa) = 18.42086 23.10231 20.76159
#
# Velocity S-wave (km/s) = 3.14870 3.52617 3.34277
# Velocity P-wave (km/s) = 6.20704 7.14854 6.69436
#
# Compressibility (1/GPa) = 0.02126614
#
# Stress axis : x y z
#
# Youngs Moduli (GPa) = 46.87368 45.89845 87.30971
#
# Poissons Ratio (x) = 0.22525 0.19191
# Poissons Ratio (y) = 0.23004 0.83368
# Poissons Ratio (z) = 0.10303 0.43826
#
# Static dielectric constant tensor:
#      x y z
#    x 3.347690 0.000000 0.000000 
#    y 0.000000 3.266020 0.000000 
#    z 0.000000 0.000000 3.960270 
# 
# 
# High freq. dielectric constant tensor:
#      x y z
#    x 1.720170 0.000000 0.000000 
#    y 0.000000 1.697030 0.000000 
#    z 0.000000 0.000000 1.746390 
# 
# From -- ./inp_files/18324.got.cif
#   From: 2010.03.12/outbox.cif.g09.slc.cpg/sg35_10_cif.got.tgz:18324.got - 2010.04.14 02:02:04.
