data_PCOD8172825
_publ_section_title
;
Structure prediction by ZEFSAII (Michael W. Deem and Ramdas Pophale) SiO2 
 PCOD8172825
Probable space group: C M M 2
;
_chemical_formula_sum "Si O2"
_cell_formula_units_Z 56
_cell_length_a 18.355731
_cell_length_b 8.930892
_cell_length_c 18.181609
_cell_angle_alpha 90.000000
_cell_angle_beta 90.000000
_cell_angle_gamma 90.000000
_cell_volume 2980.566638
_symmetry_space_group_name_H-M "C M M 2"
_symmetry_group_IT_number 35
_symmetry_cell_setting 'orthorhombic'
loop_
_space_group_symop_operation_xyz
x,y,z
-x,-y,z
-x,y,z
x,-y,z
1/2+x,1/2+y,z
1/2-x,1/2-y,z
1/2-x,1/2+y,z
1/2+x,1/2-y,z
loop_
_atom_site_type_symbol
_atom_site_label
_atom_site_fract_x
_atom_site_fract_y
_atom_site_fract_z
Si Si1 0.585319 0.674627 0.394510
Si Si2 0.825683 0.828066 0.832129
Si Si3 0.828504 0.322940 0.263102
Si Si4 0.583917 0.825764 0.118479
Si Si5 0.829123 0.176325 0.672938
Si Si6 0.914012 0.329736 0.544112
Si Si7 0.671120 0.323910 0.991699
O O1 0.500000 0.704468 0.382407
O O2 0.604431 0.500000 0.391714
O O3 0.628799 0.761434 0.332648
O O4 0.611956 0.739774 0.472331
O O5 0.750000 0.750000 0.827301
O O6 0.865900 0.793143 0.754387
O O7 0.806340 0.000000 0.835873
O O8 0.862922 0.783706 0.910224
O O9 0.820775 0.500000 0.270838
O O10 0.750000 0.250000 0.257737
O O11 0.872585 0.276057 0.190672
O O12 0.500000 0.784251 0.131353
O O13 0.612930 0.735156 0.049193
O O14 0.594658 0.000000 0.102121
O O15 0.750000 0.250000 0.666076
O O16 0.882659 0.250349 0.615402
O O17 0.822081 0.000000 0.657347
O O18 0.885605 0.500000 0.538540
O O19 0.000000 0.324439 0.551379
O O20 0.681016 0.500000 0.003080
O O21 0.750000 0.250000 0.003826
#
# Coordination Sequence:
#
# PCOD8172825 Si02
#       7
#     8   8   8   8   8   8   8
#     4  10  21  38  60  84 109 139 177 219 265 318
#     4   8  16  30  49  75 105 138 176 220 269 318
#     4  11  23  39  59  83 111 141 176 219 266 315
#     4  10  22  39  57  79 109 144 180 219 266 318
#     4  10  19  33  54  79 108 141 180 225 271 319
#     4  10  21  37  56  79 109 144 181 220 265 318
#     4  10  19  33  55  81 108 140 180 224 270 319
#
# _framework density 18.788374000000001
#
# number of rings (size 3 to 8) (size 9 to 14) (size 15 to 20)
#    0.000    2.143    0.000    3.000    0.000    6.571 
#    0.000    3.571    0.000    4.286    0.000    0.000 
#    0.000    0.000    0.000    0.000    0.000    0.000 
#
# Total GULP energy -347048.933625 kJ/mol
# GULP energy per Si atom -12394.604772 kJ/mol
# Density = 1.874561 g / cm^3
# Si number density = 18.788374 Si / 1000 Ang^3
#
#
#
# Elastic Constant Matrix: (Units=GPa)
#
#
# Indices 1 2 3 4 5 6 
#
# 1 50.2355 41.8995 60.3864 0.0000 0.0000 0.0000
# 2 41.8995 89.9520 69.8158 0.0000 0.0000 0.0000
# 3 60.3864 69.8158 177.9341 0.0000 0.0000 0.0000
# 4 0.0000 0.0000 0.0000 35.5358 0.0000 0.0000
# 5 0.0000 0.0000 0.0000 0.0000 119.9601 0.0000
# 6 0.0000 0.0000 0.0000 0.0000 0.0000 26.2054
#
#
#
# Elastic Compliance Matrix: (Units=1/GPa)
#
#
# Indices 1 2 3 4 5 6 
#
# 1 0.040910 -0.011906 -0.009213 0.000000 0.000000 0.000000
# 2 -0.011906 0.019450 -0.003591 0.000000 0.000000 0.000000
# 3 -0.009213 -0.003591 0.010156 0.000000 0.000000 0.000000
# 4 0.000000 0.000000 0.000000 0.028141 0.000000 0.000000
# 5 0.000000 0.000000 0.000000 0.000000 0.008336 0.000000
# 6 0.000000 0.000000 0.000000 0.000000 0.000000 0.038160
#
#
# Mechanical properties :
#
#
# Convention : Reuss Voigt Hill
#
# Bulk Modulus (GPa) = 47.39949 73.59167 60.49558
# Shear Modulus (GPa) = 24.80115 46.07493 35.43804
#
# Velocity S-wave (km/s) = 3.63716 4.95745 4.34772
# Velocity P-wave (km/s) = 6.55144 8.48659 7.58102
#
# Compressibility (1/GPa) = 0.02109727
#
# Stress axis : x y z
#
# Youngs Moduli (GPa) = 24.44366 51.41428 98.46817
#
# Poissons Ratio (x) = 0.61212 0.90714
# Poissons Ratio (y) = 0.29102 0.35360
# Poissons Ratio (z) = 0.22519 0.18463
#
# Static dielectric constant tensor:
#      x y z
#    x 3.161180 0.000000 0.000000 
#    y 0.000000 3.609170 0.000000 
#    z 0.000000 0.000000 4.064600 
# 
# 
# High freq. dielectric constant tensor:
#      x y z
#    x 1.703470 0.000000 0.000000 
#    y 0.000000 1.743760 0.000000 
#    z 0.000000 0.000000 1.755770 
# 
# From -- ./inp_files/15658.got.cif
#   From: 2010.03.12/outbox.cif.g09.slc.cpg/sg35_8_cif.got.tgz:15658.got - 2010.04.14 02:02:04.
