data_PCOD8172014
_publ_section_title
;
Structure prediction by ZEFSAII (Michael W. Deem and Ramdas Pophale) SiO2 
 PCOD8172014
Probable space group: P N N 2
;
_chemical_formula_sum "Si O2"
_cell_formula_units_Z 32
_cell_length_a 15.683889
_cell_length_b 16.193370
_cell_length_c 5.480114
_cell_angle_alpha 90.000000
_cell_angle_beta 90.000000
_cell_angle_gamma 90.000000
_cell_volume 1391.812050
_symmetry_space_group_name_H-M "P N N 2"
_symmetry_group_IT_number 34
_symmetry_cell_setting 'orthorhombic'
loop_
_space_group_symop_operation_xyz
x,y,z
-x,-y,z
1/2-x,1/2+y,1/2+z
1/2+x,1/2-y,1/2+z
loop_
_atom_site_type_symbol
_atom_site_label
_atom_site_fract_x
_atom_site_fract_y
_atom_site_fract_z
Si Si1 0.337898 0.172190 0.827800
Si Si2 0.178624 0.256417 0.676967
Si Si3 0.356771 0.030002 0.162803
Si Si4 0.741574 0.586265 0.926986
Si Si5 0.975387 0.376121 0.980707
Si Si6 0.864043 0.618084 0.309986
Si Si7 0.069280 0.841777 0.389410
Si Si8 0.511549 0.302328 0.378736
O O1 0.256802 0.191842 0.651573
O O2 0.408614 0.116622 0.698528
O O3 0.379061 0.256889 0.921590
O O4 0.311667 0.110844 0.045717
O O5 0.217271 0.341694 0.768196
O O6 0.131129 0.288550 0.427935
O O7 0.113003 0.214043 0.865568
O O8 0.282368 0.000548 0.346858
O O9 0.446449 0.055186 0.288399
O O10 0.386989 0.954917 0.992749
O O11 0.639281 0.584524 0.891714
O O12 0.767991 0.603547 0.208739
O O13 0.964871 0.285879 0.860990
O O14 0.071129 0.388678 0.080291
O O15 0.013011 0.854302 0.635102
O O16 0.014315 0.845913 0.136892
#
# Coordination Sequence:
#
# PCOD8172014 Si02
#       8
#     4   4   4   4   4   4   4   4
#     4  10  22  39  62  90 126 167 219 278 321 402
#     4  10  22  40  64  95 121 170 218 280 339 389
#     4  11  24  40  58  92 128 183 214 269 330 419
#     4  10  23  39  59  93 126 172 212 270 334 408
#     4  11  23  40  57  96 130 172 214 262 332 411
#     4  11  24  40  62  91 143 175 220 267 346 419
#     4  10  23  39  67  91 126 170 217 278 333 398
#     4  11  21  42  65  95 127 163 223 274 335 390
#
# _framework density 22.991610999999999
#
# number of rings (size 3 to 8) (size 9 to 14) (size 15 to 20)
#    0.000    1.500    2.500    2.250    7.000    3.000 
#    2.250    0.000    0.000    0.750    0.000    0.000 
#    0.000    0.000    0.000    0.000    0.000    0.000 
#
# Total GULP energy -396514.191620 kJ/mol
# GULP energy per Si atom -12391.068488 kJ/mol
# Density = 2.293928 g / cm^3
# Si number density = 22.991611 Si / 1000 Ang^3
#
#
#
# Elastic Constant Matrix: (Units=GPa)
#
#
# Indices 1 2 3 4 5 6 
#
# 1 53.9721 17.1908 9.2019 0.0000 0.0000 0.0000
# 2 17.1908 41.2794 14.3351 0.0000 0.0000 0.0000
# 3 9.2019 14.3351 94.9236 0.0000 0.0000 0.0000
# 4 0.0000 0.0000 0.0000 24.2832 0.0000 0.0000
# 5 0.0000 0.0000 0.0000 0.0000 36.0594 0.0000
# 6 0.0000 0.0000 0.0000 0.0000 0.0000 23.6984
#
#
#
# Elastic Compliance Matrix: (Units=1/GPa)
#
#
# Indices 1 2 3 4 5 6 
#
# 1 0.021415 -0.008651 -0.000769 0.000000 0.000000 0.000000
# 2 -0.008651 0.029061 -0.003550 0.000000 0.000000 0.000000
# 3 -0.000769 -0.003550 0.011146 0.000000 0.000000 0.000000
# 4 0.000000 0.000000 0.000000 0.041181 0.000000 0.000000
# 5 0.000000 0.000000 0.000000 0.000000 0.027732 0.000000
# 6 0.000000 0.000000 0.000000 0.000000 0.000000 0.042197
#
#
# Mechanical properties :
#
#
# Convention : Reuss Voigt Hill
#
# Bulk Modulus (GPa) = 28.02697 30.18121 29.10409
# Shear Modulus (GPa) = 23.74563 26.77134 25.25849
#
# Velocity S-wave (km/s) = 3.21720 3.41603 3.31810
# Velocity P-wave (km/s) = 5.10069 5.35859 5.23123
#
# Compressibility (1/GPa) = 0.03567992
#
# Stress axis : x y z
#
# Youngs Moduli (GPa) = 46.69679 34.41071 89.72231
#
# Poissons Ratio (x) = 0.29769 0.06904
# Poissons Ratio (y) = 0.40397 0.31852
# Poissons Ratio (z) = 0.03593 0.12216
#
# Static dielectric constant tensor:
#      x y z
#    x 4.088260 0.000000 0.000000 
#    y 0.000000 3.966690 0.000000 
#    z 0.000000 0.000000 4.353040 
# 
# 
# High freq. dielectric constant tensor:
#      x y z
#    x 1.898320 0.000000 0.000000 
#    y 0.000000 1.873060 0.000000 
#    z 0.000000 0.000000 1.910630 
# 
# From -- ./inp_files/1321.got.cif
#   From: 2010.03.12/outbox.cif.g09.slc.cpg/sg34_1_cif.got.tgz:1321.got - 2010.04.14 01:56:33.
