data_PCOD8172206
_publ_section_title
;
Structure prediction by ZEFSAII (Michael W. Deem and Ramdas Pophale) SiO2 
 PCOD8172206
Probable space group: C M M 2
;
_chemical_formula_sum "Si O2"
_cell_formula_units_Z 40
_cell_length_a 8.602799
_cell_length_b 26.377494
_cell_length_c 9.333506
_cell_angle_alpha 90.000000
_cell_angle_beta 90.000000
_cell_angle_gamma 90.000000
_cell_volume 2117.961786
_symmetry_space_group_name_H-M "C M M 2"
_symmetry_group_IT_number 35
_symmetry_cell_setting 'orthorhombic'
loop_
_space_group_symop_operation_xyz
x,y,z
-x,-y,z
-x,y,z
x,-y,z
1/2+x,1/2+y,z
1/2-x,1/2-y,z
1/2-x,1/2+y,z
1/2+x,1/2-y,z
loop_
_atom_site_type_symbol
_atom_site_label
_atom_site_fract_x
_atom_site_fract_y
_atom_site_fract_z
Si Si1 0.315559 0.094041 0.051820
Si Si2 0.813766 0.500000 0.568222
Si Si3 0.819361 0.590713 0.375253
Si Si4 0.181566 0.701381 0.364603
Si Si5 0.681938 0.301261 0.051913
Si Si6 0.317058 0.500000 0.882612
O O1 0.500000 0.093653 0.049618
O O2 0.250386 0.086602 0.214230
O O3 0.258155 0.147761 0.986690
O O4 0.252172 0.049705 0.954188
O O5 0.749592 0.548975 0.481788
O O6 0.729123 0.500000 0.718090
O O7 0.000000 0.500000 0.589198
O O8 0.789860 0.647176 0.441818
O O9 0.000000 0.579152 0.361451
O O10 0.250000 0.750000 0.453963
O O11 0.278770 0.700328 0.219172
O O12 0.000000 0.708525 0.330201
O O13 0.500000 0.303144 0.024816
O O14 0.750000 0.250000 0.977891
O O15 0.500000 0.500000 0.901099
#
# Coordination Sequence:
#
# PCOD8172206 Si02
#       6
#     8   4   8   8   8   4
#     4  10  19  35  57  80 103 135 174 216 260 307
#     4  10  19  36  56  72  94 132 171 210 258 310
#     4   8  16  30  53  79 100 124 168 215 252 299
#     4   9  15  25  42  70 103 134 166 205 249 301
#     4  10  17  27  45  74 108 139 168 207 253 303
#     4  12  25  38  50  74 106 136 171 216 262 314
#
# _framework density 18.886082999999999
#
# number of rings (size 3 to 8) (size 9 to 14) (size 15 to 20)
#    0.000    2.400    0.000    6.900    0.000    1.600 
#    0.000    7.000    0.000    1.200    0.000    5.600 
#    0.000    0.000    0.000    0.000    0.000    0.000 
#
# Total GULP energy -247820.203756 kJ/mol
# GULP energy per Si atom -12391.010188 kJ/mol
# Density = 1.884310 g / cm^3
# Si number density = 18.886083 Si / 1000 Ang^3
#
#
#
# Elastic Constant Matrix: (Units=GPa)
#
#
# Indices 1 2 3 4 5 6 
#
# 1 99.3081 56.4907 25.8045 0.0000 0.0000 0.0000
# 2 56.4907 216.4062 61.6024 0.0000 0.0000 0.0000
# 3 25.8045 61.6024 62.4515 0.0000 0.0000 0.0000
# 4 0.0000 0.0000 0.0000 -0.9989 0.0000 0.0000
# 5 0.0000 0.0000 0.0000 0.0000 14.4775 0.0000
# 6 0.0000 0.0000 0.0000 0.0000 0.0000 32.1167
#
#
#
# Elastic Compliance Matrix: (Units=1/GPa)
#
#
# Indices 1 2 3 4 5 6 
#
# 1 0.012128 -0.002418 -0.002625 0.000000 0.000000 0.000000
# 2 -0.002418 0.006907 -0.005814 0.000000 0.000000 0.000000
# 3 -0.002625 -0.005814 0.022832 0.000000 0.000000 0.000000
# 4 0.000000 0.000000 0.000000 -1.001094 0.000000 0.000000
# 5 0.000000 0.000000 0.000000 0.000000 0.069073 0.000000
# 6 0.000000 0.000000 0.000000 0.000000 0.000000 0.031136
#
#
# Mechanical properties :
#
#
# Convention : Reuss Voigt Hill
#
# Bulk Modulus (GPa) = 49.62490 73.99565 61.81027
# Shear Modulus (GPa) = -6.01986 24.73694 9.35854
#
# Velocity S-wave (km/s) = -1.78728 3.62304 2.22846
# Velocity P-wave (km/s) = 4.69827 7.53438 6.27856
#
# Compressibility (1/GPa) = 0.02015117
#
# Stress axis : x y z
#
# Youngs Moduli (GPa) = 82.45669 144.77451 43.79754
#
# Poissons Ratio (x) = 0.35012 0.11499
# Poissons Ratio (y) = 0.19941 0.25464
# Poissons Ratio (z) = 0.21649 0.84174
#
# Static dielectric constant tensor:
#      x y z
#    x 3.361950 0.000000 0.000000 
#    y 0.000000 4.459680 0.000000 
#    z 0.000000 0.000000 3.019710 
# 
# 
# High freq. dielectric constant tensor:
#      x y z
#    x 1.725000 0.000000 0.000000 
#    y 0.000000 1.770800 0.000000 
#    z 0.000000 0.000000 1.666020 
# 
# From -- ./inp_files/5044.got.cif
#   From: 2010.03.12/outbox.cif.g09.slc.cpg/sg35_3_cif.got.tgz:5044.got - 2010.04.14 02:02:04.
