data_PCOD8172548
_publ_section_title
;
Structure prediction by ZEFSAII (Michael W. Deem and Ramdas Pophale) SiO2 
 PCOD8172548
Probable space group: C M M 2
;
_chemical_formula_sum "Si O2"
_cell_formula_units_Z 64
_cell_length_a 8.892131
_cell_length_b 28.488053
_cell_length_c 15.742099
_cell_angle_alpha 90.000000
_cell_angle_beta 90.000000
_cell_angle_gamma 90.000000
_cell_volume 3987.780635
_symmetry_space_group_name_H-M "C M M 2"
_symmetry_group_IT_number 35
_symmetry_cell_setting 'orthorhombic'
loop_
_space_group_symop_operation_xyz
x,y,z
-x,-y,z
-x,y,z
x,-y,z
1/2+x,1/2+y,z
1/2-x,1/2-y,z
1/2-x,1/2+y,z
1/2+x,1/2-y,z
loop_
_atom_site_type_symbol
_atom_site_label
_atom_site_fract_x
_atom_site_fract_y
_atom_site_fract_z
Si Si1 0.676455 0.202504 0.936340
Si Si2 0.326789 0.055212 0.034192
Si Si3 0.678780 0.053600 0.702407
Si Si4 0.677932 0.051751 0.519698
Si Si5 0.173553 0.555956 0.335866
Si Si6 0.676483 0.390904 0.185322
Si Si7 0.823093 0.298149 0.132370
Si Si8 0.678538 0.894145 0.865088
O O1 0.500000 0.208108 0.926729
O O2 0.750000 0.250000 0.900904
O O3 0.738495 0.158623 0.881615
O O4 0.720900 0.193403 0.034110
O O5 0.500000 0.070135 0.050163
O O6 0.271788 0.072002 0.941857
O O7 0.305943 0.000000 0.040582
O O8 0.224605 0.079184 0.104234
O O9 0.500000 0.053702 0.710614
O O10 0.727788 0.075517 0.609734
O O11 0.748428 0.085723 0.777388
O O12 0.736604 0.000000 0.712172
O O13 0.500000 0.046999 0.518989
O O14 0.723482 0.075719 0.429935
O O15 0.749335 0.000000 0.521033
O O16 0.195962 0.500000 0.331449
O O17 0.281129 0.580930 0.269606
O O18 0.000000 0.568477 0.315839
O O19 0.500000 0.382603 0.182549
O O20 0.757661 0.340664 0.187348
O O21 0.750000 0.250000 0.165604
O O22 0.000000 0.295296 0.145872
O O23 0.500000 0.893073 0.859955
#
# Coordination Sequence:
#
# PCOD8172548 Si02
#       8
#     8   8   8   8   8   8   8   8
#     4   9  17  29  45  63  86 113 147 186 222 261
#     4  10  19  31  45  61  88 126 160 187 222 269
#     4   8  12  19  36  64  94 117 141 180 226 269
#     4   7  11  21  38  62  89 114 143 184 231 272
#     4   9  17  30  47  65  89 122 156 191 234 280
#     4  12  23  32  44  65  92 122 156 192 230 269
#     4  10  19  34  52  69  90 116 151 191 232 275
#     4   9  15  25  40  63  90 118 148 182 223 270
#
# _framework density 16.049026999999999
#
# number of rings (size 3 to 8) (size 9 to 14) (size 15 to 20)
#    0.000    2.750    1.250    3.750    0.000    4.000 
#    0.000    0.000    0.000    0.000    0.000    2.625 
#    0.000    6.000    0.000    0.000    0.000    0.000 
#
# Total GULP energy -396519.559039 kJ/mol
# GULP energy per Si atom -12391.236220 kJ/mol
# Density = 1.601250 g / cm^3
# Si number density = 16.049027 Si / 1000 Ang^3
#
#
#
# Elastic Constant Matrix: (Units=GPa)
#
#
# Indices 1 2 3 4 5 6 
#
# 1 43.6675 28.5587 28.4267 0.0000 0.0000 0.0000
# 2 28.5587 83.9264 43.2468 0.0000 0.0000 0.0000
# 3 28.4267 43.2468 114.0619 0.0000 0.0000 0.0000
# 4 0.0000 0.0000 0.0000 6.5261 0.0000 0.0000
# 5 0.0000 0.0000 0.0000 0.0000 3.4304 0.0000
# 6 0.0000 0.0000 0.0000 0.0000 0.0000 21.4677
#
#
#
# Elastic Compliance Matrix: (Units=1/GPa)
#
#
# Indices 1 2 3 4 5 6 
#
# 1 0.031347 -0.008254 -0.004683 0.000000 0.000000 0.000000
# 2 -0.008254 0.016982 -0.004382 0.000000 0.000000 0.000000
# 3 -0.004683 -0.004382 0.011596 0.000000 0.000000 0.000000
# 4 0.000000 0.000000 0.000000 0.153231 0.000000 0.000000
# 5 0.000000 0.000000 0.000000 0.000000 0.291509 0.000000
# 6 0.000000 0.000000 0.000000 0.000000 0.000000 0.046582
#
#
# Mechanical properties :
#
#
# Convention : Reuss Voigt Hill
#
# Bulk Modulus (GPa) = 39.54521 49.12447 44.33484
# Shear Modulus (GPa) = 8.41310 15.71310 12.06310
#
# Velocity S-wave (km/s) = 2.29205 3.13240 2.74458
# Velocity P-wave (km/s) = 5.63013 6.61499 6.14233
#
# Compressibility (1/GPa) = 0.02528751
#
# Stress axis : x y z
#
# Youngs Moduli (GPa) = 31.90130 58.88724 86.24005
#
# Poissons Ratio (x) = 0.48604 0.40385
# Poissons Ratio (y) = 0.26330 0.37787
# Poissons Ratio (z) = 0.14939 0.25802
#
# Static dielectric constant tensor:
#      x y z
#    x 2.695800 0.000000 0.000000 
#    y 0.000000 3.049610 0.000000 
#    z 0.000000 0.000000 3.379460 
# 
# 
# High freq. dielectric constant tensor:
#      x y z
#    x 1.581750 0.000000 0.000000 
#    y 0.000000 1.599080 0.000000 
#    z 0.000000 0.000000 1.614180 
# 
# From -- ./inp_files/16184.got.cif
#   From: 2010.03.12/outbox.cif.g09.slc.cpg/sg35_9_cif.got.tgz:16184.got - 2010.04.14 02:02:04.
