data_PCOD8172895
_publ_section_title
;
Structure prediction by ZEFSAII (Michael W. Deem and Ramdas Pophale) SiO2 
 PCOD8172895
Probable space group: C M M 2
;
_chemical_formula_sum "Si O2"
_cell_formula_units_Z 48
_cell_length_a 8.494121
_cell_length_b 15.638214
_cell_length_c 17.412520
_cell_angle_alpha 90.000000
_cell_angle_beta 90.000000
_cell_angle_gamma 90.000000
_cell_volume 2312.955213
_symmetry_space_group_name_H-M "C M M 2"
_symmetry_group_IT_number 35
_symmetry_cell_setting 'orthorhombic'
loop_
_space_group_symop_operation_xyz
x,y,z
-x,-y,z
-x,y,z
x,-y,z
1/2+x,1/2+y,z
1/2-x,1/2-y,z
1/2-x,1/2+y,z
1/2+x,1/2-y,z
loop_
_atom_site_type_symbol
_atom_site_label
_atom_site_fract_x
_atom_site_fract_y
_atom_site_fract_z
Si Si1 0.672689 0.098342 0.078370
Si Si2 0.685804 0.654083 0.392795
Si Si3 0.814529 0.845874 0.759714
Si Si4 0.686976 0.842358 0.237338
Si Si5 0.819307 0.500000 0.485476
Si Si6 0.319936 0.000000 0.666833
Si Si7 0.312673 0.844294 0.917974
O O1 0.500000 0.142753 0.074202
O O2 0.763057 0.131173 0.154840
O O3 0.651123 0.000000 0.091432
O O4 0.758621 0.115595 0.996975
O O5 0.500000 0.661445 0.388528
O O6 0.750000 0.750000 0.410468
O O7 0.749729 0.609644 0.313091
O O8 0.736028 0.587332 0.458117
O O9 0.750000 0.750000 0.743850
O O10 0.762214 0.912835 0.695341
O O11 0.755114 0.886889 0.840837
O O12 0.000000 0.838168 0.761462
O O13 0.500000 0.851514 0.232757
O O14 0.750000 0.750000 0.255949
O O15 0.805118 0.500000 0.576325
O O16 0.000000 0.500000 0.458134
O O17 0.500000 0.000000 0.694753
O O18 0.500000 0.852260 0.916074
O O19 0.250000 0.750000 0.916349
#
# Coordination Sequence:
#
# PCOD8172895 Si02
#       7
#     8   8   8   8   4   4   8
#     4   9  19  32  49  79 112 153 201 247 298 352
#     4  11  23  41  65  94 128 165 208 253 306 366
#     4  11  23  41  65  94 128 165 208 253 306 366
#     4  10  19  34  57  81 113 155 202 250 300 355
#     4  11  25  45  69  96 125 160 201 249 310 373
#     4  11  25  45  69  96 125 160 201 249 310 373
#     4  10  19  34  57  81 113 155 202 250 300 355
#
# _framework density 20.752673000000001
#
# number of rings (size 3 to 8) (size 9 to 14) (size 15 to 20)
#    0.000    1.667    0.000    7.000    2.333    2.000 
#    0.000    2.500    0.000    4.000    0.000    0.000 
#    0.000    0.000    0.000    0.000    0.000    0.000 
#
# Total GULP energy -297342.162895 kJ/mol
# GULP energy per Si atom -12389.256787 kJ/mol
# Density = 2.070544 g / cm^3
# Si number density = 20.752673 Si / 1000 Ang^3
#
#
#
# Elastic Constant Matrix: (Units=GPa)
#
#
# Indices 1 2 3 4 5 6 
#
# 1 123.1008 25.4139 47.7567 0.0000 0.0000 0.0000
# 2 25.4139 76.3338 50.0896 0.0000 0.0000 0.0000
# 3 47.7567 50.0896 126.5991 0.0000 0.0000 0.0000
# 4 0.0000 0.0000 0.0000 30.5399 0.0000 0.0000
# 5 0.0000 0.0000 0.0000 0.0000 40.9600 0.0000
# 6 0.0000 0.0000 0.0000 0.0000 0.0000 23.0687
#
#
#
# Elastic Compliance Matrix: (Units=1/GPa)
#
#
# Indices 1 2 3 4 5 6 
#
# 1 0.009585 -0.001106 -0.003178 0.000000 0.000000 0.000000
# 2 -0.001106 0.017822 -0.006634 0.000000 0.000000 0.000000
# 3 -0.003178 -0.006634 0.011723 0.000000 0.000000 0.000000
# 4 0.000000 0.000000 0.000000 0.032744 0.000000 0.000000
# 5 0.000000 0.000000 0.000000 0.000000 0.024414 0.000000
# 6 0.000000 0.000000 0.000000 0.000000 0.000000 0.043349
#
#
# Mechanical properties :
#
#
# Convention : Reuss Voigt Hill
#
# Bulk Modulus (GPa) = 57.82614 63.61711 60.72163
# Shear Modulus (GPa) = 29.89782 32.43195 31.16489
#
# Velocity S-wave (km/s) = 3.79974 3.95750 3.87942
# Velocity P-wave (km/s) = 6.86845 7.18358 7.02778
#
# Compressibility (1/GPa) = 0.01729322
#
# Stress axis : x y z
#
# Youngs Moduli (GPa) = 104.33375 56.11124 85.30445
#
# Poissons Ratio (x) = 0.06203 0.27111
# Poissons Ratio (y) = 0.11534 0.56593
# Poissons Ratio (z) = 0.33159 0.37225
#
# Static dielectric constant tensor:
#      x y z
#    x 3.683690 0.000000 0.000000 
#    y 0.000000 3.720380 0.000000 
#    z 0.000000 0.000000 5.402410 
# 
# 
# High freq. dielectric constant tensor:
#      x y z
#    x 1.801960 0.000000 0.000000 
#    y 0.000000 1.805100 0.000000 
#    z 0.000000 0.000000 1.832470 
# 
# From -- ./inp_files/15216.got.cif
#   From: 2010.03.12/outbox.cif.g09.slc.cpg/sg35_8_cif.got.tgz:15216.got - 2010.04.14 02:02:04.
