data_PCOD8172925
_publ_section_title
;
Structure prediction by ZEFSAII (Michael W. Deem and Ramdas Pophale) SiO2 
 PCOD8172925
Probable space group: C M M 2
;
_chemical_formula_sum "Si O2"
_cell_formula_units_Z 48
_cell_length_a 8.557972
_cell_length_b 30.356665
_cell_length_c 9.502968
_cell_angle_alpha 90.000000
_cell_angle_beta 90.000000
_cell_angle_gamma 90.000000
_cell_volume 2468.790207
_symmetry_space_group_name_H-M "C M M 2"
_symmetry_group_IT_number 35
_symmetry_cell_setting 'orthorhombic'
loop_
_space_group_symop_operation_xyz
x,y,z
-x,-y,z
-x,y,z
x,-y,z
1/2+x,1/2+y,z
1/2-x,1/2-y,z
1/2-x,1/2+y,z
1/2+x,1/2-y,z
loop_
_atom_site_type_symbol
_atom_site_label
_atom_site_fract_x
_atom_site_fract_y
_atom_site_fract_z
Si Si1 0.814857 0.375533 0.834040
Si Si2 0.314870 0.203018 0.027325
Si Si3 0.681326 0.550705 0.340302
Si Si4 0.818112 0.449875 0.041506
Si Si5 0.183423 0.626890 0.516705
Si Si6 0.183651 0.796771 0.330687
O O1 0.756867 0.419297 0.914849
O O2 0.750751 0.375748 0.675548
O O3 0.000000 0.375128 0.830660
O O4 0.751966 0.332649 0.915984
O O5 0.500000 0.204709 0.031317
O O6 0.250000 0.250000 0.978723
O O7 0.256116 0.189553 0.181439
O O8 0.500000 0.560561 0.366147
O O9 0.724058 0.500000 0.371754
O O10 0.783851 0.580264 0.443833
O O11 0.721527 0.562619 0.179975
O O12 0.787195 0.500000 0.995071
O O13 0.000000 0.441463 0.074988
O O14 0.275906 0.666138 0.442998
O O15 0.000000 0.637143 0.511401
O O16 0.250000 0.750000 0.383356
O O17 0.000000 0.792349 0.312488
#
# Coordination Sequence:
#
# PCOD8172925 Si02
#       6
#     8   8   8   8   8   8
#     4   9  20  35  53  79 110 141 176 222 272 323
#     4  10  19  35  57  81 108 140 180 225 271 319
#     4  10  21  37  56  81 112 145 184 229 274 322
#     4   9  17  33  58  83 105 136 180 226 272 324
#     4  11  22  37  56  81 113 148 184 223 272 326
#     4  11  22  38  59  84 111 143 184 227 272 321
#
# _framework density 19.442720999999999
#
# number of rings (size 3 to 8) (size 9 to 14) (size 15 to 20)
#    0.000    2.000    0.000    5.000    0.000    3.667 
#    0.000    9.167    0.000    2.000    0.000    0.000 
#    0.000    0.000    0.000    0.000    0.000    0.000 
#
# Total GULP energy -297676.880686 kJ/mol
# GULP energy per Si atom -12403.203362 kJ/mol
# Density = 1.939847 g / cm^3
# Si number density = 19.442721 Si / 1000 Ang^3
#
#
#
# Elastic Constant Matrix: (Units=GPa)
#
#
# Indices 1 2 3 4 5 6 
#
# 1 62.4375 25.9536 19.6300 0.0000 0.0000 0.0000
# 2 25.9536 136.7129 90.6786 0.0000 0.0000 0.0000
# 3 19.6300 90.6786 137.8752 0.0000 0.0000 0.0000
# 4 0.0000 0.0000 0.0000 14.4266 0.0000 0.0000
# 5 0.0000 0.0000 0.0000 0.0000 18.6549 0.0000
# 6 0.0000 0.0000 0.0000 0.0000 0.0000 31.1145
#
#
#
# Elastic Compliance Matrix: (Units=1/GPa)
#
#
# Indices 1 2 3 4 5 6 
#
# 1 0.017411 -0.002946 -0.000541 0.000000 0.000000 0.000000
# 2 -0.002946 0.013473 -0.008442 0.000000 0.000000 0.000000
# 3 -0.000541 -0.008442 0.012882 0.000000 0.000000 0.000000
# 4 0.000000 0.000000 0.000000 0.069316 0.000000 0.000000
# 5 0.000000 0.000000 0.000000 0.000000 0.053605 0.000000
# 6 0.000000 0.000000 0.000000 0.000000 0.000000 0.032139
#
#
# Mechanical properties :
#
#
# Convention : Reuss Voigt Hill
#
# Bulk Modulus (GPa) = 50.23172 67.72778 58.97975
# Shear Modulus (GPa) = 21.80352 26.22342 24.01347
#
# Velocity S-wave (km/s) = 3.35240 3.67652 3.51819
# Velocity P-wave (km/s) = 6.39348 7.27548 6.84869
#
# Compressibility (1/GPa) = 0.01990774
#
# Stress axis : x y z
#
# Youngs Moduli (GPa) = 57.43541 74.22235 77.62860
#
# Poissons Ratio (x) = 0.21869 0.04200
# Poissons Ratio (y) = 0.16923 0.65530
# Poissons Ratio (z) = 0.03108 0.62655
#
# Static dielectric constant tensor:
#      x y z
#    x 3.412580 0.000000 0.000000 
#    y 0.000000 3.746300 0.000000 
#    z 0.000000 0.000000 3.677060 
# 
# 
# High freq. dielectric constant tensor:
#      x y z
#    x 1.748980 0.000000 0.000000 
#    y 0.000000 1.771320 0.000000 
#    z 0.000000 0.000000 1.752310 
# 
# From -- ./inp_files/5273.got.cif
#   From: 2010.03.12/outbox.cif.g09.slc.cpg/sg35_3_cif.got.tgz:5273.got - 2010.04.14 02:02:04.
