data_PCOD8172738
_publ_section_title
;
Structure prediction by ZEFSAII (Michael W. Deem and Ramdas Pophale) SiO2 
 PCOD8172738
Probable space group: C M M 2
;
_chemical_formula_sum "Si O2"
_cell_formula_units_Z 64
_cell_length_a 9.137551
_cell_length_b 18.134076
_cell_length_c 20.741596
_cell_angle_alpha 90.000000
_cell_angle_beta 90.000000
_cell_angle_gamma 90.000000
_cell_volume 3436.904117
_symmetry_space_group_name_H-M "C M M 2"
_symmetry_group_IT_number 35
_symmetry_cell_setting 'orthorhombic'
loop_
_space_group_symop_operation_xyz
x,y,z
-x,-y,z
-x,y,z
x,-y,z
1/2+x,1/2+y,z
1/2-x,1/2-y,z
1/2-x,1/2+y,z
1/2+x,1/2-y,z
loop_
_atom_site_type_symbol
_atom_site_label
_atom_site_fract_x
_atom_site_fract_y
_atom_site_fract_z
Si Si1 0.326228 0.672105 0.287770
Si Si2 0.172350 0.083738 0.412315
Si Si3 0.161667 0.587587 0.535660
Si Si4 0.173914 0.172027 0.790141
Si Si5 0.674032 0.671690 0.039088
Si Si6 0.328648 0.914189 0.679212
Si Si7 0.673396 0.582441 0.914970
Si Si8 0.826399 0.917497 0.163640
O O1 0.500000 0.682525 0.286904
O O2 0.250000 0.750000 0.282167
O O3 0.271800 0.632517 0.352881
O O4 0.271692 0.622885 0.228048
O O5 0.233769 0.117620 0.479112
O O6 0.000000 0.085723 0.417178
O O7 0.227790 0.000000 0.401629
O O8 0.158359 0.500000 0.535314
O O9 0.213954 0.612119 0.606804
O O10 0.000000 0.619053 0.521964
O O11 0.250000 0.250000 0.798456
O O12 0.227297 0.133499 0.725259
O O13 0.225708 0.122406 0.850112
O O14 0.000000 0.182189 0.787793
O O15 0.500000 0.682322 0.038761
O O16 0.750000 0.750000 0.039523
O O17 0.728816 0.627042 0.101490
O O18 0.730313 0.627451 0.976637
O O19 0.500000 0.899367 0.692454
O O20 0.291965 0.000000 0.689587
O O21 0.500000 0.577726 0.917292
O O22 0.740373 0.500000 0.916331
O O23 0.000000 0.922127 0.163185
O O24 0.760145 0.000000 0.161994
#
# Coordination Sequence:
#
# PCOD8172738 Si02
#       8
#     8   8   8   8   8   8   8   8
#     4  10  20  33  49  71 100 131 164 205 251 297
#     4   9  17  30  49  72  97 127 165 207 246 288
#     4   8  15  29  50  75 101 128 159 200 250 300
#     4  11  22  35  52  74 103 137 172 212 258 307
#     4  10  19  32  53  78 105 136 167 203 248 297
#     4   9  18  34  55  78 104 133 167 209 256 306
#     4   9  18  33  53  77 102 130 170 215 252 293
#     4   9  17  31  53  77  98 128 172 212 244 286
#
# _framework density 18.621409
#
# number of rings (size 3 to 8) (size 9 to 14) (size 15 to 20)
#    0.000    2.625    0.000    3.000    0.000    4.750 
#    0.000    2.500    0.000    6.375    0.000    0.000 
#    0.000    0.000    0.000    0.000    0.000    0.000 
#
# Total GULP energy -396764.075244 kJ/mol
# GULP energy per Si atom -12398.877351 kJ/mol
# Density = 1.857903 g / cm^3
# Si number density = 18.621409 Si / 1000 Ang^3
#
#
#
# Elastic Constant Matrix: (Units=GPa)
#
#
# Indices 1 2 3 4 5 6 
#
# 1 34.9001 39.0317 39.9466 0.0000 0.0000 0.0000
# 2 39.0317 147.7481 88.6900 0.0000 0.0000 0.0000
# 3 39.9466 88.6900 183.9121 0.0000 0.0000 0.0000
# 4 0.0000 0.0000 0.0000 14.2269 0.0000 0.0000
# 5 0.0000 0.0000 0.0000 0.0000 16.8303 0.0000
# 6 0.0000 0.0000 0.0000 0.0000 0.0000 26.1509
#
#
#
# Elastic Compliance Matrix: (Units=1/GPa)
#
#
# Indices 1 2 3 4 5 6 
#
# 1 0.044442 -0.008369 -0.005617 0.000000 0.000000 0.000000
# 2 -0.008369 0.011102 -0.003536 0.000000 0.000000 0.000000
# 3 -0.005617 -0.003536 0.008363 0.000000 0.000000 0.000000
# 4 0.000000 0.000000 0.000000 0.070289 0.000000 0.000000
# 5 0.000000 0.000000 0.000000 0.000000 0.059417 0.000000
# 6 0.000000 0.000000 0.000000 0.000000 0.000000 0.038240
#
#
# Mechanical properties :
#
#
# Convention : Reuss Voigt Hill
#
# Bulk Modulus (GPa) = 34.64687 77.98854 56.31771
# Shear Modulus (GPa) = 18.08206 24.70107 21.39156
#
# Velocity S-wave (km/s) = 3.11953 3.64605 3.39302
# Velocity P-wave (km/s) = 5.62331 7.72638 6.75716
#
# Compressibility (1/GPa) = 0.02886264
#
# Stress axis : x y z
#
# Youngs Moduli (GPa) = 22.50109 90.07670 119.57881
#
# Poissons Ratio (x) = 0.75382 0.67172
# Poissons Ratio (y) = 0.18830 0.42283
# Poissons Ratio (z) = 0.12640 0.31851
#
# Static dielectric constant tensor:
#      x y z
#    x 3.129740 0.000000 0.000000 
#    y 0.000000 3.416370 0.000000 
#    z 0.000000 0.000000 3.787890 
# 
# 
# High freq. dielectric constant tensor:
#      x y z
#    x 1.689080 0.000000 0.000000 
#    y 0.000000 1.717530 0.000000 
#    z 0.000000 0.000000 1.743590 
# 
# From -- ./inp_files/18404.got.cif
#   From: 2010.03.12/outbox.cif.g09.slc.cpg/sg35_10_cif.got.tgz:18404.got - 2010.04.14 02:02:04.
