data_PCOD8172776
_publ_section_title
;
Structure prediction by ZEFSAII (Michael W. Deem and Ramdas Pophale) SiO2 
 PCOD8172776
Probable space group: C M M 2
;
_chemical_formula_sum "Si O2"
_cell_formula_units_Z 64
_cell_length_a 9.081068
_cell_length_b 28.290910
_cell_length_c 15.379794
_cell_angle_alpha 90.000000
_cell_angle_beta 90.000000
_cell_angle_gamma 90.000000
_cell_volume 3951.248676
_symmetry_space_group_name_H-M "C M M 2"
_symmetry_group_IT_number 35
_symmetry_cell_setting 'orthorhombic'
loop_
_space_group_symop_operation_xyz
x,y,z
-x,-y,z
-x,y,z
x,-y,z
1/2+x,1/2+y,z
1/2-x,1/2-y,z
1/2-x,1/2+y,z
1/2+x,1/2-y,z
loop_
_atom_site_type_symbol
_atom_site_label
_atom_site_fract_x
_atom_site_fract_y
_atom_site_fract_z
Si Si1 0.326673 0.110483 0.096650
Si Si2 0.671586 0.603700 0.768179
Si Si3 0.173232 0.445516 0.610953
Si Si4 0.171400 0.554237 0.268664
Si Si5 0.667801 0.444275 0.947772
Si Si6 0.333962 0.556180 0.438770
Si Si7 0.826211 0.797850 0.042477
Si Si8 0.670630 0.703411 0.842525
O O1 0.500000 0.119624 0.089264
O O2 0.283158 0.083954 0.184781
O O3 0.240647 0.159783 0.098630
O O4 0.277578 0.078432 0.016321
O O5 0.500000 0.597876 0.744709
O O6 0.770157 0.585916 0.689744
O O7 0.712275 0.572939 0.852244
O O8 0.713562 0.658312 0.784783
O O9 0.218029 0.500000 0.627405
O O10 0.246352 0.425583 0.522979
O O11 0.000000 0.439725 0.601628
O O12 0.215571 0.500000 0.250352
O O13 0.258414 0.575478 0.351087
O O14 0.000000 0.558581 0.290086
O O15 0.500000 0.428235 0.968563
O O16 0.685595 0.500000 0.951887
O O17 0.500000 0.575489 0.443437
O O18 0.328711 0.500000 0.436923
O O19 0.750000 0.750000 0.075524
O O20 0.000000 0.794581 0.057425
O O21 0.784281 0.807249 0.941960
O O22 0.500000 0.714397 0.837222
O O23 0.750000 0.750000 0.805765
#
# Coordination Sequence:
#
# PCOD8172776 Si02
#       8
#     8   8   8   8   8   8   8   8
#     4  11  21  32  48  71  99 132 166 201 244 292
#     4  10  19  33  49  68  94 128 165 201 241 286
#     4  10  20  32  47  70  99 129 161 199 242 287
#     4   9  18  32  48  68  98 132 164 201 242 284
#     4  10  20  33  47  64  94 135 171 203 240 282
#     4   9  17  30  49  71  93 122 161 202 243 286
#     4  10  19  34  52  71  95 124 163 207 251 293
#     4   9  18  32  50  69  92 121 158 202 247 287
#
# _framework density 16.197410999999999
#
# number of rings (size 3 to 8) (size 9 to 14) (size 15 to 20)
#    0.000    2.250    1.250    2.250    0.000    6.000 
#    0.000    1.250    0.000    0.000    0.000    0.875 
#    0.000    2.000    0.000    0.000    0.000    0.000 
#
# Total GULP energy -396878.794457 kJ/mol
# GULP energy per Si atom -12402.462327 kJ/mol
# Density = 1.616054 g / cm^3
# Si number density = 16.197411 Si / 1000 Ang^3
#
#
#
# Elastic Constant Matrix: (Units=GPa)
#
#
# Indices 1 2 3 4 5 6 
#
# 1 79.7593 46.4809 56.2104 0.0000 0.0000 0.0000
# 2 46.4809 88.2174 52.6296 0.0000 0.0000 0.0000
# 3 56.2104 52.6296 109.3510 0.0000 0.0000 0.0000
# 4 0.0000 0.0000 0.0000 3.6396 0.0000 0.0000
# 5 0.0000 0.0000 0.0000 0.0000 20.7593 0.0000
# 6 0.0000 0.0000 0.0000 0.0000 0.0000 28.1601
#
#
#
# Elastic Compliance Matrix: (Units=1/GPa)
#
#
# Indices 1 2 3 4 5 6 
#
# 1 0.022290 -0.006886 -0.008144 0.000000 0.000000 0.000000
# 2 -0.006886 0.018029 -0.005137 0.000000 0.000000 0.000000
# 3 -0.008144 -0.005137 0.015804 0.000000 0.000000 0.000000
# 4 0.000000 0.000000 0.000000 0.274755 0.000000 0.000000
# 5 0.000000 0.000000 0.000000 0.000000 0.048171 0.000000
# 6 0.000000 0.000000 0.000000 0.000000 0.000000 0.035511
#
#
# Mechanical properties :
#
#
# Convention : Reuss Voigt Hill
#
# Bulk Modulus (GPa) = 63.33870 65.32995 64.33432
# Shear Modulus (GPa) = 10.86587 18.64558 14.75572
#
# Velocity S-wave (km/s) = 2.59287 3.39653 3.02154
# Velocity P-wave (km/s) = 6.93924 7.47014 7.20958
#
# Compressibility (1/GPa) = 0.01578814
#
# Stress axis : x y z
#
# Youngs Moduli (GPa) = 44.86345 55.46716 63.27656
#
# Poissons Ratio (x) = 0.38194 0.51531
# Poissons Ratio (y) = 0.30892 0.32508
# Poissons Ratio (z) = 0.36535 0.28496
#
# Static dielectric constant tensor:
#      x y z
#    x 3.136620 0.000000 0.000000 
#    y 0.000000 3.026540 0.000000 
#    z 0.000000 0.000000 3.014320 
# 
# 
# High freq. dielectric constant tensor:
#      x y z
#    x 1.631780 0.000000 0.000000 
#    y 0.000000 1.605480 0.000000 
#    z 0.000000 0.000000 1.610550 
# 
# From -- ./inp_files/16182.got.cif
#   From: 2010.03.12/outbox.cif.g09.slc.cpg/sg35_9_cif.got.tgz:16182.got - 2010.04.14 02:02:04.
