data_PCOD8172323
_publ_section_title
;
Structure prediction by ZEFSAII (Michael W. Deem and Ramdas Pophale) SiO2 
 PCOD8172323
Probable space group: C M M 2
;
_chemical_formula_sum "Si O2"
_cell_formula_units_Z 56
_cell_length_a 8.798887
_cell_length_b 19.162127
_cell_length_c 18.458273
_cell_angle_alpha 90.000000
_cell_angle_beta 90.000000
_cell_angle_gamma 90.000000
_cell_volume 3112.164321
_symmetry_space_group_name_H-M "C M M 2"
_symmetry_group_IT_number 35
_symmetry_cell_setting 'orthorhombic'
loop_
_space_group_symop_operation_xyz
x,y,z
-x,-y,z
-x,y,z
x,-y,z
1/2+x,1/2+y,z
1/2-x,1/2-y,z
1/2-x,1/2+y,z
1/2+x,1/2-y,z
loop_
_atom_site_type_symbol
_atom_site_label
_atom_site_fract_x
_atom_site_fract_y
_atom_site_fract_z
Si Si1 0.681481 0.326343 0.779770
Si Si2 0.818519 0.173657 0.070748
Si Si3 0.318074 0.827124 0.925259
Si Si4 0.821085 0.921552 0.647853
Si Si5 0.827853 0.417141 0.346604
Si Si6 0.821085 0.078448 0.202666
Si Si7 0.672147 0.917141 0.503914
O O1 0.500000 0.321856 0.786577
O O2 0.750000 0.250000 0.767281
O O3 0.752162 0.362474 0.852191
O O4 0.737271 0.373821 0.713305
O O5 0.750000 0.250000 0.083237
O O6 0.762729 0.126179 0.137214
O O7 0.000000 0.178144 0.063942
O O8 0.747838 0.137526 0.998327
O O9 0.500000 0.827234 0.925259
O O10 0.250000 0.750000 0.925259
O O11 0.768373 0.887716 0.571416
O O12 0.000000 0.923907 0.647509
O O13 0.755050 0.000000 0.657926
O O14 0.817641 0.500000 0.346508
O O15 0.731627 0.387715 0.279103
O O16 0.766526 0.389978 0.425259
O O17 0.000000 0.391885 0.336255
O O18 0.000000 0.076093 0.203009
O O19 0.755050 0.000000 0.192593
O O20 0.500000 0.891885 0.514263
O O21 0.682359 0.000000 0.504010
#
# Coordination Sequence:
#
# PCOD8172323 Si02
#       7
#     8   8   8   8   8   8   8
#     4  10  19  32  50  70  93 120 152 189 227 270
#     4  10  19  32  50  70  93 120 152 189 227 270
#     4  10  18  30  49  70  91 117 153 191 225 266
#     4   9  18  31  47  69  95 122 152 187 228 271
#     4   8  14  25  42  65  92 121 152 186 225 268
#     4   9  18  31  47  69  95 122 152 187 228 271
#     4   8  14  25  42  65  92 121 152 186 225 268
#
# _framework density 17.993907
#
# number of rings (size 3 to 8) (size 9 to 14) (size 15 to 20)
#    0.000    2.857    0.000    4.714    0.000    2.857 
#    0.000    3.571    0.000    5.143    0.000    0.000 
#    0.000    0.000    0.000    0.000    0.000    0.000 
#
# Total GULP energy -346940.844496 kJ/mol
# GULP energy per Si atom -12390.744446 kJ/mol
# Density = 1.795295 g / cm^3
# Si number density = 17.993907 Si / 1000 Ang^3
#
#
#
# Elastic Constant Matrix: (Units=GPa)
#
#
# Indices 1 2 3 4 5 6 
#
# 1 61.4573 20.3243 50.8590 0.0000 0.0000 0.0000
# 2 20.3243 42.3438 56.7624 0.0000 0.0000 0.0000
# 3 50.8590 56.7624 216.4969 0.0000 0.0000 0.0000
# 4 0.0000 0.0000 0.0000 15.8315 0.0000 0.0000
# 5 0.0000 0.0000 0.0000 0.0000 36.9914 0.0000
# 6 0.0000 0.0000 0.0000 0.0000 0.0000 15.9142
#
#
#
# Elastic Compliance Matrix: (Units=1/GPa)
#
#
# Indices 1 2 3 4 5 6 
#
# 1 0.020951 -0.005333 -0.003524 0.000000 0.000000 0.000000
# 2 -0.005333 0.037772 -0.008651 0.000000 0.000000 0.000000
# 3 -0.003524 -0.008651 0.007715 0.000000 0.000000 0.000000
# 4 0.000000 0.000000 0.000000 0.063165 0.000000 0.000000
# 5 0.000000 0.000000 0.000000 0.000000 0.027033 0.000000
# 6 0.000000 0.000000 0.000000 0.000000 0.000000 0.062837
#
#
# Mechanical properties :
#
#
# Convention : Reuss Voigt Hill
#
# Bulk Modulus (GPa) = 31.82270 64.02104 47.92187
# Shear Modulus (GPa) = 18.87067 26.57091 22.72079
#
# Velocity S-wave (km/s) = 3.24192 3.84690 3.55729
# Velocity P-wave (km/s) = 5.63356 7.44232 6.60019
#
# Compressibility (1/GPa) = 0.03142411
#
# Stress axis : x y z
#
# Youngs Moduli (GPa) = 47.73052 26.47468 129.62087
#
# Poissons Ratio (x) = 0.14118 0.45673
# Poissons Ratio (y) = 0.25453 1.12129
# Poissons Ratio (z) = 0.16818 0.22902
#
# Static dielectric constant tensor:
#      x y z
#    x 3.282990 0.000000 0.000000 
#    y 0.000000 2.985670 0.000000 
#    z 0.000000 0.000000 4.386830 
# 
# 
# High freq. dielectric constant tensor:
#      x y z
#    x 1.694380 0.000000 0.000000 
#    y 0.000000 1.634320 0.000000 
#    z 0.000000 0.000000 1.726320 
# 
# From -- ./inp_files/18272.got.cif
#   From: 2010.03.12/outbox.cif.g09.slc.cpg/sg35_10_cif.got.tgz:18272.got - 2010.04.14 02:02:04.
