data_PCOD8172156
_publ_section_title
;
Structure prediction by ZEFSAII (Michael W. Deem and Ramdas Pophale) SiO2 
 PCOD8172156
Probable space group: C M M 2
;
_chemical_formula_sum "Si O2"
_cell_formula_units_Z 48
_cell_length_a 8.697137
_cell_length_b 15.157676
_cell_length_c 17.611359
_cell_angle_alpha 90.000000
_cell_angle_beta 90.000000
_cell_angle_gamma 90.000000
_cell_volume 2321.677011
_symmetry_space_group_name_H-M "C M M 2"
_symmetry_group_IT_number 35
_symmetry_cell_setting 'orthorhombic'
loop_
_space_group_symop_operation_xyz
x,y,z
-x,-y,z
-x,y,z
x,-y,z
1/2+x,1/2+y,z
1/2-x,1/2-y,z
1/2-x,1/2+y,z
1/2+x,1/2-y,z
loop_
_atom_site_type_symbol
_atom_site_label
_atom_site_fract_x
_atom_site_fract_y
_atom_site_fract_z
Si Si1 0.682643 0.847766 0.807150
Si Si2 0.822287 0.000000 0.075329
Si Si3 0.179198 0.345515 0.341069
Si Si4 0.681968 0.348408 0.656466
Si Si5 0.179173 0.654151 0.508188
Si Si6 0.818450 0.500000 0.238053
Si Si7 0.319073 0.345927 0.960713
O O1 0.500000 0.848677 0.804779
O O2 0.750000 0.750000 0.807575
O O3 0.748928 0.896516 0.731683
O O4 0.743126 0.890316 0.885458
O O5 0.721494 0.000000 0.150276
O O6 0.780779 0.088066 0.028995
O O7 0.000000 0.000000 0.098161
O O8 0.250000 0.250000 0.328631
O O9 0.208961 0.388134 0.425200
O O10 0.249626 0.413021 0.279397
O O11 0.000000 0.332263 0.328561
O O12 0.500000 0.347666 0.662214
O O13 0.750000 0.250000 0.653279
O O14 0.736705 0.396983 0.578347
O O15 0.250000 0.750000 0.501660
O O16 0.000000 0.659244 0.527941
O O17 0.000000 0.500000 0.248890
O O18 0.500000 0.336036 0.946858
O O19 0.250000 0.250000 0.980331
#
# Coordination Sequence:
#
# PCOD8172156 Si02
#       7
#     8   4   8   8   8   4   8
#     4  10  17  27  45  72 104 140 181 222 266 314
#     4  10  24  42  60  83 112 143 176 219 274 331
#     4   9  19  35  56  81 110 144 181 223 271 322
#     4  10  16  23  38  65 101 139 179 221 264 310
#     4   9  15  25  42  67  99 135 176 219 264 312
#     4  10  22  40  60  83 110 141 178 221 272 329
#     4  10  20  37  58  82 111 144 181 222 270 322
#
# _framework density 20.674710000000001
#
# number of rings (size 3 to 8) (size 9 to 14) (size 15 to 20)
#    0.000    2.333    0.000    7.000    0.000    3.333 
#    0.000    3.333    0.000    1.000    0.000    3.500 
#    0.000    0.000    0.000    0.000    0.000    0.000 
#
# Total GULP energy -297377.502885 kJ/mol
# GULP energy per Si atom -12390.729287 kJ/mol
# Density = 2.062765 g / cm^3
# Si number density = 20.674710 Si / 1000 Ang^3
#
#
#
# Elastic Constant Matrix: (Units=GPa)
#
#
# Indices 1 2 3 4 5 6 
#
# 1 137.9054 31.5665 69.3349 0.0000 0.0000 0.0000
# 2 31.5665 76.8328 56.3286 0.0000 0.0000 0.0000
# 3 69.3349 56.3286 178.3902 0.0000 0.0000 0.0000
# 4 0.0000 0.0000 0.0000 -37.5377 0.0000 0.0000
# 5 0.0000 0.0000 0.0000 0.0000 38.0856 0.0000
# 6 0.0000 0.0000 0.0000 0.0000 0.0000 13.7563
#
#
#
# Elastic Compliance Matrix: (Units=1/GPa)
#
#
# Indices 1 2 3 4 5 6 
#
# 1 0.009143 -0.001498 -0.003081 0.000000 0.000000 0.000000
# 2 -0.001498 0.017181 -0.004843 0.000000 0.000000 0.000000
# 3 -0.003081 -0.004843 0.008332 0.000000 0.000000 0.000000
# 4 0.000000 0.000000 0.000000 -0.026640 0.000000 0.000000
# 5 0.000000 0.000000 0.000000 0.000000 0.026257 0.000000
# 6 0.000000 0.000000 0.000000 0.000000 0.000000 0.072694
#
#
# Mechanical properties :
#
#
# Convention : Reuss Voigt Hill
#
# Bulk Modulus (GPa) = 63.23698 78.62094 70.92896
# Shear Modulus (GPa) = 38.14427 18.58740 28.36584
#
# Velocity S-wave (km/s) = 4.29997 3.00165 3.70808
# Velocity P-wave (km/s) = 7.43681 7.07979 7.26049
#
# Compressibility (1/GPa) = 0.01581353
#
# Stress axis : x y z
#
# Youngs Moduli (GPa) = 109.37230 58.20319 120.01533
#
# Poissons Ratio (x) = 0.08718 0.36973
# Poissons Ratio (y) = 0.16383 0.58123
# Poissons Ratio (z) = 0.33694 0.28188
#
# Static dielectric constant tensor:
#      x y z
#    x 3.696930 0.000000 0.000000 
#    y 0.000000 3.446290 0.000000 
#    z 0.000000 0.000000 4.946050 
# 
# 
# High freq. dielectric constant tensor:
#      x y z
#    x 1.811970 0.000000 0.000000 
#    y 0.000000 1.766850 0.000000 
#    z 0.000000 0.000000 1.830280 
# 
# From -- ./inp_files/15246.got.cif
#   From: 2010.03.12/outbox.cif.g09.slc.cpg/sg35_8_cif.got.tgz:15246.got - 2010.04.14 02:02:04.
