data_PCOD8172186
_publ_section_title
;
Structure prediction by ZEFSAII (Michael W. Deem and Ramdas Pophale) SiO2 
 PCOD8172186
Probable space group: C M M 2
;
_chemical_formula_sum "Si O2"
_cell_formula_units_Z 64
_cell_length_a 16.389646
_cell_length_b 18.025480
_cell_length_c 14.055262
_cell_angle_alpha 90.000000
_cell_angle_beta 90.000000
_cell_angle_gamma 90.000000
_cell_volume 4152.363427
_symmetry_space_group_name_H-M "C M M 2"
_symmetry_group_IT_number 35
_symmetry_cell_setting 'orthorhombic'
loop_
_space_group_symop_operation_xyz
x,y,z
-x,-y,z
-x,y,z
x,-y,z
1/2+x,1/2+y,z
1/2-x,1/2-y,z
1/2-x,1/2+y,z
1/2+x,1/2-y,z
loop_
_atom_site_type_symbol
_atom_site_label
_atom_site_fract_x
_atom_site_fract_y
_atom_site_fract_z
Si Si1 0.684625 0.689625 0.234150
Si Si2 0.906454 0.707247 0.086979
Si Si3 0.596434 0.418455 0.591195
Si Si4 0.264449 0.416836 0.893097
Si Si5 0.219090 0.416138 0.105961
Si Si6 0.903317 0.085013 0.378907
Si Si7 0.337045 0.784593 0.885951
Si Si8 0.904087 0.841373 0.779131
O O1 0.750000 0.750000 0.274095
O O2 0.630026 0.729618 0.154743
O O3 0.726360 0.618823 0.187374
O O4 0.632704 0.652601 0.317782
O O5 0.865797 0.627504 0.102325
O O6 0.000000 0.699222 0.113034
O O7 0.895312 0.727750 0.976313
O O8 0.500000 0.420682 0.586101
O O9 0.629067 0.500000 0.620923
O O10 0.628566 0.397938 0.486169
O O11 0.624529 0.360078 0.671659
O O12 0.248509 0.500000 0.857863
O O13 0.185418 0.369267 0.857290
O O14 0.351711 0.389548 0.853724
O O15 0.268492 0.411246 0.007152
O O16 0.198278 0.500000 0.133719
O O17 0.000000 0.090842 0.371116
O O18 0.877288 0.000000 0.350047
O O19 0.250000 0.750000 0.914368
O O20 0.381662 0.744952 0.796997
O O21 0.000000 0.857846 0.794704
#
# Coordination Sequence:
#
# PCOD8172186 Si02
#       8
#     8   8   8   8   8   8   8   8
#     4  10  18  29  44  63  87 112 135 166 210 252
#     4  10  18  28  44  63  84 110 141 175 205 239
#     4   8  15  27  42  62  86 109 134 167 207 246
#     4   9  17  29  43  59  83 114 142 168 202 244
#     4   9  18  31  44  59  83 114 144 171 202 241
#     4   9  17  30  47  64  83 108 138 171 205 245
#     4   9  17  29  41  59  86 115 140 166 205 247
#     4  10  17  26  44  65  84 107 136 171 208 246
#
# _framework density 15.41291
#
# number of rings (size 3 to 8) (size 9 to 14) (size 15 to 20)
#    0.000    2.750    0.000    4.875    0.000    1.000 
#    0.000    2.500    0.000    2.625    0.000    0.000 
#    0.000    0.000    0.000   18.125    0.000    6.250 
#
# Total GULP energy -396509.621625 kJ/mol
# GULP energy per Si atom -12390.925676 kJ/mol
# Density = 1.537783 g / cm^3
# Si number density = 15.412910 Si / 1000 Ang^3
#
#
#
# Elastic Constant Matrix: (Units=GPa)
#
#
# Indices 1 2 3 4 5 6 
#
# 1 54.1424 27.5004 22.6420 0.0000 0.0000 0.0000
# 2 27.5004 112.5250 49.0502 0.0000 0.0000 0.0000
# 3 22.6420 49.0502 70.9042 0.0000 0.0000 0.0000
# 4 0.0000 0.0000 0.0000 22.8563 0.0000 0.0000
# 5 0.0000 0.0000 0.0000 0.0000 18.4698 0.0000
# 6 0.0000 0.0000 0.0000 0.0000 0.0000 18.2727
#
#
#
# Elastic Compliance Matrix: (Units=1/GPa)
#
#
# Indices 1 2 3 4 5 6 
#
# 1 0.022159 -0.003337 -0.004767 0.000000 0.000000 0.000000
# 2 -0.003337 0.013226 -0.008084 0.000000 0.000000 0.000000
# 3 -0.004767 -0.008084 0.021218 0.000000 0.000000 0.000000
# 4 0.000000 0.000000 0.000000 0.043752 0.000000 0.000000
# 5 0.000000 0.000000 0.000000 0.000000 0.054143 0.000000
# 6 0.000000 0.000000 0.000000 0.000000 0.000000 0.054727
#
#
# Mechanical properties :
#
#
# Convention : Reuss Voigt Hill
#
# Bulk Modulus (GPa) = 41.27803 48.43965 44.85884
# Shear Modulus (GPa) = 20.02591 21.14502 20.58547
#
# Velocity S-wave (km/s) = 3.60848 3.70794 3.65855
# Velocity P-wave (km/s) = 6.64839 7.05889 6.85672
#
# Compressibility (1/GPa) = 0.02422596
#
# Stress axis : x y z
#
# Youngs Moduli (GPa) = 45.12928 75.60615 47.12917
#
# Poissons Ratio (x) = 0.25232 0.22468
# Poissons Ratio (y) = 0.15061 0.38100
# Poissons Ratio (z) = 0.21514 0.61121
#
# Static dielectric constant tensor:
#      x y z
#    x 2.770740 0.000000 0.000000 
#    y 0.000000 3.297440 0.000000 
#    z 0.000000 0.000000 2.969550 
# 
# 
# High freq. dielectric constant tensor:
#      x y z
#    x 1.570230 0.000000 0.000000 
#    y 0.000000 1.596990 0.000000 
#    z 0.000000 0.000000 1.577250 
# 
# From -- ./inp_files/13671.got.cif
#   From: 2010.03.12/outbox.cif.g09.slc.cpg/sg35_7_cif.got.tgz:13671.got - 2010.04.14 02:02:04.
