data_PCOD8172477
_publ_section_title
;
Structure prediction by ZEFSAII (Michael W. Deem and Ramdas Pophale) SiO2 
 PCOD8172477
Probable space group: C M M 2
;
_chemical_formula_sum "Si O2"
_cell_formula_units_Z 52
_cell_length_a 28.202927
_cell_length_b 12.161828
_cell_length_c 7.566882
_cell_angle_alpha 90.000000
_cell_angle_beta 90.000000
_cell_angle_gamma 90.000000
_cell_volume 2595.434073
_symmetry_space_group_name_H-M "C M M 2"
_symmetry_group_IT_number 35
_symmetry_cell_setting 'orthorhombic'
loop_
_space_group_symop_operation_xyz
x,y,z
-x,-y,z
-x,y,z
x,-y,z
1/2+x,1/2+y,z
1/2-x,1/2-y,z
1/2-x,1/2+y,z
1/2+x,1/2-y,z
loop_
_atom_site_type_symbol
_atom_site_label
_atom_site_fract_x
_atom_site_fract_y
_atom_site_fract_z
Si Si1 0.826821 0.000000 0.952540
Si Si2 0.944916 0.375055 0.086942
Si Si3 0.800517 0.771668 0.924137
Si Si4 0.899977 0.000000 0.668240
Si Si5 0.903864 0.240614 0.770016
Si Si6 0.387881 0.129010 0.438625
Si Si7 0.651277 0.500000 0.322009
Si Si8 0.696988 0.263619 0.318744
O O1 0.792991 0.102060 0.976097
O O2 0.848682 0.000000 0.758292
O O3 0.865889 0.000000 0.115330
O O4 0.932230 0.500000 0.027938
O O5 0.916809 0.342567 0.262637
O O6 0.000000 0.364495 0.130924
O O7 0.931613 0.288274 0.936516
O O8 0.750000 0.750000 0.827104
O O9 0.846897 0.752848 0.804593
O O10 0.806138 0.716015 0.116966
O O11 0.923349 0.884486 0.733821
O O12 0.893604 0.000000 0.455567
O O13 0.915875 0.316050 0.602189
O O14 0.336243 0.183298 0.431676
O O15 0.383441 0.000000 0.473234
O O16 0.681607 0.389625 0.353302
O O17 0.750000 0.250000 0.391662
#
# Coordination Sequence:
#
# PCOD8172477 Si02
#       8
#     4   8   8   4   8   8   4   8
#     4   8  18  32  50  73 107 159 206 233 279 347
#     4  10  23  45  69  90 118 153 193 251 318 372
#     4   9  18  35  53  81 118 160 203 246 291 344
#     4  10  20  34  59  85 119 160 196 236 289 360
#     4  11  21  39  63  91 121 161 202 247 300 363
#     4  11  23  39  60  92 124 157 207 255 300 360
#     4  10  18  36  54  76 118 169 204 241 305 345
#     4  10  20  35  56  83 121 168 213 252 298 352
#
# _framework density 20.035184000000001
#
# number of rings (size 3 to 8) (size 9 to 14) (size 15 to 20)
#    0.000    2.000    3.077    0.462    1.077    1.231 
#    4.154    1.923    0.000    0.000    0.000    0.000 
#    0.000    0.000    0.000    0.000    0.000    0.000 
#
# Total GULP energy -322092.113410 kJ/mol
# GULP energy per Si atom -12388.158208 kJ/mol
# Density = 1.998958 g / cm^3
# Si number density = 20.035184 Si / 1000 Ang^3
#
#
#
# Elastic Constant Matrix: (Units=GPa)
#
#
# Indices 1 2 3 4 5 6 
#
# 1 65.6313 29.0690 23.0966 0.0000 0.0000 0.0000
# 2 29.0690 134.8840 53.3243 0.0000 0.0000 0.0000
# 3 23.0966 53.3243 98.8888 0.0000 0.0000 0.0000
# 4 0.0000 0.0000 0.0000 30.3341 0.0000 0.0000
# 5 0.0000 0.0000 0.0000 0.0000 6.7951 0.0000
# 6 0.0000 0.0000 0.0000 0.0000 0.0000 19.0019
#
#
#
# Elastic Compliance Matrix: (Units=1/GPa)
#
#
# Indices 1 2 3 4 5 6 
#
# 1 0.017350 -0.002716 -0.002588 0.000000 0.000000 0.000000
# 2 -0.002716 0.009848 -0.004676 0.000000 0.000000 0.000000
# 3 -0.002588 -0.004676 0.013238 0.000000 0.000000 0.000000
# 4 0.000000 0.000000 0.000000 0.032966 0.000000 0.000000
# 5 0.000000 0.000000 0.000000 0.000000 0.147165 0.000000
# 6 0.000000 0.000000 0.000000 0.000000 0.000000 0.052626
#
#
# Mechanical properties :
#
#
# Convention : Reuss Voigt Hill
#
# Bulk Modulus (GPa) = 48.83599 56.70934 52.77266
# Shear Modulus (GPa) = 16.66785 24.15384 20.41084
#
# Velocity S-wave (km/s) = 2.88745 3.47590 3.19525
# Velocity P-wave (km/s) = 5.96192 6.66900 6.32535
#
# Compressibility (1/GPa) = 0.02047670
#
# Stress axis : x y z
#
# Youngs Moduli (GPa) = 57.63583 101.54713 75.53949
#
# Poissons Ratio (x) = 0.27582 0.19547
# Poissons Ratio (y) = 0.15655 0.35321
# Poissons Ratio (z) = 0.14914 0.47481
#
# Static dielectric constant tensor:
#      x y z
#    x 3.255780 0.000000 0.000000 
#    y 0.000000 3.928230 0.000000 
#    z 0.000000 0.000000 3.714380 
# 
# 
# High freq. dielectric constant tensor:
#      x y z
#    x 1.739340 0.000000 0.000000 
#    y 0.000000 1.792740 0.000000 
#    z 0.000000 0.000000 1.791730 
# 
# From -- ./inp_files/10575.got.cif
#   From: 2010.03.12/outbox.cif.g09.slc.cpg/sg35_6_cif.got.tgz:10575.got - 2010.04.14 02:02:04.
