data_PCOD8172635
_publ_section_title
;
Structure prediction by ZEFSAII (Michael W. Deem and Ramdas Pophale) SiO2 
 PCOD8172635
Probable space group: C M M 2
;
_chemical_formula_sum "Si O2"
_cell_formula_units_Z 64
_cell_length_a 8.874337
_cell_length_b 28.395032
_cell_length_c 15.507891
_cell_angle_alpha 90.000000
_cell_angle_beta 90.000000
_cell_angle_gamma 90.000000
_cell_volume 3907.788218
_symmetry_space_group_name_H-M "C M M 2"
_symmetry_group_IT_number 35
_symmetry_cell_setting 'orthorhombic'
loop_
_space_group_symop_operation_xyz
x,y,z
-x,-y,z
-x,y,z
x,-y,z
1/2+x,1/2+y,z
1/2-x,1/2-y,z
1/2-x,1/2+y,z
1/2+x,1/2-y,z
loop_
_atom_site_type_symbol
_atom_site_label
_atom_site_fract_x
_atom_site_fract_y
_atom_site_fract_z
Si Si1 0.321193 0.895423 0.984470
Si Si2 0.173094 0.444459 0.812188
Si Si3 0.830581 0.944092 0.328043
Si Si4 0.323366 0.202313 0.914535
Si Si5 0.177627 0.298477 0.715946
Si Si6 0.322982 0.945326 0.154788
Si Si7 0.174676 0.555466 0.501757
Si Si8 0.322414 0.608617 0.657603
O O1 0.500000 0.897688 0.987479
O O2 0.265816 0.927227 0.904635
O O3 0.265190 0.841725 0.971316
O O4 0.256848 0.916317 0.073497
O O5 0.187221 0.500000 0.807329
O O6 0.275775 0.422240 0.739223
O O7 0.000000 0.428002 0.797559
O O8 0.758305 0.924984 0.239606
O O9 0.730078 0.926936 0.408220
O O10 0.000000 0.924376 0.337563
O O11 0.830466 0.000000 0.324977
O O12 0.500000 0.208463 0.922784
O O13 0.250000 0.250000 0.950655
O O14 0.277141 0.192823 0.815584
O O15 0.250000 0.250000 0.682595
O O16 0.244322 0.340515 0.659272
O O17 0.000000 0.296077 0.703037
O O18 0.500000 0.937591 0.166946
O O19 0.285699 0.000000 0.138960
O O20 0.201923 0.500000 0.513425
O O21 0.272786 0.582183 0.571759
O O22 0.000000 0.568348 0.512904
O O23 0.500000 0.615498 0.657399
#
# Coordination Sequence:
#
# PCOD8172635 Si02
#       8
#     8   8   8   8   8   8   8   8
#     4   9  16  29  47  69  93 124 163 203 240 281
#     4  10  19  32  48  65  92 132 172 205 239 282
#     4   9  17  30  47  68  96 126 155 194 244 290
#     4   9  17  30  48  67  91 120 157 203 247 285
#     4  10  19  34  53  72  95 124 163 207 250 291
#     4   9  16  27  46  70  94 123 161 198 233 282
#     4  10  20  34  52  72  95 127 167 206 243 288
#     4  12  23  33  47  70 100 132 164 199 244 294
#
# _framework density 16.377551
#
# number of rings (size 3 to 8) (size 9 to 14) (size 15 to 20)
#    0.000    2.250    1.250    3.000    0.000    6.000 
#    0.000    1.250    0.000    1.500    0.000    0.875 
#    0.000    2.000    0.000    0.000    0.000    0.000 
#
# Total GULP energy -396823.999792 kJ/mol
# GULP energy per Si atom -12400.749994 kJ/mol
# Density = 1.634028 g / cm^3
# Si number density = 16.377551 Si / 1000 Ang^3
#
#
#
# Elastic Constant Matrix: (Units=GPa)
#
#
# Indices 1 2 3 4 5 6 
#
# 1 67.4898 36.4267 36.8419 0.0000 0.0000 0.0000
# 2 36.4267 79.5176 43.7946 0.0000 0.0000 0.0000
# 3 36.8419 43.7946 112.1932 0.0000 0.0000 0.0000
# 4 0.0000 0.0000 0.0000 5.1246 0.0000 0.0000
# 5 0.0000 0.0000 0.0000 0.0000 19.0809 0.0000
# 6 0.0000 0.0000 0.0000 0.0000 0.0000 24.4770
#
#
#
# Elastic Compliance Matrix: (Units=1/GPa)
#
#
# Indices 1 2 3 4 5 6 
#
# 1 0.021006 -0.007419 -0.004002 0.000000 0.000000 0.000000
# 2 -0.007419 0.018640 -0.004840 0.000000 0.000000 0.000000
# 3 -0.004002 -0.004840 0.012117 0.000000 0.000000 0.000000
# 4 0.000000 0.000000 0.000000 0.195138 0.000000 0.000000
# 5 0.000000 0.000000 0.000000 0.000000 0.052408 0.000000
# 6 0.000000 0.000000 0.000000 0.000000 0.000000 0.040855
#
#
# Mechanical properties :
#
#
# Convention : Reuss Voigt Hill
#
# Bulk Modulus (GPa) = 51.97175 54.81410 53.39293
# Shear Modulus (GPa) = 13.18918 19.21233 16.20075
#
# Velocity S-wave (km/s) = 2.84090 3.42875 3.14857
# Velocity P-wave (km/s) = 6.52406 7.01547 6.77422
#
# Compressibility (1/GPa) = 0.01924122
#
# Stress axis : x y z
#
# Youngs Moduli (GPa) = 47.60605 53.64843 82.53091
#
# Poissons Ratio (x) = 0.39799 0.33029
# Poissons Ratio (y) = 0.35317 0.39945
# Poissons Ratio (z) = 0.19052 0.25966
#
# Static dielectric constant tensor:
#      x y z
#    x 3.027700 0.000000 0.000000 
#    y 0.000000 3.074470 0.000000 
#    z 0.000000 0.000000 3.183760 
# 
# 
# High freq. dielectric constant tensor:
#      x y z
#    x 1.625650 0.000000 0.000000 
#    y 0.000000 1.612630 0.000000 
#    z 0.000000 0.000000 1.621010 
# 
# From -- ./inp_files/16181.got.cif
#   From: 2010.03.12/outbox.cif.g09.slc.cpg/sg35_9_cif.got.tgz:16181.got - 2010.04.14 02:02:04.
