data_PCOD8172269
_publ_section_title
;
Structure prediction by ZEFSAII (Michael W. Deem and Ramdas Pophale) SiO2 
 PCOD8172269
Probable space group: C M M 2
;
_chemical_formula_sum "Si O2"
_cell_formula_units_Z 40
_cell_length_a 25.645093
_cell_length_b 8.769392
_cell_length_c 9.771252
_cell_angle_alpha 90.000000
_cell_angle_beta 90.000000
_cell_angle_gamma 90.000000
_cell_volume 2197.475168
_symmetry_space_group_name_H-M "C M M 2"
_symmetry_group_IT_number 35
_symmetry_cell_setting 'orthorhombic'
loop_
_space_group_symop_operation_xyz
x,y,z
-x,-y,z
-x,y,z
x,-y,z
1/2+x,1/2+y,z
1/2-x,1/2-y,z
1/2-x,1/2+y,z
1/2+x,1/2-y,z
loop_
_atom_site_type_symbol
_atom_site_label
_atom_site_fract_x
_atom_site_fract_y
_atom_site_fract_z
Si Si1 0.195349 0.679550 0.796800
Si Si2 0.000000 0.675885 0.293115
Si Si3 0.613502 0.674087 0.605530
Si Si4 0.500000 0.673018 0.575612
Si Si5 0.105240 0.178001 0.288088
Si Si6 0.304975 0.318699 0.086716
O O1 0.202203 0.500000 0.815723
O O2 0.250000 0.750000 0.745686
O O3 0.150952 0.712601 0.685891
O O4 0.178189 0.754365 0.939556
O O5 0.052552 0.746554 0.229367
O O6 0.000000 0.500000 0.259131
O O7 0.000000 0.705161 0.454950
O O8 0.632245 0.500000 0.626987
O O9 0.553621 0.694374 0.661321
O O10 0.615550 0.720410 0.446088
O O11 0.500000 0.500000 0.512347
O O12 0.153365 0.237556 0.198175
O O13 0.098004 0.000000 0.269954
O O14 0.300826 0.500000 0.078117
O O15 0.250000 0.250000 0.133473
#
# Coordination Sequence:
#
# PCOD8172269 Si02
#       6
#     8   4   8   4   8   8
#     4  11  22  36  53  74 102 137 172 210 255 304
#     4  10  18  28  49  78 107 136 168 208 252 294
#     4   9  17  33  55  79 104 133 170 209 248 298
#     4   8  16  32  53  74 103 138 168 202 252 308
#     4   9  19  35  55  77 104 137 171 206 252 307
#     4  10  20  36  56  76 100 134 171 210 256 306
#
# _framework density 18.20271
#
# number of rings (size 3 to 8) (size 9 to 14) (size 15 to 20)
#    0.000    2.400    0.000    5.700    0.000    5.600 
#    0.000    3.000    0.000    2.400    0.000    0.000 
#    0.000    0.000    0.000    0.000    0.000    0.000 
#
# Total GULP energy -247947.518211 kJ/mol
# GULP energy per Si atom -12397.375911 kJ/mol
# Density = 1.816128 g / cm^3
# Si number density = 18.202710 Si / 1000 Ang^3
#
#
#
# Elastic Constant Matrix: (Units=GPa)
#
#
# Indices 1 2 3 4 5 6 
#
# 1 159.9369 55.5996 75.4891 0.0000 0.0000 0.0000
# 2 55.5996 81.0736 33.6294 0.0000 0.0000 0.0000
# 3 75.4891 33.6294 67.8796 0.0000 0.0000 0.0000
# 4 0.0000 0.0000 0.0000 24.3165 0.0000 0.0000
# 5 0.0000 0.0000 0.0000 0.0000 8.0071 0.0000
# 6 0.0000 0.0000 0.0000 0.0000 0.0000 33.3174
#
#
#
# Elastic Compliance Matrix: (Units=1/GPa)
#
#
# Indices 1 2 3 4 5 6 
#
# 1 0.014116 -0.003989 -0.013722 0.000000 0.000000 0.000000
# 2 -0.003989 0.016652 -0.003814 0.000000 0.000000 0.000000
# 3 -0.013722 -0.003814 0.031882 0.000000 0.000000 0.000000
# 4 0.000000 0.000000 0.000000 0.041124 0.000000 0.000000
# 5 0.000000 0.000000 0.000000 0.000000 0.124890 0.000000
# 6 0.000000 0.000000 0.000000 0.000000 0.000000 0.030014
#
#
# Mechanical properties :
#
#
# Convention : Reuss Voigt Hill
#
# Bulk Modulus (GPa) = 51.02031 70.92514 60.97273
# Shear Modulus (GPa) = 16.22001 22.73966 19.47984
#
# Velocity S-wave (km/s) = 2.98833 3.53830 3.27488
# Velocity P-wave (km/s) = 6.32429 7.46602 6.91874
#
# Compressibility (1/GPa) = 0.01960004
#
# Stress axis : x y z
#
# Youngs Moduli (GPa) = 70.84271 60.05333 31.36556
#
# Poissons Ratio (x) = 0.23952 0.43040
# Poissons Ratio (y) = 0.28256 0.11963
# Poissons Ratio (z) = 0.97212 0.22905
#
# Static dielectric constant tensor:
#      x y z
#    x 3.733660 0.000000 0.000000 
#    y 0.000000 3.266600 0.000000 
#    z 0.000000 0.000000 3.138740 
# 
# 
# High freq. dielectric constant tensor:
#      x y z
#    x 1.722520 0.000000 0.000000 
#    y 0.000000 1.705930 0.000000 
#    z 0.000000 0.000000 1.671850 
# 
# From -- ./inp_files/5025.got.cif
#   From: 2010.03.12/outbox.cif.g09.slc.cpg/sg35_3_cif.got.tgz:5025.got - 2010.04.14 02:02:04.
