data_PCOD8172884
_publ_section_title
;
Structure prediction by ZEFSAII (Michael W. Deem and Ramdas Pophale) SiO2 
 PCOD8172884
Probable space group: C M M 2
;
_chemical_formula_sum "Si O2"
_cell_formula_units_Z 64
_cell_length_a 8.729395
_cell_length_b 18.514634
_cell_length_c 20.636434
_cell_angle_alpha 90.000000
_cell_angle_beta 90.000000
_cell_angle_gamma 90.000000
_cell_volume 3335.292521
_symmetry_space_group_name_H-M "C M M 2"
_symmetry_group_IT_number 35
_symmetry_cell_setting 'orthorhombic'
loop_
_space_group_symop_operation_xyz
x,y,z
-x,-y,z
-x,y,z
x,-y,z
1/2+x,1/2+y,z
1/2-x,1/2-y,z
1/2-x,1/2+y,z
1/2+x,1/2-y,z
loop_
_atom_site_type_symbol
_atom_site_label
_atom_site_fract_x
_atom_site_fract_y
_atom_site_fract_z
Si Si1 0.822102 0.584370 0.312730
Si Si2 0.319312 0.671044 0.197229
Si Si3 0.827425 0.413943 0.575148
Si Si4 0.181926 0.172402 0.953426
Si Si5 0.173926 0.914433 0.706522
Si Si6 0.671903 0.414238 0.445458
Si Si7 0.819594 0.327096 0.818153
Si Si8 0.818027 0.080900 0.075438
O O1 0.786167 0.500000 0.302859
O O2 0.724101 0.628785 0.261791
O O3 0.771702 0.610391 0.383997
O O4 0.000000 0.601684 0.303459
O O5 0.500000 0.678210 0.193165
O O6 0.250000 0.750000 0.197450
O O7 0.253486 0.627191 0.135566
O O8 0.827402 0.500000 0.573017
O O9 0.733530 0.385944 0.637259
O O10 0.748551 0.382357 0.510470
O O11 0.000000 0.384109 0.579323
O O12 0.250000 0.250000 0.971425
O O13 0.247188 0.144265 0.885176
O O14 0.000000 0.178417 0.949011
O O15 0.236092 0.116670 0.008358
O O16 0.281538 0.883740 0.762431
O O17 0.000000 0.887714 0.716086
O O18 0.185331 0.000000 0.709904
O O19 0.500000 0.383456 0.438892
O O20 0.668349 0.500000 0.449975
O O21 0.750000 0.250000 0.799006
O O22 0.000000 0.319453 0.826847
O O23 0.000000 0.078299 0.078747
O O24 0.749868 0.000000 0.079282
#
# Coordination Sequence:
#
# PCOD8172884 Si02
#       8
#     8   8   8   8   8   8   8   8
#     4  10  20  34  53  79 109 139 176 224 273 319
#     4  11  22  37  57  79 107 143 182 221 264 318
#     4   9  16  27  45  72 106 141 177 220 269 317
#     4  10  19  34  56  79 105 138 176 217 263 318
#     4  10  20  34  53  78 108 142 181 225 272 321
#     4   9  16  27  46  73 104 139 178 219 266 319
#     4  11  22  37  56  78 107 142 182 224 268 320
#     4   9  19  35  56  82 109 138 174 217 265 317
#
# _framework density 19.188721000000001
#
# number of rings (size 3 to 8) (size 9 to 14) (size 15 to 20)
#    0.000    2.125    0.000    4.875    0.000    5.500 
#    0.000    3.125    0.000    4.875    0.000    5.250 
#    0.000    0.000    0.000    0.000    0.000    0.000 
#
# Total GULP energy -396865.194459 kJ/mol
# GULP energy per Si atom -12402.037327 kJ/mol
# Density = 1.914505 g / cm^3
# Si number density = 19.188721 Si / 1000 Ang^3
#
#
#
# Elastic Constant Matrix: (Units=GPa)
#
#
# Indices 1 2 3 4 5 6 
#
# 1 100.7213 31.3326 42.6511 0.0000 0.0000 0.0000
# 2 31.3326 63.6282 57.9531 0.0000 0.0000 0.0000
# 3 42.6511 57.9531 156.8973 0.0000 0.0000 0.0000
# 4 0.0000 0.0000 0.0000 4.1173 0.0000 0.0000
# 5 0.0000 0.0000 0.0000 0.0000 27.5524 0.0000
# 6 0.0000 0.0000 0.0000 0.0000 0.0000 20.0983
#
#
#
# Elastic Compliance Matrix: (Units=1/GPa)
#
#
# Indices 1 2 3 4 5 6 
#
# 1 0.011993 -0.004425 -0.001626 0.000000 0.000000 0.000000
# 2 -0.004425 0.025317 -0.008148 0.000000 0.000000 0.000000
# 3 -0.001626 -0.008148 0.009825 0.000000 0.000000 0.000000
# 4 0.000000 0.000000 0.000000 0.242876 0.000000 0.000000
# 5 0.000000 0.000000 0.000000 0.000000 0.036294 0.000000
# 6 0.000000 0.000000 0.000000 0.000000 0.000000 0.049755
#
#
# Mechanical properties :
#
#
# Convention : Reuss Voigt Hill
#
# Bulk Modulus (GPa) = 53.37014 65.01337 59.19176
# Shear Modulus (GPa) = 12.17416 22.97427 17.57422
#
# Velocity S-wave (km/s) = 2.52155 3.46393 3.02960
# Velocity P-wave (km/s) = 6.02920 7.06774 6.56903
#
# Compressibility (1/GPa) = 0.01873707
#
# Stress axis : x y z
#
# Youngs Moduli (GPa) = 83.37893 39.49910 101.77796
#
# Poissons Ratio (x) = 0.17479 0.16547
# Poissons Ratio (y) = 0.36897 0.82933
# Poissons Ratio (z) = 0.13556 0.32185
#
# Static dielectric constant tensor:
#      x y z
#    x 3.553590 0.000000 0.000000 
#    y 0.000000 3.229000 0.000000 
#    z 0.000000 0.000000 3.731490 
# 
# 
# High freq. dielectric constant tensor:
#      x y z
#    x 1.751350 0.000000 0.000000 
#    y 0.000000 1.711550 0.000000 
#    z 0.000000 0.000000 1.764770 
# 
# From -- ./inp_files/18407.got.cif
#   From: 2010.03.12/outbox.cif.g09.slc.cpg/sg35_10_cif.got.tgz:18407.got - 2010.04.14 02:02:04.
