data_PCOD8172166
_publ_section_title
;
Structure prediction by ZEFSAII (Michael W. Deem and Ramdas Pophale) SiO2 
 PCOD8172166
Probable space group: C M M 2
;
_chemical_formula_sum "Si O2"
_cell_formula_units_Z 56
_cell_length_a 21.714562
_cell_length_b 8.911768
_cell_length_c 14.680844
_cell_angle_alpha 90.000000
_cell_angle_beta 90.000000
_cell_angle_gamma 90.000000
_cell_volume 2840.965564
_symmetry_space_group_name_H-M "C M M 2"
_symmetry_group_IT_number 35
_symmetry_cell_setting 'orthorhombic'
loop_
_space_group_symop_operation_xyz
x,y,z
-x,-y,z
-x,y,z
x,-y,z
1/2+x,1/2+y,z
1/2-x,1/2-y,z
1/2-x,1/2+y,z
1/2+x,1/2-y,z
loop_
_atom_site_type_symbol
_atom_site_label
_atom_site_fract_x
_atom_site_fract_y
_atom_site_fract_z
Si Si1 0.623276 0.674984 0.417780
Si Si2 0.500000 0.177904 0.446089
Si Si3 0.689564 0.672414 0.599552
Si Si4 0.313802 0.179079 0.258812
Si Si5 0.000000 0.822060 0.641173
Si Si6 0.930421 0.322825 0.138982
Si Si7 0.428560 0.328369 0.950641
Si Si8 0.113400 0.177825 0.760987
O O1 0.620369 0.500000 0.392132
O O2 0.559123 0.755594 0.393981
O O3 0.635746 0.697977 0.525530
O O4 0.677013 0.755917 0.360334
O O5 0.500000 0.227455 0.549757
O O6 0.500000 0.000000 0.435241
O O7 0.705301 0.500000 0.607685
O O8 0.750000 0.750000 0.562372
O O9 0.671871 0.732852 0.701096
O O10 0.250000 0.250000 0.219253
O O11 0.374706 0.234368 0.203137
O O12 0.307619 0.000000 0.259140
O O13 0.056763 0.768326 0.700935
O O14 0.000000 0.000000 0.617286
O O15 0.931851 0.500000 0.140302
O O16 0.000000 0.263089 0.165843
O O17 0.912926 0.270404 0.037830
O O18 0.500000 0.318217 0.923112
O O19 0.410289 0.500000 0.972126
O O20 0.389423 0.261061 0.864709
O O21 0.110663 0.000000 0.768412
#
# Coordination Sequence:
#
# PCOD8172166 Si02
#       8
#     8   4   8   8   4   8   8   8
#     4  11  23  40  62  85 113 153 197 241 291 350
#     4  12  24  36  54  87 124 153 188 239 296 348
#     4  10  21  36  54  75 107 150 193 234 280 333
#     4  11  24  42  64  88 117 155 198 245 300 360
#     4  10  16  32  56  77 108 147 188 227 272 334
#     4   9  20  39  60  84 118 154 186 234 303 361
#     4   9  16  29  55  86 111 141 186 236 284 340
#     4   9  16  30  54  80 108 145 185 229 278 332
#
# _framework density 19.711607999999998
#
# number of rings (size 3 to 8) (size 9 to 14) (size 15 to 20)
#    0.000    2.000    2.143    1.929    1.000    3.429 
#    0.000    2.143    0.000    3.429    0.000    0.000 
#    0.000    0.000    0.000    0.000    0.000    0.000 
#
# Total GULP energy -347007.703059 kJ/mol
# GULP energy per Si atom -12393.132252 kJ/mol
# Density = 1.966674 g / cm^3
# Si number density = 19.711608 Si / 1000 Ang^3
#
#
#
# Elastic Constant Matrix: (Units=GPa)
#
#
# Indices 1 2 3 4 5 6 
#
# 1 119.6627 43.1334 42.8523 0.0000 0.0000 0.0000
# 2 43.1334 53.7834 25.8205 0.0000 0.0000 0.0000
# 3 42.8523 25.8205 89.9967 0.0000 0.0000 0.0000
# 4 0.0000 0.0000 0.0000 28.4790 0.0000 0.0000
# 5 0.0000 0.0000 0.0000 0.0000 101.2113 0.0000
# 6 0.0000 0.0000 0.0000 0.0000 0.0000 28.2430
#
#
#
# Elastic Compliance Matrix: (Units=1/GPa)
#
#
# Indices 1 2 3 4 5 6 
#
# 1 0.012698 -0.008444 -0.003624 0.000000 0.000000 0.000000
# 2 -0.008444 0.027178 -0.003777 0.000000 0.000000 0.000000
# 3 -0.003624 -0.003777 0.013921 0.000000 0.000000 0.000000
# 4 0.000000 0.000000 0.000000 0.035114 0.000000 0.000000
# 5 0.000000 0.000000 0.000000 0.000000 0.009880 0.000000
# 6 0.000000 0.000000 0.000000 0.000000 0.000000 0.035407
#
#
# Mechanical properties :
#
#
# Convention : Reuss Voigt Hill
#
# Bulk Modulus (GPa) = 45.23293 54.11726 49.67509
# Shear Modulus (GPa) = 28.85891 41.69577 35.27734
#
# Velocity S-wave (km/s) = 3.83045 4.60422 4.23504
# Velocity P-wave (km/s) = 6.52383 7.46855 7.01212
#
# Compressibility (1/GPa) = 0.02210779
#
# Stress axis : x y z
#
# Youngs Moduli (GPa) = 78.75104 36.79399 71.83627
#
# Poissons Ratio (x) = 0.31069 0.26031
# Poissons Ratio (y) = 0.66498 0.27132
# Poissons Ratio (z) = 0.28537 0.13897
#
# Static dielectric constant tensor:
#      x y z
#    x 3.621050 0.000000 0.000000 
#    y 0.000000 3.310430 0.000000 
#    z 0.000000 0.000000 3.692980 
# 
# 
# High freq. dielectric constant tensor:
#      x y z
#    x 1.764010 0.000000 0.000000 
#    y 0.000000 1.744930 0.000000 
#    z 0.000000 0.000000 1.770220 
# 
# From -- ./inp_files/17444.got.cif
#   From: 2010.03.12/outbox.cif.g09.slc.cpg/sg35_9_cif.got.tgz:17444.got - 2010.04.14 02:02:04.
