data_PCOD8172971
_publ_section_title
;
Structure prediction by ZEFSAII (Michael W. Deem and Ramdas Pophale) SiO2 
 PCOD8172971
Probable space group: C M M 2
;
_chemical_formula_sum "Si O2"
_cell_formula_units_Z 40
_cell_length_a 7.706925
_cell_length_b 15.443375
_cell_length_c 16.263213
_cell_angle_alpha 90.000000
_cell_angle_beta 90.000000
_cell_angle_gamma 90.000000
_cell_volume 1935.662783
_symmetry_space_group_name_H-M "C M M 2"
_symmetry_group_IT_number 35
_symmetry_cell_setting 'orthorhombic'
loop_
_space_group_symop_operation_xyz
x,y,z
-x,-y,z
-x,y,z
x,-y,z
1/2+x,1/2+y,z
1/2-x,1/2-y,z
1/2-x,1/2+y,z
1/2+x,1/2-y,z
loop_
_atom_site_type_symbol
_atom_site_label
_atom_site_fract_x
_atom_site_fract_y
_atom_site_fract_z
Si Si1 0.204621 0.500000 0.268790
Si Si2 0.000000 0.102886 0.688267
Si Si3 0.802105 0.842158 0.156446
Si Si4 0.191643 0.599866 0.985491
Si Si5 0.704111 0.000000 0.451978
Si Si6 0.204846 0.344988 0.568445
Si Si7 0.000000 0.896841 0.873986
O O1 0.268114 0.414436 0.223908
O O2 0.285264 0.500000 0.360707
O O3 0.000000 0.500000 0.270978
O O4 0.176982 0.139262 0.648513
O O5 0.000000 0.138274 0.781352
O O6 0.000000 0.000000 0.682975
O O7 0.750000 0.750000 0.196185
O O8 0.000000 0.845603 0.129421
O O9 0.692407 0.853535 0.073443
O O10 0.236222 0.500000 0.002704
O O11 0.330035 0.639017 0.921378
O O12 0.000000 0.611388 0.946904
O O13 0.764570 0.085877 0.500025
O O14 0.500000 0.000000 0.444307
O O15 0.250000 0.250000 0.533202
O O16 0.000000 0.354282 0.590670
O O17 0.000000 0.000000 0.871769
#
# Coordination Sequence:
#
# PCOD8172971 Si02
#       7
#     4   4   8   8   4   8   4
#     4  11  23  43  65  95 130 163 206 267 322 372
#     4  11  22  40  66  97 129 168 209 270 322 378
#     4  12  24  40  62  92 126 172 219 260 312 378
#     4  10  19  36  62  90 124 168 212 259 318 373
#     4   9  22  42  66  96 128 161 210 265 314 382
#     4  11  22  41  67  96 128 171 214 257 319 387
#     4   9  20  36  60  92 127 160 215 267 310 373
#
# _framework density 20.664757999999999
#
# number of rings (size 3 to 8) (size 9 to 14) (size 15 to 20)
#    0.000    1.400    4.000    2.100    0.000    1.600 
#    3.600    5.000    0.000    0.000    0.000    0.000 
#    0.000    0.000    0.000    0.000    0.000    0.000 
#
# Total GULP energy -248024.066680 kJ/mol
# GULP energy per Si atom -12401.203334 kJ/mol
# Density = 2.061772 g / cm^3
# Si number density = 20.664758 Si / 1000 Ang^3
#
#
#
# Elastic Constant Matrix: (Units=GPa)
#
#
# Indices 1 2 3 4 5 6 
#
# 1 133.9141 31.5852 55.5037 0.0000 0.0000 0.0000
# 2 31.5852 138.8758 64.0763 0.0000 0.0000 0.0000
# 3 55.5037 64.0763 164.2834 0.0000 0.0000 0.0000
# 4 0.0000 0.0000 0.0000 4.2383 0.0000 0.0000
# 5 0.0000 0.0000 0.0000 0.0000 27.0335 0.0000
# 6 0.0000 0.0000 0.0000 0.0000 0.0000 27.1270
#
#
#
# Elastic Compliance Matrix: (Units=1/GPa)
#
#
# Indices 1 2 3 4 5 6 
#
# 1 0.008749 -0.000763 -0.002658 0.000000 0.000000 0.000000
# 2 -0.000763 0.008847 -0.003193 0.000000 0.000000 0.000000
# 3 -0.002658 -0.003193 0.008230 0.000000 0.000000 0.000000
# 4 0.000000 0.000000 0.000000 0.235946 0.000000 0.000000
# 5 0.000000 0.000000 0.000000 0.000000 0.036991 0.000000
# 6 0.000000 0.000000 0.000000 0.000000 0.000000 0.036864
#
#
# Mechanical properties :
#
#
# Convention : Reuss Voigt Hill
#
# Bulk Modulus (GPa) = 79.37658 82.15597 80.76627
# Shear Modulus (GPa) = 14.16203 30.74028 22.45116
#
# Velocity S-wave (km/s) = 2.62071 3.86109 3.29970
# Velocity P-wave (km/s) = 6.90307 7.72788 7.32709
#
# Compressibility (1/GPa) = 0.01259817
#
# Stress axis : x y z
#
# Youngs Moduli (GPa) = 114.29497 113.02641 121.49963
#
# Poissons Ratio (x) = 0.08629 0.32297
# Poissons Ratio (y) = 0.08725 0.38794
# Poissons Ratio (z) = 0.30382 0.36088
#
# Static dielectric constant tensor:
#      x y z
#    x 3.882810 0.000000 0.000000 
#    y 0.000000 3.817050 0.000000 
#    z 0.000000 0.000000 3.811970 
# 
# 
# High freq. dielectric constant tensor:
#      x y z
#    x 1.822330 0.000000 0.000000 
#    y 0.000000 1.808660 0.000000 
#    z 0.000000 0.000000 1.791290 
# 
# From -- ./inp_files/14863.got.cif
#   From: 2010.03.12/outbox.cif.g09.slc.cpg/sg35_8_cif.got.tgz:14863.got - 2010.04.14 02:02:04.
