data_PCOD8172653
_publ_section_title
;
Structure prediction by ZEFSAII (Michael W. Deem and Ramdas Pophale) SiO2 
 PCOD8172653
Probable space group: C M M 2
;
_chemical_formula_sum "Si O2"
_cell_formula_units_Z 40
_cell_length_a 19.892171
_cell_length_b 8.564205
_cell_length_c 12.975067
_cell_angle_alpha 90.000000
_cell_angle_beta 90.000000
_cell_angle_gamma 90.000000
_cell_volume 2210.440593
_symmetry_space_group_name_H-M "C M M 2"
_symmetry_group_IT_number 35
_symmetry_cell_setting 'orthorhombic'
loop_
_space_group_symop_operation_xyz
x,y,z
-x,-y,z
-x,y,z
x,-y,z
1/2+x,1/2+y,z
1/2-x,1/2-y,z
1/2-x,1/2+y,z
1/2+x,1/2-y,z
loop_
_atom_site_type_symbol
_atom_site_label
_atom_site_fract_x
_atom_site_fract_y
_atom_site_fract_z
Si Si1 0.422305 0.185306 0.501820
Si Si2 0.822356 0.685195 0.886108
Si Si3 0.575434 0.187022 0.057425
Si Si4 0.079484 0.329663 0.278344
Si Si5 0.321725 0.316763 0.665793
O O1 0.500000 0.222844 0.525663
O O2 0.401531 0.251781 0.387404
O O3 0.377756 0.277581 0.582587
O O4 0.409416 0.000000 0.508717
O O5 0.820476 0.500000 0.885777
O O6 0.750000 0.750000 0.917573
O O7 0.875432 0.750849 0.969192
O O8 0.844673 0.743147 0.773928
O O9 0.500000 0.244977 0.031497
O O10 0.576755 0.000000 0.063120
O O11 0.599615 0.255076 0.170212
O O12 0.113877 0.500000 0.279639
O O13 0.000000 0.351567 0.276641
O O14 0.314403 0.500000 0.680302
O O15 0.250000 0.250000 0.629666
#
# Coordination Sequence:
#
# PCOD8172653 Si02
#       5
#     8   8   8   8   8
#     4   9  17  31  53  78 102 129 162 199 239 287
#     4  10  19  32  50  70  95 127 160 197 242 292
#     4   8  14  26  47  74  98 122 157 197 233 274
#     4   7  11  23  45  72  99 125 154 190 232 278
#     4  11  22  36  52  69  95 130 167 207 249 293
#
# _framework density 18.095939999999999
#
# number of rings (size 3 to 8) (size 9 to 14) (size 15 to 20)
#    0.000    3.000    0.000    6.000    0.000    1.200 
#    0.000    3.000    0.000    6.600    0.000    5.600 
#    0.000    0.000    0.000    0.000    0.000    0.000 
#
# Total GULP energy -247763.033706 kJ/mol
# GULP energy per Si atom -12388.151685 kJ/mol
# Density = 1.805475 g / cm^3
# Si number density = 18.095940 Si / 1000 Ang^3
#
#
#
# Elastic Constant Matrix: (Units=GPa)
#
#
# Indices 1 2 3 4 5 6 
#
# 1 84.5976 21.8077 86.3868 0.0000 0.0000 0.0000
# 2 21.8077 52.8153 28.3131 0.0000 0.0000 0.0000
# 3 86.3868 28.3131 165.1858 0.0000 0.0000 0.0000
# 4 0.0000 0.0000 0.0000 15.0190 0.0000 0.0000
# 5 0.0000 0.0000 0.0000 0.0000 3.9428 0.0000
# 6 0.0000 0.0000 0.0000 0.0000 0.0000 23.2220
#
#
#
# Elastic Compliance Matrix: (Units=1/GPa)
#
#
# Indices 1 2 3 4 5 6 
#
# 1 0.026043 -0.003801 -0.012968 0.000000 0.000000 0.000000
# 2 -0.003801 0.021405 -0.001681 0.000000 0.000000 0.000000
# 3 -0.012968 -0.001681 0.013124 0.000000 0.000000 0.000000
# 4 0.000000 0.000000 0.000000 0.066582 0.000000 0.000000
# 5 0.000000 0.000000 0.000000 0.000000 0.253627 0.000000
# 6 0.000000 0.000000 0.000000 0.000000 0.000000 0.043063
#
#
# Mechanical properties :
#
#
# Convention : Reuss Voigt Hill
#
# Bulk Modulus (GPa) = 42.24610 63.95710 53.10160
# Shear Modulus (GPa) = 10.66932 19.50950 15.08941
#
# Velocity S-wave (km/s) = 2.43080 3.28703 2.89079
# Velocity P-wave (km/s) = 5.59238 7.05876 6.36792
#
# Compressibility (1/GPa) = 0.02367082
#
# Stress axis : x y z
#
# Youngs Moduli (GPa) = 38.39822 46.71905 76.19780
#
# Poissons Ratio (x) = 0.17760 0.98813
# Poissons Ratio (y) = 0.14597 0.12807
# Poissons Ratio (z) = 0.49795 0.07852
#
# Static dielectric constant tensor:
#      x y z
#    x 3.214110 0.000000 0.000000 
#    y 0.000000 2.961360 0.000000 
#    z 0.000000 0.000000 3.886010 
# 
# 
# High freq. dielectric constant tensor:
#      x y z
#    x 1.676200 0.000000 0.000000 
#    y 0.000000 1.663730 0.000000 
#    z 0.000000 0.000000 1.723200 
# 
# From -- ./inp_files/11169.got.cif
#   From: 2010.03.12/outbox.cif.g09.slc.cpg/sg35_6_cif.got.tgz:11169.got - 2010.04.14 02:02:04.
