data_PCOD8172915
_publ_section_title
;
Structure prediction by ZEFSAII (Michael W. Deem and Ramdas Pophale) SiO2 
 PCOD8172915
Probable space group: C M M 2
;
_chemical_formula_sum "Si O2"
_cell_formula_units_Z 64
_cell_length_a 12.593292
_cell_length_b 33.401946
_cell_length_c 8.163483
_cell_angle_alpha 90.000000
_cell_angle_beta 90.000000
_cell_angle_gamma 90.000000
_cell_volume 3433.891239
_symmetry_space_group_name_H-M "C M M 2"
_symmetry_group_IT_number 35
_symmetry_cell_setting 'orthorhombic'
loop_
_space_group_symop_operation_xyz
x,y,z
-x,-y,z
-x,y,z
x,-y,z
1/2+x,1/2+y,z
1/2-x,1/2-y,z
1/2-x,1/2+y,z
1/2+x,1/2-y,z
loop_
_atom_site_type_symbol
_atom_site_label
_atom_site_fract_x
_atom_site_fract_y
_atom_site_fract_z
Si Si1 0.877343 0.833607 0.760840
Si Si2 0.621965 0.045641 0.634336
Si Si3 0.766198 0.908584 0.857177
Si Si4 0.122352 0.833110 0.398372
Si Si5 0.272107 0.091362 0.350769
Si Si6 0.877911 0.045597 0.140448
Si Si7 0.621761 0.862608 0.079340
Si Si8 0.279615 0.295833 0.088575
O O1 0.837661 0.879916 0.742773
O O2 0.856952 0.813501 0.580228
O O3 0.000000 0.834376 0.803274
O O4 0.825857 0.809766 0.912885
O O5 0.500000 0.053486 0.690108
O O6 0.707712 0.053335 0.777280
O O7 0.653770 0.077402 0.497422
O O8 0.634422 0.000000 0.574192
O O9 0.843898 0.924103 0.998233
O O10 0.673066 0.879010 0.914100
O O11 0.196440 0.871593 0.387071
O O12 0.143646 0.802927 0.246170
O O13 0.000000 0.846865 0.387106
O O14 0.196896 0.054505 0.295997
O O15 0.358043 0.103591 0.215189
O O16 0.000000 0.053926 0.186869
O O17 0.861694 0.000000 0.083819
O O18 0.500000 0.854643 0.049070
O O19 0.672845 0.820225 0.127937
O O20 0.250000 0.250000 0.074460
#
# Coordination Sequence:
#
# PCOD8172915 Si02
#       8
#     8   8   8   8   8   8   8   8
#     4  10  20  36  60  86 112 148 192 234 284 344
#     4  11  22  34  51  77 110 149 189 232 284 335
#     4  10  19  35  54  75 108 142 186 237 281 335
#     4  10  20  36  60  86 112 148 192 234 284 344
#     4  10  19  35  54  75 108 142 186 237 281 335
#     4  10  20  33  51  76 106 142 184 236 298 351
#     4   9  19  34  55  77  99 139 186 225 272 327
#     4  10  22  37  58  86 119 151 179 231 281 344
#
# _framework density 18.637747999999998
#
# number of rings (size 3 to 8) (size 9 to 14) (size 15 to 20)
#    0.000    2.000    1.250    3.375    0.000    1.500 
#    0.000    0.000    0.000    9.000    0.000    0.000 
#    0.000    0.000    0.000    0.000    0.000    0.000 
#
# Total GULP energy -396542.276072 kJ/mol
# GULP energy per Si atom -12391.946127 kJ/mol
# Density = 1.859533 g / cm^3
# Si number density = 18.637748 Si / 1000 Ang^3
#
#
#
# Elastic Constant Matrix: (Units=GPa)
#
#
# Indices 1 2 3 4 5 6 
#
# 1 80.0624 34.2982 17.6501 0.0000 0.0000 0.0000
# 2 34.2982 86.8179 19.3307 0.0000 0.0000 0.0000
# 3 17.6501 19.3307 87.5737 0.0000 0.0000 0.0000
# 4 0.0000 0.0000 0.0000 21.5170 0.0000 0.0000
# 5 0.0000 0.0000 0.0000 0.0000 24.2498 0.0000
# 6 0.0000 0.0000 0.0000 0.0000 0.0000 21.3013
#
#
#
# Elastic Compliance Matrix: (Units=1/GPa)
#
#
# Indices 1 2 3 4 5 6 
#
# 1 0.015312 -0.005639 -0.001841 0.000000 0.000000 0.000000
# 2 -0.005639 0.014191 -0.001996 0.000000 0.000000 0.000000
# 3 -0.001841 -0.001996 0.012231 0.000000 0.000000 0.000000
# 4 0.000000 0.000000 0.000000 0.046475 0.000000 0.000000
# 5 0.000000 0.000000 0.000000 0.000000 0.041237 0.000000
# 6 0.000000 0.000000 0.000000 0.000000 0.000000 0.046945
#
#
# Mechanical properties :
#
#
# Convention : Reuss Voigt Hill
#
# Bulk Modulus (GPa) = 43.89706 44.11246 44.00476
# Shear Modulus (GPa) = 24.63822 25.62531 25.13176
#
# Velocity S-wave (km/s) = 3.63981 3.71201 3.67609
# Velocity P-wave (km/s) = 6.42403 6.48781 6.45600
#
# Compressibility (1/GPa) = 0.02278057
#
# Stress axis : x y z
#
# Youngs Moduli (GPa) = 65.30843 70.46946 81.76209
#
# Poissons Ratio (x) = 0.39739 0.15055
# Poissons Ratio (y) = 0.36828 0.16318
# Poissons Ratio (z) = 0.12025 0.14064
#
# Static dielectric constant tensor:
#      x y z
#    x 3.476270 0.000000 0.000000 
#    y 0.000000 3.250470 0.000000 
#    z 0.000000 0.000000 3.574050 
# 
# 
# High freq. dielectric constant tensor:
#      x y z
#    x 1.730880 0.000000 0.000000 
#    y 0.000000 1.706440 0.000000 
#    z 0.000000 0.000000 1.726170 
# 
# From -- ./inp_files/6550.got.cif
#   From: 2010.03.12/outbox.cif.g09.slc.cpg/sg35_4_cif.got.tgz:6550.got - 2010.04.14 02:02:04.
