data_PCOD8172943
_publ_section_title
;
Structure prediction by ZEFSAII (Michael W. Deem and Ramdas Pophale) SiO2 
 PCOD8172943
Probable space group: C M M 2
;
_chemical_formula_sum "Si O2"
_cell_formula_units_Z 52
_cell_length_a 20.423378
_cell_length_b 14.846724
_cell_length_c 8.964304
_cell_angle_alpha 90.000000
_cell_angle_beta 90.000000
_cell_angle_gamma 90.000000
_cell_volume 2718.158557
_symmetry_space_group_name_H-M "C M M 2"
_symmetry_group_IT_number 35
_symmetry_cell_setting 'orthorhombic'
loop_
_space_group_symop_operation_xyz
x,y,z
-x,-y,z
-x,y,z
x,-y,z
1/2+x,1/2+y,z
1/2-x,1/2-y,z
1/2-x,1/2+y,z
1/2+x,1/2-y,z
loop_
_atom_site_type_symbol
_atom_site_label
_atom_site_fract_x
_atom_site_fract_y
_atom_site_fract_z
Si Si1 0.500000 0.896283 0.106120
Si Si2 0.742739 0.398995 0.909251
Si Si3 0.000000 0.207226 0.233282
Si Si4 0.114183 0.157197 0.758088
Si Si5 0.309557 0.686032 0.188166
Si Si6 0.892406 0.893015 0.420558
Si Si7 0.620238 0.809806 0.964892
Si Si8 0.000000 0.095442 0.945726
O O1 0.500000 0.817768 0.234601
O O2 0.500000 0.000000 0.168559
O O3 0.566203 0.884561 0.007411
O O4 0.759129 0.500000 0.867303
O O5 0.690764 0.362182 0.788862
O O6 0.810612 0.346637 0.907796
O O7 0.710871 0.391027 0.071886
O O8 0.939426 0.162854 0.314473
O O9 0.000000 0.180087 0.057705
O O10 0.102403 0.149336 0.583050
O O11 0.094481 0.255629 0.820248
O O12 0.064639 0.090707 0.842478
O O13 0.250000 0.750000 0.230138
O O14 0.324319 0.631905 0.340785
O O15 0.368067 0.744763 0.109703
O O16 0.906081 0.000000 0.423935
O O17 0.000000 0.000000 0.035710
#
# Coordination Sequence:
#
# PCOD8172943 Si02
#       8
#     4   8   4   8   8   8   8   4
#     4  12  22  40  68  92 112 150 208 264 312 360
#     4  10  19  35  58  87 117 155 209 261 303 355
#     4  12  23  40  60  89 118 156 197 251 307 359
#     4  11  22  37  56  85 129 161 199 241 309 366
#     4   9  19  34  56  81 120 159 204 248 305 354
#     4  12  23  36  57  90 127 164 201 243 304 377
#     4  10  20  39  60  89 111 159 203 259 306 354
#     4  12  21  36  60  85 118 158 201 245 301 371
#
# _framework density 19.130599
#
# number of rings (size 3 to 8) (size 9 to 14) (size 15 to 20)
#    0.000    1.231    3.077    5.769    0.000    1.231 
#    0.000    0.000    0.000    2.769    0.000    0.000 
#    0.000    0.000    0.000    0.000    0.000    0.000 
#
# Total GULP energy -322157.118382 kJ/mol
# GULP energy per Si atom -12390.658399 kJ/mol
# Density = 1.908706 g / cm^3
# Si number density = 19.130599 Si / 1000 Ang^3
#
#
#
# Elastic Constant Matrix: (Units=GPa)
#
#
# Indices 1 2 3 4 5 6 
#
# 1 93.1650 21.3860 32.0397 0.0000 0.0000 0.0000
# 2 21.3860 103.4035 40.8815 0.0000 0.0000 0.0000
# 3 32.0397 40.8815 120.8211 0.0000 0.0000 0.0000
# 4 0.0000 0.0000 0.0000 23.1873 0.0000 0.0000
# 5 0.0000 0.0000 0.0000 0.0000 -4.0449 0.0000
# 6 0.0000 0.0000 0.0000 0.0000 0.0000 -15.8528
#
#
#
# Elastic Compliance Matrix: (Units=1/GPa)
#
#
# Indices 1 2 3 4 5 6 
#
# 1 0.011987 -0.001411 -0.002701 0.000000 0.000000 0.000000
# 2 -0.001411 0.011330 -0.003460 0.000000 0.000000 0.000000
# 3 -0.002701 -0.003460 0.010164 0.000000 0.000000 0.000000
# 4 0.000000 0.000000 0.000000 0.043127 0.000000 0.000000
# 5 0.000000 0.000000 0.000000 0.000000 -0.247222 0.000000
# 6 0.000000 0.000000 0.000000 0.000000 0.000000 -0.063080
#
#
# Mechanical properties :
#
#
# Convention : Reuss Voigt Hill
#
# Bulk Modulus (GPa) = 54.53511 56.22267 55.37889
# Shear Modulus (GPa) = -23.53616 15.53008 -4.00304
#
# Velocity S-wave (km/s) = -3.51135 2.85229 -1.44811
# Velocity P-wave (km/s) = 3.48270 6.34823 5.12002
#
# Compressibility (1/GPa) = 0.01833681
#
# Stress axis : x y z
#
# Youngs Moduli (GPa) = 83.42715 88.25742 98.39030
#
# Poissons Ratio (x) = 0.12454 0.26577
# Poissons Ratio (y) = 0.11773 0.34039
# Poissons Ratio (z) = 0.22535 0.30534
#
# Static dielectric constant tensor:
#      x y z
#    x 3.840670 0.000000 0.000000 
#    y 0.000000 3.473770 0.000000 
#    z 0.000000 0.000000 3.286910 
# 
# 
# High freq. dielectric constant tensor:
#      x y z
#    x 1.762720 0.000000 0.000000 
#    y 0.000000 1.739680 0.000000 
#    z 0.000000 0.000000 1.716780 
# 
# From -- ./inp_files/9260.got.cif
#   From: 2010.03.12/outbox.cif.g09.slc.cpg/sg35_5_cif.got.tgz:9260.got - 2010.04.14 02:02:04.
