data_PCOD8172087
_publ_section_title
;
Structure prediction by ZEFSAII (Michael W. Deem and Ramdas Pophale) SiO2 
 PCOD8172087
Probable space group: P N N 2
;
_chemical_formula_sum "Si O2"
_cell_formula_units_Z 18
_cell_length_a 4.993302
_cell_length_b 19.056579
_cell_length_c 8.162283
_cell_angle_alpha 90.000000
_cell_angle_beta 90.000000
_cell_angle_gamma 90.000000
_cell_volume 776.684112
_symmetry_space_group_name_H-M "P N N 2"
_symmetry_group_IT_number 34
_symmetry_cell_setting 'orthorhombic'
loop_
_space_group_symop_operation_xyz
x,y,z
-x,-y,z
1/2-x,1/2+y,1/2+z
1/2+x,1/2-y,1/2+z
loop_
_atom_site_type_symbol
_atom_site_label
_atom_site_fract_x
_atom_site_fract_y
_atom_site_fract_z
Si Si1 0.171905 0.125574 0.825720
Si Si2 0.201121 0.135565 0.457047
Si Si3 0.819822 0.699502 0.456042
Si Si4 0.296800 0.894349 0.255769
Si Si5 0.000000 0.000000 0.039777
O O1 0.252455 0.107619 0.639973
O O2 0.379800 0.179560 0.906508
O O3 0.881961 0.162371 0.828949
O O4 0.167813 0.053864 0.928355
O O5 0.234757 0.218640 0.450044
O O6 0.406391 0.098839 0.330770
O O7 0.904555 0.113270 0.406912
O O8 0.766342 0.674253 0.641466
O O9 0.225802 0.962685 0.149591
#
# Coordination Sequence:
#
# PCOD8172087 Si02
#       5
#     4   4   4   4   2
#     4  11  25  42  69  94 135 176 216 276 326 400
#     4  12  23  41  68 105 128 166 224 280 330 381
#     4  11  22  42  67 100 135 171 210 270 347 398
#     4  11  25  42  69  94 135 176 216 274 323 401
#     4  10  26  50  62  92 134 190 228 256 340 396
#
# _framework density 23.175443999999999
#
# number of rings (size 3 to 8) (size 9 to 14) (size 15 to 20)
#    0.000    0.889    0.000    8.000    0.000    8.889 
#    0.000    4.444    0.000    0.000    0.000    0.000 
#    0.000    0.000    0.000    0.000    0.000    0.000 
#
# Total GULP energy -223348.479089 kJ/mol
# GULP energy per Si atom -12408.248838 kJ/mol
# Density = 2.312270 g / cm^3
# Si number density = 23.175444 Si / 1000 Ang^3
#
#
#
# Elastic Constant Matrix: (Units=GPa)
#
#
# Indices 1 2 3 4 5 6 
#
# 1 95.0635 11.6552 24.2596 0.0000 0.0000 0.0000
# 2 11.6552 84.4737 44.8857 0.0000 0.0000 0.0000
# 3 24.2596 44.8857 141.7969 0.0000 0.0000 0.0000
# 4 0.0000 0.0000 0.0000 22.9045 0.0000 0.0000
# 5 0.0000 0.0000 0.0000 0.0000 43.4193 0.0000
# 6 0.0000 0.0000 0.0000 0.0000 0.0000 26.8547
#
#
#
# Elastic Compliance Matrix: (Units=1/GPa)
#
#
# Indices 1 2 3 4 5 6 
#
# 1 0.011027 -0.000624 -0.001689 0.000000 0.000000 0.000000
# 2 -0.000624 0.014267 -0.004409 0.000000 0.000000 0.000000
# 3 -0.001689 -0.004409 0.008737 0.000000 0.000000 0.000000
# 4 0.000000 0.000000 0.000000 0.043660 0.000000 0.000000
# 5 0.000000 0.000000 0.000000 0.000000 0.023031 0.000000
# 6 0.000000 0.000000 0.000000 0.000000 0.000000 0.037237
#
#
# Mechanical properties :
#
#
# Convention : Reuss Voigt Hill
#
# Bulk Modulus (GPa) = 48.57641 53.65946 51.11794
# Shear Modulus (GPa) = 31.59233 34.67128 33.13180
#
# Velocity S-wave (km/s) = 3.69613 3.87206 3.78512
# Velocity P-wave (km/s) = 6.26267 6.57224 6.41932
#
# Compressibility (1/GPa) = 0.02058612
#
# Stress axis : x y z
#
# Youngs Moduli (GPa) = 90.68806 70.09133 114.45405
#
# Poissons Ratio (x) = 0.04373 0.19332
# Poissons Ratio (y) = 0.05658 0.50468
# Poissons Ratio (z) = 0.15318 0.30907
#
# Static dielectric constant tensor:
#      x y z
#    x 4.140700 0.000000 0.000000 
#    y 0.000000 4.131340 0.000000 
#    z 0.000000 0.000000 4.258670 
# 
# 
# High freq. dielectric constant tensor:
#      x y z
#    x 1.925420 0.000000 0.000000 
#    y 0.000000 1.913570 0.000000 
#    z 0.000000 0.000000 1.925340 
# 
# From -- ./inp_files/2068.got.cif
#   From: 2010.03.12/outbox.cif.g09.slc.cpg/sg34_2_cif.got.tgz:2068.got - 2010.04.14 01:56:33.
