data_PCOD8172286
_publ_section_title
;
Structure prediction by ZEFSAII (Michael W. Deem and Ramdas Pophale) SiO2 
 PCOD8172286
Probable space group: C M M 2
;
_chemical_formula_sum "Si O2"
_cell_formula_units_Z 64
_cell_length_a 9.151267
_cell_length_b 19.373329
_cell_length_c 20.844745
_cell_angle_alpha 90.000000
_cell_angle_beta 90.000000
_cell_angle_gamma 90.000000
_cell_volume 3695.575396
_symmetry_space_group_name_H-M "C M M 2"
_symmetry_group_IT_number 35
_symmetry_cell_setting 'orthorhombic'
loop_
_space_group_symop_operation_xyz
x,y,z
-x,-y,z
-x,y,z
x,-y,z
1/2+x,1/2+y,z
1/2-x,1/2-y,z
1/2-x,1/2+y,z
1/2+x,1/2-y,z
loop_
_atom_site_type_symbol
_atom_site_label
_atom_site_fract_x
_atom_site_fract_y
_atom_site_fract_z
Si Si1 0.670501 0.177450 0.570590
Si Si2 0.675300 0.324463 0.449056
Si Si3 0.337846 0.582080 0.195128
Si Si4 0.162949 0.582480 0.074061
Si Si5 0.326250 0.423275 0.335437
Si Si6 0.669440 0.177397 0.712618
Si Si7 0.838230 0.082029 0.953342
Si Si8 0.329210 0.419877 0.810525
O O1 0.500000 0.185799 0.552291
O O2 0.750000 0.250000 0.575114
O O3 0.757426 0.138229 0.513153
O O4 0.688336 0.144028 0.641148
O O5 0.500000 0.318695 0.453958
O O6 0.750000 0.250000 0.440570
O O7 0.727573 0.370296 0.389201
O O8 0.500000 0.613055 0.186672
O O9 0.344778 0.500000 0.190757
O O10 0.240503 0.612453 0.137603
O O11 0.271478 0.602242 0.265041
O O12 0.168104 0.500000 0.074016
O O13 0.000000 0.611071 0.075088
O O14 0.235870 0.612184 0.009230
O O15 0.500000 0.426803 0.333236
O O16 0.264660 0.500000 0.350898
O O17 0.500000 0.190590 0.727538
O O18 0.750000 0.250000 0.720143
O O19 0.732869 0.122556 0.761453
O O20 0.783002 0.103510 0.882487
O O21 0.000000 0.111836 0.965182
O O22 0.843642 0.000000 0.956767
O O23 0.500000 0.405227 0.799172
O O24 0.293848 0.500000 0.799824
#
# Coordination Sequence:
#
# PCOD8172286 Si02
#       8
#     8   8   8   8   8   8   8   8
#     4   9  17  30  47  67  90 116 149 187 225 265
#     4  10  18  29  48  70  91 115 146 185 224 266
#     4   8  13  23  39  56  77 108 144 180 217 258
#     4   9  15  21  32  55  85 113 143 180 220 262
#     4   8  15  28  45  65  88 116 151 186 219 260
#     4  10  20  33  51  72  94 122 156 194 233 277
#     4   8  14  25  40  58  83 117 152 183 219 264
#     4   9  18  32  49  70  97 126 156 192 233 278
#
# _framework density 17.318007999999999
#
# number of rings (size 3 to 8) (size 9 to 14) (size 15 to 20)
#    0.000    3.125    0.000    3.750    0.000    3.750 
#    0.000    3.125    0.000    5.250    0.000    0.875 
#    0.000    2.000    0.000    0.000    0.000    0.000 
#
# Total GULP energy -396472.524545 kJ/mol
# GULP energy per Si atom -12389.766392 kJ/mol
# Density = 1.727859 g / cm^3
# Si number density = 17.318008 Si / 1000 Ang^3
#
#
#
# Elastic Constant Matrix: (Units=GPa)
#
#
# Indices 1 2 3 4 5 6 
#
# 1 109.1640 31.6493 85.0026 0.0000 0.0000 0.0000
# 2 31.6493 36.9824 48.4229 0.0000 0.0000 0.0000
# 3 85.0026 48.4229 187.4721 0.0000 0.0000 0.0000
# 4 0.0000 0.0000 0.0000 -4.0383 0.0000 0.0000
# 5 0.0000 0.0000 0.0000 0.0000 28.0273 0.0000
# 6 0.0000 0.0000 0.0000 0.0000 0.0000 17.0736
#
#
#
# Elastic Compliance Matrix: (Units=1/GPa)
#
#
# Indices 1 2 3 4 5 6 
#
# 1 0.014974 -0.005931 -0.005258 0.000000 0.000000 0.000000
# 2 -0.005931 0.043207 -0.008471 0.000000 0.000000 0.000000
# 3 -0.005258 -0.008471 0.009906 0.000000 0.000000 0.000000
# 4 0.000000 0.000000 0.000000 -0.247628 0.000000 0.000000
# 5 0.000000 0.000000 0.000000 0.000000 0.035679 0.000000
# 6 0.000000 0.000000 0.000000 0.000000 0.000000 0.058570
#
#
# Mechanical properties :
#
#
# Convention : Reuss Voigt Hill
#
# Bulk Modulus (GPa) = 34.76049 73.75200 54.25624
# Shear Modulus (GPa) = -137.42233 19.44877 -58.98678
#
# Velocity S-wave (km/s) = -8.91765 3.35481 -5.84251
# Velocity P-wave (km/s) = 9.26916 7.59511 3.75710
#
# Compressibility (1/GPa) = 0.02876830
#
# Stress axis : x y z
#
# Youngs Moduli (GPa) = 66.78326 23.14454 100.94921
#
# Poissons Ratio (x) = 0.13726 0.53074
# Poissons Ratio (y) = 0.39606 0.85514
# Poissons Ratio (z) = 0.35111 0.19606
#
# Static dielectric constant tensor:
#      x y z
#    x 3.262630 0.000000 0.000000 
#    y 0.000000 2.615160 0.000000 
#    z 0.000000 0.000000 3.916740 
# 
# 
# High freq. dielectric constant tensor:
#      x y z
#    x 1.665100 0.000000 0.000000 
#    y 0.000000 1.600110 0.000000 
#    z 0.000000 0.000000 1.693540 
# 
# From -- ./inp_files/18504.got.cif
#   From: 2010.03.12/outbox.cif.g09.slc.cpg/sg35_10_cif.got.tgz:18504.got - 2010.04.14 02:02:04.
