data_PCOD8172408
_publ_section_title
;
Structure prediction by ZEFSAII (Michael W. Deem and Ramdas Pophale) SiO2 
 PCOD8172408
Probable space group: C M M 2
;
_chemical_formula_sum "Si O2"
_cell_formula_units_Z 48
_cell_length_a 10.202203
_cell_length_b 17.902476
_cell_length_c 14.165979
_cell_angle_alpha 90.000000
_cell_angle_beta 90.000000
_cell_angle_gamma 90.000000
_cell_volume 2587.340905
_symmetry_space_group_name_H-M "C M M 2"
_symmetry_group_IT_number 35
_symmetry_cell_setting 'orthorhombic'
loop_
_space_group_symop_operation_xyz
x,y,z
-x,-y,z
-x,y,z
x,-y,z
1/2+x,1/2+y,z
1/2-x,1/2-y,z
1/2-x,1/2+y,z
1/2+x,1/2-y,z
loop_
_atom_site_type_symbol
_atom_site_label
_atom_site_fract_x
_atom_site_fract_y
_atom_site_fract_z
Si Si1 0.742648 0.838697 0.783210
Si Si2 0.748760 0.338694 0.219352
Si Si3 0.655095 0.819687 0.582163
Si Si4 0.000000 0.337250 0.898470
Si Si5 0.649711 0.086627 0.396908
Si Si6 0.000000 0.663181 0.108024
Si Si7 0.000000 0.840542 0.101643
Si Si8 0.000000 0.841334 0.886115
O O1 0.750000 0.750000 0.787386
O O2 0.709828 0.861463 0.675638
O O3 0.627786 0.870199 0.848625
O O4 0.876613 0.871956 0.826095
O O5 0.750000 0.250000 0.232778
O O6 0.751315 0.375636 0.322551
O O7 0.873803 0.366933 0.161820
O O8 0.625613 0.368493 0.159906
O O9 0.500000 0.796129 0.594498
O O10 0.750000 0.750000 0.559830
O O11 0.672771 0.878160 0.498829
O O12 0.000000 0.247755 0.892975
O O13 0.000000 0.369768 0.003415
O O14 0.500000 0.100503 0.364152
O O15 0.683474 0.000000 0.404468
O O16 0.000000 0.751848 0.099443
O O17 0.000000 0.872449 0.994214
#
# Coordination Sequence:
#
# PCOD8172408 Si02
#       8
#     8   8   8   4   8   4   4   4
#     4   9  16  25  42  69 104 139 164 203 252 304
#     4  10  18  32  51  78 105 137 172 215 260 306
#     4  10  20  34  54  81 107 137 172 216 266 310
#     4   9  14  24  39  67 102 134 165 205 250 297
#     4  10  21  38  57  76 100 136 179 220 265 316
#     4   9  16  26  46  71 104 138 173 205 252 307
#     4   9  18  28  46  75 110 140 167 209 260 305
#     4   9  16  26  41  69 108 140 167 197 252 305
#
# _framework density 18.551866
#
# number of rings (size 3 to 8) (size 9 to 14) (size 15 to 20)
#    0.000    2.500    1.667    1.500    3.500    4.000 
#    1.500    0.417    0.000    0.000    0.000    7.000 
#    0.000    0.000    0.000    0.000    0.000    0.000 
#
# Total GULP energy -297487.904497 kJ/mol
# GULP energy per Si atom -12395.329354 kJ/mol
# Density = 1.850964 g / cm^3
# Si number density = 18.551866 Si / 1000 Ang^3
#
#
#
# Elastic Constant Matrix: (Units=GPa)
#
#
# Indices 1 2 3 4 5 6 
#
# 1 162.6900 27.0214 89.0846 0.0000 0.0000 0.0000
# 2 27.0214 35.6345 37.2077 0.0000 0.0000 0.0000
# 3 89.0846 37.2077 175.7938 0.0000 0.0000 0.0000
# 4 0.0000 0.0000 0.0000 0.7511 0.0000 0.0000
# 5 0.0000 0.0000 0.0000 0.0000 38.9428 0.0000
# 6 0.0000 0.0000 0.0000 0.0000 0.0000 9.6615
#
#
#
# Elastic Compliance Matrix: (Units=1/GPa)
#
#
# Indices 1 2 3 4 5 6 
#
# 1 0.008685 -0.002555 -0.003860 0.000000 0.000000 0.000000
# 2 -0.002555 0.036776 -0.006489 0.000000 0.000000 0.000000
# 3 -0.003860 -0.006489 0.009018 0.000000 0.000000 0.000000
# 4 0.000000 0.000000 0.000000 1.331344 0.000000 0.000000
# 5 0.000000 0.000000 0.000000 0.000000 0.025679 0.000000
# 6 0.000000 0.000000 0.000000 0.000000 0.000000 0.103503
#
#
# Mechanical properties :
#
#
# Convention : Reuss Voigt Hill
#
# Bulk Modulus (GPa) = 34.87959 75.63841 55.25900
# Shear Modulus (GPa) = 3.22504 24.59139 13.90821
#
# Velocity S-wave (km/s) = 1.31991 3.64476 2.74102
# Velocity P-wave (km/s) = 4.60052 7.65325 6.31415
#
# Compressibility (1/GPa) = 0.02867006
#
# Stress axis : x y z
#
# Youngs Moduli (GPa) = 115.14353 27.19195 110.88726
#
# Poissons Ratio (x) = 0.06947 0.42806
# Poissons Ratio (y) = 0.29418 0.71955
# Poissons Ratio (z) = 0.44449 0.17645
#
# Static dielectric constant tensor:
#      x y z
#    x 3.673610 0.000000 0.000000 
#    y 0.000000 2.710710 0.000000 
#    z 0.000000 0.000000 3.637470 
# 
# 
# High freq. dielectric constant tensor:
#      x y z
#    x 1.729200 0.000000 0.000000 
#    y 0.000000 1.648220 0.000000 
#    z 0.000000 0.000000 1.741650 
# 
# From -- ./inp_files/15346.got.cif
#   From: 2010.03.12/outbox.cif.g09.slc.cpg/sg35_8_cif.got.tgz:15346.got - 2010.04.14 02:02:04.
