data_PCOD8172746
_publ_section_title
;
Structure prediction by ZEFSAII (Michael W. Deem and Ramdas Pophale) SiO2 
 PCOD8172746
Probable space group: C M M 2
;
_chemical_formula_sum "Si O2"
_cell_formula_units_Z 64
_cell_length_a 32.676623
_cell_length_b 9.120785
_cell_length_c 11.331970
_cell_angle_alpha 90.000000
_cell_angle_beta 90.000000
_cell_angle_gamma 90.000000
_cell_volume 3377.340143
_symmetry_space_group_name_H-M "C M M 2"
_symmetry_group_IT_number 35
_symmetry_cell_setting 'orthorhombic'
loop_
_space_group_symop_operation_xyz
x,y,z
-x,-y,z
-x,y,z
x,-y,z
1/2+x,1/2+y,z
1/2-x,1/2-y,z
1/2-x,1/2+y,z
1/2+x,1/2-y,z
loop_
_atom_site_type_symbol
_atom_site_label
_atom_site_fract_x
_atom_site_fract_y
_atom_site_fract_z
Si Si1 0.061409 0.163681 0.228260
Si Si2 0.791520 0.672673 0.521160
Si Si3 0.850861 0.840759 0.119638
Si Si4 0.047190 0.827260 0.496370
Si Si5 0.288549 0.831559 0.252833
Si Si6 0.621942 0.174626 0.634078
Si Si7 0.044837 0.338130 0.006481
Si Si8 0.889415 0.831162 0.873741
O O1 0.108795 0.159376 0.197690
O O2 0.053916 0.220037 0.360791
O O3 0.040275 0.275935 0.138907
O O4 0.042619 0.000000 0.214140
O O5 0.785169 0.500000 0.537576
O O6 0.750000 0.750000 0.572724
O O7 0.797118 0.721246 0.385732
O O8 0.834324 0.724228 0.579400
O O9 0.825590 0.705121 0.167415
O O10 0.829360 0.000000 0.136952
O O11 0.857680 0.814464 0.981031
O O12 0.081596 0.743454 0.572899
O O13 0.000000 0.786940 0.533314
O O14 0.054684 0.000000 0.513089
O O15 0.250000 0.750000 0.198246
O O16 0.279062 0.000000 0.249412
O O17 0.625239 0.230515 0.767328
O O18 0.617044 0.000000 0.629376
O O19 0.065981 0.500000 0.009769
O O20 0.000000 0.354240 0.952219
O O21 0.067277 0.225795 0.920496
O O22 0.894065 0.000000 0.833765
#
# Coordination Sequence:
#
# PCOD8172746 Si02
#       8
#     8   8   8   8   8   8   8   8
#     4   9  18  33  54  79 108 142 179 222 271 326
#     4   9  20  37  58  86 114 142 178 221 271 328
#     4   9  18  33  53  78 105 134 172 217 267 321
#     4  10  21  36  55  81 113 151 193 231 272 327
#     4  10  19  32  53  81 112 141 169 207 258 318
#     4  11  23  39  58  81 111 146 187 234 283 330
#     4  10  20  33  52  79 108 138 175 223 277 326
#     4  10  22  39  57  76 101 139 185 226 267 321
#
# _framework density 18.949824
#
# number of rings (size 3 to 8) (size 9 to 14) (size 15 to 20)
#    0.000    2.250    0.000    3.375    0.000    6.750 
#    0.000    0.625    0.000    1.500    0.000    0.000 
#    0.000    0.000    0.000    0.000    0.000    0.000 
#
# Total GULP energy -396591.854193 kJ/mol
# GULP energy per Si atom -12393.495444 kJ/mol
# Density = 1.890669 g / cm^3
# Si number density = 18.949824 Si / 1000 Ang^3
#
#
#
# Elastic Constant Matrix: (Units=GPa)
#
#
# Indices 1 2 3 4 5 6 
#
# 1 120.9312 47.4595 55.6114 0.0000 0.0000 0.0000
# 2 47.4595 72.4921 37.9025 0.0000 0.0000 0.0000
# 3 55.6114 37.9025 83.8876 0.0000 0.0000 0.0000
# 4 0.0000 0.0000 0.0000 32.7544 0.0000 0.0000
# 5 0.0000 0.0000 0.0000 0.0000 2.4500 0.0000
# 6 0.0000 0.0000 0.0000 0.0000 0.0000 29.9121
#
#
#
# Elastic Compliance Matrix: (Units=1/GPa)
#
#
# Indices 1 2 3 4 5 6 
#
# 1 0.013323 -0.005374 -0.006404 0.000000 0.000000 0.000000
# 2 -0.005374 0.020229 -0.005577 0.000000 0.000000 0.000000
# 3 -0.006404 -0.005577 0.018686 0.000000 0.000000 0.000000
# 4 0.000000 0.000000 0.000000 0.030530 0.000000 0.000000
# 5 0.000000 0.000000 0.000000 0.000000 0.408161 0.000000
# 6 0.000000 0.000000 0.000000 0.000000 0.000000 0.033431
#
#
# Mechanical properties :
#
#
# Convention : Reuss Voigt Hill
#
# Bulk Modulus (GPa) = 57.05408 62.13974 59.59691
# Shear Modulus (GPa) = 8.85090 22.11247 15.48168
#
# Velocity S-wave (km/s) = 2.16353 3.41969 2.86139
# Velocity P-wave (km/s) = 6.03444 6.96098 6.51421
#
# Compressibility (1/GPa) = 0.01752723
#
# Stress axis : x y z
#
# Youngs Moduli (GPa) = 75.05670 49.43385 53.51532
#
# Poissons Ratio (x) = 0.26566 0.34272
# Poissons Ratio (y) = 0.40336 0.29847
# Poissons Ratio (z) = 0.48068 0.27571
#
# Static dielectric constant tensor:
#      x y z
#    x 3.767340 0.000000 0.000000 
#    y 0.000000 3.618120 0.000000 
#    z 0.000000 0.000000 3.400230 
# 
# 
# High freq. dielectric constant tensor:
#      x y z
#    x 1.736480 0.000000 0.000000 
#    y 0.000000 1.741880 0.000000 
#    z 0.000000 0.000000 1.724460 
# 
# From -- ./inp_files/14600.got.cif
#   From: 2010.03.12/outbox.cif.g09.slc.cpg/sg35_8_cif.got.tgz:14600.got - 2010.04.14 02:02:04.
