data_PCOD8172405
_publ_section_title
;
Structure prediction by ZEFSAII (Michael W. Deem and Ramdas Pophale) SiO2 
 PCOD8172405
Probable space group: C M M 2
;
_chemical_formula_sum "Si O2"
_cell_formula_units_Z 56
_cell_length_a 8.948989
_cell_length_b 23.643286
_cell_length_c 15.221811
_cell_angle_alpha 90.000000
_cell_angle_beta 90.000000
_cell_angle_gamma 90.000000
_cell_volume 3220.684144
_symmetry_space_group_name_H-M "C M M 2"
_symmetry_group_IT_number 35
_symmetry_cell_setting 'orthorhombic'
loop_
_space_group_symop_operation_xyz
x,y,z
-x,-y,z
-x,y,z
x,-y,z
1/2+x,1/2+y,z
1/2-x,1/2-y,z
1/2-x,1/2+y,z
1/2+x,1/2-y,z
loop_
_atom_site_type_symbol
_atom_site_label
_atom_site_fract_x
_atom_site_fract_y
_atom_site_fract_z
Si Si1 0.166299 0.617772 0.558900
Si Si2 0.327812 0.500000 0.806828
Si Si3 0.823198 0.608678 0.882580
Si Si4 0.824484 0.934379 0.404039
Si Si5 0.666540 0.933265 0.226036
Si Si6 0.158181 0.500000 0.646186
Si Si7 0.323030 0.810710 0.725659
Si Si8 0.823925 0.066161 0.048410
O O1 0.273972 0.613540 0.474549
O O2 0.155707 0.553474 0.585463
O O3 0.233704 0.654696 0.639617
O O4 0.000000 0.640194 0.533350
O O5 0.500000 0.500000 0.837445
O O6 0.239622 0.446452 0.838190
O O7 0.310727 0.500000 0.701999
O O8 0.775918 0.659913 0.817809
O O9 0.000000 0.605741 0.894156
O O10 0.746850 0.610172 0.978317
O O11 0.749457 0.913699 0.313832
O O12 0.000000 0.929942 0.392552
O O13 0.780172 0.000000 0.426771
O O14 0.500000 0.906787 0.222913
O O15 0.760317 0.913599 0.141576
O O16 0.655636 0.000000 0.224536
O O17 0.000000 0.500000 0.701910
O O18 0.500000 0.805806 0.721188
O O19 0.250000 0.750000 0.723135
O O20 0.000000 0.074213 0.048929
O O21 0.783510 0.000000 0.026630
#
# Coordination Sequence:
#
# PCOD8172405 Si02
#       8
#     8   4   8   8   8   4   8   8
#     4  10  19  33  52  73  98 134 172 207 251 307
#     4  12  22  30  46  75 104 131 166 210 258 302
#     4  11  21  35  53  73 101 138 175 209 253 312
#     4  10  19  29  44  72 106 137 169 210 254 296
#     4   9  17  29  45  66  98 143 179 203 242 299
#     4  10  18  32  50  69 100 133 166 206 252 308
#     4  10  23  40  56  74  98 133 175 219 262 306
#     4  10  19  30  46  74 107 136 170 211 254 298
#
# _framework density 17.387609999999999
#
# number of rings (size 3 to 8) (size 9 to 14) (size 15 to 20)
#    0.000    1.857    2.857    2.357    0.000    5.143 
#    0.000    0.000    0.000    0.000    0.000    1.000 
#    0.000    0.000    0.000    0.000    0.000    0.000 
#
# Total GULP energy -346938.754018 kJ/mol
# GULP energy per Si atom -12390.669786 kJ/mol
# Density = 1.734803 g / cm^3
# Si number density = 17.387610 Si / 1000 Ang^3
#
#
#
# Elastic Constant Matrix: (Units=GPa)
#
#
# Indices 1 2 3 4 5 6 
#
# 1 87.1337 29.7022 66.7404 0.0000 0.0000 0.0000
# 2 29.7022 74.6230 45.1049 0.0000 0.0000 0.0000
# 3 66.7404 45.1049 148.3086 0.0000 0.0000 0.0000
# 4 0.0000 0.0000 0.0000 5.5510 0.0000 0.0000
# 5 0.0000 0.0000 0.0000 0.0000 24.9934 0.0000
# 6 0.0000 0.0000 0.0000 0.0000 0.0000 33.0426
#
#
#
# Elastic Compliance Matrix: (Units=1/GPa)
#
#
# Indices 1 2 3 4 5 6 
#
# 1 0.017970 -0.002775 -0.007243 0.000000 0.000000 0.000000
# 2 -0.002775 0.016847 -0.003875 0.000000 0.000000 0.000000
# 3 -0.007243 -0.003875 0.011181 0.000000 0.000000 0.000000
# 4 0.000000 0.000000 0.000000 0.180147 0.000000 0.000000
# 5 0.000000 0.000000 0.000000 0.000000 0.040011 0.000000
# 6 0.000000 0.000000 0.000000 0.000000 0.000000 0.030264
#
#
# Mechanical properties :
#
#
# Convention : Reuss Voigt Hill
#
# Bulk Modulus (GPa) = 54.90694 65.90671 60.40683
# Shear Modulus (GPa) = 15.13884 23.95193 19.54538
#
# Velocity S-wave (km/s) = 2.95391 3.71553 3.35639
# Velocity P-wave (km/s) = 6.57882 7.50957 7.05955
#
# Compressibility (1/GPa) = 0.01821263
#
# Stress axis : x y z
#
# Youngs Moduli (GPa) = 55.64761 59.35639 89.44076
#
# Poissons Ratio (x) = 0.16470 0.64781
# Poissons Ratio (y) = 0.15441 0.34659
# Poissons Ratio (z) = 0.40305 0.23001
#
# Static dielectric constant tensor:
#      x y z
#    x 3.503680 0.000000 0.000000 
#    y 0.000000 2.830900 0.000000 
#    z 0.000000 0.000000 3.595490 
# 
# 
# High freq. dielectric constant tensor:
#      x y z
#    x 1.681180 0.000000 0.000000 
#    y 0.000000 1.611030 0.000000 
#    z 0.000000 0.000000 1.684450 
# 
# From -- ./inp_files/15729.got.cif
#   From: 2010.03.12/outbox.cif.g09.slc.cpg/sg35_8_cif.got.tgz:15729.got - 2010.04.14 02:02:04.
