data_PCOD8172665
_publ_section_title
;
Structure prediction by ZEFSAII (Michael W. Deem and Ramdas Pophale) SiO2 
 PCOD8172665
Probable space group: C M M 2
;
_chemical_formula_sum "Si O2"
_cell_formula_units_Z 48
_cell_length_a 8.800012
_cell_length_b 31.069931
_cell_length_c 9.742106
_cell_angle_alpha 90.000000
_cell_angle_beta 90.000000
_cell_angle_gamma 90.000000
_cell_volume 2663.645371
_symmetry_space_group_name_H-M "C M M 2"
_symmetry_group_IT_number 35
_symmetry_cell_setting 'orthorhombic'
loop_
_space_group_symop_operation_xyz
x,y,z
-x,-y,z
-x,y,z
x,-y,z
1/2+x,1/2+y,z
1/2-x,1/2-y,z
1/2-x,1/2+y,z
1/2+x,1/2-y,z
loop_
_atom_site_type_symbol
_atom_site_label
_atom_site_fract_x
_atom_site_fract_y
_atom_site_fract_z
Si Si1 0.318474 0.295331 0.738800
Si Si2 0.828857 0.453572 0.935657
Si Si3 0.678445 0.366532 0.258101
Si Si4 0.319310 0.204482 0.447160
Si Si5 0.822084 0.131611 0.943487
Si Si6 0.671707 0.047281 0.261615
O O1 0.500000 0.292474 0.728802
O O2 0.250000 0.250000 0.786223
O O3 0.251162 0.309249 0.592632
O O4 0.260665 0.329494 0.851027
O O5 0.763972 0.500000 0.883680
O O6 0.734135 0.413437 0.878235
O O7 0.000000 0.448223 0.882648
O O8 0.823173 0.453337 0.098712
O O9 0.500000 0.358405 0.278273
O O10 0.775277 0.331323 0.337567
O O11 0.719610 0.414331 0.315044
O O12 0.731478 0.361967 0.100030
O O13 0.500000 0.208677 0.459228
O O14 0.250000 0.250000 0.398986
O O15 0.000000 0.130101 0.937485
O O16 0.500000 0.056142 0.312513
O O17 0.726278 0.000000 0.315938
#
# Coordination Sequence:
#
# PCOD8172665 Si02
#       6
#     8   8   8   8   8   8
#     4  10  20  36  54  73  97 127 164 203 244 294
#     4   8  14  25  43  68  98 131 165 199 237 284
#     4  10  19  32  50  76 106 133 164 203 246 291
#     4  11  22  37  55  74  96 128 167 204 247 297
#     4   9  19  32  49  75 104 131 162 201 244 289
#     4   8  14  26  44  68  99 133 167 202 241 287
#
# _framework density 18.020416000000001
#
# number of rings (size 3 to 8) (size 9 to 14) (size 15 to 20)
#    0.000    2.667    0.000    4.500    0.000    3.333 
#    0.000    5.000    0.000    1.000    0.000    4.667 
#    0.000    0.000    0.000    0.000    0.000    0.000 
#
# Total GULP energy -297463.121779 kJ/mol
# GULP energy per Si atom -12394.296741 kJ/mol
# Density = 1.797940 g / cm^3
# Si number density = 18.020416 Si / 1000 Ang^3
#
#
#
# Elastic Constant Matrix: (Units=GPa)
#
#
# Indices 1 2 3 4 5 6 
#
# 1 63.7592 48.3646 28.5853 0.0000 0.0000 0.0000
# 2 48.3646 165.2679 68.5486 0.0000 0.0000 0.0000
# 3 28.5853 68.5486 54.4530 0.0000 0.0000 0.0000
# 4 0.0000 0.0000 0.0000 0.5271 0.0000 0.0000
# 5 0.0000 0.0000 0.0000 0.0000 19.9965 0.0000
# 6 0.0000 0.0000 0.0000 0.0000 0.0000 37.0811
#
#
#
# Elastic Compliance Matrix: (Units=1/GPa)
#
#
# Indices 1 2 3 4 5 6 
#
# 1 0.021362 -0.003349 -0.006999 0.000000 0.000000 0.000000
# 2 -0.003349 0.013187 -0.014843 0.000000 0.000000 0.000000
# 3 -0.006999 -0.014843 0.040723 0.000000 0.000000 0.000000
# 4 0.000000 0.000000 0.000000 1.897095 0.000000 0.000000
# 5 0.000000 0.000000 0.000000 0.000000 0.050009 0.000000
# 6 0.000000 0.000000 0.000000 0.000000 0.000000 0.026968
#
#
# Mechanical properties :
#
#
# Convention : Reuss Voigt Hill
#
# Bulk Modulus (GPa) = 40.17302 63.83077 52.00190
# Shear Modulus (GPa) = 2.37189 20.71972 11.54581
#
# Velocity S-wave (km/s) = 1.14851 3.39454 2.53396
# Velocity P-wave (km/s) = 4.90920 7.13177 6.12219
#
# Compressibility (1/GPa) = 0.02489233
#
# Stress axis : x y z
#
# Youngs Moduli (GPa) = 46.81263 75.83151 24.55592
#
# Poissons Ratio (x) = 0.25393 0.17186
# Poissons Ratio (y) = 0.15676 0.36448
# Poissons Ratio (z) = 0.32762 1.12556
#
# Static dielectric constant tensor:
#      x y z
#    x 3.344260 0.000000 0.000000 
#    y 0.000000 3.916660 0.000000 
#    z 0.000000 0.000000 3.118940 
# 
# 
# High freq. dielectric constant tensor:
#      x y z
#    x 1.698790 0.000000 0.000000 
#    y 0.000000 1.717520 0.000000 
#    z 0.000000 0.000000 1.652550 
# 
# From -- ./inp_files/11483.got.cif
#   From: 2010.03.12/outbox.cif.g09.slc.cpg/sg35_6_cif.got.tgz:11483.got - 2010.04.14 02:02:04.
