data_PCOD8172767
_publ_section_title
;
Structure prediction by ZEFSAII (Michael W. Deem and Ramdas Pophale) SiO2 
 PCOD8172767
Probable space group: C M M 2
;
_chemical_formula_sum "Si O2"
_cell_formula_units_Z 64
_cell_length_a 8.807650
_cell_length_b 29.280393
_cell_length_c 12.385703
_cell_angle_alpha 90.000000
_cell_angle_beta 90.000000
_cell_angle_gamma 90.000000
_cell_volume 3194.166948
_symmetry_space_group_name_H-M "C M M 2"
_symmetry_group_IT_number 35
_symmetry_cell_setting 'orthorhombic'
loop_
_space_group_symop_operation_xyz
x,y,z
-x,-y,z
-x,y,z
x,-y,z
1/2+x,1/2+y,z
1/2-x,1/2-y,z
1/2-x,1/2+y,z
1/2+x,1/2-y,z
loop_
_atom_site_type_symbol
_atom_site_label
_atom_site_fract_x
_atom_site_fract_y
_atom_site_fract_z
Si Si1 0.176406 0.681610 0.322780
Si Si2 0.179879 0.052899 0.829541
Si Si3 0.679869 0.887436 0.018662
Si Si4 0.824576 0.111511 0.626163
Si Si5 0.673387 0.592569 0.387386
Si Si6 0.178249 0.704048 0.564086
Si Si7 0.179937 0.203554 0.099372
Si Si8 0.828359 0.549655 0.212839
O O1 0.211500 0.628411 0.333353
O O2 0.224889 0.703272 0.437565
O O3 0.274796 0.702061 0.225806
O O4 0.000000 0.689173 0.295500
O O5 0.231045 0.076371 0.717241
O O6 0.000000 0.054849 0.844769
O O7 0.235554 0.000000 0.831623
O O8 0.258455 0.083027 0.920294
O O9 0.500000 0.882300 0.007201
O O10 0.754785 0.837594 0.026671
O O11 0.728110 0.913401 0.126978
O O12 0.793844 0.085365 0.513542
O O13 0.737263 0.159753 0.628506
O O14 0.000000 0.123769 0.641372
O O15 0.500000 0.607782 0.369235
O O16 0.717580 0.548161 0.318041
O O17 0.250000 0.750000 0.614789
O O18 0.000000 0.705557 0.578974
O O19 0.250000 0.250000 0.050174
O O20 0.000000 0.203937 0.089171
O O21 0.816155 0.500000 0.157376
O O22 0.000000 0.559507 0.249905
#
# Coordination Sequence:
#
# PCOD8172767 Si02
#       8
#     8   8   8   8   8   8   8   8
#     4  10  19  33  53  81 119 162 201 242 289 345
#     4  10  22  42  67  91 116 152 200 252 304 359
#     4  11  23  41  63  87 119 156 198 249 302 354
#     4   9  20  38  59  85 119 155 196 247 300 351
#     4  10  19  32  54  84 118 158 198 242 294 352
#     4  10  20  33  54  84 120 160 202 244 290 348
#     4  12  24  38  59  88 121 159 201 243 294 353
#     4  10  21  36  55  81 117 158 194 236 297 361
#
# _framework density 20.036524
#
# number of rings (size 3 to 8) (size 9 to 14) (size 15 to 20)
#    0.000    1.750    1.250    3.375    0.000    5.500 
#    0.000    1.875    0.000    3.000    0.000    0.000 
#    0.000    0.000    0.000    0.000    0.000    0.000 
#
# Total GULP energy -396718.167727 kJ/mol
# GULP energy per Si atom -12397.442741 kJ/mol
# Density = 1.999092 g / cm^3
# Si number density = 20.036524 Si / 1000 Ang^3
#
#
#
# Elastic Constant Matrix: (Units=GPa)
#
#
# Indices 1 2 3 4 5 6 
#
# 1 82.4131 61.3828 53.2739 0.0000 0.0000 0.0000
# 2 61.3828 157.6723 71.7207 0.0000 0.0000 0.0000
# 3 53.2739 71.7207 108.4906 0.0000 0.0000 0.0000
# 4 0.0000 0.0000 0.0000 -90.2451 0.0000 0.0000
# 5 0.0000 0.0000 0.0000 0.0000 28.3912 0.0000
# 6 0.0000 0.0000 0.0000 0.0000 0.0000 30.9560
#
#
#
# Elastic Compliance Matrix: (Units=1/GPa)
#
#
# Indices 1 2 3 4 5 6 
#
# 1 0.019982 -0.004742 -0.006678 0.000000 0.000000 0.000000
# 2 -0.004742 0.010195 -0.004411 0.000000 0.000000 0.000000
# 3 -0.006678 -0.004411 0.015412 0.000000 0.000000 0.000000
# 4 0.000000 0.000000 0.000000 -0.011081 0.000000 0.000000
# 5 0.000000 0.000000 0.000000 0.000000 0.035222 0.000000
# 6 0.000000 0.000000 0.000000 0.000000 0.000000 0.032304
#
#
# Mechanical properties :
#
#
# Convention : Reuss Voigt Hill
#
# Bulk Modulus (GPa) = 71.79445 80.14788 75.97116
# Shear Modulus (GPa) = 36.14325 4.63365 20.38845
#
# Velocity S-wave (km/s) = 4.25180 1.52237 3.19339
# Velocity P-wave (km/s) = 7.74683 6.57099 7.18301
#
# Compressibility (1/GPa) = 0.01392865
#
# Stress axis : x y z
#
# Youngs Moduli (GPa) = 50.04428 98.08952 64.88275
#
# Poissons Ratio (x) = 0.46512 0.43326
# Poissons Ratio (y) = 0.23730 0.28620
# Poissons Ratio (z) = 0.33417 0.43268
#
# Static dielectric constant tensor:
#      x y z
#    x 3.578600 0.000000 0.000000 
#    y 0.000000 3.809340 0.000000 
#    z 0.000000 0.000000 3.629740 
# 
# 
# High freq. dielectric constant tensor:
#      x y z
#    x 1.783530 0.000000 0.000000 
#    y 0.000000 1.792140 0.000000 
#    z 0.000000 0.000000 1.762410 
# 
# From -- ./inp_files/12028.got.cif
#   From: 2010.03.12/outbox.cif.g09.slc.cpg/sg35_7_cif.got.tgz:12028.got - 2010.04.14 02:02:04.
