data_PCOD8172115
_publ_section_title
;
Structure prediction by ZEFSAII (Michael W. Deem and Ramdas Pophale) SiO2 
 PCOD8172115
Probable space group: P N N 2
;
_chemical_formula_sum "Si O2"
_cell_formula_units_Z 32
_cell_length_a 10.630500
_cell_length_b 16.522151
_cell_length_c 8.317182
_cell_angle_alpha 90.000000
_cell_angle_beta 90.000000
_cell_angle_gamma 90.000000
_cell_volume 1460.819252
_symmetry_space_group_name_H-M "P N N 2"
_symmetry_group_IT_number 34
_symmetry_cell_setting 'orthorhombic'
loop_
_space_group_symop_operation_xyz
x,y,z
-x,-y,z
1/2-x,1/2+y,1/2+z
1/2+x,1/2-y,1/2+z
loop_
_atom_site_type_symbol
_atom_site_label
_atom_site_fract_x
_atom_site_fract_y
_atom_site_fract_z
Si Si1 0.637555 0.000987 0.536740
Si Si2 0.119165 0.288425 0.591534
Si Si3 0.870111 0.219078 0.689742
Si Si4 0.257383 0.349232 0.896222
Si Si5 0.122485 0.451114 0.406338
Si Si6 0.004142 0.091554 0.258583
Si Si7 0.595983 0.563944 0.413720
Si Si8 0.253489 0.158540 0.408359
O O1 0.627431 0.036238 0.715874
O O2 0.691776 0.910766 0.523618
O O3 0.500000 0.000000 0.458153
O O4 0.724243 0.058059 0.431117
O O5 0.156594 0.316972 0.769406
O O6 0.096612 0.359803 0.462980
O O7 0.230223 0.233235 0.526072
O O8 0.000260 0.229703 0.597273
O O9 0.758568 0.204987 0.558623
O O10 0.876298 0.139199 0.799091
O O11 0.852006 0.304071 0.781624
O O12 0.398440 0.350555 0.831224
O O13 0.266023 0.474428 0.465812
O O14 0.000000 0.500000 0.476080
O O15 0.136855 0.129775 0.302582
O O16 0.982589 0.092452 0.067656
O O17 0.000000 0.000000 0.326088
O O18 0.500000 0.500000 0.326301
#
# Coordination Sequence:
#
# PCOD8172115 Si02
#       8
#     4   4   4   4   4   4   4   4
#     4  11  25  45  73  99 137 194 240 295 360 444
#     4  12  27  44  69 109 144 184 239 306 360 442
#     4  12  27  45  72 106 144 190 234 307 375 432
#     4  12  23  45  70  99 141 184 237 284 362 434
#     4  11  25  49  74 100 146 197 248 297 369 453
#     4  11  23  43  73 100 138 186 234 299 352 437
#     4  11  25  47  73 107 146 191 251 299 361 449
#     4  12  25  47  70 107 146 178 241 305 368 428
#
# _framework density 21.905515999999999
#
# number of rings (size 3 to 8) (size 9 to 14) (size 15 to 20)
#    0.000    0.500    6.250    0.750    3.500    6.000 
#    6.750    0.000    0.000    0.000    0.000    0.000 
#    0.000    0.000    0.000    0.000    0.000    0.000 
#
# Total GULP energy -396608.037991 kJ/mol
# GULP energy per Si atom -12394.001187 kJ/mol
# Density = 2.185566 g / cm^3
# Si number density = 21.905516 Si / 1000 Ang^3
#
#
#
# Elastic Constant Matrix: (Units=GPa)
#
#
# Indices 1 2 3 4 5 6 
#
# 1 116.4884 42.1940 22.7477 0.0000 0.0000 0.0000
# 2 42.1940 124.0497 57.0757 0.0000 0.0000 0.0000
# 3 22.7477 57.0757 105.8165 0.0000 0.0000 0.0000
# 4 0.0000 0.0000 0.0000 21.0525 0.0000 0.0000
# 5 0.0000 0.0000 0.0000 0.0000 28.5092 0.0000
# 6 0.0000 0.0000 0.0000 0.0000 0.0000 42.3667
#
#
#
# Elastic Compliance Matrix: (Units=1/GPa)
#
#
# Indices 1 2 3 4 5 6 
#
# 1 0.009804 -0.003146 -0.000411 0.000000 0.000000 0.000000
# 2 -0.003146 0.011732 -0.005652 0.000000 0.000000 0.000000
# 3 -0.000411 -0.005652 0.012587 0.000000 0.000000 0.000000
# 4 0.000000 0.000000 0.000000 0.047500 0.000000 0.000000
# 5 0.000000 0.000000 0.000000 0.000000 0.035076 0.000000
# 6 0.000000 0.000000 0.000000 0.000000 0.000000 0.023603
#
#
# Mechanical properties :
#
#
# Convention : Reuss Voigt Hill
#
# Bulk Modulus (GPa) = 63.66820 65.59882 64.63351
# Shear Modulus (GPa) = 30.49619 33.34149 31.91884
#
# Velocity S-wave (km/s) = 3.73523 3.90559 3.82136
# Velocity P-wave (km/s) = 6.90873 7.09573 7.00286
#
# Compressibility (1/GPa) = 0.01570643
#
# Stress axis : x y z
#
# Youngs Moduli (GPa) = 101.99687 85.23995 79.44687
#
# Poissons Ratio (x) = 0.26814 0.03264
# Poissons Ratio (y) = 0.32086 0.44900
# Poissons Ratio (z) = 0.04191 0.48174
#
# Static dielectric constant tensor:
#      x y z
#    x 4.343060 0.000000 0.000000 
#    y 0.000000 4.009270 0.000000 
#    z 0.000000 0.000000 3.872510 
# 
# 
# High freq. dielectric constant tensor:
#      x y z
#    x 1.875870 0.000000 0.000000 
#    y 0.000000 1.861100 0.000000 
#    z 0.000000 0.000000 1.860240 
# 
# From -- ./inp_files/3336.got.cif
#   From: 2010.03.12/outbox.cif.g09.slc.cpg/sg34_2_cif.got.tgz:3336.got - 2010.04.14 01:56:33.
