data_PCOD8172035
_publ_section_title
;
Structure prediction by ZEFSAII (Michael W. Deem and Ramdas Pophale) SiO2 
 PCOD8172035
Probable space group: P N N 2
;
_chemical_formula_sum "Si O2"
_cell_formula_units_Z 32
_cell_length_a 10.593524
_cell_length_b 9.307011
_cell_length_c 15.433522
_cell_angle_alpha 90.000000
_cell_angle_beta 90.000000
_cell_angle_gamma 90.000000
_cell_volume 1521.653353
_symmetry_space_group_name_H-M "P N N 2"
_symmetry_group_IT_number 34
_symmetry_cell_setting 'orthorhombic'
loop_
_space_group_symop_operation_xyz
x,y,z
-x,-y,z
1/2-x,1/2+y,1/2+z
1/2+x,1/2-y,1/2+z
loop_
_atom_site_type_symbol
_atom_site_label
_atom_site_fract_x
_atom_site_fract_y
_atom_site_fract_z
Si Si1 0.336401 0.339127 0.944260
Si Si2 0.132638 0.940802 0.633375
Si Si3 0.404191 0.289007 0.477938
Si Si4 0.325031 0.593927 0.508918
Si Si5 0.386972 0.113191 0.650388
Si Si6 0.012267 0.834495 0.275955
Si Si7 0.642175 0.954193 0.353868
Si Si8 0.238883 0.173030 0.200201
O O1 0.452268 0.329990 0.877263
O O2 0.221727 0.431576 0.907409
O O3 0.382849 0.416367 0.030974
O O4 0.290594 0.177247 0.964227
O O5 0.155960 0.791750 0.682023
O O6 0.249047 0.043669 0.656517
O O7 0.000000 0.000000 0.669662
O O8 0.310859 0.424097 0.491966
O O9 0.546358 0.346003 0.467582
O O10 0.404401 0.175922 0.555467
O O11 0.351746 0.206173 0.393937
O O12 0.323755 0.615938 0.612154
O O13 0.387670 0.242846 0.720176
O O14 0.500000 0.000000 0.667423
O O15 0.874801 0.763988 0.259816
O O16 0.000000 0.000000 0.243784
O O17 0.694022 0.952663 0.255424
O O18 0.500000 0.000000 0.354805
#
# Coordination Sequence:
#
# PCOD8172035 Si02
#       8
#     4   4   4   4   4   4   4   4
#     4  11  23  41  70  99 137 178 234 284 355 415
#     4  11  25  46  69  99 143 188 229 291 354 421
#     4  11  21  38  68  96 132 179 236 276 344 415
#     4  10  22  43  65  98 136 180 229 289 341 412
#     4  12  22  41  73 102 133 184 238 285 349 425
#     4  12  23  40  72 104 132 178 239 294 346 414
#     4  12  24  40  66 101 138 180 232 288 352 419
#     4  11  24  44  68 100 138 176 236 293 343 418
#
# _framework density 21.029757
#
# number of rings (size 3 to 8) (size 9 to 14) (size 15 to 20)
#    0.000    0.750    6.250    2.250    0.000    2.000 
#    2.250    0.000    0.000    0.000    0.000    0.000 
#    0.000    0.000    0.000    0.000    0.000    0.000 
#
# Total GULP energy -396800.309305 kJ/mol
# GULP energy per Si atom -12400.009666 kJ/mol
# Density = 2.098189 g / cm^3
# Si number density = 21.029757 Si / 1000 Ang^3
#
#
#
# Elastic Constant Matrix: (Units=GPa)
#
#
# Indices 1 2 3 4 5 6 
#
# 1 117.8194 40.4675 38.7497 0.0000 0.0000 0.0000
# 2 40.4675 107.9355 36.6106 0.0000 0.0000 0.0000
# 3 38.7497 36.6106 96.3851 0.0000 0.0000 0.0000
# 4 0.0000 0.0000 0.0000 30.9167 0.0000 0.0000
# 5 0.0000 0.0000 0.0000 0.0000 25.5754 0.0000
# 6 0.0000 0.0000 0.0000 0.0000 0.0000 -7.9534
#
#
#
# Elastic Compliance Matrix: (Units=1/GPa)
#
#
# Indices 1 2 3 4 5 6 
#
# 1 0.010505 -0.002877 -0.003131 0.000000 0.000000 0.000000
# 2 -0.002877 0.011423 -0.003182 0.000000 0.000000 0.000000
# 3 -0.003131 -0.003182 0.012842 0.000000 0.000000 0.000000
# 4 0.000000 0.000000 0.000000 0.032345 0.000000 0.000000
# 5 0.000000 0.000000 0.000000 0.000000 0.039100 0.000000
# 6 0.000000 0.000000 0.000000 0.000000 0.000000 -0.125732
#
#
# Mechanical properties :
#
#
# Convention : Reuss Voigt Hill
#
# Bulk Modulus (GPa) = 61.00910 61.53283 61.27097
# Shear Modulus (GPa) = 1155.52064 23.46188 589.49126
#
# Velocity S-wave (km/s) = 23.46619 3.34376 16.76071
# Velocity P-wave (km/s) = 27.62770 6.65064 20.09379
#
# Compressibility (1/GPa) = 0.01639100
#
# Stress axis : x y z
#
# Youngs Moduli (GPa) = 95.18977 87.54462 77.86681
#
# Poissons Ratio (x) = 0.25185 0.24378
# Poissons Ratio (y) = 0.27384 0.24779
# Poissons Ratio (z) = 0.29802 0.27859
#
# Static dielectric constant tensor:
#      x y z
#    x 3.787220 0.000000 0.000000 
#    y 0.000000 4.023290 0.000000 
#    z 0.000000 0.000000 3.866030 
# 
# 
# High freq. dielectric constant tensor:
#      x y z
#    x 1.818530 0.000000 0.000000 
#    y 0.000000 1.828400 0.000000 
#    z 0.000000 0.000000 1.822350 
# 
# From -- ./inp_files/6836.got.cif
#   From: 2010.03.12/outbox.cif.g09.slc.cpg/sg34_4_cif.got.tgz:6836.got - 2010.04.14 01:56:33.
