data_PCOD8172517
_publ_section_title
;
Structure prediction by ZEFSAII (Michael W. Deem and Ramdas Pophale) SiO2 
 PCOD8172517
Probable space group: C M M 2
;
_chemical_formula_sum "Si O2"
_cell_formula_units_Z 64
_cell_length_a 27.516607
_cell_length_b 14.560658
_cell_length_c 9.326325
_cell_angle_alpha 90.000000
_cell_angle_beta 90.000000
_cell_angle_gamma 90.000000
_cell_volume 3736.684478
_symmetry_space_group_name_H-M "C M M 2"
_symmetry_group_IT_number 35
_symmetry_cell_setting 'orthorhombic'
loop_
_space_group_symop_operation_xyz
x,y,z
-x,-y,z
-x,y,z
x,-y,z
1/2+x,1/2+y,z
1/2-x,1/2-y,z
1/2-x,1/2+y,z
1/2+x,1/2-y,z
loop_
_atom_site_type_symbol
_atom_site_label
_atom_site_fract_x
_atom_site_fract_y
_atom_site_fract_z
Si Si1 0.362778 0.310550 0.575920
Si Si2 0.443697 0.605111 0.074700
Si Si3 0.182917 0.397326 0.899484
Si Si4 0.556085 0.604628 0.406404
Si Si5 0.787156 0.330886 0.607289
Si Si6 0.862857 0.794507 0.903324
Si Si7 0.778888 0.892961 0.069532
Si Si8 0.717136 0.603063 0.384234
O O1 0.415174 0.321290 0.502230
O O2 0.340234 0.208526 0.563482
O O3 0.367181 0.334891 0.743126
O O4 0.327179 0.378216 0.490315
O O5 0.500000 0.628572 0.046784
O O6 0.432791 0.500000 0.028508
O O7 0.430167 0.617848 0.240745
O O8 0.411341 0.676365 0.986341
O O9 0.160325 0.500000 0.922314
O O10 0.208156 0.397959 0.742328
O O11 0.142113 0.317100 0.907285
O O12 0.223663 0.377917 0.018831
O O13 0.500000 0.626021 0.432236
O O14 0.568213 0.500000 0.453433
O O15 0.750000 0.250000 0.652841
O O16 0.767780 0.379627 0.465116
O O17 0.814646 0.837597 0.967834
O O18 0.784337 0.847472 0.229002
O O19 0.793353 0.000000 0.060465
O O20 0.715030 0.500000 0.335506
#
# Coordination Sequence:
#
# PCOD8172517 Si02
#       8
#     8   8   8   8   8   8   8   8
#     4  10  20  30  43  68  94 122 158 193 231 276
#     4   9  19  35  53  74 100 128 156 188 232 287
#     4  10  20  34  49  66  94 129 166 205 242 278
#     4   9  18  33  51  71  97 126 153 183 225 280
#     4   9  18  31  46  66  92 125 162 198 238 280
#     4  11  21  32  49  72  98 127 163 199 239 285
#     4  10  20  31  46  71 100 132 164 195 235 283
#     4  10  19  30  45  67  96 127 160 193 230 281
#
# _framework density 17.127483000000002
#
# number of rings (size 3 to 8) (size 9 to 14) (size 15 to 20)
#    0.000    2.250    0.000    5.250    0.000    9.500 
#    0.000    1.250    0.000    0.375    0.000    0.000 
#    0.000    6.500    0.000    0.000    0.000    0.000 
#
# Total GULP energy -396598.837807 kJ/mol
# GULP energy per Si atom -12393.713681 kJ/mol
# Density = 1.708850 g / cm^3
# Si number density = 17.127483 Si / 1000 Ang^3
#
#
#
# Elastic Constant Matrix: (Units=GPa)
#
#
# Indices 1 2 3 4 5 6 
#
# 1 77.1658 38.5753 52.8274 0.0000 0.0000 0.0000
# 2 38.5753 74.7762 39.9636 0.0000 0.0000 0.0000
# 3 52.8274 39.9636 116.8462 0.0000 0.0000 0.0000
# 4 0.0000 0.0000 0.0000 21.1113 0.0000 0.0000
# 5 0.0000 0.0000 0.0000 0.0000 34.2214 0.0000
# 6 0.0000 0.0000 0.0000 0.0000 0.0000 24.7837
#
#
#
# Elastic Compliance Matrix: (Units=1/GPa)
#
#
# Indices 1 2 3 4 5 6 
#
# 1 0.021552 -0.007233 -0.007270 0.000000 0.000000 0.000000
# 2 -0.007233 0.018792 -0.003157 0.000000 0.000000 0.000000
# 3 -0.007270 -0.003157 0.012925 0.000000 0.000000 0.000000
# 4 0.000000 0.000000 0.000000 0.047368 0.000000 0.000000
# 5 0.000000 0.000000 0.000000 0.000000 0.029221 0.000000
# 6 0.000000 0.000000 0.000000 0.000000 0.000000 0.040349
#
#
# Mechanical properties :
#
#
# Convention : Reuss Voigt Hill
#
# Bulk Modulus (GPa) = 55.71439 59.05785 57.38612
# Shear Modulus (GPa) = 23.63956 25.18473 24.41215
#
# Velocity S-wave (km/s) = 3.71915 3.83878 3.77944
# Velocity P-wave (km/s) = 7.14441 7.36237 7.25421
#
# Compressibility (1/GPa) = 0.01794868
#
# Stress axis : x y z
#
# Youngs Moduli (GPa) = 46.39983 53.21497 77.36968
#
# Poissons Ratio (x) = 0.38488 0.56249
# Poissons Ratio (y) = 0.33559 0.24427
# Poissons Ratio (z) = 0.33733 0.16801
#
# Static dielectric constant tensor:
#      x y z
#    x 2.128400 0.000000 0.000000 
#    y 0.000000 3.142240 0.000000 
#    z 0.000000 0.000000 3.386810 
# 
# 
# High freq. dielectric constant tensor:
#      x y z
#    x 1.637540 0.000000 0.000000 
#    y 0.000000 1.641170 0.000000 
#    z 0.000000 0.000000 1.677360 
# 
# From -- ./inp_files/10683.got.cif
#   From: 2010.03.12/outbox.cif.g09.slc.cpg/sg35_6_cif.got.tgz:10683.got - 2010.04.14 02:02:04.
