data_PCOD8172987
_publ_section_title
;
Structure prediction by ZEFSAII (Michael W. Deem and Ramdas Pophale) SiO2 
 PCOD8172987
Probable space group: C M M 2
;
_chemical_formula_sum "Si O2"
_cell_formula_units_Z 56
_cell_length_a 30.210558
_cell_length_b 9.073277
_cell_length_c 12.615500
_cell_angle_alpha 90.000000
_cell_angle_beta 90.000000
_cell_angle_gamma 90.000000
_cell_volume 3458.019075
_symmetry_space_group_name_H-M "C M M 2"
_symmetry_group_IT_number 35
_symmetry_cell_setting 'orthorhombic'
loop_
_space_group_symop_operation_xyz
x,y,z
-x,-y,z
-x,y,z
x,-y,z
1/2+x,1/2+y,z
1/2-x,1/2-y,z
1/2-x,1/2+y,z
1/2+x,1/2-y,z
loop_
_atom_site_type_symbol
_atom_site_label
_atom_site_fract_x
_atom_site_fract_y
_atom_site_fract_z
Si Si1 0.111048 0.328185 0.580530
Si Si2 0.611833 0.670704 0.356233
Si Si3 0.209571 0.170837 0.356925
Si Si4 0.052509 0.663041 0.954044
Si Si5 0.448453 0.171233 0.189761
Si Si6 0.947652 0.168629 0.749625
Si Si7 0.290948 0.828217 0.582273
O O1 0.101370 0.500000 0.566135
O O2 0.105971 0.255670 0.465961
O O3 0.074824 0.261566 0.657829
O O4 0.160164 0.302772 0.631738
O O5 0.602641 0.500000 0.379875
O O6 0.661077 0.692323 0.305512
O O7 0.577240 0.728122 0.271579
O O8 0.250000 0.250000 0.291476
O O9 0.207438 0.251625 0.468891
O O10 0.221119 0.000000 0.371358
O O11 0.071434 0.500000 0.928349
O O12 0.069328 0.775380 0.864354
O O13 0.000000 0.655026 0.955054
O O14 0.067901 0.714012 0.071076
O O15 0.500000 0.205841 0.204003
O O16 0.438592 0.000000 0.211929
O O17 0.000000 0.189881 0.738324
O O18 0.933336 0.000000 0.738321
O O19 0.250000 0.750000 0.646810
O O20 0.280292 0.000000 0.571541
#
# Coordination Sequence:
#
# PCOD8172987 Si02
#       7
#     8   8   8   8   8   8   8
#     4  10  20  32  46  65  91 124 157 184 217 268
#     4  10  20  31  44  66  95 123 151 185 225 268
#     4   9  16  26  41  61  85 114 147 182 220 261
#     4   8  15  30  50  68  86 111 147 189 227 264
#     4   9  18  32  49  68  90 119 154 187 220 263
#     4  10  20  32  47  68  92 118 150 188 228 266
#     4   9  16  26  42  63  85 112 146 182 220 261
#
# _framework density 16.194243
#
# number of rings (size 3 to 8) (size 9 to 14) (size 15 to 20)
#    0.000    2.714    0.000    3.857    0.000    5.714 
#    0.000    1.429    0.000    0.000    0.000    1.000 
#    0.000    6.857    0.000    0.000    0.000    0.000 
#
# Total GULP energy -346929.899302 kJ/mol
# GULP energy per Si atom -12390.353546 kJ/mol
# Density = 1.615738 g / cm^3
# Si number density = 16.194243 Si / 1000 Ang^3
#
#
#
# Elastic Constant Matrix: (Units=GPa)
#
#
# Indices 1 2 3 4 5 6 
#
# 1 68.4346 54.7515 41.2257 0.0000 0.0000 0.0000
# 2 54.7515 124.2512 52.6392 0.0000 0.0000 0.0000
# 3 41.2257 52.6392 80.0800 0.0000 0.0000 0.0000
# 4 0.0000 0.0000 0.0000 -11.5596 0.0000 0.0000
# 5 0.0000 0.0000 0.0000 0.0000 -1.5494 0.0000
# 6 0.0000 0.0000 0.0000 0.0000 0.0000 27.3991
#
#
#
# Elastic Compliance Matrix: (Units=1/GPa)
#
#
# Indices 1 2 3 4 5 6 
#
# 1 0.025852 -0.007974 -0.008067 0.000000 0.000000 0.000000
# 2 -0.007974 0.013614 -0.004844 0.000000 0.000000 0.000000
# 3 -0.008067 -0.004844 0.019825 0.000000 0.000000 0.000000
# 4 0.000000 0.000000 0.000000 -0.086508 0.000000 0.000000
# 5 0.000000 0.000000 0.000000 0.000000 -0.645398 0.000000
# 6 0.000000 0.000000 0.000000 0.000000 0.000000 0.036497
#
#
# Mechanical properties :
#
#
# Convention : Reuss Voigt Hill
#
# Bulk Modulus (GPa) = 57.07622 63.33319 60.20471
# Shear Modulus (GPa) = -8.49606 11.13465 1.31929
#
# Velocity S-wave (km/s) = -2.29298 2.62500 0.90357
# Velocity P-wave (km/s) = 5.32080 6.95563 6.19241
#
# Compressibility (1/GPa) = 0.01752043
#
# Stress axis : x y z
#
# Youngs Moduli (GPa) = 38.68193 73.45313 50.44234
#
# Poissons Ratio (x) = 0.58572 0.40692
# Poissons Ratio (y) = 0.30845 0.24434
# Poissons Ratio (z) = 0.31205 0.35580
#
# Static dielectric constant tensor:
#      x y z
#    x 3.691730 0.000000 0.000000 
#    y 0.000000 3.390090 0.000000 
#    z 0.000000 0.000000 2.836810 
# 
# 
# High freq. dielectric constant tensor:
#      x y z
#    x 1.619860 0.000000 0.000000 
#    y 0.000000 1.639690 0.000000 
#    z 0.000000 0.000000 1.580800 
# 
# From -- ./inp_files/17695.got.cif
#   From: 2010.03.12/outbox.cif.g09.slc.cpg/sg35_9_cif.got.tgz:17695.got - 2010.04.14 02:02:04.
