data_PCOD8172046
_publ_section_title
;
Structure prediction by ZEFSAII (Michael W. Deem and Ramdas Pophale) SiO2 
 PCOD8172046
Probable space group: P N N 2
;
_chemical_formula_sum "Si O2"
_cell_formula_units_Z 30
_cell_length_a 9.114349
_cell_length_b 15.392284
_cell_length_c 10.510488
_cell_angle_alpha 90.000000
_cell_angle_beta 90.000000
_cell_angle_gamma 90.000000
_cell_volume 1474.523175
_symmetry_space_group_name_H-M "P N N 2"
_symmetry_group_IT_number 34
_symmetry_cell_setting 'orthorhombic'
loop_
_space_group_symop_operation_xyz
x,y,z
-x,-y,z
1/2-x,1/2+y,1/2+z
1/2+x,1/2-y,1/2+z
loop_
_atom_site_type_symbol
_atom_site_label
_atom_site_fract_x
_atom_site_fract_y
_atom_site_fract_z
Si Si1 0.312368 0.695426 0.523830
Si Si2 0.667904 0.338775 0.233844
Si Si3 0.000000 0.000000 0.816293
Si Si4 0.153434 0.031728 0.189436
Si Si5 0.928921 0.292600 0.072936
Si Si6 0.481896 0.813638 0.091955
Si Si7 0.919810 0.413956 0.835112
Si Si8 0.293291 0.389501 0.503312
O O1 0.349899 0.698708 0.374791
O O2 0.369603 0.603876 0.579476
O O3 0.395431 0.776301 0.596113
O O4 0.139299 0.706393 0.534057
O O5 0.597073 0.435289 0.228713
O O6 0.840598 0.336567 0.190185
O O7 0.583953 0.278464 0.133919
O O8 0.121734 0.943753 0.894603
O O9 0.250540 0.067548 0.303169
O O10 0.229995 0.949306 0.126172
O O11 0.000000 0.000000 0.247648
O O12 0.882957 0.194885 0.040273
O O13 0.907845 0.348460 0.948914
O O14 0.495912 0.876362 0.213405
O O15 0.377083 0.857741 0.982608
O O16 0.000000 0.500000 0.883524
#
# Coordination Sequence:
#
# PCOD8172046 Si02
#       8
#     4   4   2   4   4   4   4   4
#     4  11  21  42  67  93 127 165 224 276 324 381
#     4  11  23  44  65  91 131 175 216 267 334 395
#     4  12  20  42  72  92 138 176 218 282 328 394
#     4  11  19  36  68 100 115 164 222 273 311 374
#     4  11  23  43  62  93 130 172 212 260 343 400
#     4  10  23  39  67  98 123 167 226 275 316 384
#     4  11  22  39  61  89 133 165 206 271 326 382
#     4  11  18  38  68  96 122 167 222 269 315 379
#
# _framework density 20.345559000000002
#
# number of rings (size 3 to 8) (size 9 to 14) (size 15 to 20)
#    0.000    1.067    7.333    0.000    0.000    0.000 
#   15.600    0.000    0.000    0.000    0.000    0.000 
#    0.000    0.000    0.000    0.000    0.000    0.000 
#
# Total GULP energy -371697.487770 kJ/mol
# GULP energy per Si atom -12389.916259 kJ/mol
# Density = 2.029925 g / cm^3
# Si number density = 20.345559 Si / 1000 Ang^3
#
#
#
# Elastic Constant Matrix: (Units=GPa)
#
#
# Indices 1 2 3 4 5 6 
#
# 1 158.9745 59.3899 40.0334 0.0000 0.0000 0.0000
# 2 59.3899 107.0332 43.9282 0.0000 0.0000 0.0000
# 3 40.0334 43.9282 54.4656 0.0000 0.0000 0.0000
# 4 0.0000 0.0000 0.0000 -209.4187 0.0000 0.0000
# 5 0.0000 0.0000 0.0000 0.0000 25.4170 0.0000
# 6 0.0000 0.0000 0.0000 0.0000 0.0000 25.6737
#
#
#
# Elastic Compliance Matrix: (Units=1/GPa)
#
#
# Indices 1 2 3 4 5 6 
#
# 1 0.008383 -0.003173 -0.003603 0.000000 0.000000 0.000000
# 2 -0.003173 0.015167 -0.009900 0.000000 0.000000 0.000000
# 3 -0.003603 -0.009900 0.028993 0.000000 0.000000 0.000000
# 4 0.000000 0.000000 0.000000 -0.004775 0.000000 0.000000
# 5 0.000000 0.000000 0.000000 0.000000 0.039344 0.000000
# 6 0.000000 0.000000 0.000000 0.000000 0.000000 0.038950
#
#
# Mechanical properties :
#
#
# Convention : Reuss Voigt Hill
#
# Bulk Modulus (GPa) = 52.10729 67.46403 59.78566
# Shear Modulus (GPa) = 30.15501 -19.85749 5.14876
#
# Velocity S-wave (km/s) = 3.85404 -3.12751 1.59253
# Velocity P-wave (km/s) = 6.74326 4.49326 5.72979
#
# Compressibility (1/GPa) = 0.01919117
#
# Stress axis : x y z
#
# Youngs Moduli (GPa) = 119.29118 65.93411 34.49109
#
# Poissons Ratio (x) = 0.20920 0.12426
# Poissons Ratio (y) = 0.37850 0.34147
# Poissons Ratio (z) = 0.42975 0.65276
#
# Static dielectric constant tensor:
#      x y z
#    x 4.130290 0.000000 0.000000 
#    y 0.000000 4.028930 0.000000 
#    z 0.000000 0.000000 3.301970 
# 
# 
# High freq. dielectric constant tensor:
#      x y z
#    x 1.816930 0.000000 0.000000 
#    y 0.000000 1.802770 0.000000 
#    z 0.000000 0.000000 1.752790 
# 
# From -- ./inp_files/5078.got.cif
#   From: 2010.03.12/outbox.cif.g09.slc.cpg/sg34_3_cif.got.tgz:5078.got - 2010.04.14 01:56:33.
