data_PCOD8172095
_publ_section_title
;
Structure prediction by ZEFSAII (Michael W. Deem and Ramdas Pophale) SiO2 
 PCOD8172095
Probable space group: P N N 2
;
_chemical_formula_sum "Si O2"
_cell_formula_units_Z 32
_cell_length_a 8.851703
_cell_length_b 11.389008
_cell_length_c 15.216158
_cell_angle_alpha 90.000000
_cell_angle_beta 90.000000
_cell_angle_gamma 90.000000
_cell_volume 1533.973090
_symmetry_space_group_name_H-M "P N N 2"
_symmetry_group_IT_number 34
_symmetry_cell_setting 'orthorhombic'
loop_
_space_group_symop_operation_xyz
x,y,z
-x,-y,z
1/2-x,1/2+y,1/2+z
1/2+x,1/2-y,1/2+z
loop_
_atom_site_type_symbol
_atom_site_label
_atom_site_fract_x
_atom_site_fract_y
_atom_site_fract_z
Si Si1 0.151113 0.073762 0.632200
Si Si2 0.282416 0.293021 0.859913
Si Si3 0.393816 0.688593 0.787649
Si Si4 0.413909 0.816954 0.203712
Si Si5 0.279456 0.055403 0.155655
Si Si6 0.825347 0.971351 0.441823
Si Si7 0.163512 0.557359 0.459003
Si Si8 0.331234 0.953962 0.786165
O O1 0.109047 0.210299 0.636992
O O2 0.236093 0.061039 0.538575
O O3 0.260934 0.030086 0.708721
O O4 0.000000 0.000000 0.639752
O O5 0.426663 0.311210 0.797126
O O6 0.133017 0.267112 0.800757
O O7 0.238730 0.411865 0.911227
O O8 0.334790 0.192198 0.927032
O O9 0.367686 0.606908 0.702889
O O10 0.306281 0.635027 0.872599
O O11 0.323990 0.816417 0.767535
O O12 0.583090 0.864394 0.192772
O O13 0.298329 0.920860 0.182281
O O14 0.250162 0.059573 0.051387
O O15 0.000000 0.000000 0.450903
O O16 0.246049 0.481949 0.381561
O O17 0.000000 0.500000 0.480173
O O18 0.500000 0.000000 0.799597
#
# Coordination Sequence:
#
# PCOD8172095 Si02
#       8
#     4   4   4   4   4   4   4   4
#     4  11  23  38  61  88 120 156 197 250 302 361
#     4  11  21  41  65  85 124 156 204 251 299 361
#     4  11  21  39  63  90 120 157 203 254 299 360
#     4  11  22  40  59  88 123 157 200 249 305 356
#     4  11  25  37  65  89 122 161 204 251 304 361
#     4   9  22  34  60  91 112 153 199 244 293 353
#     4  11  21  39  65  93 116 168 208 246 296 373
#     4  11  22  39  62  87 118 158 201 247 301 357
#
# _framework density 20.860861
#
# number of rings (size 3 to 8) (size 9 to 14) (size 15 to 20)
#    0.000    1.250    6.250    0.750    8.750    0.000 
#    0.000    1.250    5.500    0.000    0.000    0.000 
#    0.000    0.000    0.000    0.000    0.000    0.000 
#
# Total GULP energy -396630.846837 kJ/mol
# GULP energy per Si atom -12394.713964 kJ/mol
# Density = 2.081338 g / cm^3
# Si number density = 20.860861 Si / 1000 Ang^3
#
#
#
# Elastic Constant Matrix: (Units=GPa)
#
#
# Indices 1 2 3 4 5 6 
#
# 1 22.8184 9.7894 20.0632 0.0000 0.0000 0.0000
# 2 9.7894 142.7725 24.8503 0.0000 0.0000 0.0000
# 3 20.0632 24.8503 143.9075 0.0000 0.0000 0.0000
# 4 0.0000 0.0000 0.0000 64.7702 0.0000 0.0000
# 5 0.0000 0.0000 0.0000 0.0000 -12.9660 0.0000
# 6 0.0000 0.0000 0.0000 0.0000 0.0000 25.4133
#
#
#
# Elastic Compliance Matrix: (Units=1/GPa)
#
#
# Indices 1 2 3 4 5 6 
#
# 1 0.050678 -0.002315 -0.006666 0.000000 0.000000 0.000000
# 2 -0.002315 0.007327 -0.000943 0.000000 0.000000 0.000000
# 3 -0.006666 -0.000943 0.008041 0.000000 0.000000 0.000000
# 4 0.000000 0.000000 0.000000 0.015439 0.000000 0.000000
# 5 0.000000 0.000000 0.000000 0.000000 -0.077125 0.000000
# 6 0.000000 0.000000 0.000000 0.000000 0.000000 0.039349
#
#
# Mechanical properties :
#
#
# Convention : Reuss Voigt Hill
#
# Bulk Modulus (GPa) = 21.64487 46.54491 34.09489
# Shear Modulus (GPa) = 63.32661 32.42987 47.87824
#
# Velocity S-wave (km/s) = 5.51567 3.94709 4.79594
# Velocity P-wave (km/s) = 7.13875 6.56759 6.85912
#
# Compressibility (1/GPa) = 0.04620032
#
# Stress axis : x y z
#
# Youngs Moduli (GPa) = 19.73234 136.48319 124.36278
#
# Poissons Ratio (x) = 0.31591 0.82897
# Poissons Ratio (y) = 0.04567 0.11722
# Poissons Ratio (z) = 0.13153 0.12864
#
# Static dielectric constant tensor:
#      x y z
#    x 3.464520 0.000000 0.000000 
#    y 0.000000 3.911490 0.000000 
#    z 0.000000 0.000000 4.142900 
# 
# 
# High freq. dielectric constant tensor:
#      x y z
#    x 1.769390 0.000000 0.000000 
#    y 0.000000 1.838830 0.000000 
#    z 0.000000 0.000000 1.827350 
# 
# From -- ./inp_files/6548.got.cif
#   From: 2010.03.12/outbox.cif.g09.slc.cpg/sg34_4_cif.got.tgz:6548.got - 2010.04.14 01:56:33.
