data_PCOD8172359
_publ_section_title
;
Structure prediction by ZEFSAII (Michael W. Deem and Ramdas Pophale) SiO2 
 PCOD8172359
Probable space group: C M M 2
;
_chemical_formula_sum "Si O2"
_cell_formula_units_Z 56
_cell_length_a 19.080690
_cell_length_b 16.603596
_cell_length_c 9.362524
_cell_angle_alpha 90.000000
_cell_angle_beta 90.000000
_cell_angle_gamma 90.000000
_cell_volume 2966.123142
_symmetry_space_group_name_H-M "C M M 2"
_symmetry_group_IT_number 35
_symmetry_cell_setting 'orthorhombic'
loop_
_space_group_symop_operation_xyz
x,y,z
-x,-y,z
-x,y,z
x,-y,z
1/2+x,1/2+y,z
1/2-x,1/2-y,z
1/2-x,1/2+y,z
1/2+x,1/2-y,z
loop_
_atom_site_type_symbol
_atom_site_label
_atom_site_fract_x
_atom_site_fract_y
_atom_site_fract_z
Si Si1 0.920150 0.908208 0.189840
Si Si2 0.421234 0.686669 0.643133
Si Si3 0.189691 0.405500 0.579328
Si Si4 0.580232 0.238218 0.087784
Si Si5 0.421148 0.179453 0.404194
Si Si6 0.673936 0.785685 0.835709
Si Si7 0.332999 0.590851 0.462688
O O1 0.910897 0.836426 0.074580
O O2 0.864943 0.883581 0.311514
O O3 0.000000 0.904154 0.251084
O O4 0.906295 0.000000 0.130536
O O5 0.500000 0.677217 0.698611
O O6 0.413263 0.744414 0.507107
O O7 0.374534 0.715697 0.772971
O O8 0.390756 0.602168 0.587230
O O9 0.194932 0.500000 0.613069
O O10 0.128439 0.390968 0.464002
O O11 0.175852 0.362278 0.731110
O O12 0.260096 0.365950 0.508715
O O13 0.500000 0.214944 0.049145
O O14 0.599514 0.207283 0.245842
O O15 0.634524 0.192127 0.983605
O O16 0.500000 0.145548 0.407894
O O17 0.750000 0.750000 0.868921
O O18 0.310655 0.500000 0.453063
#
# Coordination Sequence:
#
# PCOD8172359 Si02
#       7
#     8   8   8   8   8   8   8
#     4   9  17  31  53  83 119 152 180 221 278 334
#     4  10  18  33  55  81 110 143 183 228 272 326
#     4  10  22  39  58  81 113 146 185 238 289 335
#     4  10  20  36  55  82 114 146 191 236 274 331
#     4   9  19  35  58  82 106 140 187 239 284 328
#     4  11  22  37  55  80 110 153 191 225 277 335
#     4  10  18  30  53  84 114 145 180 222 275 332
#
# _framework density 18.879864000000001
#
# number of rings (size 3 to 8) (size 9 to 14) (size 15 to 20)
#    0.000    2.143    2.857    0.857    0.000    2.857 
#    0.000    2.143    0.000    2.571    0.000    0.000 
#    0.000    0.000    0.000    0.000    0.000    0.000 
#
# Total GULP energy -346948.917127 kJ/mol
# GULP energy per Si atom -12391.032755 kJ/mol
# Density = 1.883689 g / cm^3
# Si number density = 18.879864 Si / 1000 Ang^3
#
#
#
# Elastic Constant Matrix: (Units=GPa)
#
#
# Indices 1 2 3 4 5 6 
#
# 1 128.8656 26.9494 57.1200 0.0000 0.0000 0.0000
# 2 26.9494 46.2482 22.2086 0.0000 0.0000 0.0000
# 3 57.1200 22.2086 92.3543 0.0000 0.0000 0.0000
# 4 0.0000 0.0000 0.0000 23.1057 0.0000 0.0000
# 5 0.0000 0.0000 0.0000 0.0000 37.9233 0.0000
# 6 0.0000 0.0000 0.0000 0.0000 0.0000 23.9571
#
#
#
# Elastic Compliance Matrix: (Units=1/GPa)
#
#
# Indices 1 2 3 4 5 6 
#
# 1 0.011202 -0.003618 -0.006058 0.000000 0.000000 0.000000
# 2 -0.003618 0.025614 -0.003922 0.000000 0.000000 0.000000
# 3 -0.006058 -0.003922 0.015518 0.000000 0.000000 0.000000
# 4 0.000000 0.000000 0.000000 0.043279 0.000000 0.000000
# 5 0.000000 0.000000 0.000000 0.000000 0.026369 0.000000
# 6 0.000000 0.000000 0.000000 0.000000 0.000000 0.041741
#
#
# Mechanical properties :
#
#
# Convention : Reuss Voigt Hill
#
# Bulk Modulus (GPa) = 39.78091 53.33602 46.55847
# Shear Modulus (GPa) = 25.08790 27.74321 26.41555
#
# Velocity S-wave (km/s) = 3.64925 3.83751 3.74456
# Velocity P-wave (km/s) = 6.23477 6.92437 6.58860
#
# Compressibility (1/GPa) = 0.02513768
#
# Stress axis : x y z
#
# Youngs Moduli (GPa) = 89.26936 39.04096 64.44209
#
# Poissons Ratio (x) = 0.14127 0.39040
# Poissons Ratio (y) = 0.32301 0.25271
# Poissons Ratio (z) = 0.54081 0.15310
#
# Static dielectric constant tensor:
#      x y z
#    x 3.797710 0.000000 0.000000 
#    y 0.000000 3.276350 0.000000 
#    z 0.000000 0.000000 3.324540 
# 
# 
# High freq. dielectric constant tensor:
#      x y z
#    x 1.746870 0.000000 0.000000 
#    y 0.000000 1.709990 0.000000 
#    z 0.000000 0.000000 1.718340 
# 
# From -- ./inp_files/9288.got.cif
#   From: 2010.03.12/outbox.cif.g09.slc.cpg/sg35_5_cif.got.tgz:9288.got - 2010.04.14 02:02:04.
