data_PCOD8172819
_publ_section_title
;
Structure prediction by ZEFSAII (Michael W. Deem and Ramdas Pophale) SiO2 
 PCOD8172819
Probable space group: C M M 2
;
_chemical_formula_sum "Si O2"
_cell_formula_units_Z 64
_cell_length_a 8.936104
_cell_length_b 19.004846
_cell_length_c 20.652362
_cell_angle_alpha 90.000000
_cell_angle_beta 90.000000
_cell_angle_gamma 90.000000
_cell_volume 3507.375776
_symmetry_space_group_name_H-M "C M M 2"
_symmetry_group_IT_number 35
_symmetry_cell_setting 'orthorhombic'
loop_
_space_group_symop_operation_xyz
x,y,z
-x,-y,z
-x,y,z
x,-y,z
1/2+x,1/2+y,z
1/2-x,1/2-y,z
1/2-x,1/2+y,z
1/2+x,1/2-y,z
loop_
_atom_site_type_symbol
_atom_site_label
_atom_site_fract_x
_atom_site_fract_y
_atom_site_fract_z
Si Si1 0.677532 0.676211 0.717700
Si Si2 0.176444 0.676317 0.850932
Si Si3 0.176016 0.826261 0.078957
Si Si4 0.326954 0.418991 0.597968
Si Si5 0.672243 0.676817 0.219549
Si Si6 0.673867 0.081026 0.971996
Si Si7 0.827074 0.582496 0.467932
Si Si8 0.824239 0.826178 0.359659
O O1 0.500000 0.683947 0.725995
O O2 0.750000 0.750000 0.698035
O O3 0.749235 0.648977 0.784613
O O4 0.722229 0.621883 0.662029
O O5 0.250000 0.750000 0.872702
O O6 0.000000 0.687668 0.840933
O O7 0.212454 0.618055 0.904384
O O8 0.250000 0.750000 0.067953
O O9 0.215948 0.859083 0.150745
O O10 0.233857 0.883075 0.028768
O O11 0.000000 0.816236 0.069144
O O12 0.500000 0.406495 0.581436
O O13 0.291072 0.500000 0.611718
O O14 0.232247 0.390547 0.537239
O O15 0.500000 0.694655 0.217333
O O16 0.750000 0.750000 0.222779
O O17 0.710125 0.638707 0.288073
O O18 0.500000 0.088800 0.988725
O O19 0.722574 0.000000 0.966371
O O20 0.796485 0.500000 0.460887
O O21 0.738829 0.620053 0.411207
O O22 0.000000 0.601975 0.462428
O O23 0.750000 0.750000 0.367801
O O24 0.000000 0.816858 0.370899
#
# Coordination Sequence:
#
# PCOD8172819 Si02
#       8
#     8   8   8   8   8   8   8   8
#     4  10  20  34  54  79 105 131 163 207 254 302
#     4  10  20  35  55  76 101 134 170 208 251 303
#     4  10  19  33  55  80 104 134 173 214 257 308
#     4   9  19  36  55  74  99 134 173 210 252 303
#     4   8  16  30  49  75 103 131 167 210 256 306
#     4  10  22  38  53  74 106 140 174 214 259 305
#     4  10  21  36  53  75 104 138 177 217 255 303
#     4  10  19  33  54  78 105 136 170 213 262 309
#
# _framework density 18.247260000000001
#
# number of rings (size 3 to 8) (size 9 to 14) (size 15 to 20)
#    0.000    2.375    0.000    3.000    0.000    6.000 
#    0.000    1.875    0.000    3.750    0.000    0.000 
#    0.000    0.000    0.000    0.000    0.000    0.000 
#
# Total GULP energy -396620.049813 kJ/mol
# GULP energy per Si atom -12394.376557 kJ/mol
# Density = 1.820573 g / cm^3
# Si number density = 18.247260 Si / 1000 Ang^3
#
#
#
# Elastic Constant Matrix: (Units=GPa)
#
#
# Indices 1 2 3 4 5 6 
#
# 1 91.7157 49.5760 77.7270 0.0000 0.0000 0.0000
# 2 49.5760 83.5845 84.1648 0.0000 0.0000 0.0000
# 3 77.7270 84.1648 174.7184 0.0000 0.0000 0.0000
# 4 0.0000 0.0000 0.0000 -16.4065 0.0000 0.0000
# 5 0.0000 0.0000 0.0000 0.0000 30.1232 0.0000
# 6 0.0000 0.0000 0.0000 0.0000 0.0000 26.3256
#
#
#
# Elastic Compliance Matrix: (Units=1/GPa)
#
#
# Indices 1 2 3 4 5 6 
#
# 1 0.018616 -0.005248 -0.005754 0.000000 0.000000 0.000000
# 2 -0.005248 0.024713 -0.009570 0.000000 0.000000 0.000000
# 3 -0.005754 -0.009570 0.012893 0.000000 0.000000 0.000000
# 4 0.000000 0.000000 0.000000 -0.060952 0.000000 0.000000
# 5 0.000000 0.000000 0.000000 0.000000 0.033197 0.000000
# 6 0.000000 0.000000 0.000000 0.000000 0.000000 0.037986
#
#
# Mechanical properties :
#
#
# Convention : Reuss Voigt Hill
#
# Bulk Modulus (GPa) = 66.31772 85.88380 76.10076
# Shear Modulus (GPa) = 44.39562 17.24519 30.82040
#
# Velocity S-wave (km/s) = 4.93790 3.07756 4.11426
# Velocity P-wave (km/s) = 8.30261 7.73287 8.02280
#
# Compressibility (1/GPa) = 0.01507893
#
# Stress axis : x y z
#
# Youngs Moduli (GPa) = 53.71670 40.46426 77.56036
#
# Poissons Ratio (x) = 0.21236 0.44626
# Poissons Ratio (y) = 0.28191 0.74226
# Poissons Ratio (z) = 0.30907 0.38724
#
# Static dielectric constant tensor:
#      x y z
#    x 3.481050 0.000000 0.000000 
#    y 0.000000 3.132560 0.000000 
#    z 0.000000 0.000000 3.962430 
# 
# 
# High freq. dielectric constant tensor:
#      x y z
#    x 1.718480 0.000000 0.000000 
#    y 0.000000 1.680820 0.000000 
#    z 0.000000 0.000000 1.729120 
# 
# From -- ./inp_files/18346.got.cif
#   From: 2010.03.12/outbox.cif.g09.slc.cpg/sg35_10_cif.got.tgz:18346.got - 2010.04.14 02:02:04.
