data_PCOD8172378
_publ_section_title
;
Structure prediction by ZEFSAII (Michael W. Deem and Ramdas Pophale) SiO2 
 PCOD8172378
Probable space group: C M M 2
;
_chemical_formula_sum "Si O2"
_cell_formula_units_Z 40
_cell_length_a 14.320847
_cell_length_b 19.507488
_cell_length_c 7.884959
_cell_angle_alpha 90.000000
_cell_angle_beta 90.000000
_cell_angle_gamma 90.000000
_cell_volume 2202.771723
_symmetry_space_group_name_H-M "C M M 2"
_symmetry_group_IT_number 35
_symmetry_cell_setting 'orthorhombic'
loop_
_space_group_symop_operation_xyz
x,y,z
-x,-y,z
-x,y,z
x,-y,z
1/2+x,1/2+y,z
1/2-x,1/2-y,z
1/2-x,1/2+y,z
1/2+x,1/2-y,z
loop_
_atom_site_type_symbol
_atom_site_label
_atom_site_fract_x
_atom_site_fract_y
_atom_site_fract_z
Si Si1 0.891300 0.694657 0.861630
Si Si2 0.228480 0.329207 0.543934
Si Si3 0.896516 0.846282 0.976804
Si Si4 0.276240 0.828603 0.174661
Si Si5 0.895448 0.921904 0.644312
O O1 0.841823 0.658373 0.700176
O O2 0.868692 0.776133 0.874176
O O3 0.000000 0.680439 0.841074
O O4 0.855158 0.657503 0.032859
O O5 0.250000 0.250000 0.538294
O O6 0.186325 0.352310 0.359959
O O7 0.323707 0.371516 0.555018
O O8 0.895812 0.908467 0.845437
O O9 0.000000 0.837038 0.058230
O O10 0.821295 0.865269 0.121103
O O11 0.250000 0.750000 0.184022
O O12 0.000000 0.908190 0.572235
O O13 0.864856 0.000000 0.612337
#
# Coordination Sequence:
#
# PCOD8172378 Si02
#       5
#     8   8   8   8   8
#     4  10  18  31  51  77 107 135 173 226 272 310
#     4  11  19  32  55  79 106 143 183 222 270 317
#     4   9  16  31  51  73 106 141 173 215 267 319
#     4   9  18  30  48  77 107 135 176 225 269 318
#     4  10  20  34  54  81 113 146 178 215 266 329
#
# _framework density 18.158939
#
# number of rings (size 3 to 8) (size 9 to 14) (size 15 to 20)
#    0.000    2.200    4.000    0.600    0.000    1.600 
#    0.000    5.000    0.000    3.000    0.000    0.000 
#    0.000    0.000    0.000    0.000    0.000    0.000 
#
# Total GULP energy -247820.001893 kJ/mol
# GULP energy per Si atom -12391.000095 kJ/mol
# Density = 1.811761 g / cm^3
# Si number density = 18.158939 Si / 1000 Ang^3
#
#
#
# Elastic Constant Matrix: (Units=GPa)
#
#
# Indices 1 2 3 4 5 6 
#
# 1 104.4962 41.2750 61.7267 0.0000 0.0000 0.0000
# 2 41.2750 62.5086 20.7265 0.0000 0.0000 0.0000
# 3 61.7267 20.7265 149.3001 0.0000 0.0000 0.0000
# 4 0.0000 0.0000 0.0000 -26.9093 0.0000 0.0000
# 5 0.0000 0.0000 0.0000 0.0000 15.4503 0.0000
# 6 0.0000 0.0000 0.0000 0.0000 0.0000 22.1033
#
#
#
# Elastic Compliance Matrix: (Units=1/GPa)
#
#
# Indices 1 2 3 4 5 6 
#
# 1 0.016383 -0.008986 -0.005526 0.000000 0.000000 0.000000
# 2 -0.008986 0.021698 0.000703 0.000000 0.000000 0.000000
# 3 -0.005526 0.000703 0.008885 0.000000 0.000000 0.000000
# 4 0.000000 0.000000 0.000000 -0.037162 0.000000 0.000000
# 5 0.000000 0.000000 0.000000 0.000000 0.064723 0.000000
# 6 0.000000 0.000000 0.000000 0.000000 0.000000 0.045242
#
#
# Mechanical properties :
#
#
# Convention : Reuss Voigt Hill
#
# Bulk Modulus (GPa) = 51.68351 62.64016 57.16184
# Shear Modulus (GPa) = 32.50182 14.96733 23.73457
#
# Velocity S-wave (km/s) = 4.23525 2.87407 3.61923
# Velocity P-wave (km/s) = 7.24155 6.75160 7.00086
#
# Compressibility (1/GPa) = 0.01934853
#
# Stress axis : x y z
#
# Youngs Moduli (GPa) = 61.03776 46.08697 112.54854
#
# Poissons Ratio (x) = 0.41412 0.62195
# Poissons Ratio (y) = 0.54847 -0.07910
# Poissons Ratio (z) = 0.33730 -0.03239
#
# Static dielectric constant tensor:
#      x y z
#    x 3.469090 0.000000 0.000000 
#    y 0.000000 2.937020 0.000000 
#    z 0.000000 0.000000 3.754460 
# 
# 
# High freq. dielectric constant tensor:
#      x y z
#    x 1.703050 0.000000 0.000000 
#    y 0.000000 1.647870 0.000000 
#    z 0.000000 0.000000 1.704070 
# 
# From -- ./inp_files/6081.got.cif
#   From: 2010.03.12/outbox.cif.g09.slc.cpg/sg35_4_cif.got.tgz:6081.got - 2010.04.14 02:02:04.
