data_PCOD8172243
_publ_section_title
;
Structure prediction by ZEFSAII (Michael W. Deem and Ramdas Pophale) SiO2 
 PCOD8172243
Probable space group: C M M 2
;
_chemical_formula_sum "Si O2"
_cell_formula_units_Z 64
_cell_length_a 29.045146
_cell_length_b 8.864473
_cell_length_c 15.624127
_cell_angle_alpha 90.000000
_cell_angle_beta 90.000000
_cell_angle_gamma 90.000000
_cell_volume 4022.742612
_symmetry_space_group_name_H-M "C M M 2"
_symmetry_group_IT_number 35
_symmetry_cell_setting 'orthorhombic'
loop_
_space_group_symop_operation_xyz
x,y,z
-x,-y,z
-x,y,z
x,-y,z
1/2+x,1/2+y,z
1/2-x,1/2-y,z
1/2-x,1/2+y,z
1/2+x,1/2-y,z
loop_
_atom_site_type_symbol
_atom_site_label
_atom_site_fract_x
_atom_site_fract_y
_atom_site_fract_z
Si Si1 0.799600 0.321889 0.500000
Si Si2 0.699447 0.179496 0.829603
Si Si3 0.700363 0.325011 0.185587
Si Si4 0.449704 0.178943 0.407025
Si Si5 0.299301 0.324623 0.996274
Si Si6 0.854798 0.320680 0.664463
Si Si7 0.356001 0.821952 0.332888
Si Si8 0.050198 0.679520 0.599675
O O1 0.794416 0.500000 0.505016
O O2 0.750000 0.250000 0.495793
O O3 0.826108 0.259312 0.583393
O O4 0.827104 0.272611 0.415679
O O5 0.750000 0.250000 0.818745
O O6 0.675135 0.239674 0.917549
O O7 0.667949 0.238793 0.751774
O O8 0.703175 0.000000 0.831253
O O9 0.707808 0.500000 0.204720
O O10 0.750000 0.250000 0.198313
O O11 0.663114 0.258183 0.249353
O O12 0.678697 0.300092 0.090252
O O13 0.500000 0.230592 0.371509
O O14 0.408569 0.236268 0.346024
O O15 0.442791 0.241291 0.503251
O O16 0.447017 0.000000 0.411668
O O17 0.294978 0.500000 0.973282
O O18 0.250000 0.250000 0.002121
O O19 0.854365 0.500000 0.662861
O O20 0.907649 0.260346 0.658225
O O21 0.353546 0.000000 0.318538
O O22 0.051396 0.500000 0.597509
O O23 0.000000 0.733947 0.634988
#
# Coordination Sequence:
#
# PCOD8172243 Si02
#       8
#     8   8   8   8   8   8   8   8
#     4  10  19  29  39  55  85 120 149 172 200 242
#     4  10  18  27  42  62  87 115 143 176 211 250
#     4  10  20  32  46  64  87 115 146 181 219 261
#     4   8  13  23  41  64  87 112 145 183 220 255
#     4   9  17  30  46  62  82 108 141 180 218 255
#     4   9  16  26  38  58  87 115 142 173 209 249
#     4  10  18  28  44  65  89 117 146 180 216 254
#     4   8  12  21  39  60  83 111 142 177 215 252
#
# _framework density 15.909544
#
# number of rings (size 3 to 8) (size 9 to 14) (size 15 to 20)
#    0.000    2.750    1.250    3.375    0.000    3.000 
#    0.000    0.625    0.000    0.375    0.000    0.875 
#    0.000    9.500    0.000    0.000    0.000    0.000 
#
# Total GULP energy -396496.089027 kJ/mol
# GULP energy per Si atom -12390.502782 kJ/mol
# Density = 1.587333 g / cm^3
# Si number density = 15.909544 Si / 1000 Ang^3
#
#
#
# Elastic Constant Matrix: (Units=GPa)
#
#
# Indices 1 2 3 4 5 6 
#
# 1 131.0489 27.8348 71.5489 0.0000 0.0000 0.0000
# 2 27.8348 39.2177 36.3015 0.0000 0.0000 0.0000
# 3 71.5489 36.3015 133.8079 0.0000 0.0000 0.0000
# 4 0.0000 0.0000 0.0000 19.9616 0.0000 0.0000
# 5 0.0000 0.0000 0.0000 0.0000 15.8228 0.0000
# 6 0.0000 0.0000 0.0000 0.0000 0.0000 13.5239
#
#
#
# Elastic Compliance Matrix: (Units=1/GPa)
#
#
# Indices 1 2 3 4 5 6 
#
# 1 0.011065 -0.003174 -0.005056 0.000000 0.000000 0.000000
# 2 -0.003174 0.034960 -0.007787 0.000000 0.000000 0.000000
# 3 -0.005056 -0.007787 0.012289 0.000000 0.000000 0.000000
# 4 0.000000 0.000000 0.000000 0.050096 0.000000 0.000000
# 5 0.000000 0.000000 0.000000 0.000000 0.063200 0.000000
# 6 0.000000 0.000000 0.000000 0.000000 0.000000 0.073943
#
#
# Mechanical properties :
#
#
# Convention : Reuss Voigt Hill
#
# Bulk Modulus (GPa) = 38.05091 63.93833 50.99462
# Shear Modulus (GPa) = 17.46135 21.08762 19.27449
#
# Velocity S-wave (km/s) = 3.31651 3.64465 3.48444
# Velocity P-wave (km/s) = 6.21567 7.61493 6.95060
#
# Compressibility (1/GPa) = 0.02628058
#
# Stress axis : x y z
#
# Youngs Moduli (GPa) = 90.37451 28.60452 81.37105
#
# Poissons Ratio (x) = 0.09078 0.41138
# Poissons Ratio (y) = 0.28682 0.63366
# Poissons Ratio (z) = 0.45690 0.22275
#
# Static dielectric constant tensor:
#      x y z
#    x 3.169920 0.000000 0.000000 
#    y 0.000000 2.750530 0.000000 
#    z 0.000000 0.000000 3.480910 
# 
# 
# High freq. dielectric constant tensor:
#      x y z
#    x 1.595330 0.000000 0.000000 
#    y 0.000000 1.584550 0.000000 
#    z 0.000000 0.000000 1.606430 
# 
# From -- ./inp_files/16253.got.cif
#   From: 2010.03.12/outbox.cif.g09.slc.cpg/sg35_9_cif.got.tgz:16253.got - 2010.04.14 02:02:04.
