data_PCOD8172937
_publ_section_title
;
Structure prediction by ZEFSAII (Michael W. Deem and Ramdas Pophale) SiO2 
 PCOD8172937
Probable space group: C M M 2
;
_chemical_formula_sum "Si O2"
_cell_formula_units_Z 48
_cell_length_a 16.343882
_cell_length_b 12.767029
_cell_length_c 11.823114
_cell_angle_alpha 90.000000
_cell_angle_beta 90.000000
_cell_angle_gamma 90.000000
_cell_volume 2467.044255
_symmetry_space_group_name_H-M "C M M 2"
_symmetry_group_IT_number 35
_symmetry_cell_setting 'orthorhombic'
loop_
_space_group_symop_operation_xyz
x,y,z
-x,-y,z
-x,y,z
x,-y,z
1/2+x,1/2+y,z
1/2-x,1/2-y,z
1/2-x,1/2+y,z
1/2+x,1/2-y,z
loop_
_atom_site_type_symbol
_atom_site_label
_atom_site_fract_x
_atom_site_fract_y
_atom_site_fract_z
Si Si1 0.902702 0.116833 0.557110
Si Si2 0.159335 0.708302 0.952155
Si Si3 0.094447 0.886637 0.806541
Si Si4 0.096864 0.500000 0.573126
Si Si5 0.098409 0.500000 0.833225
Si Si6 0.403262 0.121532 0.177258
Si Si7 0.402418 0.811580 0.423017
O O1 0.869303 0.145918 0.683167
O O2 0.867894 0.199531 0.465517
O O3 0.000000 0.124278 0.554289
O O4 0.873370 0.000000 0.523243
O O5 0.250000 0.750000 0.931987
O O6 0.103557 0.799934 0.902311
O O7 0.139771 0.601214 0.887750
O O8 0.141436 0.692387 0.084098
O O9 0.000000 0.903653 0.785011
O O10 0.132126 0.000000 0.844350
O O11 0.123896 0.500000 0.702817
O O12 0.132128 0.601969 0.510058
O O13 0.000000 0.500000 0.565344
O O14 0.000000 0.500000 0.853379
O O15 0.500000 0.135365 0.163835
O O16 0.370689 0.163830 0.297241
O O17 0.379082 0.000000 0.162735
O O18 0.500000 0.815499 0.422150
#
# Coordination Sequence:
#
# PCOD8172937 Si02
#       7
#     8   8   8   4   4   8   8
#     4   8  14  26  47  77 111 144 177 224 287 349
#     4  12  25  37  57  83 117 158 196 247 295 345
#     4   9  18  34  57  83 114 151 190 234 289 357
#     4   9  16  27  53  93 119 135 179 254 308 340
#     4  11  22  39  65  93 120 153 201 250 299 364
#     4  10  19  35  58  83 111 149 198 249 297 345
#     4   9  15  26  49  83 115 137 179 247 301 337
#
# _framework density 19.456482000000001
#
# number of rings (size 3 to 8) (size 9 to 14) (size 15 to 20)
#    0.000    2.333    1.667    3.500    1.167    2.667 
#    0.000    0.833    0.000    7.000    0.000    0.000 
#    0.000    0.000    0.000    0.000    0.000    0.000 
#
# Total GULP energy -297445.315982 kJ/mol
# GULP energy per Si atom -12393.554833 kJ/mol
# Density = 1.941220 g / cm^3
# Si number density = 19.456482 Si / 1000 Ang^3
#
#
#
# Elastic Constant Matrix: (Units=GPa)
#
#
# Indices 1 2 3 4 5 6 
#
# 1 33.4203 25.6202 24.3852 0.0000 0.0000 0.0000
# 2 25.6202 166.5498 93.6196 0.0000 0.0000 0.0000
# 3 24.3852 93.6196 163.0624 0.0000 0.0000 0.0000
# 4 0.0000 0.0000 0.0000 149.1052 0.0000 0.0000
# 5 0.0000 0.0000 0.0000 0.0000 1.7690 0.0000
# 6 0.0000 0.0000 0.0000 0.0000 0.0000 18.9192
#
#
#
# Elastic Compliance Matrix: (Units=1/GPa)
#
#
# Indices 1 2 3 4 5 6 
#
# 1 0.034994 -0.003605 -0.003164 0.000000 0.000000 0.000000
# 2 -0.003605 0.009237 -0.004764 0.000000 0.000000 0.000000
# 3 -0.003164 -0.004764 0.009341 0.000000 0.000000 0.000000
# 4 0.000000 0.000000 0.000000 0.006707 0.000000 0.000000
# 5 0.000000 0.000000 0.000000 0.000000 0.565284 0.000000
# 6 0.000000 0.000000 0.000000 0.000000 0.000000 0.052856
#
#
# Mechanical properties :
#
#
# Convention : Reuss Voigt Hill
#
# Bulk Modulus (GPa) = 32.77977 72.25362 52.51670
# Shear Modulus (GPa) = 7.02591 48.58586 27.80588
#
# Velocity S-wave (km/s) = 1.90235 5.00258 3.78449
# Velocity P-wave (km/s) = 4.65935 8.40145 6.79315
#
# Compressibility (1/GPa) = 0.03050662
#
# Stress axis : x y z
#
# Youngs Moduli (GPa) = 28.57655 108.26477 107.05649
#
# Poissons Ratio (x) = 0.39027 0.33867
# Poissons Ratio (y) = 0.10301 0.51001
# Poissons Ratio (z) = 0.09040 0.51577
#
# Static dielectric constant tensor:
#      x y z
#    x 3.011780 0.000000 0.000000 
#    y 0.000000 3.890780 0.000000 
#    z 0.000000 0.000000 3.727090 
# 
# 
# High freq. dielectric constant tensor:
#      x y z
#    x 1.704790 0.000000 0.000000 
#    y 0.000000 1.771530 0.000000 
#    z 0.000000 0.000000 1.761800 
# 
# From -- ./inp_files/13873.got.cif
#   From: 2010.03.12/outbox.cif.g09.slc.cpg/sg35_7_cif.got.tgz:13873.got - 2010.04.14 02:02:04.
