data_PCOD8172520
_publ_section_title
;
Structure prediction by ZEFSAII (Michael W. Deem and Ramdas Pophale) SiO2 
 PCOD8172520
Probable space group: C M M 2
;
_chemical_formula_sum "Si O2"
_cell_formula_units_Z 64
_cell_length_a 31.398935
_cell_length_b 22.262988
_cell_length_c 5.176385
_cell_angle_alpha 90.000000
_cell_angle_beta 90.000000
_cell_angle_gamma 90.000000
_cell_volume 3618.469698
_symmetry_space_group_name_H-M "C M M 2"
_symmetry_group_IT_number 35
_symmetry_cell_setting 'orthorhombic'
loop_
_space_group_symop_operation_xyz
x,y,z
-x,-y,z
-x,y,z
x,-y,z
1/2+x,1/2+y,z
1/2-x,1/2-y,z
1/2-x,1/2+y,z
1/2+x,1/2-y,z
loop_
_atom_site_type_symbol
_atom_site_label
_atom_site_fract_x
_atom_site_fract_y
_atom_site_fract_z
Si Si1 0.949827 0.874254 0.822640
Si Si2 0.550323 0.832848 0.276776
Si Si3 0.411245 0.429456 0.323086
Si Si4 0.949766 0.260732 0.781323
Si Si5 0.829902 0.428969 0.808361
Si Si6 0.314603 0.571427 0.294776
Si Si7 0.118711 0.429017 0.310548
Si Si8 0.734331 0.428227 0.794262
O O1 0.927433 0.916087 0.611085
O O2 0.931693 0.806784 0.791177
O O3 0.000000 0.877189 0.775902
O O4 0.940024 0.896503 0.111071
O O5 0.500000 0.845247 0.273086
O O6 0.564278 0.791371 0.515575
O O7 0.572908 0.897293 0.297685
O O8 0.567338 0.799572 0.021216
O O9 0.414181 0.500000 0.272553
O O10 0.363030 0.405693 0.296762
O O11 0.000000 0.257234 0.806208
O O12 0.826581 0.500000 0.796908
O O13 0.856768 0.406137 0.564285
O O14 0.782260 0.402068 0.799462
O O15 0.852751 0.408332 0.069574
O O16 0.313742 0.500000 0.300603
O O17 0.289576 0.596904 0.542369
O O18 0.291115 0.596438 0.041527
O O19 0.110101 0.500000 0.312102
O O20 0.735045 0.500000 0.795450
#
# Coordination Sequence:
#
# PCOD8172520 Si02
#       8
#     8   8   8   8   8   8   8   8
#     4  11  22  36  53  71  97 132 168 205 241 282
#     4  10  19  33  52  71  96 129 165 205 244 283
#     4  11  22  34  49  74 107 134 158 194 241 296
#     4   9  19  35  53  71  89 119 168 219 251 267
#     4   9  17  28  43  66  98 132 161 193 233 284
#     4   9  17  28  43  65  94 126 157 192 232 280
#     4  10  19  30  45  71 106 134 157 192 240 295
#     4   9  15  26  44  63  89 128 164 190 228 281
#
# _framework density 17.687035000000002
#
# number of rings (size 3 to 8) (size 9 to 14) (size 15 to 20)
#    0.000    2.250    0.000    3.750    0.000    8.750 
#    0.000    0.000    0.000    4.500    0.000    0.000 
#    0.000   70.000    0.000    0.000    0.000    0.000 
#
# Total GULP energy -396833.160302 kJ/mol
# GULP energy per Si atom -12401.036259 kJ/mol
# Density = 1.764678 g / cm^3
# Si number density = 17.687035 Si / 1000 Ang^3
#
#
#
# Elastic Constant Matrix: (Units=GPa)
#
#
# Indices 1 2 3 4 5 6 
#
# 1 93.0076 31.4400 31.9638 0.0000 0.0000 0.0000
# 2 31.4400 47.6052 11.8090 0.0000 0.0000 0.0000
# 3 31.9638 11.8090 114.7493 0.0000 0.0000 0.0000
# 4 0.0000 0.0000 0.0000 17.1546 0.0000 0.0000
# 5 0.0000 0.0000 0.0000 0.0000 25.6241 0.0000
# 6 0.0000 0.0000 0.0000 0.0000 0.0000 3.7597
#
#
#
# Elastic Compliance Matrix: (Units=1/GPa)
#
#
# Indices 1 2 3 4 5 6 
#
# 1 0.014921 -0.009054 -0.003224 0.000000 0.000000 0.000000
# 2 -0.009054 0.027051 -0.000262 0.000000 0.000000 0.000000
# 3 -0.003224 -0.000262 0.009640 0.000000 0.000000 0.000000
# 4 0.000000 0.000000 0.000000 0.058293 0.000000 0.000000
# 5 0.000000 0.000000 0.000000 0.000000 0.039026 0.000000
# 6 0.000000 0.000000 0.000000 0.000000 0.000000 0.265982
#
#
# Mechanical properties :
#
#
# Convention : Reuss Voigt Hill
#
# Bulk Modulus (GPa) = 37.69263 45.08752 41.39008
# Shear Modulus (GPa) = 11.13991 21.31761 16.22876
#
# Velocity S-wave (km/s) = 2.51237 3.47546 3.03240
# Velocity P-wave (km/s) = 5.45648 6.45386 5.97601
#
# Compressibility (1/GPa) = 0.02653039
#
# Stress axis : x y z
#
# Youngs Moduli (GPa) = 67.02153 36.96755 103.73708
#
# Poissons Ratio (x) = 0.33471 0.33449
# Poissons Ratio (y) = 0.60683 0.02715
# Poissons Ratio (z) = 0.21610 0.00968
#
# Static dielectric constant tensor:
#      x y z
#    x 3.290420 0.000000 0.000000 
#    y 0.000000 2.913790 0.000000 
#    z 0.000000 0.000000 3.546270 
# 
# 
# High freq. dielectric constant tensor:
#      x y z
#    x 1.680690 0.000000 0.000000 
#    y 0.000000 1.634560 0.000000 
#    z 0.000000 0.000000 1.708010 
# 
# From -- ./inp_files/3802.got.cif
#   From: 2010.03.12/outbox.cif.g09.slc.cpg/sg35_2_cif.got.tgz:3802.got - 2010.04.14 02:02:04.
