data_PCOD8172278
_publ_section_title
;
Structure prediction by ZEFSAII (Michael W. Deem and Ramdas Pophale) SiO2 
 PCOD8172278
Probable space group: C M M 2
;
_chemical_formula_sum "Si O2"
_cell_formula_units_Z 64
_cell_length_a 28.359205
_cell_length_b 9.369096
_cell_length_c 15.527335
_cell_angle_alpha 90.000000
_cell_angle_beta 90.000000
_cell_angle_gamma 90.000000
_cell_volume 4125.614682
_symmetry_space_group_name_H-M "C M M 2"
_symmetry_group_IT_number 35
_symmetry_cell_setting 'orthorhombic'
loop_
_space_group_symop_operation_xyz
x,y,z
-x,-y,z
-x,y,z
x,-y,z
1/2+x,1/2+y,z
1/2-x,1/2-y,z
1/2-x,1/2+y,z
1/2+x,1/2-y,z
loop_
_atom_site_type_symbol
_atom_site_label
_atom_site_fract_x
_atom_site_fract_y
_atom_site_fract_z
Si Si1 0.554269 0.833198 0.789290
Si Si2 0.114402 0.831978 0.280363
Si Si3 0.103742 0.331691 0.962972
Si Si4 0.203422 0.332198 0.224119
Si Si5 0.795307 0.335535 0.023587
Si Si6 0.056125 0.158618 0.627611
Si Si7 0.554539 0.663751 0.112717
Si Si8 0.552381 0.330327 0.439350
O O1 0.500000 0.789851 0.806581
O O2 0.585225 0.781704 0.870070
O O3 0.575111 0.758637 0.703999
O O4 0.559247 0.000000 0.774041
O O5 0.161101 0.737445 0.277013
O O6 0.081930 0.795899 0.199133
O O7 0.087558 0.777682 0.365524
O O8 0.126915 0.000000 0.283962
O O9 0.098076 0.500000 0.976085
O O10 0.158445 0.285919 0.971266
O O11 0.071953 0.259638 0.034866
O O12 0.207715 0.500000 0.244657
O O13 0.250000 0.250000 0.254783
O O14 0.194586 0.303685 0.123395
O O15 0.783848 0.500000 0.007809
O O16 0.750000 0.250000 0.989399
O O17 0.071917 0.217915 0.533566
O O18 0.000000 0.154811 0.628222
O O19 0.076456 0.000000 0.643251
O O20 0.500000 0.695017 0.130452
O O21 0.563336 0.500000 0.087250
O O22 0.500000 0.266692 0.422445
O O23 0.548713 0.500000 0.438078
#
# Coordination Sequence:
#
# PCOD8172278 Si02
#       8
#     8   8   8   8   8   8   8   8
#     4   9  17  28  43  63  88 118 149 181 220 265
#     4  10  18  29  46  67  91 120 152 185 222 264
#     4  10  19  32  46  63  87 120 154 183 220 268
#     4  10  19  32  48  66  88 115 150 190 230 269
#     4   9  18  31  47  64  84 111 146 186 225 264
#     4   8  14  26  44  64  86 114 149 187 222 256
#     4  10  20  30  41  62  92 123 153 183 213 251
#     4   8  14  26  45  67  91 121 154 185 220 265
#
# _framework density 15.512840000000001
#
# number of rings (size 3 to 8) (size 9 to 14) (size 15 to 20)
#    0.000    2.750    1.250    1.875    0.000    3.750 
#    0.000    1.875    0.000    1.875    0.000    0.875 
#    0.000    4.000    0.000    0.000    0.000    0.000 
#
# Total GULP energy -396739.501974 kJ/mol
# GULP energy per Si atom -12398.109437 kJ/mol
# Density = 1.547753 g / cm^3
# Si number density = 15.512840 Si / 1000 Ang^3
#
#
#
# Elastic Constant Matrix: (Units=GPa)
#
#
# Indices 1 2 3 4 5 6 
#
# 1 103.2587 42.1791 61.2832 0.0000 0.0000 0.0000
# 2 42.1791 48.7106 44.4959 0.0000 0.0000 0.0000
# 3 61.2832 44.4959 124.1864 0.0000 0.0000 0.0000
# 4 0.0000 0.0000 0.0000 19.1247 0.0000 0.0000
# 5 0.0000 0.0000 0.0000 0.0000 8.2097 0.0000
# 6 0.0000 0.0000 0.0000 0.0000 0.0000 24.2354
#
#
#
# Elastic Compliance Matrix: (Units=1/GPa)
#
#
# Indices 1 2 3 4 5 6 
#
# 1 0.016519 -0.010194 -0.004499 0.000000 0.000000 0.000000
# 2 -0.010194 0.036808 -0.008158 0.000000 0.000000 0.000000
# 3 -0.004499 -0.008158 0.013196 0.000000 0.000000 0.000000
# 4 0.000000 0.000000 0.000000 0.052288 0.000000 0.000000
# 5 0.000000 0.000000 0.000000 0.000000 0.121807 0.000000
# 6 0.000000 0.000000 0.000000 0.000000 0.000000 0.041262
#
#
# Mechanical properties :
#
#
# Convention : Reuss Voigt Hill
#
# Bulk Modulus (GPa) = 48.02893 63.56357 55.79625
# Shear Modulus (GPa) = 14.94672 18.86048 16.90360
#
# Velocity S-wave (km/s) = 3.10741 3.49061 3.30457
# Velocity P-wave (km/s) = 6.62590 7.57031 7.11380
#
# Compressibility (1/GPa) = 0.02082079
#
# Stress axis : x y z
#
# Youngs Moduli (GPa) = 60.53791 27.16768 75.78261
#
# Poissons Ratio (x) = 0.27694 0.34096
# Poissons Ratio (y) = 0.61711 0.61824
# Poissons Ratio (z) = 0.27237 0.22163
#
# Static dielectric constant tensor:
#      x y z
#    x 2.932960 0.000000 0.000000 
#    y 0.000000 2.901130 0.000000 
#    z 0.000000 0.000000 3.120090 
# 
# 
# High freq. dielectric constant tensor:
#      x y z
#    x 1.578490 0.000000 0.000000 
#    y 0.000000 1.585030 0.000000 
#    z 0.000000 0.000000 1.585650 
# 
# From -- ./inp_files/16196.got.cif
#   From: 2010.03.12/outbox.cif.g09.slc.cpg/sg35_9_cif.got.tgz:16196.got - 2010.04.14 02:02:04.
