data_PCOD8172707
_publ_section_title
;
Structure prediction by ZEFSAII (Michael W. Deem and Ramdas Pophale) SiO2 
 PCOD8172707
Probable space group: C M M 2
;
_chemical_formula_sum "Si O2"
_cell_formula_units_Z 48
_cell_length_a 15.045639
_cell_length_b 8.803383
_cell_length_c 18.996557
_cell_angle_alpha 90.000000
_cell_angle_beta 90.000000
_cell_angle_gamma 90.000000
_cell_volume 2516.141895
_symmetry_space_group_name_H-M "C M M 2"
_symmetry_group_IT_number 35
_symmetry_cell_setting 'orthorhombic'
loop_
_space_group_symop_operation_xyz
x,y,z
-x,-y,z
-x,y,z
x,-y,z
1/2+x,1/2+y,z
1/2-x,1/2-y,z
1/2-x,1/2+y,z
1/2+x,1/2-y,z
loop_
_atom_site_type_symbol
_atom_site_label
_atom_site_fract_x
_atom_site_fract_y
_atom_site_fract_z
Si Si1 0.659651 0.819643 0.095170
Si Si2 0.660345 0.819749 0.794366
Si Si3 0.000000 0.821377 0.179272
Si Si4 0.000000 0.318537 0.541579
Si Si5 0.348393 0.177227 0.438596
Si Si6 0.500000 0.819366 0.699911
Si Si7 0.400960 0.819638 0.944257
Si Si8 0.500000 0.175795 0.327525
O O1 0.750000 0.750000 0.124831
O O2 0.584687 0.753670 0.144297
O O3 0.658964 0.000000 0.100873
O O4 0.648994 0.764069 0.014312
O O5 0.750000 0.750000 0.763976
O O6 0.584827 0.758660 0.742268
O O7 0.645764 0.757053 0.873786
O O8 0.663889 0.000000 0.794093
O O9 0.000000 0.787322 0.261719
O O10 0.000000 0.000000 0.166141
O O11 0.908740 0.261262 0.503981
O O12 0.000000 0.254003 0.620863
O O13 0.000000 0.500000 0.537589
O O14 0.250000 0.250000 0.434583
O O15 0.409127 0.210931 0.370178
O O16 0.331126 0.000000 0.447133
O O17 0.500000 0.000000 0.697596
O O18 0.500000 0.752468 0.946866
O O19 0.405107 0.000000 0.941568
O O20 0.500000 0.000000 0.303834
#
# Coordination Sequence:
#
# PCOD8172707 Si02
#       8
#     8   8   4   4   8   4   8   4
#     4  11  22  38  59  81 109 146 186 233 282 331
#     4  10  19  32  52  76 103 138 182 226 270 320
#     4  12  25  40  58  84 115 146 182 224 272 332
#     4   8  16  32  52  78 109 143 180 213 254 313
#     4   9  18  34  58  83 108 138 176 218 260 311
#     4   9  17  31  52  74 104 147 184 212 254 323
#     4   9  16  31  55  77 100 137 184 229 274 322
#     4   9  20  39  58  78 108 146 178 213 264 320
#
# _framework density 19.076826000000001
#
# number of rings (size 3 to 8) (size 9 to 14) (size 15 to 20)
#    0.000    2.333    1.667    2.750    0.000    2.000 
#    0.000    4.167    0.000    1.000    0.000    0.000 
#    0.000    0.000    0.000    0.000    0.000    0.000 
#
# Total GULP energy -297495.877047 kJ/mol
# GULP energy per Si atom -12395.661544 kJ/mol
# Density = 1.903341 g / cm^3
# Si number density = 19.076826 Si / 1000 Ang^3
#
#
#
# Elastic Constant Matrix: (Units=GPa)
#
#
# Indices 1 2 3 4 5 6 
#
# 1 191.7749 41.7291 71.9213 0.0000 0.0000 0.0000
# 2 41.7291 47.7620 35.5745 0.0000 0.0000 0.0000
# 3 71.9213 35.5745 135.8423 0.0000 0.0000 0.0000
# 4 0.0000 0.0000 0.0000 12.9059 0.0000 0.0000
# 5 0.0000 0.0000 0.0000 0.0000 41.4069 0.0000
# 6 0.0000 0.0000 0.0000 0.0000 0.0000 31.2013
#
#
#
# Elastic Compliance Matrix: (Units=1/GPa)
#
#
# Indices 1 2 3 4 5 6 
#
# 1 0.007140 -0.004252 -0.002667 0.000000 0.000000 0.000000
# 2 -0.004252 0.028543 -0.005224 0.000000 0.000000 0.000000
# 3 -0.002667 -0.005224 0.010141 0.000000 0.000000 0.000000
# 4 0.000000 0.000000 0.000000 0.077484 0.000000 0.000000
# 5 0.000000 0.000000 0.000000 0.000000 0.024151 0.000000
# 6 0.000000 0.000000 0.000000 0.000000 0.000000 0.032050
#
#
# Mechanical properties :
#
#
# Convention : Reuss Voigt Hill
#
# Bulk Modulus (GPa) = 46.42636 74.86988 60.64812
# Shear Modulus (GPa) = 23.69987 32.17978 27.93982
#
# Velocity S-wave (km/s) = 3.52851 4.11159 3.83115
# Velocity P-wave (km/s) = 6.40233 7.86587 7.17153
#
# Compressibility (1/GPa) = 0.02153949
#
# Stress axis : x y z
#
# Youngs Moduli (GPa) = 140.06291 35.03543 98.60654
#
# Poissons Ratio (x) = 0.14896 0.26295
# Poissons Ratio (y) = 0.59550 0.51509
# Poissons Ratio (z) = 0.37350 0.18302
#
# Static dielectric constant tensor:
#      x y z
#    x 3.637970 0.000000 0.000000 
#    y 0.000000 3.070610 0.000000 
#    z 0.000000 0.000000 3.668400 
# 
# 
# High freq. dielectric constant tensor:
#      x y z
#    x 1.756960 0.000000 0.000000 
#    y 0.000000 1.703830 0.000000 
#    z 0.000000 0.000000 1.743910 
# 
# From -- ./inp_files/18833.got.cif
#   From: 2010.03.12/outbox.cif.g09.slc.cpg/sg35_10_cif.got.tgz:18833.got - 2010.04.14 02:02:04.
