data_PCOD8172289
_publ_section_title
;
Structure prediction by ZEFSAII (Michael W. Deem and Ramdas Pophale) SiO2 
 PCOD8172289
Probable space group: C M M 2
;
_chemical_formula_sum "Si O2"
_cell_formula_units_Z 64
_cell_length_a 20.193068
_cell_length_b 19.733547
_cell_length_c 9.559254
_cell_angle_alpha 90.000000
_cell_angle_beta 90.000000
_cell_angle_gamma 90.000000
_cell_volume 3809.179721
_symmetry_space_group_name_H-M "C M M 2"
_symmetry_group_IT_number 35
_symmetry_cell_setting 'orthorhombic'
loop_
_space_group_symop_operation_xyz
x,y,z
-x,-y,z
-x,y,z
x,-y,z
1/2+x,1/2+y,z
1/2-x,1/2-y,z
1/2-x,1/2+y,z
1/2+x,1/2-y,z
loop_
_atom_site_type_symbol
_atom_site_label
_atom_site_fract_x
_atom_site_fract_y
_atom_site_fract_z
Si Si1 0.575179 0.206542 0.551560
Si Si2 0.307594 0.923348 0.786490
Si Si3 0.073496 0.663526 0.861076
Si Si4 0.731698 0.358205 0.013442
Si Si5 0.850255 0.576379 0.483098
Si Si6 0.177069 0.217177 0.377262
Si Si7 0.227708 0.923716 0.297322
Si Si8 0.649777 0.759320 0.077631
O O1 0.500000 0.224645 0.505754
O O2 0.581010 0.206677 0.719133
O O3 0.591976 0.132457 0.484633
O O4 0.628544 0.262799 0.503849
O O5 0.376290 0.898897 0.855045
O O6 0.304511 0.911623 0.620575
O O7 0.300722 0.000000 0.829960
O O8 0.245863 0.885343 0.858106
O O9 0.000000 0.633306 0.874698
O O10 0.086549 0.710640 0.996656
O O11 0.724931 0.417393 0.129114
O O12 0.665981 0.312654 0.003701
O O13 0.789877 0.310716 0.068337
O O14 0.881004 0.500000 0.487728
O O15 0.803617 0.585517 0.348682
O O16 0.250000 0.250000 0.395236
O O17 0.183195 0.135287 0.368482
O O18 0.138490 0.246104 0.241622
O O19 0.202824 0.000000 0.337791
#
# Coordination Sequence:
#
# PCOD8172289 Si02
#       8
#     8   8   8   8   8   8   8   8
#     4  10  20  33  48  70  98 131 166 200 238 285
#     4   9  17  27  42  64  93 126 159 189 224 271
#     4   9  19  32  45  66  96 127 162 196 230 277
#     4   9  15  27  43  65  90 118 153 190 237 276
#     4   9  17  29  44  67  96 129 162 196 232 277
#     4  11  18  33  51  73  98 124 161 203 241 287
#     4  10  18  29  48  71  98 125 154 195 243 285
#     4   9  16  29  46  66  90 122 154 198 237 276
#
# _framework density 16.801517
#
# number of rings (size 3 to 8) (size 9 to 14) (size 15 to 20)
#    0.000    2.500    3.750    0.375    0.000    2.000 
#    2.250    2.500    0.000    0.375    0.000    3.500 
#    0.000    6.500    0.000    0.000    0.000    0.000 
#
# Total GULP energy -396542.501984 kJ/mol
# GULP energy per Si atom -12391.953187 kJ/mol
# Density = 1.676328 g / cm^3
# Si number density = 16.801517 Si / 1000 Ang^3
#
#
#
# Elastic Constant Matrix: (Units=GPa)
#
#
# Indices 1 2 3 4 5 6 
#
# 1 22.7248 5.8569 -4.0036 0.0000 0.0000 0.0000
# 2 5.8569 76.7955 6.4217 0.0000 0.0000 0.0000
# 3 -4.0036 6.4217 18.0338 0.0000 0.0000 0.0000
# 4 0.0000 0.0000 0.0000 21.2479 0.0000 0.0000
# 5 0.0000 0.0000 0.0000 0.0000 16.7070 0.0000
# 6 0.0000 0.0000 0.0000 0.0000 0.0000 17.2445
#
#
#
# Elastic Compliance Matrix: (Units=1/GPa)
#
#
# Indices 1 2 3 4 5 6 
#
# 1 0.047339 -0.004627 0.012157 0.000000 0.000000 0.000000
# 2 -0.004627 0.013873 -0.005967 0.000000 0.000000 0.000000
# 3 0.012157 -0.005967 0.060275 0.000000 0.000000 0.000000
# 4 0.000000 0.000000 0.000000 0.047063 0.000000 0.000000
# 5 0.000000 0.000000 0.000000 0.000000 0.059855 0.000000
# 6 0.000000 0.000000 0.000000 0.000000 0.000000 0.057990
#
#
# Mechanical properties :
#
#
# Convention : Reuss Voigt Hill
#
# Bulk Modulus (GPa) = 8.02481 14.90047 11.46264
# Shear Modulus (GPa) = 15.39369 18.32516 16.85943
#
# Velocity S-wave (km/s) = 3.03018 3.30613 3.17116
# Velocity P-wave (km/s) = 4.12665 4.84374 4.49950
#
# Compressibility (1/GPa) = 0.12461347
#
# Stress axis : x y z
#
# Youngs Moduli (GPa) = 21.12418 72.07996 16.59052
#
# Poissons Ratio (x) = 0.33351 -0.20169
# Poissons Ratio (y) = 0.09774 0.09900
# Poissons Ratio (z) = -0.25681 0.43014
#
# Static dielectric constant tensor:
#      x y z
#    x 2.920450 0.000000 0.000000 
#    y 0.000000 3.286340 0.000000 
#    z 0.000000 0.000000 3.196240 
# 
# 
# High freq. dielectric constant tensor:
#      x y z
#    x 1.601890 0.000000 0.000000 
#    y 0.000000 1.644360 0.000000 
#    z 0.000000 0.000000 1.651060 
# 
# From -- ./inp_files/9505.got.cif
#   From: 2010.03.12/outbox.cif.g09.slc.cpg/sg35_5_cif.got.tgz:9505.got - 2010.04.14 02:02:04.
