data_PCOD8172006
_publ_section_title
;
Structure prediction by ZEFSAII (Michael W. Deem and Ramdas Pophale) SiO2 
 PCOD8172006
Probable space group: P N N 2
;
_chemical_formula_sum "Si O2"
_cell_formula_units_Z 26
_cell_length_a 17.656589
_cell_length_b 12.503549
_cell_length_c 5.450849
_cell_angle_alpha 90.000000
_cell_angle_beta 90.000000
_cell_angle_gamma 90.000000
_cell_volume 1203.384074
_symmetry_space_group_name_H-M "P N N 2"
_symmetry_group_IT_number 34
_symmetry_cell_setting 'orthorhombic'
loop_
_space_group_symop_operation_xyz
x,y,z
-x,-y,z
1/2-x,1/2+y,1/2+z
1/2+x,1/2-y,1/2+z
loop_
_atom_site_type_symbol
_atom_site_label
_atom_site_fract_x
_atom_site_fract_y
_atom_site_fract_z
Si Si1 0.019398 0.203694 0.824700
Si Si2 0.228598 0.927693 0.729076
Si Si3 0.168899 0.251725 0.042199
Si Si4 0.857493 0.275028 0.848179
Si Si5 0.292821 0.132302 0.843828
Si Si6 0.375103 0.594938 0.940866
Si Si7 0.000000 0.000000 0.123904
O O1 0.061327 0.163857 0.581900
O O2 0.947043 0.279192 0.787524
O O3 0.080424 0.269371 0.986662
O O4 0.984336 0.102510 0.959914
O O5 0.287833 0.863593 0.560565
O O6 0.176385 0.845362 0.881803
O O7 0.282896 0.004891 0.890845
O O8 0.178182 0.012834 0.582753
O O9 0.176760 0.178334 0.287592
O O10 0.208527 0.186359 0.816272
O O11 0.824640 0.321867 0.596925
O O12 0.841049 0.341140 0.098175
O O13 0.422625 0.515092 0.770556
#
# Coordination Sequence:
#
# PCOD8172006 Si02
#       7
#     4   4   4   4   4   4   2
#     4  11  23  42  64 102 137 179 227 298 341 415
#     4  11  22  43  70  96 136 182 224 285 346 403
#     4  10  25  41  70  97 142 179 229 291 346 411
#     4  11  27  42  73  99 137 181 227 288 349 404
#     4  11  25  46  64 106 135 180 235 279 341 429
#     4  11  22  42  66 104 135 173 236 283 350 416
#     4  10  22  34  66 102 134 172 220 288 362 394
#
# _framework density 21.605736
#
# number of rings (size 3 to 8) (size 9 to 14) (size 15 to 20)
#    0.000    1.231    1.538    4.154   10.769    2.462 
#    0.000    0.769    0.000    0.000    0.000    0.000 
#    0.000    0.000    0.000    0.000    0.000    0.000 
#
# Total GULP energy -322144.173116 kJ/mol
# GULP energy per Si atom -12390.160504 kJ/mol
# Density = 2.155656 g / cm^3
# Si number density = 21.605736 Si / 1000 Ang^3
#
#
#
# Elastic Constant Matrix: (Units=GPa)
#
#
# Indices 1 2 3 4 5 6 
#
# 1 109.3386 32.2456 22.8186 0.0000 0.0000 0.0000
# 2 32.2456 85.4358 17.4230 0.0000 0.0000 0.0000
# 3 22.8186 17.4230 90.7714 0.0000 0.0000 0.0000
# 4 0.0000 0.0000 0.0000 20.4049 0.0000 0.0000
# 5 0.0000 0.0000 0.0000 0.0000 40.8387 0.0000
# 6 0.0000 0.0000 0.0000 0.0000 0.0000 25.7267
#
#
#
# Elastic Compliance Matrix: (Units=1/GPa)
#
#
# Indices 1 2 3 4 5 6 
#
# 1 0.010622 -0.003606 -0.001978 0.000000 0.000000 0.000000
# 2 -0.003606 0.013405 -0.001667 0.000000 0.000000 0.000000
# 3 -0.001978 -0.001667 0.011834 0.000000 0.000000 0.000000
# 4 0.000000 0.000000 0.000000 0.049008 0.000000 0.000000
# 5 0.000000 0.000000 0.000000 0.000000 0.024487 0.000000
# 6 0.000000 0.000000 0.000000 0.000000 0.000000 0.038870
#
#
# Mechanical properties :
#
#
# Convention : Reuss Voigt Hill
#
# Bulk Modulus (GPa) = 46.81550 47.83558 47.32554
# Shear Modulus (GPa) = 29.43825 31.59796 30.51811
#
# Velocity S-wave (km/s) = 3.69524 3.82839 3.76240
# Velocity P-wave (km/s) = 6.31835 6.45990 6.38952
#
# Compressibility (1/GPa) = 0.02136045
#
# Stress axis : x y z
#
# Youngs Moduli (GPa) = 94.14344 74.59655 84.50320
#
# Poissons Ratio (x) = 0.26897 0.16716
# Poissons Ratio (y) = 0.33945 0.14084
# Poissons Ratio (z) = 0.18623 0.12433
#
# Static dielectric constant tensor:
#      x y z
#    x 4.037570 0.000000 0.000000 
#    y 0.000000 4.010690 0.000000 
#    z 0.000000 0.000000 3.902090 
# 
# 
# High freq. dielectric constant tensor:
#      x y z
#    x 1.864940 0.000000 0.000000 
#    y 0.000000 1.833850 0.000000 
#    z 0.000000 0.000000 1.846370 
# 
# From -- ./inp_files/943.got.cif
#   From: 2010.03.12/outbox.cif.g09.slc.cpg/sg34_1_cif.got.tgz:943.got - 2010.04.14 01:56:33.
