data_PCOD8172642
_publ_section_title
;
Structure prediction by ZEFSAII (Michael W. Deem and Ramdas Pophale) SiO2 
 PCOD8172642
Probable space group: C M M 2
;
_chemical_formula_sum "Si O2"
_cell_formula_units_Z 64
_cell_length_a 8.725957
_cell_length_b 28.360572
_cell_length_c 15.482791
_cell_angle_alpha 90.000000
_cell_angle_beta 90.000000
_cell_angle_gamma 90.000000
_cell_volume 3831.574777
_symmetry_space_group_name_H-M "C M M 2"
_symmetry_group_IT_number 35
_symmetry_cell_setting 'orthorhombic'
loop_
_space_group_symop_operation_xyz
x,y,z
-x,-y,z
-x,y,z
x,-y,z
1/2+x,1/2+y,z
1/2-x,1/2-y,z
1/2-x,1/2+y,z
1/2+x,1/2-y,z
loop_
_atom_site_type_symbol
_atom_site_label
_atom_site_fract_x
_atom_site_fract_y
_atom_site_fract_z
Si Si1 0.678389 0.798128 0.380870
Si Si2 0.317809 0.052766 0.470491
Si Si3 0.822318 0.055201 0.789581
Si Si4 0.679619 0.553751 0.140568
Si Si5 0.318633 0.700448 0.565668
Si Si6 0.680742 0.110335 0.634733
Si Si7 0.177731 0.395251 0.299215
Si Si8 0.328190 0.055923 0.965055
O O1 0.500000 0.790481 0.401043
O O2 0.750000 0.750000 0.342814
O O3 0.758376 0.812450 0.470305
O O4 0.703205 0.839297 0.310965
O O5 0.500000 0.052208 0.472544
O O6 0.255501 0.079752 0.554462
O O7 0.259782 0.078505 0.384318
O O8 0.250450 0.000000 0.471502
O O9 0.720589 0.083709 0.722305
O O10 0.774520 0.072986 0.884752
O O11 0.000000 0.066224 0.774797
O O12 0.785891 0.000000 0.778042
O O13 0.500000 0.555406 0.125576
O O14 0.733737 0.500000 0.159771
O O15 0.724482 0.587444 0.218840
O O16 0.757859 0.574713 0.054553
O O17 0.500000 0.703618 0.564502
O O18 0.250000 0.750000 0.597230
O O19 0.263494 0.660860 0.632922
O O20 0.500000 0.117983 0.628401
O O21 0.000000 0.407302 0.283123
O O22 0.500000 0.075811 0.954474
O O23 0.327850 0.000000 0.968161
#
# Coordination Sequence:
#
# PCOD8172642 Si02
#       8
#     8   8   8   8   8   8   8   8
#     4  10  19  33  51  72  95 125 164 209 254 297
#     4   9  17  29  45  65  94 132 169 202 235 277
#     4  10  20  33  49  73 105 136 167 207 252 295
#     4  10  20  32  47  71 102 132 163 204 251 294
#     4  11  21  34  52  72  96 127 164 209 258 301
#     4  11  20  33  50  72 100 132 172 209 246 296
#     4  10  19  32  49  69  96 130 169 204 241 292
#     4   9  17  31  51  72  94 127 169 208 247 292
#
# _framework density 16.703316000000001
#
# number of rings (size 3 to 8) (size 9 to 14) (size 15 to 20)
#    0.000    2.000    1.250    4.500    0.000    5.000 
#    0.000    0.000    0.000    2.250    0.000    0.875 
#    0.000    2.000    0.000    0.000    0.000    0.000 
#
# Total GULP energy -396863.486439 kJ/mol
# GULP energy per Si atom -12401.983951 kJ/mol
# Density = 1.666530 g / cm^3
# Si number density = 16.703316 Si / 1000 Ang^3
#
#
#
# Elastic Constant Matrix: (Units=GPa)
#
#
# Indices 1 2 3 4 5 6 
#
# 1 86.4737 35.7295 29.2960 0.0000 0.0000 0.0000
# 2 35.7295 88.9993 42.4433 0.0000 0.0000 0.0000
# 3 29.2960 42.4433 103.7858 0.0000 0.0000 0.0000
# 4 0.0000 0.0000 0.0000 7.2041 0.0000 0.0000
# 5 0.0000 0.0000 0.0000 0.0000 27.8703 0.0000
# 6 0.0000 0.0000 0.0000 0.0000 0.0000 24.3319
#
#
#
# Elastic Compliance Matrix: (Units=1/GPa)
#
#
# Indices 1 2 3 4 5 6 
#
# 1 0.014218 -0.004713 -0.002086 0.000000 0.000000 0.000000
# 2 -0.004713 0.015521 -0.005017 0.000000 0.000000 0.000000
# 3 -0.002086 -0.005017 0.012276 0.000000 0.000000 0.000000
# 4 0.000000 0.000000 0.000000 0.138811 0.000000 0.000000
# 5 0.000000 0.000000 0.000000 0.000000 0.035881 0.000000
# 6 0.000000 0.000000 0.000000 0.000000 0.000000 0.041098
#
#
# Mechanical properties :
#
#
# Convention : Reuss Voigt Hill
#
# Bulk Modulus (GPa) = 54.39905 54.91070 54.65488
# Shear Modulus (GPa) = 17.38744 23.33391 20.36068
#
# Velocity S-wave (km/s) = 3.22989 3.74165 3.49515
# Velocity P-wave (km/s) = 6.82262 7.18416 7.00572
#
# Compressibility (1/GPa) = 0.01838267
#
# Stress axis : x y z
#
# Youngs Moduli (GPa) = 70.33163 64.43009 81.46203
#
# Poissons Ratio (x) = 0.30368 0.16993
# Poissons Ratio (y) = 0.33149 0.40868
# Poissons Ratio (z) = 0.14671 0.32323
#
# Static dielectric constant tensor:
#      x y z
#    x 3.117600 0.000000 0.000000 
#    y 0.000000 3.180720 0.000000 
#    z 0.000000 0.000000 3.072890 
# 
# 
# High freq. dielectric constant tensor:
#      x y z
#    x 1.648110 0.000000 0.000000 
#    y 0.000000 1.624940 0.000000 
#    z 0.000000 0.000000 1.630680 
# 
# From -- ./inp_files/16177.got.cif
#   From: 2010.03.12/outbox.cif.g09.slc.cpg/sg35_9_cif.got.tgz:16177.got - 2010.04.14 02:02:04.
