data_PCOD8172731
_publ_section_title
;
Structure prediction by ZEFSAII (Michael W. Deem and Ramdas Pophale) SiO2 
 PCOD8172731
Probable space group: C M M 2
;
_chemical_formula_sum "Si O2"
_cell_formula_units_Z 40
_cell_length_a 16.325589
_cell_length_b 17.023596
_cell_length_c 7.670099
_cell_angle_alpha 90.000000
_cell_angle_beta 90.000000
_cell_angle_gamma 90.000000
_cell_volume 2131.675690
_symmetry_space_group_name_H-M "C M M 2"
_symmetry_group_IT_number 35
_symmetry_cell_setting 'orthorhombic'
loop_
_space_group_symop_operation_xyz
x,y,z
-x,-y,z
-x,y,z
x,-y,z
1/2+x,1/2+y,z
1/2-x,1/2-y,z
1/2-x,1/2+y,z
1/2+x,1/2-y,z
loop_
_atom_site_type_symbol
_atom_site_label
_atom_site_fract_x
_atom_site_fract_y
_atom_site_fract_z
Si Si1 0.405090 0.085103 0.339330
Si Si2 0.093891 0.717661 0.829119
Si Si3 0.094518 0.248502 0.205838
Si Si4 0.325636 0.307407 0.538839
Si Si5 0.199560 0.587490 0.682643
O O1 0.500000 0.090229 0.383019
O O2 0.378725 0.159712 0.224445
O O3 0.361133 0.091717 0.521860
O O4 0.384239 0.000000 0.249858
O O5 0.102052 0.775001 0.662599
O O6 0.159219 0.645866 0.825025
O O7 0.000000 0.686105 0.838432
O O8 0.113170 0.769624 0.003084
O O9 0.144497 0.191183 0.337074
O O10 0.000000 0.235620 0.251883
O O11 0.250000 0.250000 0.558209
O O12 0.291180 0.389944 0.612731
O O13 0.205271 0.500000 0.762215
#
# Coordination Sequence:
#
# PCOD8172731 Si02
#       5
#     8   8   8   8   8
#     4   9  16  28  47  72 104 136 164 198 245 302
#     4  10  20  33  54  80 102 133 175 216 260 310
#     4  10  19  32  53  76 100 136 178 217 257 302
#     4  10  19  33  51  74 105 138 170 215 257 309
#     4  10  20  34  51  76 108 141 171 208 262 316
#
# _framework density 18.764579000000001
#
# number of rings (size 3 to 8) (size 9 to 14) (size 15 to 20)
#    0.000    2.200    4.000    1.200    0.000    4.400 
#    0.000    2.000    0.000    2.400    0.000    2.800 
#    0.000    0.000    0.000    0.000    0.000    0.000 
#
# Total GULP energy -247778.496878 kJ/mol
# GULP energy per Si atom -12388.924844 kJ/mol
# Density = 1.872187 g / cm^3
# Si number density = 18.764579 Si / 1000 Ang^3
#
#
#
# Elastic Constant Matrix: (Units=GPa)
#
#
# Indices 1 2 3 4 5 6 
#
# 1 40.2230 14.4814 41.6091 0.0000 0.0000 0.0000
# 2 14.4814 37.7802 27.2478 0.0000 0.0000 0.0000
# 3 41.6091 27.2478 98.1379 0.0000 0.0000 0.0000
# 4 0.0000 0.0000 0.0000 12.1595 0.0000 0.0000
# 5 0.0000 0.0000 0.0000 0.0000 25.4839 0.0000
# 6 0.0000 0.0000 0.0000 0.0000 0.0000 22.6785
#
#
#
# Elastic Compliance Matrix: (Units=1/GPa)
#
#
# Indices 1 2 3 4 5 6 
#
# 1 0.044848 -0.004347 -0.017808 0.000000 0.000000 0.000000
# 2 -0.004347 0.033518 -0.007463 0.000000 0.000000 0.000000
# 3 -0.017808 -0.007463 0.019812 0.000000 0.000000 0.000000
# 4 0.000000 0.000000 0.000000 0.082240 0.000000 0.000000
# 5 0.000000 0.000000 0.000000 0.000000 0.039241 0.000000
# 6 0.000000 0.000000 0.000000 0.000000 0.000000 0.044095
#
#
# Mechanical properties :
#
#
# Convention : Reuss Voigt Hill
#
# Bulk Modulus (GPa) = 25.67943 38.09086 31.88514
# Shear Modulus (GPa) = 14.88228 18.25123 16.56675
#
# Velocity S-wave (km/s) = 2.81927 3.12211 2.97454
# Velocity P-wave (km/s) = 4.93077 5.77409 5.36901
#
# Compressibility (1/GPa) = 0.03894168
#
# Stress axis : x y z
#
# Youngs Moduli (GPa) = 22.29747 29.83502 50.47407
#
# Poissons Ratio (x) = 0.12970 0.89884
# Poissons Ratio (y) = 0.09693 0.37669
# Poissons Ratio (z) = 0.39707 0.22266
#
# Static dielectric constant tensor:
#      x y z
#    x 3.584530 0.000000 0.000000 
#    y 0.000000 3.963370 0.000000 
#    z 0.000000 0.000000 3.549690 
# 
# 
# High freq. dielectric constant tensor:
#      x y z
#    x 1.720130 0.000000 0.000000 
#    y 0.000000 1.690340 0.000000 
#    z 0.000000 0.000000 1.723060 
# 
# From -- ./inp_files/7141.got.cif
#   From: 2010.03.12/outbox.cif.g09.slc.cpg/sg35_4_cif.got.tgz:7141.got - 2010.04.14 02:02:04.
