data_PCOD8172259
_publ_section_title
;
Structure prediction by ZEFSAII (Michael W. Deem and Ramdas Pophale) SiO2 
 PCOD8172259
Probable space group: C M M 2
;
_chemical_formula_sum "Si O2"
_cell_formula_units_Z 64
_cell_length_a 9.506358
_cell_length_b 29.510484
_cell_length_c 13.294682
_cell_angle_alpha 90.000000
_cell_angle_beta 90.000000
_cell_angle_gamma 90.000000
_cell_volume 3729.653204
_symmetry_space_group_name_H-M "C M M 2"
_symmetry_group_IT_number 35
_symmetry_cell_setting 'orthorhombic'
loop_
_space_group_symop_operation_xyz
x,y,z
-x,-y,z
-x,y,z
x,-y,z
1/2+x,1/2+y,z
1/2-x,1/2-y,z
1/2-x,1/2+y,z
1/2+x,1/2-y,z
loop_
_atom_site_type_symbol
_atom_site_label
_atom_site_fract_x
_atom_site_fract_y
_atom_site_fract_z
Si Si1 0.335878 0.859901 0.733840
Si Si2 0.833964 0.450389 0.055615
Si Si3 0.155082 0.789053 0.058863
Si Si4 0.844918 0.789053 0.827088
Si Si5 0.837316 0.294073 0.328852
Si Si6 0.833965 0.450389 0.830336
Si Si7 0.335878 0.140099 0.152111
Si Si8 0.837316 0.705927 0.557099
O O1 0.500000 0.852656 0.760556
O O2 0.238975 0.835650 0.816181
O O3 0.292705 0.912875 0.745732
O O4 0.300139 0.838336 0.624741
O O5 0.773584 0.500000 0.087684
O O6 0.792704 0.412875 0.140219
O O7 0.000000 0.453464 0.050266
O O8 0.778250 0.437688 0.942975
O O9 0.250000 0.750000 0.111330
O O10 0.238975 0.835650 0.069770
O O11 0.000000 0.790748 0.110140
O O12 0.134423 0.777639 0.942975
O O13 0.750000 0.750000 0.774621
O O14 0.000000 0.790748 0.775811
O O15 0.750000 0.250000 0.294675
O O16 0.800139 0.338336 0.261210
O O17 0.799111 0.307761 0.442975
O O18 0.000000 0.281088 0.317788
O O19 0.773584 0.500000 0.798267
O O20 0.000000 0.453464 0.835685
O O21 0.500000 0.147344 0.125395
O O22 0.750000 0.750000 0.591276
O O23 0.000000 0.718912 0.568163
#
# Coordination Sequence:
#
# PCOD8172259 Si02
#       8
#     8   8   8   8   8   8   8   8
#     4  10  18  28  46  67  86 113 149 187 222 258
#     4   8  14  25  42  65  90 114 144 182 220 261
#     4  10  20  31  42  60  89 120 146 175 214 262
#     4  10  20  31  42  60  89 120 146 175 214 262
#     4   9  18  31  45  63  88 116 146 182 224 267
#     4   8  14  25  42  65  90 114 144 182 220 261
#     4  10  18  28  46  67  86 113 149 187 222 258
#     4   9  18  31  45  63  88 116 146 182 224 267
#
# _framework density 17.159770999999999
#
# number of rings (size 3 to 8) (size 9 to 14) (size 15 to 20)
#    0.000    2.750    0.000    3.000    0.000    5.500 
#    0.000    0.000    0.000    1.500    0.000    8.750 
#    0.000    0.000    0.000    8.500    0.000    9.250 
#
# Total GULP energy -396428.140156 kJ/mol
# GULP energy per Si atom -12388.379380 kJ/mol
# Density = 1.712071 g / cm^3
# Si number density = 17.159771 Si / 1000 Ang^3
#
#
#
# Elastic Constant Matrix: (Units=GPa)
#
#
# Indices 1 2 3 4 5 6 
#
# 1 68.5145 43.1943 24.1522 0.0000 0.0000 0.0000
# 2 43.1943 162.6858 63.7155 0.0000 0.0000 0.0000
# 3 24.1522 63.7155 78.9174 0.0000 0.0000 0.0000
# 4 0.0000 0.0000 0.0000 28.1375 0.0000 0.0000
# 5 0.0000 0.0000 0.0000 0.0000 14.7458 0.0000
# 6 0.0000 0.0000 0.0000 0.0000 0.0000 17.2048
#
#
#
# Elastic Compliance Matrix: (Units=1/GPa)
#
#
# Indices 1 2 3 4 5 6 
#
# 1 0.017833 -0.003798 -0.002391 0.000000 0.000000 0.000000
# 2 -0.003798 0.009798 -0.006748 0.000000 0.000000 0.000000
# 3 -0.002391 -0.006748 0.018852 0.000000 0.000000 0.000000
# 4 0.000000 0.000000 0.000000 0.035540 0.000000 0.000000
# 5 0.000000 0.000000 0.000000 0.000000 0.067816 0.000000
# 6 0.000000 0.000000 0.000000 0.000000 0.000000 0.058123
#
#
# Mechanical properties :
#
#
# Convention : Reuss Voigt Hill
#
# Bulk Modulus (GPa) = 48.52615 63.58240 56.05428
# Shear Modulus (GPa) = 20.77220 23.95467 22.36344
#
# Velocity S-wave (km/s) = 3.48302 3.74033 3.61397
# Velocity P-wave (km/s) = 6.67201 7.46907 7.08176
#
# Compressibility (1/GPa) = 0.02060745
#
# Stress axis : x y z
#
# Youngs Moduli (GPa) = 56.07598 102.05858 53.04568
#
# Poissons Ratio (x) = 0.38765 0.12683
# Poissons Ratio (y) = 0.21300 0.35797
# Poissons Ratio (z) = 0.13408 0.68873
#
# Static dielectric constant tensor:
#      x y z
#    x 3.177750 0.000000 0.000000 
#    y 0.000000 3.522450 0.000000 
#    z 0.000000 0.000000 3.124680 
# 
# 
# High freq. dielectric constant tensor:
#      x y z
#    x 1.642190 0.000000 0.000000 
#    y 0.000000 1.652370 0.000000 
#    z 0.000000 0.000000 1.644650 
# 
# From -- ./inp_files/16139.got.cif
#   From: 2010.03.12/outbox.cif.g09.slc.cpg/sg35_9_cif.got.tgz:16139.got - 2010.04.14 02:02:04.
