data_PCOD8172041
_publ_section_title
;
Structure prediction by ZEFSAII (Michael W. Deem and Ramdas Pophale) SiO2 
 PCOD8172041
Probable space group: P N N 2
;
_chemical_formula_sum "Si O2"
_cell_formula_units_Z 18
_cell_length_a 15.737138
_cell_length_b 8.058771
_cell_length_c 5.271518
_cell_angle_alpha 90.000000
_cell_angle_beta 90.000000
_cell_angle_gamma 90.000000
_cell_volume 668.544410
_symmetry_space_group_name_H-M "P N N 2"
_symmetry_group_IT_number 34
_symmetry_cell_setting 'orthorhombic'
loop_
_space_group_symop_operation_xyz
x,y,z
-x,-y,z
1/2-x,1/2+y,1/2+z
1/2+x,1/2-y,1/2+z
loop_
_atom_site_type_symbol
_atom_site_label
_atom_site_fract_x
_atom_site_fract_y
_atom_site_fract_z
Si Si1 0.319554 0.461164 0.942480
Si Si2 0.254072 0.815708 0.927844
Si Si3 0.943720 0.333396 0.752987
Si Si4 0.598262 0.954380 0.755867
Si Si5 0.500000 0.500000 0.094416
O O1 0.269570 0.628094 0.011013
O O2 0.277758 0.399880 0.684368
O O3 0.312142 0.342890 0.195520
O O4 0.418802 0.504049 0.909825
O O5 0.343109 0.888779 0.815407
O O6 0.891705 0.322182 0.484292
O O7 0.000000 0.500000 0.718525
O O8 0.999740 0.165638 0.774468
O O9 0.878852 0.356859 0.991736
O O10 0.500000 0.000000 0.708781
#
# Coordination Sequence:
#
# PCOD8172041 Si02
#       5
#     4   4   4   4   2
#     4  12  30  52  84 117 173 212 287 342 426 500
#     4  12  28  52  78 121 162 220 269 353 423 506
#     4  10  23  43  77 115 150 204 267 341 401 492
#     4  10  22  44  78 107 152 203 265 324 414 486
#     4  12  30  52  82 124 160 226 282 344 420 510
#
# _framework density 26.924167000000001
#
# number of rings (size 3 to 8) (size 9 to 14) (size 15 to 20)
#    0.000    0.889    0.000    5.333    9.333    8.889 
#    0.000    0.000    0.000    0.000    0.000    0.000 
#    0.000    0.000    0.000    0.000    0.000    0.000 
#
# Total GULP energy -223174.150641 kJ/mol
# GULP energy per Si atom -12398.563925 kJ/mol
# Density = 2.686289 g / cm^3
# Si number density = 26.924167 Si / 1000 Ang^3
#
#
#
# Elastic Constant Matrix: (Units=GPa)
#
#
# Indices 1 2 3 4 5 6 
#
# 1 132.1764 18.1116 38.8376 0.0000 0.0000 0.0000
# 2 18.1116 161.5280 48.4192 0.0000 0.0000 0.0000
# 3 38.8376 48.4192 223.3591 0.0000 0.0000 0.0000
# 4 0.0000 0.0000 0.0000 41.1536 0.0000 0.0000
# 5 0.0000 0.0000 0.0000 0.0000 37.0440 0.0000
# 6 0.0000 0.0000 0.0000 0.0000 0.0000 28.3630
#
#
#
# Elastic Compliance Matrix: (Units=1/GPa)
#
#
# Indices 1 2 3 4 5 6 
#
# 1 0.008013 -0.000514 -0.001282 0.000000 0.000000 0.000000
# 2 -0.000514 0.006654 -0.001353 0.000000 0.000000 0.000000
# 3 -0.001282 -0.001353 0.004993 0.000000 0.000000 0.000000
# 4 0.000000 0.000000 0.000000 0.024299 0.000000 0.000000
# 5 0.000000 0.000000 0.000000 0.000000 0.026995 0.000000
# 6 0.000000 0.000000 0.000000 0.000000 0.000000 0.035257
#
#
# Mechanical properties :
#
#
# Convention : Reuss Voigt Hill
#
# Bulk Modulus (GPa) = 74.83887 80.86670 77.85279
# Shear Modulus (GPa) = 42.74834 48.75845 45.75340
#
# Velocity S-wave (km/s) = 3.98896 4.26015 4.12678
# Velocity P-wave (km/s) = 7.00516 7.36876 7.18926
#
# Compressibility (1/GPa) = 0.01336204
#
# Stress axis : x y z
#
# Youngs Moduli (GPa) = 124.80126 150.28278 200.26902
#
# Poissons Ratio (x) = 0.07728 0.25670
# Poissons Ratio (y) = 0.06418 0.27097
# Poissons Ratio (z) = 0.15997 0.20334
#
# Static dielectric constant tensor:
#      x y z
#    x 5.217650 0.000000 0.000000 
#    y 0.000000 5.388300 0.000000 
#    z 0.000000 0.000000 5.873910 
# 
# 
# High freq. dielectric constant tensor:
#      x y z
#    x 2.115420 0.000000 0.000000 
#    y 0.000000 2.109400 0.000000 
#    z 0.000000 0.000000 2.096600 
# 
# From -- ./inp_files/387.got.cif
#   From: 2010.03.12/outbox.cif.g09.slc.cpg/sg34_1_cif.got.tgz:387.got - 2010.04.14 01:56:33.
