data_PCOD8172944
_publ_section_title
;
Structure prediction by ZEFSAII (Michael W. Deem and Ramdas Pophale) SiO2 
 PCOD8172944
Probable space group: C M M 2
;
_chemical_formula_sum "Si O2"
_cell_formula_units_Z 40
_cell_length_a 28.650660
_cell_length_b 8.920910
_cell_length_c 7.728377
_cell_angle_alpha 90.000000
_cell_angle_beta 90.000000
_cell_angle_gamma 90.000000
_cell_volume 1975.295563
_symmetry_space_group_name_H-M "C M M 2"
_symmetry_group_IT_number 35
_symmetry_cell_setting 'orthorhombic'
loop_
_space_group_symop_operation_xyz
x,y,z
-x,-y,z
-x,y,z
x,-y,z
1/2+x,1/2+y,z
1/2-x,1/2-y,z
1/2-x,1/2+y,z
1/2+x,1/2-y,z
loop_
_atom_site_type_symbol
_atom_site_label
_atom_site_fract_x
_atom_site_fract_y
_atom_site_fract_z
Si Si1 0.702727 0.322924 0.367900
Si Si2 0.110693 0.323123 0.248913
Si Si3 0.296643 0.675133 0.765219
Si Si4 0.554494 0.827536 0.588476
Si Si5 0.104127 0.176976 0.902774
O O1 0.704482 0.500000 0.340996
O O2 0.750000 0.250000 0.294853
O O3 0.660597 0.256270 0.258605
O O4 0.695816 0.275305 0.567029
O O5 0.116944 0.500000 0.236814
O O6 0.079224 0.276242 0.411629
O O7 0.086209 0.261266 0.074787
O O8 0.288971 0.500000 0.778918
O O9 0.250000 0.750000 0.843434
O O10 0.342318 0.726827 0.868965
O O11 0.500000 0.802069 0.561425
O O12 0.571856 0.724155 0.743612
O O13 0.566284 0.000000 0.631561
O O14 0.099791 0.000000 0.927292
#
# Coordination Sequence:
#
# PCOD8172944 Si02
#       5
#     8   8   8   8   8
#     4  10  19  35  58  87 122 162 206 251 299 356
#     4  11  23  39  62  92 124 163 205 248 302 364
#     4   9  19  34  56  85 119 158 200 245 293 349
#     4  10  23  44  67  89 117 155 201 254 309 366
#     4  11  23  40  62  92 126 160 201 251 303 361
#
# _framework density 20.250133999999999
#
# number of rings (size 3 to 8) (size 9 to 14) (size 15 to 20)
#    0.000    1.800    2.000    1.800    0.000    5.200 
#    0.000    4.000    0.000    0.000    0.000    0.000 
#    0.000    0.000    0.000    0.000    0.000    0.000 
#
# Total GULP energy -248089.332091 kJ/mol
# GULP energy per Si atom -12404.466605 kJ/mol
# Density = 2.020404 g / cm^3
# Si number density = 20.250134 Si / 1000 Ang^3
#
#
#
# Elastic Constant Matrix: (Units=GPa)
#
#
# Indices 1 2 3 4 5 6 
#
# 1 98.9573 40.0131 45.1794 0.0000 0.0000 0.0000
# 2 40.0131 81.1560 49.0802 0.0000 0.0000 0.0000
# 3 45.1794 49.0802 125.8582 0.0000 0.0000 0.0000
# 4 0.0000 0.0000 0.0000 33.0690 0.0000 0.0000
# 5 0.0000 0.0000 0.0000 0.0000 1.8967 0.0000
# 6 0.0000 0.0000 0.0000 0.0000 0.0000 31.1716
#
#
#
# Elastic Compliance Matrix: (Units=1/GPa)
#
#
# Indices 1 2 3 4 5 6 
#
# 1 0.013395 -0.004837 -0.002922 0.000000 0.000000 0.000000
# 2 -0.004837 0.017872 -0.005233 0.000000 0.000000 0.000000
# 3 -0.002922 -0.005233 0.011035 0.000000 0.000000 0.000000
# 4 0.000000 0.000000 0.000000 0.030240 0.000000 0.000000
# 5 0.000000 0.000000 0.000000 0.000000 0.527233 0.000000
# 6 0.000000 0.000000 0.000000 0.000000 0.000000 0.032080
#
#
# Mechanical properties :
#
#
# Convention : Reuss Voigt Hill
#
# Bulk Modulus (GPa) = 61.28407 63.83522 62.55965
# Shear Modulus (GPa) = 7.53831 24.67406 16.10618
#
# Velocity S-wave (km/s) = 1.93150 3.49444 2.82328
# Velocity P-wave (km/s) = 5.94167 6.91905 6.44890
#
# Compressibility (1/GPa) = 0.01631745
#
# Stress axis : x y z
#
# Youngs Moduli (GPa) = 74.65227 55.95499 90.62031
#
# Poissons Ratio (x) = 0.27067 0.26481
# Poissons Ratio (y) = 0.36111 0.47420
# Poissons Ratio (z) = 0.21815 0.29280
#
# Static dielectric constant tensor:
#      x y z
#    x 3.682390 0.000000 0.000000 
#    y 0.000000 3.698680 0.000000 
#    z 0.000000 0.000000 3.711560 
# 
# 
# High freq. dielectric constant tensor:
#      x y z
#    x 1.787470 0.000000 0.000000 
#    y 0.000000 1.791970 0.000000 
#    z 0.000000 0.000000 1.795580 
# 
# From -- ./inp_files/4968.got.cif
#   From: 2010.03.12/outbox.cif.g09.slc.cpg/sg35_3_cif.got.tgz:4968.got - 2010.04.14 02:02:04.
