data_PCOD8172092
_publ_section_title
;
Structure prediction by ZEFSAII (Michael W. Deem and Ramdas Pophale) SiO2 
 PCOD8172092
Probable space group: P N N 2
;
_chemical_formula_sum "Si O2"
_cell_formula_units_Z 22
_cell_length_a 5.154984
_cell_length_b 15.261969
_cell_length_c 12.031250
_cell_angle_alpha 90.000000
_cell_angle_beta 90.000000
_cell_angle_gamma 90.000000
_cell_volume 946.561072
_symmetry_space_group_name_H-M "P N N 2"
_symmetry_group_IT_number 34
_symmetry_cell_setting 'orthorhombic'
loop_
_space_group_symop_operation_xyz
x,y,z
-x,-y,z
1/2-x,1/2+y,1/2+z
1/2+x,1/2-y,1/2+z
loop_
_atom_site_type_symbol
_atom_site_label
_atom_site_fract_x
_atom_site_fract_y
_atom_site_fract_z
Si Si1 0.964762 0.669135 0.566810
Si Si2 0.890067 0.600176 0.321132
Si Si3 0.475826 0.773059 0.620253
Si Si4 0.000000 0.000000 0.333697
Si Si5 0.000000 0.500000 0.695397
Si Si6 0.808842 0.427440 0.007733
Si Si7 0.000000 0.000000 0.706349
O O1 0.916909 0.649377 0.437409
O O2 0.690777 0.696091 0.623033
O O3 0.184840 0.741520 0.592372
O O4 0.078734 0.581748 0.620510
O O5 0.000856 0.669151 0.231613
O O6 0.592492 0.581187 0.284154
O O7 0.000000 0.500000 0.321602
O O8 0.554964 0.833926 0.515787
O O9 0.245527 0.971367 0.262286
O O10 0.924187 0.919401 0.417587
O O11 0.726580 0.461911 0.129104
O O12 0.000000 0.500000 0.955509
#
# Coordination Sequence:
#
# PCOD8172092 Si02
#       7
#     4   4   4   2   2   4   2
#     4  12  31  48  76 109 158 198 268 319 385 461
#     4  12  26  49  82 110 153 214 256 307 399 469
#     4  12  27  48  74 119 150 192 261 338 363 453
#     4  11  26  41  80 100 148 207 238 307 384 484
#     4  12  26  54  68 102 152 222 254 304 398 484
#     4  11  22  44  76 115 149 198 253 317 390 463
#     4  11  20  41  84 112 144 201 268 307 360 484
#
# _framework density 23.24203
#
# number of rings (size 3 to 8) (size 9 to 14) (size 15 to 20)
#    0.000    0.364    5.455    2.182    5.091    5.091 
#    0.000    0.000    0.000    0.000    0.000    0.000 
#    0.000    0.000    0.000    0.000    0.000    0.000 
#
# Total GULP energy -272584.123351 kJ/mol
# GULP energy per Si atom -12390.187425 kJ/mol
# Density = 2.318913 g / cm^3
# Si number density = 23.242030 Si / 1000 Ang^3
#
#
#
# Elastic Constant Matrix: (Units=GPa)
#
#
# Indices 1 2 3 4 5 6 
#
# 1 123.2416 29.4681 51.9373 0.0000 0.0000 0.0000
# 2 29.4681 109.7245 53.1520 0.0000 0.0000 0.0000
# 3 51.9373 53.1520 138.3723 0.0000 0.0000 0.0000
# 4 0.0000 0.0000 0.0000 5.9977 0.0000 0.0000
# 5 0.0000 0.0000 0.0000 0.0000 18.9781 0.0000
# 6 0.0000 0.0000 0.0000 0.0000 0.0000 50.8386
#
#
#
# Elastic Compliance Matrix: (Units=1/GPa)
#
#
# Indices 1 2 3 4 5 6 
#
# 1 0.009734 -0.001037 -0.003255 0.000000 0.000000 0.000000
# 2 -0.001037 0.011308 -0.003954 0.000000 0.000000 0.000000
# 3 -0.003255 -0.003954 0.009968 0.000000 0.000000 0.000000
# 4 0.000000 0.000000 0.000000 0.166731 0.000000 0.000000
# 5 0.000000 0.000000 0.000000 0.000000 0.052692 0.000000
# 6 0.000000 0.000000 0.000000 0.000000 0.000000 0.019670
#
#
# Mechanical properties :
#
#
# Convention : Reuss Voigt Hill
#
# Bulk Modulus (GPa) = 68.88978 71.16147 70.02562
# Shear Modulus (GPa) = 17.15651 30.94827 24.05239
#
# Velocity S-wave (km/s) = 2.71987 3.65302 3.22042
# Velocity P-wave (km/s) = 6.29032 6.96253 6.63494
#
# Compressibility (1/GPa) = 0.01451594
#
# Stress axis : x y z
#
# Youngs Moduli (GPa) = 102.73289 88.43440 100.32528
#
# Poissons Ratio (x) = 0.09174 0.32657
# Poissons Ratio (y) = 0.10657 0.39671
# Poissons Ratio (z) = 0.33441 0.34969
#
# Static dielectric constant tensor:
#      x y z
#    x 4.369050 0.000000 0.000000 
#    y 0.000000 4.182760 0.000000 
#    z 0.000000 0.000000 4.163490 
# 
# 
# High freq. dielectric constant tensor:
#      x y z
#    x 1.932610 0.000000 0.000000 
#    y 0.000000 1.911280 0.000000 
#    z 0.000000 0.000000 1.921380 
# 
# From -- ./inp_files/4410.got.cif
#   From: 2010.03.12/outbox.cif.g09.slc.cpg/sg34_3_cif.got.tgz:4410.got - 2010.04.14 01:56:33.
