data_PCOD8172316
_publ_section_title
;
Structure prediction by ZEFSAII (Michael W. Deem and Ramdas Pophale) SiO2 
 PCOD8172316
Probable space group: C M M 2
;
_chemical_formula_sum "Si O2"
_cell_formula_units_Z 64
_cell_length_a 28.230924
_cell_length_b 8.914633
_cell_length_c 15.611212
_cell_angle_alpha 90.000000
_cell_angle_beta 90.000000
_cell_angle_gamma 90.000000
_cell_volume 3928.847602
_symmetry_space_group_name_H-M "C M M 2"
_symmetry_group_IT_number 35
_symmetry_cell_setting 'orthorhombic'
loop_
_space_group_symop_operation_xyz
x,y,z
-x,-y,z
-x,y,z
x,-y,z
1/2+x,1/2+y,z
1/2-x,1/2-y,z
1/2-x,1/2+y,z
1/2+x,1/2-y,z
loop_
_atom_site_type_symbol
_atom_site_label
_atom_site_fract_x
_atom_site_fract_y
_atom_site_fract_z
Si Si1 0.603173 0.674176 0.345120
Si Si2 0.944914 0.324271 0.846278
Si Si3 0.945725 0.677007 0.503012
Si Si4 0.603929 0.175306 0.015283
Si Si5 0.055866 0.327798 0.186221
Si Si6 0.556268 0.331290 0.675397
Si Si7 0.202485 0.175458 0.267523
Si Si8 0.702677 0.175971 0.085856
O O1 0.592400 0.500000 0.359635
O O2 0.587598 0.764804 0.428084
O O3 0.573345 0.727962 0.264197
O O4 0.659012 0.703926 0.331628
O O5 0.935977 0.500000 0.835165
O O6 0.924115 0.245585 0.761530
O O7 0.000000 0.288095 0.860217
O O8 0.916909 0.255338 0.927825
O O9 0.942273 0.500000 0.507884
O O10 0.925845 0.742661 0.592014
O O11 0.000000 0.728244 0.486191
O O12 0.577864 0.240979 0.099133
O O13 0.659924 0.209007 0.020414
O O14 0.592608 0.000000 0.013720
O O15 0.072333 0.500000 0.200702
O O16 0.000000 0.316741 0.179376
O O17 0.500000 0.326285 0.678066
O O18 0.575748 0.500000 0.670579
O O19 0.250000 0.250000 0.306970
O O20 0.190253 0.251932 0.177172
O O21 0.211206 0.000000 0.252032
O O22 0.750000 0.250000 0.046606
O O23 0.710501 0.000000 0.099250
#
# Coordination Sequence:
#
# PCOD8172316 Si02
#       8
#     8   8   8   8   8   8   8   8
#     4  11  22  33  46  68  97 126 156 193 240 285
#     4   9  16  28  47  69  93 122 158 195 229 274
#     4  10  20  33  50  71  94 125 164 198 229 274
#     4   9  17  29  46  68  92 123 160 197 234 272
#     4  10  19  31  46  64  91 129 168 197 224 268
#     4   9  17  30  47  68  95 124 153 191 239 281
#     4  10  20  33  49  68  90 120 157 198 241 283
#     4  10  18  30  48  67  90 120 156 200 244 281
#
# _framework density 16.289763000000001
#
# number of rings (size 3 to 8) (size 9 to 14) (size 15 to 20)
#    0.000    2.250    1.250    3.375    0.000    7.000 
#    0.000    1.875    0.000    1.500    0.000    0.875 
#    0.000    4.000    0.000    0.000    0.000    0.000 
#
# Total GULP energy -396792.615673 kJ/mol
# GULP energy per Si atom -12399.769240 kJ/mol
# Density = 1.625269 g / cm^3
# Si number density = 16.289763 Si / 1000 Ang^3
#
#
#
# Elastic Constant Matrix: (Units=GPa)
#
#
# Indices 1 2 3 4 5 6 
#
# 1 78.1980 38.2651 52.6444 0.0000 0.0000 0.0000
# 2 38.2651 77.7703 45.3667 0.0000 0.0000 0.0000
# 3 52.6444 45.3667 137.2441 0.0000 0.0000 0.0000
# 4 0.0000 0.0000 0.0000 12.8674 0.0000 0.0000
# 5 0.0000 0.0000 0.0000 0.0000 10.0028 0.0000
# 6 0.0000 0.0000 0.0000 0.0000 0.0000 21.1440
#
#
#
# Elastic Compliance Matrix: (Units=1/GPa)
#
#
# Indices 1 2 3 4 5 6 
#
# 1 0.019581 -0.006508 -0.005360 0.000000 0.000000 0.000000
# 2 -0.006508 0.018093 -0.003484 0.000000 0.000000 0.000000
# 3 -0.005360 -0.003484 0.010494 0.000000 0.000000 0.000000
# 4 0.000000 0.000000 0.000000 0.077716 0.000000 0.000000
# 5 0.000000 0.000000 0.000000 0.000000 0.099972 0.000000
# 6 0.000000 0.000000 0.000000 0.000000 0.000000 0.047295
#
#
# Mechanical properties :
#
#
# Convention : Reuss Voigt Hill
#
# Bulk Modulus (GPa) = 57.26075 62.86274 60.06175
# Shear Modulus (GPa) = 16.14597 19.26527 17.70562
#
# Velocity S-wave (km/s) = 3.15171 3.44271 3.30042
# Velocity P-wave (km/s) = 6.96218 7.38086 7.17458
#
# Compressibility (1/GPa) = 0.01746397
#
# Stress axis : x y z
#
# Youngs Moduli (GPa) = 51.07058 55.26993 95.29279
#
# Poissons Ratio (x) = 0.35968 0.51074
# Poissons Ratio (y) = 0.33235 0.33205
# Poissons Ratio (z) = 0.27372 0.19259
#
# Static dielectric constant tensor:
#      x y z
#    x 3.038930 0.000000 0.000000 
#    y 0.000000 3.164930 0.000000 
#    z 0.000000 0.000000 3.145700 
# 
# 
# High freq. dielectric constant tensor:
#      x y z
#    x 1.607720 0.000000 0.000000 
#    y 0.000000 1.627920 0.000000 
#    z 0.000000 0.000000 1.617110 
# 
# From -- ./inp_files/16185.got.cif
#   From: 2010.03.12/outbox.cif.g09.slc.cpg/sg35_9_cif.got.tgz:16185.got - 2010.04.14 02:02:04.
