data_PCOD8172590
_publ_section_title
;
Structure prediction by ZEFSAII (Michael W. Deem and Ramdas Pophale) SiO2 
 PCOD8172590
Probable space group: C M M 2
;
_chemical_formula_sum "Si O2"
_cell_formula_units_Z 48
_cell_length_a 15.558275
_cell_length_b 9.364461
_cell_length_c 17.144517
_cell_angle_alpha 90.000000
_cell_angle_beta 90.000000
_cell_angle_gamma 90.000000
_cell_volume 2497.867995
_symmetry_space_group_name_H-M "C M M 2"
_symmetry_group_IT_number 35
_symmetry_cell_setting 'orthorhombic'
loop_
_space_group_symop_operation_xyz
x,y,z
-x,-y,z
-x,y,z
x,-y,z
1/2+x,1/2+y,z
1/2-x,1/2-y,z
1/2-x,1/2+y,z
1/2+x,1/2-y,z
loop_
_atom_site_type_symbol
_atom_site_label
_atom_site_fract_x
_atom_site_fract_y
_atom_site_fract_z
Si Si1 0.839771 0.667167 0.289350
Si Si2 0.596578 0.340984 0.764914
Si Si3 0.667085 0.667231 0.928212
Si Si4 0.000000 0.330281 0.185904
Si Si5 0.339339 0.833248 0.627548
Si Si6 0.000000 0.168363 0.024345
Si Si7 0.665542 0.161815 0.459683
O O1 0.820278 0.500000 0.277590
O O2 0.750000 0.750000 0.274855
O O3 0.913863 0.719939 0.231081
O O4 0.879584 0.697352 0.376831
O O5 0.500000 0.344480 0.797381
O O6 0.623601 0.500000 0.736605
O O7 0.655260 0.292032 0.837237
O O8 0.599760 0.230587 0.693699
O O9 0.682969 0.500000 0.938334
O O10 0.750000 0.750000 0.960952
O O11 0.584210 0.715848 0.976939
O O12 0.000000 0.253444 0.104148
O O13 0.000000 0.500000 0.175720
O O14 0.250000 0.750000 0.632724
O O15 0.385222 0.811112 0.541637
O O16 0.323994 0.000000 0.644481
O O17 0.000000 0.000000 0.041050
O O18 0.750000 0.250000 0.466083
O O19 0.696408 0.000000 0.457700
#
# Coordination Sequence:
#
# PCOD8172590 Si02
#       7
#     8   8   8   4   8   4   8
#     4   9  18  35  57  81 110 147 185 225 272 325
#     4  10  20  36  55  75 108 149 185 226 277 327
#     4  10  21  39  62  85 109 145 185 223 271 330
#     4  10  22  38  58  85 114 142 178 223 276 330
#     4  10  19  31  49  77 108 142 186 231 273 321
#     4  10  22  42  62  81 112 146 178 219 274 334
#     4   8  15  29  49  73 102 141 182 223 268 314
#
# _framework density 19.216386
#
# number of rings (size 3 to 8) (size 9 to 14) (size 15 to 20)
#    0.000    2.500    0.833    1.000    0.000    5.000 
#    1.500    3.333    0.000    0.000    0.000    0.000 
#    0.000    0.000    0.000    0.000    0.000    0.000 
#
# Total GULP energy -297342.974250 kJ/mol
# GULP energy per Si atom -12389.290594 kJ/mol
# Density = 1.917265 g / cm^3
# Si number density = 19.216386 Si / 1000 Ang^3
#
#
#
# Elastic Constant Matrix: (Units=GPa)
#
#
# Indices 1 2 3 4 5 6 
#
# 1 113.0119 41.9851 64.2958 0.0000 0.0000 0.0000
# 2 41.9851 66.1830 60.2243 0.0000 0.0000 0.0000
# 3 64.2958 60.2243 145.8401 0.0000 0.0000 0.0000
# 4 0.0000 0.0000 0.0000 33.5213 0.0000 0.0000
# 5 0.0000 0.0000 0.0000 0.0000 23.8866 0.0000
# 6 0.0000 0.0000 0.0000 0.0000 0.0000 27.6726
#
#
#
# Elastic Compliance Matrix: (Units=1/GPa)
#
#
# Indices 1 2 3 4 5 6 
#
# 1 0.012674 -0.004735 -0.003632 0.000000 0.000000 0.000000
# 2 -0.004735 0.025974 -0.008638 0.000000 0.000000 0.000000
# 3 -0.003632 -0.008638 0.012025 0.000000 0.000000 0.000000
# 4 0.000000 0.000000 0.000000 0.029832 0.000000 0.000000
# 5 0.000000 0.000000 0.000000 0.000000 0.041865 0.000000
# 6 0.000000 0.000000 0.000000 0.000000 0.000000 0.036137
#
#
# Mechanical properties :
#
#
# Convention : Reuss Voigt Hill
#
# Bulk Modulus (GPa) = 60.01599 73.11618 66.56609
# Shear Modulus (GPa) = 25.24329 27.58475 26.41402
#
# Velocity S-wave (km/s) = 3.62834 3.79288 3.71152
# Velocity P-wave (km/s) = 6.98946 7.57052 7.28579
#
# Compressibility (1/GPa) = 0.01666223
#
# Stress axis : x y z
#
# Youngs Moduli (GPa) = 78.90000 38.49996 83.15725
#
# Poissons Ratio (x) = 0.18230 0.30206
# Poissons Ratio (y) = 0.37359 0.71835
# Poissons Ratio (z) = 0.28659 0.33258
#
# Static dielectric constant tensor:
#      x y z
#    x 3.216050 0.000000 0.000000 
#    y 0.000000 3.411520 0.000000 
#    z 0.000000 0.000000 3.915060 
# 
# 
# High freq. dielectric constant tensor:
#      x y z
#    x 1.727280 0.000000 0.000000 
#    y 0.000000 1.742560 0.000000 
#    z 0.000000 0.000000 1.759840 
# 
# From -- ./inp_files/15190.got.cif
#   From: 2010.03.12/outbox.cif.g09.slc.cpg/sg35_8_cif.got.tgz:15190.got - 2010.04.14 02:02:04.
