data_PCOD8172203
_publ_section_title
;
Structure prediction by ZEFSAII (Michael W. Deem and Ramdas Pophale) SiO2 
 PCOD8172203
Probable space group: C M M 2
;
_chemical_formula_sum "Si O2"
_cell_formula_units_Z 48
_cell_length_a 8.875862
_cell_length_b 30.757190
_cell_length_c 9.853417
_cell_angle_alpha 90.000000
_cell_angle_beta 90.000000
_cell_angle_gamma 90.000000
_cell_volume 2689.949083
_symmetry_space_group_name_H-M "C M M 2"
_symmetry_group_IT_number 35
_symmetry_cell_setting 'orthorhombic'
loop_
_space_group_symop_operation_xyz
x,y,z
-x,-y,z
-x,y,z
x,-y,z
1/2+x,1/2+y,z
1/2-x,1/2-y,z
1/2-x,1/2+y,z
1/2+x,1/2-y,z
loop_
_atom_site_type_symbol
_atom_site_label
_atom_site_fract_x
_atom_site_fract_y
_atom_site_fract_z
Si Si1 0.673592 0.449302 0.222450
Si Si2 0.678270 0.293038 0.034893
Si Si3 0.822239 0.952153 0.526725
Si Si4 0.176848 0.380439 0.036883
Si Si5 0.671662 0.113920 0.724955
Si Si6 0.674655 0.790405 0.742673
O O1 0.500000 0.435516 0.202456
O O2 0.694452 0.500000 0.189465
O O3 0.730000 0.439063 0.375294
O O4 0.778210 0.422711 0.120867
O O5 0.500000 0.291409 0.050275
O O6 0.750000 0.250000 0.106727
O O7 0.740452 0.337929 0.099618
O O8 0.729191 0.293168 0.879348
O O9 0.772437 0.917340 0.636050
O O10 0.000000 0.954668 0.526926
O O11 0.757149 0.000000 0.564109
O O12 0.000000 0.371834 0.045661
O O13 0.225176 0.388406 0.880860
O O14 0.500000 0.098451 0.711883
O O15 0.690330 0.163285 0.667197
O O16 0.500000 0.780978 0.776399
O O17 0.750000 0.750000 0.658070
#
# Coordination Sequence:
#
# PCOD8172203 Si02
#       6
#     8   8   8   8   8   8
#     4   9  19  36  54  72  96 127 164 205 249 299
#     4  10  17  27  45  69  98 131 164 199 242 289
#     4   9  19  35  53  72  95 126 165 204 243 293
#     4  10  20  33  49  74 104 131 164 205 246 289
#     4   9  19  32  47  72 103 129 158 200 244 286
#     4   9  16  27  43  67  98 129 162 199 239 286
#
# _framework density 17.844203
#
# number of rings (size 3 to 8) (size 9 to 14) (size 15 to 20)
#    0.000    2.667    0.000    5.500    0.000    6.000 
#    0.000    5.000    0.000    1.000    0.000    2.333 
#    0.000    0.000    0.000    0.000    0.000    0.000 
#
# Total GULP energy -297436.244397 kJ/mol
# GULP energy per Si atom -12393.176850 kJ/mol
# Density = 1.780359 g / cm^3
# Si number density = 17.844203 Si / 1000 Ang^3
#
#
#
# Elastic Constant Matrix: (Units=GPa)
#
#
# Indices 1 2 3 4 5 6 
#
# 1 85.5629 48.7159 30.6185 0.0000 0.0000 0.0000
# 2 48.7159 125.2701 55.4522 0.0000 0.0000 0.0000
# 3 30.6185 55.4522 59.6287 0.0000 0.0000 0.0000
# 4 0.0000 0.0000 0.0000 -4.4952 0.0000 0.0000
# 5 0.0000 0.0000 0.0000 0.0000 21.0325 0.0000
# 6 0.0000 0.0000 0.0000 0.0000 0.0000 36.9611
#
#
#
# Elastic Compliance Matrix: (Units=1/GPa)
#
#
# Indices 1 2 3 4 5 6 
#
# 1 0.015557 -0.004273 -0.004015 0.000000 0.000000 0.000000
# 2 -0.004273 0.014742 -0.011515 0.000000 0.000000 0.000000
# 3 -0.004015 -0.011515 0.029541 0.000000 0.000000 0.000000
# 4 0.000000 0.000000 0.000000 -0.222462 0.000000 0.000000
# 5 0.000000 0.000000 0.000000 0.000000 0.047545 0.000000
# 6 0.000000 0.000000 0.000000 0.000000 0.000000 0.027055
#
#
# Mechanical properties :
#
#
# Convention : Reuss Voigt Hill
#
# Bulk Modulus (GPa) = 49.42232 60.00387 54.71310
# Shear Modulus (GPa) = -119.98308 19.74471 -50.11918
#
# Velocity S-wave (km/s) = -8.20885 3.33003 -5.30548
# Velocity P-wave (km/s) = 7.87974 6.96311 2.60819
#
# Compressibility (1/GPa) = 0.02023377
#
# Stress axis : x y z
#
# Youngs Moduli (GPa) = 64.28135 67.83518 33.85174
#
# Poissons Ratio (x) = 0.28983 0.13591
# Poissons Ratio (y) = 0.27465 0.38981
# Poissons Ratio (z) = 0.25807 0.78113
#
# Static dielectric constant tensor:
#      x y z
#    x 3.261300 0.000000 0.000000 
#    y 0.000000 3.955920 0.000000 
#    z 0.000000 0.000000 2.921230 
# 
# 
# High freq. dielectric constant tensor:
#      x y z
#    x 1.694600 0.000000 0.000000 
#    y 0.000000 1.712760 0.000000 
#    z 0.000000 0.000000 1.637260 
# 
# From -- ./inp_files/5323.got.cif
#   From: 2010.03.12/outbox.cif.g09.slc.cpg/sg35_3_cif.got.tgz:5323.got - 2010.04.14 02:02:04.
