data_PCOD8172801
_publ_section_title
;
Structure prediction by ZEFSAII (Michael W. Deem and Ramdas Pophale) SiO2 
 PCOD8172801
Probable space group: C M M 2
;
_chemical_formula_sum "Si O2"
_cell_formula_units_Z 40
_cell_length_a 8.740344
_cell_length_b 25.960656
_cell_length_c 9.741062
_cell_angle_alpha 90.000000
_cell_angle_beta 90.000000
_cell_angle_gamma 90.000000
_cell_volume 2210.296296
_symmetry_space_group_name_H-M "C M M 2"
_symmetry_group_IT_number 35
_symmetry_cell_setting 'orthorhombic'
loop_
_space_group_symop_operation_xyz
x,y,z
-x,-y,z
-x,y,z
x,-y,z
1/2+x,1/2+y,z
1/2-x,1/2-y,z
1/2-x,1/2+y,z
1/2+x,1/2-y,z
loop_
_atom_site_type_symbol
_atom_site_label
_atom_site_fract_x
_atom_site_fract_y
_atom_site_fract_z
Si Si1 0.833154 0.000000 0.410170
Si Si2 0.330616 0.500000 0.085237
Si Si3 0.316526 0.389773 0.395079
Si Si4 0.181482 0.605860 0.098886
Si Si5 0.320726 0.803096 0.901794
Si Si6 0.319117 0.196265 0.587546
O O1 0.751954 0.054162 0.449235
O O2 0.848175 0.000000 0.247086
O O3 0.000000 0.000000 0.479517
O O4 0.500000 0.500000 0.017556
O O5 0.239915 0.551232 0.039811
O O6 0.500000 0.390632 0.387604
O O7 0.252628 0.378396 0.244404
O O8 0.257610 0.348115 0.500055
O O9 0.000000 0.603563 0.113082
O O10 0.237484 0.649299 0.992393
O O11 0.500000 0.796862 0.913801
O O12 0.250000 0.750000 0.957767
O O13 0.271271 0.813236 0.744903
O O14 0.500000 0.196197 0.565333
O O15 0.250000 0.250000 0.534936
#
# Coordination Sequence:
#
# PCOD8172801 Si02
#       6
#     4   4   8   8   8   8
#     4   7  14  29  48  69  98 130 162 198 242 289
#     4   9  17  31  50  75 104 136 170 208 252 301
#     4  10  19  33  53  78 105 135 169 210 252 299
#     4  10  19  33  53  78 105 136 170 209 254 303
#     4   9  20  36  54  74 100 133 171 211 256 306
#     4  10  20  36  54  74 100 134 172 212 257 307
#
# _framework density 18.097121000000001
#
# number of rings (size 3 to 8) (size 9 to 14) (size 15 to 20)
#    0.000    2.600    0.000    3.300    0.000    3.200 
#    0.000    4.500    0.000    3.600    0.000    0.000 
#    0.000    0.000    0.000    0.000    0.000    0.000 
#
# Total GULP energy -247897.698247 kJ/mol
# GULP energy per Si atom -12394.884912 kJ/mol
# Density = 1.805593 g / cm^3
# Si number density = 18.097121 Si / 1000 Ang^3
#
#
#
# Elastic Constant Matrix: (Units=GPa)
#
#
# Indices 1 2 3 4 5 6 
#
# 1 74.8536 57.3831 34.3380 0.0000 0.0000 0.0000
# 2 57.3831 205.6838 84.9147 0.0000 0.0000 0.0000
# 3 34.3380 84.9147 72.1388 0.0000 0.0000 0.0000
# 4 0.0000 0.0000 0.0000 -55.2986 0.0000 0.0000
# 5 0.0000 0.0000 0.0000 0.0000 19.8572 0.0000
# 6 0.0000 0.0000 0.0000 0.0000 0.0000 33.5757
#
#
#
# Elastic Compliance Matrix: (Units=1/GPa)
#
#
# Indices 1 2 3 4 5 6 
#
# 1 0.017925 -0.002876 -0.005147 0.000000 0.000000 0.000000
# 2 -0.002876 0.009919 -0.010307 0.000000 0.000000 0.000000
# 3 -0.005147 -0.010307 0.028445 0.000000 0.000000 0.000000
# 4 0.000000 0.000000 0.000000 -0.018084 0.000000 0.000000
# 5 0.000000 0.000000 0.000000 0.000000 0.050360 0.000000
# 6 0.000000 0.000000 0.000000 0.000000 0.000000 0.029783
#
#
# Mechanical properties :
#
#
# Convention : Reuss Voigt Hill
#
# Bulk Modulus (GPa) = 50.94510 78.43864 64.69187
# Shear Modulus (GPa) = 30.94968 11.36290 21.15629
#
# Velocity S-wave (km/s) = 4.13994 2.50848 3.42283
# Velocity P-wave (km/s) = 7.14592 7.19911 7.17257
#
# Compressibility (1/GPa) = 0.01962897
#
# Stress axis : x y z
#
# Youngs Moduli (GPa) = 55.78706 100.81212 35.15580
#
# Poissons Ratio (x) = 0.28994 0.18095
# Poissons Ratio (y) = 0.16044 0.36236
# Poissons Ratio (z) = 0.28714 1.03909
#
# Static dielectric constant tensor:
#      x y z
#    x 3.350240 0.000000 0.000000 
#    y 0.000000 3.964450 0.000000 
#    z 0.000000 0.000000 3.165740 
# 
# 
# High freq. dielectric constant tensor:
#      x y z
#    x 1.702700 0.000000 0.000000 
#    y 0.000000 1.721630 0.000000 
#    z 0.000000 0.000000 1.671810 
# 
# From -- ./inp_files/5013.got.cif
#   From: 2010.03.12/outbox.cif.g09.slc.cpg/sg35_3_cif.got.tgz:5013.got - 2010.04.14 02:02:04.
