data_PCOD8172680
_publ_section_title
;
Structure prediction by ZEFSAII (Michael W. Deem and Ramdas Pophale) SiO2 
 PCOD8172680
Probable space group: C M M 2
;
_chemical_formula_sum "Si O2"
_cell_formula_units_Z 64
_cell_length_a 9.138156
_cell_length_b 19.207248
_cell_length_c 20.619468
_cell_angle_alpha 90.000000
_cell_angle_beta 90.000000
_cell_angle_gamma 90.000000
_cell_volume 3619.104869
_symmetry_space_group_name_H-M "C M M 2"
_symmetry_group_IT_number 35
_symmetry_cell_setting 'orthorhombic'
loop_
_space_group_symop_operation_xyz
x,y,z
-x,-y,z
-x,y,z
x,-y,z
1/2+x,1/2+y,z
1/2-x,1/2-y,z
1/2-x,1/2+y,z
1/2+x,1/2-y,z
loop_
_atom_site_type_symbol
_atom_site_label
_atom_site_fract_x
_atom_site_fract_y
_atom_site_fract_z
Si Si1 0.333174 0.679398 0.511350
Si Si2 0.172700 0.824760 0.652315
Si Si3 0.831306 0.080360 0.885252
Si Si4 0.173768 0.922055 0.257014
Si Si5 0.328174 0.675859 0.370979
Si Si6 0.172014 0.820726 0.145241
Si Si7 0.669765 0.918216 0.756382
Si Si8 0.829106 0.180390 0.998781
O O1 0.500000 0.701518 0.511650
O O2 0.250000 0.750000 0.510497
O O3 0.297914 0.641673 0.580010
O O4 0.297473 0.641090 0.442787
O O5 0.250000 0.750000 0.660042
O O6 0.241256 0.879278 0.701208
O O7 0.000000 0.816071 0.666122
O O8 0.731974 0.106100 0.825753
O O9 0.781181 0.119558 0.950199
O O10 0.000000 0.095647 0.867670
O O11 0.804466 0.000000 0.900095
O O12 0.233769 0.878942 0.318769
O O13 0.224569 0.883501 0.191289
O O14 0.000000 0.926599 0.260104
O O15 0.240769 0.000000 0.257737
O O16 0.500000 0.688691 0.359851
O O17 0.250000 0.750000 0.362374
O O18 0.250000 0.750000 0.167695
O O19 0.000000 0.808013 0.151936
O O20 0.217219 0.840791 0.071795
O O21 0.500000 0.897931 0.752609
O O22 0.695413 0.000000 0.746490
O O23 0.750000 0.250000 0.975793
O O24 0.000000 0.194965 0.995224
#
# Coordination Sequence:
#
# PCOD8172680 Si02
#       8
#     8   8   8   8   8   8   8   8
#     4   8  15  27  44  68  94 120 153 192 233 277
#     4  10  19  32  51  74  99 126 159 200 244 288
#     4   9  18  33  51  69  91 122 159 196 234 279
#     4   9  17  28  44  68  96 124 155 193 233 271
#     4   9  16  28  47  69  92 121 157 193 231 276
#     4   9  17  30  48  69  93 122 156 191 229 275
#     4  10  21  36  52  71  97 129 163 198 238 286
#     4   9  18  31  48  71  96 121 151 191 235 277
#
# _framework density 17.683931999999999
#
# number of rings (size 3 to 8) (size 9 to 14) (size 15 to 20)
#    0.000    2.875    0.000    1.125    0.000    2.750 
#    0.000    4.375    0.000    3.750    0.000    3.500 
#    0.000    0.000    0.000    0.000    0.000    0.000 
#
# Total GULP energy -396546.353758 kJ/mol
# GULP energy per Si atom -12392.073555 kJ/mol
# Density = 1.764368 g / cm^3
# Si number density = 17.683932 Si / 1000 Ang^3
#
#
#
# Elastic Constant Matrix: (Units=GPa)
#
#
# Indices 1 2 3 4 5 6 
#
# 1 50.9695 35.2979 48.5134 0.0000 0.0000 0.0000
# 2 35.2979 96.3045 82.5844 0.0000 0.0000 0.0000
# 3 48.5134 82.5844 159.6036 0.0000 0.0000 0.0000
# 4 0.0000 0.0000 0.0000 15.1487 0.0000 0.0000
# 5 0.0000 0.0000 0.0000 0.0000 20.1737 0.0000
# 6 0.0000 0.0000 0.0000 0.0000 0.0000 24.4681
#
#
#
# Elastic Compliance Matrix: (Units=1/GPa)
#
#
# Indices 1 2 3 4 5 6 
#
# 1 0.029169 -0.005551 -0.005994 0.000000 0.000000 0.000000
# 2 -0.005551 0.019723 -0.008518 0.000000 0.000000 0.000000
# 3 -0.005994 -0.008518 0.012495 0.000000 0.000000 0.000000
# 4 0.000000 0.000000 0.000000 0.066012 0.000000 0.000000
# 5 0.000000 0.000000 0.000000 0.000000 0.049569 0.000000
# 6 0.000000 0.000000 0.000000 0.000000 0.000000 0.040869
#
#
# Mechanical properties :
#
#
# Convention : Reuss Voigt Hill
#
# Bulk Modulus (GPa) = 47.03505 71.07434 59.05469
# Shear Modulus (GPa) = 18.86431 21.32356 20.09394
#
# Velocity S-wave (km/s) = 3.26966 3.47625 3.37454
# Velocity P-wave (km/s) = 6.39606 7.50941 6.97498
#
# Compressibility (1/GPa) = 0.02126074
#
# Stress axis : x y z
#
# Youngs Moduli (GPa) = 34.28298 50.70288 80.03270
#
# Poissons Ratio (x) = 0.28146 0.47971
# Poissons Ratio (y) = 0.19031 0.68171
# Poissons Ratio (z) = 0.20549 0.43188
#
# Static dielectric constant tensor:
#      x y z
#    x 3.195700 0.000000 0.000000 
#    y 0.000000 3.145780 0.000000 
#    z 0.000000 0.000000 3.946680 
# 
# 
# High freq. dielectric constant tensor:
#      x y z
#    x 1.671650 0.000000 0.000000 
#    y 0.000000 1.658080 0.000000 
#    z 0.000000 0.000000 1.705600 
# 
# From -- ./inp_files/18325.got.cif
#   From: 2010.03.12/outbox.cif.g09.slc.cpg/sg35_10_cif.got.tgz:18325.got - 2010.04.14 02:02:04.
