data_PCOD8172137
_publ_section_title
;
Structure prediction by ZEFSAII (Michael W. Deem and Ramdas Pophale) SiO2 
 PCOD8172137
Probable space group: P N N 2
;
_chemical_formula_sum "Si O2"
_cell_formula_units_Z 28
_cell_length_a 26.311391
_cell_length_b 6.867587
_cell_length_c 6.860688
_cell_angle_alpha 90.000000
_cell_angle_beta 90.000000
_cell_angle_gamma 90.000000
_cell_volume 1239.697279
_symmetry_space_group_name_H-M "P N N 2"
_symmetry_group_IT_number 34
_symmetry_cell_setting 'orthorhombic'
loop_
_space_group_symop_operation_xyz
x,y,z
-x,-y,z
1/2-x,1/2+y,1/2+z
1/2+x,1/2-y,1/2+z
loop_
_atom_site_type_symbol
_atom_site_label
_atom_site_fract_x
_atom_site_fract_y
_atom_site_fract_z
Si Si1 0.796004 0.361161 0.779290
Si Si2 0.573208 0.736167 0.791834
Si Si3 0.364537 0.459991 0.109263
Si Si4 0.137092 0.460091 0.087505
Si Si5 0.064098 0.241567 0.810569
Si Si6 0.500000 0.500000 0.563854
Si Si7 0.804103 0.686298 0.448161
Si Si8 0.500000 0.000000 0.037567
O O1 0.838616 0.197723 0.747940
O O2 0.790612 0.509624 0.596178
O O3 0.743347 0.252656 0.818410
O O4 0.812076 0.470252 0.977283
O O5 0.549129 0.548077 0.690993
O O6 0.595839 0.872651 0.624234
O O7 0.620091 0.659241 0.917833
O O8 0.527391 0.838522 0.907724
O O9 0.415863 0.548451 0.200876
O O10 0.324368 0.630822 0.069205
O O11 0.151824 0.375174 0.298140
O O12 0.110544 0.306158 0.946117
O O13 0.046057 0.407346 0.661727
O O14 0.014415 0.186601 0.933901
#
# Coordination Sequence:
#
# PCOD8172137 Si02
#       8
#     4   4   4   4   4   2   4   2
#     4  12  28  48  73 107 144 186 239 300 358 429
#     4  12  24  43  69 101 142 186 236 290 353 424
#     4  12  25  47  72 104 142 190 236 293 361 422
#     4  12  25  47  72 104 142 190 236 293 361 422
#     4  12  24  43  69 101 142 186 236 290 353 424
#     4  12  24  40  64 104 134 188 236 284 352 424
#     4  12  28  48  73 107 144 186 239 300 358 429
#     4  12  24  44  68 104 146 184 236 296 352 412
#
# _framework density 22.586157
#
# number of rings (size 3 to 8) (size 9 to 14) (size 15 to 20)
#    0.000    0.000    2.857    7.714    4.000    2.286 
#    0.000    0.000    0.000    0.000    0.000    0.000 
#    0.000    0.000    0.000    0.000    0.000    0.000 
#
# Total GULP energy -347367.409637 kJ/mol
# GULP energy per Si atom -12405.978916 kJ/mol
# Density = 2.253475 g / cm^3
# Si number density = 22.586157 Si / 1000 Ang^3
#
#
#
# Elastic Constant Matrix: (Units=GPa)
#
#
# Indices 1 2 3 4 5 6 
#
# 1 89.1007 25.2768 24.5550 0.0000 0.0000 0.0000
# 2 25.2768 94.8426 31.2822 0.0000 0.0000 0.0000
# 3 24.5550 31.2822 92.9466 0.0000 0.0000 0.0000
# 4 0.0000 0.0000 0.0000 20.0319 0.0000 0.0000
# 5 0.0000 0.0000 0.0000 0.0000 47.2421 0.0000
# 6 0.0000 0.0000 0.0000 0.0000 0.0000 51.5823
#
#
#
# Elastic Compliance Matrix: (Units=1/GPa)
#
#
# Indices 1 2 3 4 5 6 
#
# 1 0.012629 -0.002548 -0.002479 0.000000 0.000000 0.000000
# 2 -0.002548 0.012375 -0.003492 0.000000 0.000000 0.000000
# 3 -0.002479 -0.003492 0.012589 0.000000 0.000000 0.000000
# 4 0.000000 0.000000 0.000000 0.049920 0.000000 0.000000
# 5 0.000000 0.000000 0.000000 0.000000 0.021168 0.000000
# 6 0.000000 0.000000 0.000000 0.000000 0.000000 0.019386
#
#
# Mechanical properties :
#
#
# Convention : Reuss Voigt Hill
#
# Bulk Modulus (GPa) = 48.64903 48.79086 48.71995
# Shear Modulus (GPa) = 32.90422 36.82300 34.86361
#
# Velocity S-wave (km/s) = 3.82099 4.04212 3.93311
# Velocity P-wave (km/s) = 6.40723 6.59045 6.49949
#
# Compressibility (1/GPa) = 0.02055539
#
# Stress axis : x y z
#
# Youngs Moduli (GPa) = 79.18097 80.81088 79.43532
#
# Poissons Ratio (x) = 0.20593 0.19690
# Poissons Ratio (y) = 0.20178 0.27735
# Poissons Ratio (z) = 0.19627 0.28216
#
# Static dielectric constant tensor:
#      x y z
#    x 3.937130 0.000000 0.000000 
#    y 0.000000 4.128680 0.000000 
#    z 0.000000 0.000000 4.157740 
# 
# 
# High freq. dielectric constant tensor:
#      x y z
#    x 1.897320 0.000000 0.000000 
#    y 0.000000 1.901690 0.000000 
#    z 0.000000 0.000000 1.902090 
# 
# From -- ./inp_files/4132.got.cif
#   From: 2010.03.12/outbox.cif.g09.slc.cpg/sg34_3_cif.got.tgz:4132.got - 2010.04.14 01:56:33.
