data_PCOD8172791
_publ_section_title
;
Structure prediction by ZEFSAII (Michael W. Deem and Ramdas Pophale) SiO2 
 PCOD8172791
Probable space group: C M M 2
;
_chemical_formula_sum "Si O2"
_cell_formula_units_Z 64
_cell_length_a 9.151171
_cell_length_b 18.303189
_cell_length_c 20.674674
_cell_angle_alpha 90.000000
_cell_angle_beta 90.000000
_cell_angle_gamma 90.000000
_cell_volume 3462.917182
_symmetry_space_group_name_H-M "C M M 2"
_symmetry_group_IT_number 35
_symmetry_cell_setting 'orthorhombic'
loop_
_space_group_symop_operation_xyz
x,y,z
-x,-y,z
-x,y,z
x,-y,z
1/2+x,1/2+y,z
1/2-x,1/2-y,z
1/2-x,1/2+y,z
1/2+x,1/2-y,z
loop_
_atom_site_type_symbol
_atom_site_label
_atom_site_fract_x
_atom_site_fract_y
_atom_site_fract_z
Si Si1 0.161445 0.413308 0.000000
Si Si2 0.328699 0.172157 0.511069
Si Si3 0.171657 0.173608 0.746214
Si Si4 0.668124 0.415379 0.618502
Si Si5 0.335203 0.586779 0.122158
Si Si6 0.671829 0.172050 0.230489
Si Si7 0.328842 0.915496 0.855104
Si Si8 0.333668 0.176088 0.370720
O O1 0.153919 0.500000 0.002660
O O2 0.273593 0.383183 0.053717
O O3 0.000000 0.381574 0.015018
O O4 0.211059 0.390257 0.928072
O O5 0.500000 0.184418 0.523702
O O6 0.250000 0.250000 0.519576
O O7 0.268389 0.114201 0.561398
O O8 0.299286 0.136133 0.439207
O O9 0.250000 0.250000 0.735415
O O10 0.209379 0.124160 0.684791
O O11 0.231548 0.134329 0.809573
O O12 0.000000 0.186432 0.754594
O O13 0.500000 0.401832 0.599828
O O14 0.703119 0.500000 0.628557
O O15 0.500000 0.615832 0.129729
O O16 0.329278 0.500000 0.124024
O O17 0.236190 0.615369 0.180010
O O18 0.500000 0.182334 0.217563
O O19 0.750000 0.250000 0.223280
O O20 0.701682 0.136024 0.302366
O O21 0.500000 0.903142 0.841268
O O22 0.287147 0.000000 0.844048
O O23 0.500000 0.199910 0.370198
O O24 0.250000 0.250000 0.371353
#
# Coordination Sequence:
#
# PCOD8172791 Si02
#       8
#     8   8   8   8   8   8   8   8
#     4   8  15  30  52  76 102 134 171 210 255 307
#     4  10  19  33  55  81 106 134 171 213 258 308
#     4  11  23  38  56  78 106 139 174 213 256 304
#     4  10  22  39  56  77 106 138 173 213 257 305
#     4  10  20  33  50  75 106 138 175 217 257 303
#     4  10  19  33  53  75 102 136 173 215 262 310
#     4   9  18  34  57  83 108 134 168 211 257 307
#     4   8  16  30  49  74 101 131 169 211 255 306
#
# _framework density 18.481527
#
# number of rings (size 3 to 8) (size 9 to 14) (size 15 to 20)
#    0.000    2.500    0.000    3.000    0.000    5.250 
#    0.000    2.500    0.000    6.750    0.000    0.000 
#    0.000    0.000    0.000    0.000    0.000    0.000 
#
# Total GULP energy -396582.317070 kJ/mol
# GULP energy per Si atom -12393.197408 kJ/mol
# Density = 1.843946 g / cm^3
# Si number density = 18.481527 Si / 1000 Ang^3
#
#
#
# Elastic Constant Matrix: (Units=GPa)
#
#
# Indices 1 2 3 4 5 6 
#
# 1 107.1410 45.6281 82.4527 0.0000 0.0000 0.0000
# 2 45.6281 69.7946 55.2008 0.0000 0.0000 0.0000
# 3 82.4527 55.2008 166.6461 0.0000 0.0000 0.0000
# 4 0.0000 0.0000 0.0000 27.8445 0.0000 0.0000
# 5 0.0000 0.0000 0.0000 0.0000 32.0310 0.0000
# 6 0.0000 0.0000 0.0000 0.0000 0.0000 27.3672
#
#
#
# Elastic Compliance Matrix: (Units=1/GPa)
#
#
# Indices 1 2 3 4 5 6 
#
# 1 0.016713 -0.005943 -0.006301 0.000000 0.000000 0.000000
# 2 -0.005943 0.021527 -0.004190 0.000000 0.000000 0.000000
# 3 -0.006301 -0.004190 0.010506 0.000000 0.000000 0.000000
# 4 0.000000 0.000000 0.000000 0.035914 0.000000 0.000000
# 5 0.000000 0.000000 0.000000 0.000000 0.031220 0.000000
# 6 0.000000 0.000000 0.000000 0.000000 0.000000 0.036540
#
#
# Mechanical properties :
#
#
# Convention : Reuss Voigt Hill
#
# Bulk Modulus (GPa) = 62.97818 78.90499 70.94158
# Shear Modulus (GPa) = 26.23551 28.13520 27.18536
#
# Velocity S-wave (km/s) = 3.77178 3.90595 3.83945
# Velocity P-wave (km/s) = 7.28826 7.94535 7.62389
#
# Compressibility (1/GPa) = 0.01587851
#
# Stress axis : x y z
#
# Youngs Moduli (GPa) = 59.83244 46.45305 95.18150
#
# Poissons Ratio (x) = 0.27607 0.59972
# Poissons Ratio (y) = 0.35558 0.39884
# Poissons Ratio (z) = 0.37699 0.19465
#
# Static dielectric constant tensor:
#      x y z
#    x 3.564750 0.000000 0.000000 
#    y 0.000000 3.019330 0.000000 
#    z 0.000000 0.000000 4.026800 
# 
# 
# High freq. dielectric constant tensor:
#      x y z
#    x 1.725990 0.000000 0.000000 
#    y 0.000000 1.679140 0.000000 
#    z 0.000000 0.000000 1.740010 
# 
# From -- ./inp_files/18381.got.cif
#   From: 2010.03.12/outbox.cif.g09.slc.cpg/sg35_10_cif.got.tgz:18381.got - 2010.04.14 02:02:04.
