data_PCOD8172384
_publ_section_title
;
Structure prediction by ZEFSAII (Michael W. Deem and Ramdas Pophale) SiO2 
 PCOD8172384
Probable space group: C M M 2
;
_chemical_formula_sum "Si O2"
_cell_formula_units_Z 44
_cell_length_a 12.848946
_cell_length_b 18.876569
_cell_length_c 10.952694
_cell_angle_alpha 90.000000
_cell_angle_beta 90.000000
_cell_angle_gamma 90.000000
_cell_volume 2656.510386
_symmetry_space_group_name_H-M "C M M 2"
_symmetry_group_IT_number 35
_symmetry_cell_setting 'orthorhombic'
loop_
_space_group_symop_operation_xyz
x,y,z
-x,-y,z
-x,y,z
x,-y,z
1/2+x,1/2+y,z
1/2-x,1/2-y,z
1/2-x,1/2+y,z
1/2+x,1/2-y,z
loop_
_atom_site_type_symbol
_atom_site_label
_atom_site_fract_x
_atom_site_fract_y
_atom_site_fract_z
Si Si1 0.118898 0.717834 0.320140
Si Si2 0.877727 0.860446 0.699372
Si Si3 0.700875 0.641463 0.208140
Si Si4 0.121015 0.082808 0.963690
Si Si5 0.613578 0.500000 0.590555
Si Si6 0.750000 0.250000 0.546858
Si Si7 0.114393 0.000000 0.308554
O O1 0.179353 0.664219 0.229645
O O2 0.127519 0.797466 0.265969
O O3 0.167772 0.711481 0.456398
O O4 0.000000 0.694094 0.326007
O O5 0.856651 0.872290 0.842116
O O6 0.812789 0.797847 0.641146
O O7 0.000000 0.848209 0.671291
O O8 0.829231 0.929370 0.633034
O O9 0.679606 0.568585 0.276172
O O10 0.682851 0.627420 0.065347
O O11 0.000000 0.084016 0.997030
O O12 0.157859 0.000000 0.954607
O O13 0.500000 0.500000 0.658294
O O14 0.595380 0.500000 0.449475
O O15 0.000000 0.000000 0.242892
#
# Coordination Sequence:
#
# PCOD8172384 Si02
#       7
#     8   8   8   8   4   4   4
#     4  10  21  37  52  74 107 140 172 215 261 312
#     4  10  19  32  50  76 106 137 168 208 260 307
#     4  10  20  32  53  79 103 135 171 211 266 310
#     4  10  18  31  52  79 109 134 163 213 266 308
#     4   9  16  27  45  70  99 127 160 204 254 298
#     4  10  20  32  52  76 104 138 174 212 256 308
#     4  11  18  27  50  80 103 127 169 220 261 300
#
# _framework density 16.563082999999999
#
# number of rings (size 3 to 8) (size 9 to 14) (size 15 to 20)
#    0.000    2.182    1.818    4.364    0.000    2.909 
#    0.000    0.455    0.000    1.091    0.000    1.909 
#    0.000    0.000    0.000    0.000    0.000    0.000 
#
# Total GULP energy -272613.944742 kJ/mol
# GULP energy per Si atom -12391.542943 kJ/mol
# Density = 1.652538 g / cm^3
# Si number density = 16.563083 Si / 1000 Ang^3
#
#
#
# Elastic Constant Matrix: (Units=GPa)
#
#
# Indices 1 2 3 4 5 6 
#
# 1 108.2167 48.8039 49.7749 0.0000 0.0000 0.0000
# 2 48.8039 110.8097 53.4741 0.0000 0.0000 0.0000
# 3 49.7749 53.4741 125.0964 0.0000 0.0000 0.0000
# 4 0.0000 0.0000 0.0000 33.4601 0.0000 0.0000
# 5 0.0000 0.0000 0.0000 0.0000 20.6763 0.0000
# 6 0.0000 0.0000 0.0000 0.0000 0.0000 21.2102
#
#
#
# Elastic Compliance Matrix: (Units=1/GPa)
#
#
# Indices 1 2 3 4 5 6 
#
# 1 0.012532 -0.003922 -0.003310 0.000000 0.000000 0.000000
# 2 -0.003922 0.012597 -0.003824 0.000000 0.000000 0.000000
# 3 -0.003310 -0.003824 0.010946 0.000000 0.000000 0.000000
# 4 0.000000 0.000000 0.000000 0.029886 0.000000 0.000000
# 5 0.000000 0.000000 0.000000 0.000000 0.048364 0.000000
# 6 0.000000 0.000000 0.000000 0.000000 0.000000 0.047147
#
#
# Mechanical properties :
#
#
# Convention : Reuss Voigt Hill
#
# Bulk Modulus (GPa) = 71.62144 72.02541 71.82343
# Shear Modulus (GPa) = 26.56188 27.87397 27.21793
#
# Velocity S-wave (km/s) = 4.00894 4.10676 4.05815
# Velocity P-wave (km/s) = 8.04763 8.12818 8.08800
#
# Compressibility (1/GPa) = 0.01396230
#
# Stress axis : x y z
#
# Youngs Moduli (GPa) = 79.79628 79.38091 91.36156
#
# Poissons Ratio (x) = 0.31135 0.30238
# Poissons Ratio (y) = 0.31298 0.34940
# Poissons Ratio (z) = 0.26411 0.30358
#
# Static dielectric constant tensor:
#      x y z
#    x 2.906980 0.000000 0.000000 
#    y 0.000000 3.139280 0.000000 
#    z 0.000000 0.000000 3.223900 
# 
# 
# High freq. dielectric constant tensor:
#      x y z
#    x 1.606090 0.000000 0.000000 
#    y 0.000000 1.635860 0.000000 
#    z 0.000000 0.000000 1.652720 
# 
# From -- ./inp_files/12854.got.cif
#   From: 2010.03.12/outbox.cif.g09.slc.cpg/sg35_7_cif.got.tgz:12854.got - 2010.04.14 02:02:04.
