data_PCOD8172402
_publ_section_title
;
Structure prediction by ZEFSAII (Michael W. Deem and Ramdas Pophale) SiO2 
 PCOD8172402
Probable space group: C M M 2
;
_chemical_formula_sum "Si O2"
_cell_formula_units_Z 40
_cell_length_a 16.740356
_cell_length_b 14.921234
_cell_length_c 8.944171
_cell_angle_alpha 90.000000
_cell_angle_beta 90.000000
_cell_angle_gamma 90.000000
_cell_volume 2234.135577
_symmetry_space_group_name_H-M "C M M 2"
_symmetry_group_IT_number 35
_symmetry_cell_setting 'orthorhombic'
loop_
_space_group_symop_operation_xyz
x,y,z
-x,-y,z
-x,y,z
x,-y,z
1/2+x,1/2+y,z
1/2-x,1/2-y,z
1/2-x,1/2+y,z
1/2+x,1/2-y,z
loop_
_atom_site_type_symbol
_atom_site_label
_atom_site_fract_x
_atom_site_fract_y
_atom_site_fract_z
Si Si1 0.738220 0.000000 0.336141
Si Si2 0.089939 0.500000 0.753964
Si Si3 0.410376 0.500000 0.438813
Si Si4 0.090549 0.814981 0.612425
Si Si5 0.726231 0.000000 0.996865
Si Si6 0.210460 0.162031 0.838059
Si Si7 0.825079 0.361283 0.565867
O O1 0.835564 0.000000 0.324369
O O2 0.704494 0.088868 0.416778
O O3 0.702956 0.000000 0.169807
O O4 0.145639 0.500000 0.900473
O O5 0.103906 0.586591 0.650328
O O6 0.000000 0.500000 0.813796
O O7 0.500000 0.500000 0.363327
O O8 0.400634 0.588111 0.538620
O O9 0.118834 0.821350 0.787128
O O10 0.143904 0.738922 0.527156
O O11 0.000000 0.781928 0.611160
O O12 0.781614 0.085074 0.960045
O O13 0.250000 0.250000 0.910840
O O14 0.251046 0.138048 0.679370
#
# Coordination Sequence:
#
# PCOD8172402 Si02
#       7
#     4   4   4   8   4   8   8
#     4  11  20  36  53  81 109 148 186 225 274 347
#     4   9  17  33  55  78 106 139 175 228 280 323
#     4  10  20  32  50  78 110 141 175 223 281 318
#     4  10  18  31  55  84 106 134 179 238 279 312
#     4  10  21  35  52  77 113 146 186 218 273 342
#     4   9  17  33  52  76 102 137 179 226 265 326
#     4   9  18  32  56  79 103 136 184 224 275 322
#
# _framework density 17.904015999999999
#
# number of rings (size 3 to 8) (size 9 to 14) (size 15 to 20)
#    0.000    2.400    2.000    1.800    0.000    0.000 
#    3.600    4.000    0.000    0.000    0.000    0.000 
#    0.000    0.000    0.000    0.000    0.000    0.000 
#
# Total GULP energy -247858.615813 kJ/mol
# GULP energy per Si atom -12392.930791 kJ/mol
# Density = 1.786327 g / cm^3
# Si number density = 17.904016 Si / 1000 Ang^3
#
#
#
# Elastic Constant Matrix: (Units=GPa)
#
#
# Indices 1 2 3 4 5 6 
#
# 1 91.0367 23.8148 27.2208 0.0000 0.0000 0.0000
# 2 23.8148 132.2876 42.4351 0.0000 0.0000 0.0000
# 3 27.2208 42.4351 88.1066 0.0000 0.0000 0.0000
# 4 0.0000 0.0000 0.0000 11.3541 0.0000 0.0000
# 5 0.0000 0.0000 0.0000 0.0000 14.6104 0.0000
# 6 0.0000 0.0000 0.0000 0.0000 0.0000 24.7325
#
#
#
# Elastic Compliance Matrix: (Units=1/GPa)
#
#
# Indices 1 2 3 4 5 6 
#
# 1 0.012255 -0.001173 -0.003221 0.000000 0.000000 0.000000
# 2 -0.001173 0.009053 -0.003998 0.000000 0.000000 0.000000
# 3 -0.003221 -0.003998 0.014271 0.000000 0.000000 0.000000
# 4 0.000000 0.000000 0.000000 0.088074 0.000000 0.000000
# 5 0.000000 0.000000 0.000000 0.000000 0.068444 0.000000
# 6 0.000000 0.000000 0.000000 0.000000 0.000000 0.040433
#
#
# Mechanical properties :
#
#
# Convention : Reuss Voigt Hill
#
# Bulk Modulus (GPa) = 53.20763 55.37470 54.29116
# Shear Modulus (GPa) = 19.56354 24.67009 22.11681
#
# Velocity S-wave (km/s) = 3.30917 3.71605 3.51850
# Velocity P-wave (km/s) = 6.66210 7.02907 6.84804
#
# Compressibility (1/GPa) = 0.01879430
#
# Stress axis : x y z
#
# Youngs Moduli (GPa) = 81.60233 110.46275 70.07435
#
# Poissons Ratio (x) = 0.12955 0.22572
# Poissons Ratio (y) = 0.09570 0.28014
# Poissons Ratio (z) = 0.26286 0.44161
#
# Static dielectric constant tensor:
#      x y z
#    x 3.471240 0.000000 0.000000 
#    y 0.000000 3.637770 0.000000 
#    z 0.000000 0.000000 2.780240 
# 
# 
# High freq. dielectric constant tensor:
#      x y z
#    x 1.696040 0.000000 0.000000 
#    y 0.000000 1.717710 0.000000 
#    z 0.000000 0.000000 1.633740 
# 
# From -- ./inp_files/9171.got.cif
#   From: 2010.03.12/outbox.cif.g09.slc.cpg/sg35_5_cif.got.tgz:9171.got - 2010.04.14 02:02:04.
