data_PCOD8172485
_publ_section_title
;
Structure prediction by ZEFSAII (Michael W. Deem and Ramdas Pophale) SiO2 
 PCOD8172485
Probable space group: C M M 2
;
_chemical_formula_sum "Si O2"
_cell_formula_units_Z 64
_cell_length_a 30.451445
_cell_length_b 9.270784
_cell_length_c 15.141516
_cell_angle_alpha 90.000000
_cell_angle_beta 90.000000
_cell_angle_gamma 90.000000
_cell_volume 4274.582744
_symmetry_space_group_name_H-M "C M M 2"
_symmetry_group_IT_number 35
_symmetry_cell_setting 'orthorhombic'
loop_
_space_group_symop_operation_xyz
x,y,z
-x,-y,z
-x,y,z
x,-y,z
1/2+x,1/2+y,z
1/2-x,1/2-y,z
1/2-x,1/2+y,z
1/2+x,1/2-y,z
loop_
_atom_site_type_symbol
_atom_site_label
_atom_site_fract_x
_atom_site_fract_y
_atom_site_fract_z
Si Si1 0.447947 0.158737 0.414050
Si Si2 0.707796 0.835944 0.107569
Si Si3 0.120973 0.831237 0.104000
Si Si4 0.876602 0.167549 0.898076
Si Si5 0.552198 0.340958 0.574542
Si Si6 0.451372 0.671907 0.767592
Si Si7 0.051095 0.331092 0.217091
Si Si8 0.791476 0.337410 0.897452
O O1 0.500000 0.151440 0.423717
O O2 0.427086 0.252455 0.493021
O O3 0.436431 0.218924 0.316691
O O4 0.427717 0.000000 0.424176
O O5 0.750000 0.750000 0.145422
O O6 0.664129 0.752133 0.138537
O O7 0.707370 0.000000 0.144507
O O8 0.710187 0.838643 0.002607
O O9 0.078379 0.767257 0.150831
O O10 0.126325 0.000000 0.125647
O O11 0.113616 0.805105 0.000407
O O12 0.918185 0.225343 0.842809
O O13 0.835150 0.258090 0.864364
O O14 0.866842 0.000000 0.879677
O O15 0.500000 0.348270 0.565921
O O16 0.572649 0.500000 0.567060
O O17 0.563942 0.271988 0.670412
O O18 0.500000 0.731992 0.790671
O O19 0.453240 0.500000 0.763444
O O20 0.061989 0.500000 0.203715
O O21 0.000000 0.302286 0.197916
O O22 0.790515 0.500000 0.860181
O O23 0.750000 0.250000 0.859333
#
# Coordination Sequence:
#
# PCOD8172485 Si02
#       8
#     8   8   8   8   8   8   8   8
#     4   8  14  25  40  56  74  98 128 163 206 250
#     4   9  16  27  43  60  79 103 131 166 208 249
#     4  10  19  28  40  60  83 108 141 176 205 235
#     4   9  17  28  41  57  80 110 141 170 199 233
#     4   8  13  22  38  58  76  96 126 164 203 239
#     4   8  14  25  40  57  79 109 141 168 196 234
#     4   9  18  31  43  55  77 111 144 171 204 245
#     4   9  16  26  41  59  78 100 129 166 207 246
#
# _framework density 14.972222
#
# number of rings (size 3 to 8) (size 9 to 14) (size 15 to 20)
#    0.000    3.250    0.000    2.625    0.000    4.750 
#    0.000    3.125    0.000    1.125    0.000    0.000 
#    0.000    1.000    0.000    7.750    0.000    5.250 
#
# Total GULP energy -396597.258887 kJ/mol
# GULP energy per Si atom -12393.664340 kJ/mol
# Density = 1.493814 g / cm^3
# Si number density = 14.972222 Si / 1000 Ang^3
#
#
#
# Elastic Constant Matrix: (Units=GPa)
#
#
# Indices 1 2 3 4 5 6 
#
# 1 90.9217 52.7829 46.6363 0.0000 0.0000 0.0000
# 2 52.7829 88.2293 40.8142 0.0000 0.0000 0.0000
# 3 46.6363 40.8142 64.4829 0.0000 0.0000 0.0000
# 4 0.0000 0.0000 0.0000 16.4942 0.0000 0.0000
# 5 0.0000 0.0000 0.0000 0.0000 1.0066 0.0000
# 6 0.0000 0.0000 0.0000 0.0000 0.0000 24.3212
#
#
#
# Elastic Compliance Matrix: (Units=1/GPa)
#
#
# Indices 1 2 3 4 5 6 
#
# 1 0.020611 -0.007685 -0.010042 0.000000 0.000000 0.000000
# 2 -0.007685 0.018892 -0.006400 0.000000 0.000000 0.000000
# 3 -0.010042 -0.006400 0.026822 0.000000 0.000000 0.000000
# 4 0.000000 0.000000 0.000000 0.060627 0.000000 0.000000
# 5 0.000000 0.000000 0.000000 0.000000 0.993445 0.000000
# 6 0.000000 0.000000 0.000000 0.000000 0.000000 0.041116
#
#
# Mechanical properties :
#
#
# Convention : Reuss Voigt Hill
#
# Bulk Modulus (GPa) = 55.33830 58.23340 56.78585
# Shear Modulus (GPa) = 4.11255 15.25779 9.68517
#
# Velocity S-wave (km/s) = 1.65914 3.19576 2.54613
# Velocity P-wave (km/s) = 6.38053 7.25230 6.83034
#
# Compressibility (1/GPa) = 0.01807067
#
# Stress axis : x y z
#
# Youngs Moduli (GPa) = 48.51849 52.93261 37.28344
#
# Poissons Ratio (x) = 0.40678 0.37441
# Poissons Ratio (y) = 0.37285 0.23860
# Poissons Ratio (z) = 0.48724 0.33875
#
# Static dielectric constant tensor:
#      x y z
#    x 2.778800 0.000000 0.000000 
#    y 0.000000 3.010670 0.000000 
#    z 0.000000 0.000000 2.804050 
# 
# 
# High freq. dielectric constant tensor:
#      x y z
#    x 1.547300 0.000000 0.000000 
#    y 0.000000 1.571770 0.000000 
#    z 0.000000 0.000000 1.544370 
# 
# From -- ./inp_files/16160.got.cif
#   From: 2010.03.12/outbox.cif.g09.slc.cpg/sg35_9_cif.got.tgz:16160.got - 2010.04.14 02:02:04.
