data_PCOD8172639
_publ_section_title
;
Structure prediction by ZEFSAII (Michael W. Deem and Ramdas Pophale) SiO2 
 PCOD8172639
Probable space group: C M M 2
;
_chemical_formula_sum "Si O2"
_cell_formula_units_Z 64
_cell_length_a 9.002369
_cell_length_b 28.288577
_cell_length_c 15.416798
_cell_angle_alpha 90.000000
_cell_angle_beta 90.000000
_cell_angle_gamma 90.000000
_cell_volume 3926.106662
_symmetry_space_group_name_H-M "C M M 2"
_symmetry_group_IT_number 35
_symmetry_cell_setting 'orthorhombic'
loop_
_space_group_symop_operation_xyz
x,y,z
-x,-y,z
-x,y,z
x,-y,z
1/2+x,1/2+y,z
1/2-x,1/2-y,z
1/2-x,1/2+y,z
1/2+x,1/2-y,z
loop_
_atom_site_type_symbol
_atom_site_label
_atom_site_fract_x
_atom_site_fract_y
_atom_site_fract_z
Si Si1 0.670940 0.056006 0.953300
Si Si2 0.675280 0.798151 0.162436
Si Si3 0.171507 0.945633 0.277915
Si Si4 0.324569 0.896144 0.433640
Si Si5 0.176239 0.109704 0.107672
Si Si6 0.173600 0.297435 0.362824
Si Si7 0.826120 0.554627 0.608558
Si Si8 0.667314 0.443843 0.781232
O O1 0.500000 0.071765 0.961148
O O2 0.734587 0.074431 0.861562
O O3 0.687813 0.000000 0.961451
O O4 0.768934 0.079125 0.027531
O O5 0.500000 0.795851 0.147426
O O6 0.750000 0.750000 0.129494
O O7 0.745401 0.839519 0.104811
O O8 0.716806 0.806752 0.262974
O O9 0.261321 0.931375 0.362448
O O10 0.227333 0.916221 0.195408
O O11 0.000000 0.935600 0.296810
O O12 0.202318 0.000000 0.256579
O O13 0.500000 0.898742 0.424598
O O14 0.269058 0.842390 0.418087
O O15 0.272071 0.913793 0.527723
O O16 0.000000 0.115501 0.102379
O O17 0.250000 0.250000 0.398725
O O18 0.000000 0.289863 0.373624
O O19 0.786863 0.500000 0.589130
O O20 0.739609 0.574494 0.692027
O O21 0.000000 0.560535 0.626526
O O22 0.500000 0.423997 0.789290
O O23 0.667368 0.500000 0.780498
#
# Coordination Sequence:
#
# PCOD8172639 Si02
#       8
#     8   8   8   8   8   8   8   8
#     4  10  20  33  50  72  98 129 165 203 243 290
#     4  10  19  33  51  71  95 124 163 207 250 292
#     4  10  21  33  44  63  95 132 165 196 232 278
#     4  10  19  32  48  69  94 126 164 201 239 284
#     4  11  21  33  49  70  98 131 165 201 244 291
#     4   9  18  31  48  68  92 121 159 203 246 286
#     4   9  17  29  46  68  95 126 159 195 236 284
#     4   9  17  30  48  69  94 124 158 198 242 286
#
# _framework density 16.301137000000001
#
# number of rings (size 3 to 8) (size 9 to 14) (size 15 to 20)
#    0.000    2.250    1.250    2.250    0.000    5.500 
#    0.000    1.250    0.000    0.000    0.000    0.875 
#    0.000    2.000    0.000    0.000    0.000    0.000 
#
# Total GULP energy -396864.883715 kJ/mol
# GULP energy per Si atom -12402.027616 kJ/mol
# Density = 1.626403 g / cm^3
# Si number density = 16.301137 Si / 1000 Ang^3
#
#
#
# Elastic Constant Matrix: (Units=GPa)
#
#
# Indices 1 2 3 4 5 6 
#
# 1 66.0286 32.7698 41.1341 0.0000 0.0000 0.0000
# 2 32.7698 66.4841 32.6921 0.0000 0.0000 0.0000
# 3 41.1341 32.6921 97.8800 0.0000 0.0000 0.0000
# 4 0.0000 0.0000 0.0000 10.0360 0.0000 0.0000
# 5 0.0000 0.0000 0.0000 0.0000 27.7979 0.0000
# 6 0.0000 0.0000 0.0000 0.0000 0.0000 26.2263
#
#
#
# Elastic Compliance Matrix: (Units=1/GPa)
#
#
# Indices 1 2 3 4 5 6 
#
# 1 0.023683 -0.008111 -0.007244 0.000000 0.000000 0.000000
# 2 -0.008111 0.020775 -0.003530 0.000000 0.000000 0.000000
# 3 -0.007244 -0.003530 0.014440 0.000000 0.000000 0.000000
# 4 0.000000 0.000000 0.000000 0.099641 0.000000 0.000000
# 5 0.000000 0.000000 0.000000 0.000000 0.035974 0.000000
# 6 0.000000 0.000000 0.000000 0.000000 0.000000 0.038130
#
#
# Mechanical properties :
#
#
# Convention : Reuss Voigt Hill
#
# Bulk Modulus (GPa) = 47.33108 49.28719 48.30913
# Shear Modulus (GPa) = 18.02089 21.06516 19.54303
#
# Velocity S-wave (km/s) = 3.32851 3.59869 3.46623
# Velocity P-wave (km/s) = 6.62348 6.89699 6.76162
#
# Compressibility (1/GPa) = 0.02112777
#
# Stress axis : x y z
#
# Youngs Moduli (GPa) = 42.22394 48.13442 69.25304
#
# Poissons Ratio (x) = 0.39044 0.50164
# Poissons Ratio (y) = 0.34250 0.24447
# Poissons Ratio (z) = 0.30586 0.16992
#
# Static dielectric constant tensor:
#      x y z
#    x 3.128400 0.000000 0.000000 
#    y 0.000000 3.017950 0.000000 
#    z 0.000000 0.000000 3.070340 
# 
# 
# High freq. dielectric constant tensor:
#      x y z
#    x 1.635580 0.000000 0.000000 
#    y 0.000000 1.607920 0.000000 
#    z 0.000000 0.000000 1.615050 
# 
# From -- ./inp_files/16178.got.cif
#   From: 2010.03.12/outbox.cif.g09.slc.cpg/sg35_9_cif.got.tgz:16178.got - 2010.04.14 02:02:04.
