data_PCOD8172279
_publ_section_title
;
Structure prediction by ZEFSAII (Michael W. Deem and Ramdas Pophale) SiO2 
 PCOD8172279
Probable space group: C M M 2
;
_chemical_formula_sum "Si O2"
_cell_formula_units_Z 64
_cell_length_a 28.586624
_cell_length_b 8.969375
_cell_length_c 15.689245
_cell_angle_alpha 90.000000
_cell_angle_beta 90.000000
_cell_angle_gamma 90.000000
_cell_volume 4022.787538
_symmetry_space_group_name_H-M "C M M 2"
_symmetry_group_IT_number 35
_symmetry_cell_setting 'orthorhombic'
loop_
_space_group_symop_operation_xyz
x,y,z
-x,-y,z
-x,y,z
x,-y,z
1/2+x,1/2+y,z
1/2-x,1/2-y,z
1/2-x,1/2+y,z
1/2+x,1/2-y,z
loop_
_atom_site_type_symbol
_atom_site_label
_atom_site_fract_x
_atom_site_fract_y
_atom_site_fract_z
Si Si1 0.699442 0.175581 0.707340
Si Si2 0.447037 0.172388 0.501039
Si Si3 0.701199 0.172141 0.892158
Si Si4 0.799239 0.824403 0.397188
Si Si5 0.647957 0.177100 0.242318
Si Si6 0.550517 0.176717 0.307534
Si Si7 0.859504 0.173801 0.562523
Si Si8 0.800075 0.674768 0.075659
O O1 0.750000 0.250000 0.696618
O O2 0.676628 0.211558 0.801670
O O3 0.664185 0.239838 0.639326
O O4 0.705511 0.000000 0.692587
O O5 0.500000 0.194205 0.534120
O O6 0.442515 0.230759 0.404289
O O7 0.413012 0.271898 0.558602
O O8 0.431943 0.000000 0.507692
O O9 0.750000 0.250000 0.893099
O O10 0.712724 0.000000 0.892979
O O11 0.676272 0.214612 0.982588
O O12 0.750000 0.750000 0.419526
O O13 0.819229 0.755761 0.310821
O O14 0.833978 0.786363 0.474318
O O15 0.792353 0.000000 0.385042
O O16 0.594200 0.233744 0.251435
O O17 0.664340 0.228619 0.148699
O O18 0.651576 0.000000 0.256132
O O19 0.500000 0.237452 0.272916
O O20 0.548704 0.000000 0.307079
O O21 0.857701 0.000000 0.582626
O O22 0.791421 0.500000 0.084749
O O23 0.750000 0.750000 0.088604
#
# Coordination Sequence:
#
# PCOD8172279 Si02
#       8
#     8   8   8   8   8   8   8   8
#     4  10  19  31  48  67  90 121 154 192 232 275
#     4   9  17  31  51  70  89 117 153 192 232 273
#     4   8  15  28  44  63  87 114 147 186 229 270
#     4  11  23  34  43  59  88 124 155 183 217 260
#     4  10  18  29  47  67  89 119 152 187 223 264
#     4   8  14  26  45  67  88 113 148 187 224 262
#     4  11  22  33  46  67  93 122 154 190 229 271
#     4   9  17  28  43  65  90 118 149 183 224 267
#
# _framework density 15.909366
#
# number of rings (size 3 to 8) (size 9 to 14) (size 15 to 20)
#    0.000    2.500    1.250    2.625    0.000    4.750 
#    0.000    0.000    0.000    0.375    0.000    0.875 
#    0.000    5.000    0.000    0.000    0.000    0.125 
#
# Total GULP energy -396495.706435 kJ/mol
# GULP energy per Si atom -12390.490826 kJ/mol
# Density = 1.587316 g / cm^3
# Si number density = 15.909366 Si / 1000 Ang^3
#
#
#
# Elastic Constant Matrix: (Units=GPa)
#
#
# Indices 1 2 3 4 5 6 
#
# 1 97.6057 31.4387 51.3661 0.0000 0.0000 0.0000
# 2 31.4387 47.0485 41.1018 0.0000 0.0000 0.0000
# 3 51.3661 41.1018 123.3282 0.0000 0.0000 0.0000
# 4 0.0000 0.0000 0.0000 16.6162 0.0000 0.0000
# 5 0.0000 0.0000 0.0000 0.0000 6.9165 0.0000
# 6 0.0000 0.0000 0.0000 0.0000 0.0000 19.9044
#
#
#
# Elastic Compliance Matrix: (Units=1/GPa)
#
#
# Indices 1 2 3 4 5 6 
#
# 1 0.014273 -0.006128 -0.003902 0.000000 0.000000 0.000000
# 2 -0.006128 0.032616 -0.008318 0.000000 0.000000 0.000000
# 3 -0.003902 -0.008318 0.012506 0.000000 0.000000 0.000000
# 4 0.000000 0.000000 0.000000 0.060182 0.000000 0.000000
# 5 0.000000 0.000000 0.000000 0.000000 0.144582 0.000000
# 6 0.000000 0.000000 0.000000 0.000000 0.000000 0.050240
#
#
# Mechanical properties :
#
#
# Convention : Reuss Voigt Hill
#
# Bulk Modulus (GPa) = 44.05615 57.31063 50.68339
# Shear Modulus (GPa) = 13.94073 18.29247 16.11660
#
# Velocity S-wave (km/s) = 2.96338 3.39454 3.18626
# Velocity P-wave (km/s) = 6.28179 7.17393 6.74263
#
# Compressibility (1/GPa) = 0.02269831
#
# Stress axis : x y z
#
# Youngs Moduli (GPa) = 70.06324 30.65978 79.96353
#
# Poissons Ratio (x) = 0.18790 0.31203
# Poissons Ratio (y) = 0.42938 0.66510
# Poissons Ratio (z) = 0.27340 0.25501
#
# Static dielectric constant tensor:
#      x y z
#    x 3.155600 0.000000 0.000000 
#    y 0.000000 2.902990 0.000000 
#    z 0.000000 0.000000 3.461180 
# 
# 
# High freq. dielectric constant tensor:
#      x y z
#    x 1.590590 0.000000 0.000000 
#    y 0.000000 1.606770 0.000000 
#    z 0.000000 0.000000 1.608040 
# 
# From -- ./inp_files/16172.got.cif
#   From: 2010.03.12/outbox.cif.g09.slc.cpg/sg35_9_cif.got.tgz:16172.got - 2010.04.14 02:02:04.
