data_PCOD8172498
_publ_section_title
;
Structure prediction by ZEFSAII (Michael W. Deem and Ramdas Pophale) SiO2 
 PCOD8172498
Probable space group: C M M 2
;
_chemical_formula_sum "Si O2"
_cell_formula_units_Z 56
_cell_length_a 9.064380
_cell_length_b 19.641508
_cell_length_c 17.924198
_cell_angle_alpha 90.000000
_cell_angle_beta 90.000000
_cell_angle_gamma 90.000000
_cell_volume 3191.190018
_symmetry_space_group_name_H-M "C M M 2"
_symmetry_group_IT_number 35
_symmetry_cell_setting 'orthorhombic'
loop_
_space_group_symop_operation_xyz
x,y,z
-x,-y,z
-x,y,z
x,-y,z
1/2+x,1/2+y,z
1/2-x,1/2-y,z
1/2-x,1/2+y,z
1/2+x,1/2-y,z
loop_
_atom_site_type_symbol
_atom_site_label
_atom_site_fract_x
_atom_site_fract_y
_atom_site_fract_z
Si Si1 0.175005 0.423625 0.268680
Si Si2 0.173244 0.679721 0.555870
Si Si3 0.173244 0.679720 0.724140
Si Si4 0.324659 0.924540 0.434922
Si Si5 0.675004 0.923625 0.011330
Si Si6 0.823945 0.676259 0.140005
Si Si7 0.675340 0.075460 0.845088
O O1 0.234363 0.500000 0.249186
O O2 0.226812 0.402188 0.351949
O O3 0.233374 0.366627 0.211507
O O4 0.000000 0.426230 0.264250
O O5 0.250000 0.750000 0.536793
O O6 0.209983 0.655503 0.640005
O O7 0.240084 0.625267 0.497884
O O8 0.000000 0.689626 0.544878
O O9 0.250000 0.750000 0.743217
O O10 0.240084 0.625267 0.782126
O O11 0.000000 0.689626 0.735133
O O12 0.500000 0.924543 0.438826
O O13 0.264415 0.000000 0.452179
O O14 0.500000 0.926230 0.015762
O O15 0.733374 0.866627 0.068503
O O16 0.734364 0.000000 0.030824
O O17 0.726810 0.902188 0.928061
O O18 0.750000 0.750000 0.140005
O O19 0.000000 0.685217 0.140005
O O20 0.500000 0.075456 0.841184
O O21 0.735586 0.000000 0.827831
#
# Coordination Sequence:
#
# PCOD8172498 Si02
#       7
#     8   8   8   8   8   8   8
#     4   8  14  26  44  63  82 107 140 174 205 240
#     4   9  17  28  42  61  85 112 139 167 203 247
#     4   9  17  28  42  61  85 112 139 167 203 247
#     4   8  14  25  42  64  85 104 134 177 214 239
#     4   8  14  26  44  63  82 107 140 174 205 240
#     4  10  19  29  43  65  89 110 136 170 206 244
#     4   8  14  25  42  64  85 104 134 177 214 239
#
# _framework density 17.548313
#
# number of rings (size 3 to 8) (size 9 to 14) (size 15 to 20)
#    0.000    3.429    0.000    2.143    0.000    3.429 
#    0.000    2.857    0.000    2.571    0.000    8.000 
#    0.000    0.000    0.000    0.000    0.000    0.000 
#
# Total GULP energy -346971.322675 kJ/mol
# GULP energy per Si atom -12391.832953 kJ/mol
# Density = 1.750837 g / cm^3
# Si number density = 17.548313 Si / 1000 Ang^3
#
#
#
# Elastic Constant Matrix: (Units=GPa)
#
#
# Indices 1 2 3 4 5 6 
#
# 1 9.4298 21.9934 19.5208 0.0000 0.0000 0.0000
# 2 21.9934 156.2597 125.3198 0.0000 0.0000 0.0000
# 3 19.5208 125.3198 171.3752 0.0000 0.0000 0.0000
# 4 0.0000 0.0000 0.0000 37.1478 0.0000 0.0000
# 5 0.0000 0.0000 0.0000 0.0000 10.6125 0.0000
# 6 0.0000 0.0000 0.0000 0.0000 0.0000 23.4277
#
#
#
# Elastic Compliance Matrix: (Units=1/GPa)
#
#
# Indices 1 2 3 4 5 6 
#
# 1 0.159128 -0.019008 -0.004226 0.000000 0.000000 0.000000
# 2 -0.019008 0.017746 -0.010812 0.000000 0.000000 0.000000
# 3 -0.004226 -0.010812 0.014223 0.000000 0.000000 0.000000
# 4 0.000000 0.000000 0.000000 0.026919 0.000000 0.000000
# 5 0.000000 0.000000 0.000000 0.000000 0.094228 0.000000
# 6 0.000000 0.000000 0.000000 0.000000 0.000000 0.042684
#
#
# Mechanical properties :
#
#
# Convention : Reuss Voigt Hill
#
# Bulk Modulus (GPa) = 8.12970 74.52585 41.32778
# Shear Modulus (GPa) = 10.77533 25.58633 18.18083
#
# Velocity S-wave (km/s) = 2.48067 3.82259 3.22226
# Velocity P-wave (km/s) = 3.58438 7.87680 6.11931
#
# Compressibility (1/GPa) = 0.12300571
#
# Stress axis : x y z
#
# Youngs Moduli (GPa) = 6.28423 56.35087 70.30989
#
# Poissons Ratio (x) = 1.07111 0.29714
# Poissons Ratio (y) = 0.11945 0.76018
# Poissons Ratio (z) = 0.02656 0.60925
#
# Static dielectric constant tensor:
#      x y z
#    x 2.644200 0.000000 0.000000 
#    y 0.000000 3.469040 0.000000 
#    z 0.000000 0.000000 3.710400 
# 
# 
# High freq. dielectric constant tensor:
#      x y z
#    x 1.610830 0.000000 0.000000 
#    y 0.000000 1.679850 0.000000 
#    z 0.000000 0.000000 1.693920 
# 
# From -- ./inp_files/18679.got.cif
#   From: 2010.03.12/outbox.cif.g09.slc.cpg/sg35_10_cif.got.tgz:18679.got - 2010.04.14 02:02:04.
