data_PCOD8172669
_publ_section_title
;
Structure prediction by ZEFSAII (Michael W. Deem and Ramdas Pophale) SiO2 
 PCOD8172669
Probable space group: C M M 2
;
_chemical_formula_sum "Si O2"
_cell_formula_units_Z 64
_cell_length_a 8.838643
_cell_length_b 19.904499
_cell_length_c 19.968660
_cell_angle_alpha 90.000000
_cell_angle_beta 90.000000
_cell_angle_gamma 90.000000
_cell_volume 3513.061608
_symmetry_space_group_name_H-M "C M M 2"
_symmetry_group_IT_number 35
_symmetry_cell_setting 'orthorhombic'
loop_
_space_group_symop_operation_xyz
x,y,z
-x,-y,z
-x,y,z
x,-y,z
1/2+x,1/2+y,z
1/2-x,1/2-y,z
1/2-x,1/2+y,z
1/2+x,1/2-y,z
loop_
_atom_site_type_symbol
_atom_site_label
_atom_site_fract_x
_atom_site_fract_y
_atom_site_fract_z
Si Si1 0.322875 0.818266 0.526280
Si Si2 0.678079 0.181197 0.373658
Si Si3 0.680882 0.678819 0.881623
Si Si4 0.324329 0.421981 0.275731
Si Si5 0.820665 0.320670 0.022294
Si Si6 0.320359 0.425820 0.771823
Si Si7 0.324786 0.076803 0.138099
Si Si8 0.326161 0.421484 0.622120
O O1 0.500000 0.809228 0.530613
O O2 0.250000 0.750000 0.554844
O O3 0.269569 0.830854 0.450065
O O4 0.274884 0.881563 0.569922
O O5 0.500000 0.187427 0.366928
O O6 0.750000 0.250000 0.345622
O O7 0.733796 0.118327 0.331318
O O8 0.500000 0.683125 0.884883
O O9 0.750000 0.750000 0.860812
O O10 0.740660 0.626339 0.826456
O O11 0.745826 0.655573 0.952971
O O12 0.500000 0.405723 0.282979
O O13 0.287703 0.500000 0.287455
O O14 0.271566 0.400003 0.201936
O O15 0.750000 0.250000 0.045686
O O16 0.777481 0.376687 0.076337
O O17 0.000000 0.312543 0.012926
O O18 0.500000 0.428697 0.773116
O O19 0.255864 0.500000 0.788912
O O20 0.269201 0.404122 0.697263
O O21 0.500000 0.085970 0.156493
O O22 0.288288 0.000000 0.118127
O O23 0.500000 0.400095 0.612794
O O24 0.305063 0.500000 0.607589
#
# Coordination Sequence:
#
# PCOD8172669 Si02
#       8
#     8   8   8   8   8   8   8   8
#     4  10  21  36  54  77 105 136 173 215 258 306
#     4  10  21  37  56  77 104 138 173 213 259 307
#     4  10  19  32  51  73 100 132 166 207 251 298
#     4  10  21  36  55  80 108 137 172 213 253 301
#     4  10  20  34  52  74 101 132 167 207 251 301
#     4   8  16  32  52  74 100 132 170 208 249 299
#     4   9  19  36  55  74 100 135 171 208 253 302
#     4   9  18  34  55  77 104 138 173 211 257 308
#
# _framework density 18.217728999999999
#
# number of rings (size 3 to 8) (size 9 to 14) (size 15 to 20)
#    0.000    2.500    0.000    3.375    0.000    5.500 
#    0.000    6.250    0.000    2.625    0.000    0.000 
#    0.000    0.000    0.000    0.000    0.000    0.000 
#
# Total GULP energy -396843.780979 kJ/mol
# GULP energy per Si atom -12401.368156 kJ/mol
# Density = 1.817626 g / cm^3
# Si number density = 18.217729 Si / 1000 Ang^3
#
#
#
# Elastic Constant Matrix: (Units=GPa)
#
#
# Indices 1 2 3 4 5 6 
#
# 1 69.1246 41.2239 43.5396 0.0000 0.0000 0.0000
# 2 41.2239 100.8909 82.3434 0.0000 0.0000 0.0000
# 3 43.5396 82.3434 116.2029 0.0000 0.0000 0.0000
# 4 0.0000 0.0000 0.0000 38.1024 0.0000 0.0000
# 5 0.0000 0.0000 0.0000 0.0000 28.5039 0.0000
# 6 0.0000 0.0000 0.0000 0.0000 0.0000 30.4176
#
#
#
# Elastic Compliance Matrix: (Units=1/GPa)
#
#
# Indices 1 2 3 4 5 6 
#
# 1 0.019888 -0.004848 -0.004016 0.000000 0.000000 0.000000
# 2 -0.004848 0.024689 -0.015678 0.000000 0.000000 0.000000
# 3 -0.004016 -0.015678 0.021220 0.000000 0.000000 0.000000
# 4 0.000000 0.000000 0.000000 0.026245 0.000000 0.000000
# 5 0.000000 0.000000 0.000000 0.000000 0.035083 0.000000
# 6 0.000000 0.000000 0.000000 0.000000 0.000000 0.032876
#
#
# Mechanical properties :
#
#
# Convention : Reuss Voigt Hill
#
# Bulk Modulus (GPa) = 59.83938 68.93692 64.38815
# Shear Modulus (GPa) = 23.29309 27.34556 25.31933
#
# Velocity S-wave (km/s) = 3.57962 3.87853 3.73207
# Velocity P-wave (km/s) = 7.07128 7.61446 7.34789
#
# Compressibility (1/GPa) = 0.01671140
#
# Stress axis : x y z
#
# Youngs Moduli (GPa) = 50.28266 40.50421 47.12473
#
# Poissons Ratio (x) = 0.19638 0.18925
# Poissons Ratio (y) = 0.24379 0.73884
# Poissons Ratio (z) = 0.20193 0.63504
#
# Static dielectric constant tensor:
#      x y z
#    x 3.290020 0.000000 0.000000 
#    y 0.000000 3.450910 0.000000 
#    z 0.000000 0.000000 3.448360 
# 
# 
# High freq. dielectric constant tensor:
#      x y z
#    x 1.703050 0.000000 0.000000 
#    y 0.000000 1.708790 0.000000 
#    z 0.000000 0.000000 1.708540 
# 
# From -- ./inp_files/18355.got.cif
#   From: 2010.03.12/outbox.cif.g09.slc.cpg/sg35_10_cif.got.tgz:18355.got - 2010.04.14 02:02:04.
