data_PCOD8172953
_publ_section_title
;
Structure prediction by ZEFSAII (Michael W. Deem and Ramdas Pophale) SiO2 
 PCOD8172953
Probable space group: C M M 2
;
_chemical_formula_sum "Si O2"
_cell_formula_units_Z 44
_cell_length_a 14.557520
_cell_length_b 9.511890
_cell_length_c 16.232122
_cell_angle_alpha 90.000000
_cell_angle_beta 90.000000
_cell_angle_gamma 90.000000
_cell_volume 2247.654287
_symmetry_space_group_name_H-M "C M M 2"
_symmetry_group_IT_number 35
_symmetry_cell_setting 'orthorhombic'
loop_
_space_group_symop_operation_xyz
x,y,z
-x,-y,z
-x,y,z
x,-y,z
1/2+x,1/2+y,z
1/2-x,1/2-y,z
1/2-x,1/2+y,z
1/2+x,1/2-y,z
loop_
_atom_site_type_symbol
_atom_site_label
_atom_site_fract_x
_atom_site_fract_y
_atom_site_fract_z
Si Si1 0.658611 0.667777 0.567810
Si Si2 0.250000 0.250000 0.844694
Si Si3 0.896806 0.344762 0.720353
Si Si4 0.338271 0.332897 0.145578
Si Si5 0.899772 0.159735 0.970095
Si Si6 0.000000 0.165603 0.263654
Si Si7 0.500000 0.334318 0.446168
O O1 0.673549 0.500000 0.574021
O O2 0.750000 0.750000 0.544723
O O3 0.621265 0.721181 0.655531
O O4 0.589307 0.713392 0.496310
O O5 0.182761 0.345739 0.789588
O O6 0.179099 0.164243 0.901096
O O7 0.891543 0.500000 0.678928
O O8 0.000000 0.321298 0.757183
O O9 0.321046 0.500000 0.144075
O O10 0.250000 0.250000 0.175461
O O11 0.411985 0.286141 0.212961
O O12 0.367147 0.271042 0.055876
O O13 0.000000 0.224433 0.942677
O O14 0.917669 0.000000 0.992001
O O15 0.000000 0.234796 0.355152
O O16 0.000000 0.000000 0.273522
O O17 0.500000 0.500000 0.438985
#
# Coordination Sequence:
#
# PCOD8172953 Si02
#       7
#     8   4   8   8   8   4   4
#     4  11  22  39  63  88 117 154 197 241 296 353
#     4  12  22  36  58  84 118 152 198 248 294 336
#     4  11  24  40  58  84 119 157 198 244 299 351
#     4  10  19  35  60  87 115 154 194 237 291 342
#     4  10  20  35  55  82 114 153 202 242 281 340
#     4   9  18  36  63  88 119 154 192 235 283 349
#     4   9  20  38  61  92 119 150 194 239 287 349
#
# _framework density 19.575965
#
# number of rings (size 3 to 8) (size 9 to 14) (size 15 to 20)
#    0.000    1.636    3.636    1.636    0.000    1.455 
#    0.000    0.455    0.000    4.364    0.000    0.000 
#    0.000    0.000    0.000    0.000    0.000    0.000 
#
# Total GULP energy -272606.436249 kJ/mol
# GULP energy per Si atom -12391.201648 kJ/mol
# Density = 1.953141 g / cm^3
# Si number density = 19.575965 Si / 1000 Ang^3
#
#
#
# Elastic Constant Matrix: (Units=GPa)
#
#
# Indices 1 2 3 4 5 6 
#
# 1 201.9993 47.8305 82.9966 0.0000 0.0000 0.0000
# 2 47.8305 69.7400 31.2766 0.0000 0.0000 0.0000
# 3 82.9966 31.2766 145.0746 0.0000 0.0000 0.0000
# 4 0.0000 0.0000 0.0000 16.3283 0.0000 0.0000
# 5 0.0000 0.0000 0.0000 0.0000 27.3254 0.0000
# 6 0.0000 0.0000 0.0000 0.0000 0.0000 27.4089
#
#
#
# Elastic Compliance Matrix: (Units=1/GPa)
#
#
# Indices 1 2 3 4 5 6 
#
# 1 0.007128 -0.003387 -0.003348 0.000000 0.000000 0.000000
# 2 -0.003387 0.017483 -0.001831 0.000000 0.000000 0.000000
# 3 -0.003348 -0.001831 0.009203 0.000000 0.000000 0.000000
# 4 0.000000 0.000000 0.000000 0.061243 0.000000 0.000000
# 5 0.000000 0.000000 0.000000 0.000000 0.036596 0.000000
# 6 0.000000 0.000000 0.000000 0.000000 0.000000 0.036484
#
#
# Mechanical properties :
#
#
# Convention : Reuss Voigt Hill
#
# Bulk Modulus (GPa) = 59.94563 82.33568 71.14066
# Shear Modulus (GPa) = 26.20112 31.19322 28.69717
#
# Velocity S-wave (km/s) = 3.66243 3.99613 3.83291
# Velocity P-wave (km/s) = 6.96944 7.96511 7.48385
#
# Compressibility (1/GPa) = 0.01668178
#
# Stress axis : x y z
#
# Youngs Moduli (GPa) = 140.29063 57.19687 108.66013
#
# Poissons Ratio (x) = 0.19375 0.36376
# Poissons Ratio (y) = 0.47522 0.19900
# Poissons Ratio (z) = 0.46964 0.10475
#
# Static dielectric constant tensor:
#      x y z
#    x 3.919380 0.000000 0.000000 
#    y 0.000000 3.193210 0.000000 
#    z 0.000000 0.000000 3.721870 
# 
# 
# High freq. dielectric constant tensor:
#      x y z
#    x 1.788890 0.000000 0.000000 
#    y 0.000000 1.728020 0.000000 
#    z 0.000000 0.000000 1.758190 
# 
# From -- ./inp_files/18716.got.cif
#   From: 2010.03.12/outbox.cif.g09.slc.cpg/sg35_10_cif.got.tgz:18716.got - 2010.04.14 02:02:04.
