data_PCOD8172110
_publ_section_title
;
Structure prediction by ZEFSAII (Michael W. Deem and Ramdas Pophale) SiO2 
 PCOD8172110
Probable space group: P N N 2
;
_chemical_formula_sum "Si O2"
_cell_formula_units_Z 24
_cell_length_a 4.840143
_cell_length_b 12.343269
_cell_length_c 17.283592
_cell_angle_alpha 90.000000
_cell_angle_beta 90.000000
_cell_angle_gamma 90.000000
_cell_volume 1032.576870
_symmetry_space_group_name_H-M "P N N 2"
_symmetry_group_IT_number 34
_symmetry_cell_setting 'orthorhombic'
loop_
_space_group_symop_operation_xyz
x,y,z
-x,-y,z
1/2-x,1/2+y,1/2+z
1/2+x,1/2-y,1/2+z
loop_
_atom_site_type_symbol
_atom_site_label
_atom_site_fract_x
_atom_site_fract_y
_atom_site_fract_z
Si Si1 0.750445 0.925423 0.089170
Si Si2 0.690468 0.712191 0.167613
Si Si3 0.690476 0.712189 0.345389
Si Si4 0.178139 0.608377 0.093938
Si Si5 0.749554 0.425422 0.923831
Si Si6 0.678147 0.891625 0.919063
O O1 0.630074 0.838793 0.150720
O O2 0.500000 0.000000 0.067728
O O3 0.814676 0.877087 0.003749
O O4 0.000000 0.000000 0.121784
O O5 0.771668 0.695447 0.256500
O O6 0.443886 0.627826 0.149142
O O7 0.959233 0.701550 0.112891
O O8 0.630076 0.838792 0.362283
O O9 0.443900 0.627821 0.363861
O O10 0.959248 0.701551 0.400107
O O11 0.000000 0.500000 0.112757
O O12 0.314674 0.622913 0.009252
O O13 0.500000 0.500000 0.891217
O O14 0.000000 0.500000 0.945272
O O15 0.500000 0.000000 0.900244
#
# Coordination Sequence:
#
# PCOD8172110 Si02
#       6
#     4   4   4   4   4   4
#     4  11  23  42  67  91 121 165 215 263 310 371
#     4  12  25  40  63  95 130 165 204 260 323 380
#     4  12  25  40  63  95 130 165 204 260 323 380
#     4  11  23  42  65  91 125 167 214 258 309 376
#     4  11  23  42  67  91 121 165 215 263 310 371
#     4  11  23  42  65  91 125 167 214 258 309 376
#
# _framework density 23.242825
#
# number of rings (size 3 to 8) (size 9 to 14) (size 15 to 20)
#    0.000    0.667    0.000   10.000    0.000    5.333 
#    0.000    0.000    0.000    0.000    0.000    0.000 
#    0.000    0.000    0.000    0.000    0.000    0.000 
#
# Total GULP energy -297353.270514 kJ/mol
# GULP energy per Si atom -12389.719605 kJ/mol
# Density = 2.318992 g / cm^3
# Si number density = 23.242825 Si / 1000 Ang^3
#
#
#
# Elastic Constant Matrix: (Units=GPa)
#
#
# Indices 1 2 3 4 5 6 
#
# 1 115.5307 14.3122 23.1522 0.0000 0.0000 0.0000
# 2 14.3122 65.5264 41.3329 0.0000 0.0000 0.0000
# 3 23.1522 41.3329 67.3375 0.0000 0.0000 0.0000
# 4 0.0000 0.0000 0.0000 26.3325 0.0000 0.0000
# 5 0.0000 0.0000 0.0000 0.0000 25.1799 0.0000
# 6 0.0000 0.0000 0.0000 0.0000 0.0000 44.0234
#
#
#
# Elastic Compliance Matrix: (Units=1/GPa)
#
#
# Indices 1 2 3 4 5 6 
#
# 1 0.009296 -0.000023 -0.003182 0.000000 0.000000 0.000000
# 2 -0.000023 0.024903 -0.015278 0.000000 0.000000 0.000000
# 3 -0.003182 -0.015278 0.025322 0.000000 0.000000 0.000000
# 4 0.000000 0.000000 0.000000 0.037976 0.000000 0.000000
# 5 0.000000 0.000000 0.000000 0.000000 0.039714 0.000000
# 6 0.000000 0.000000 0.000000 0.000000 0.000000 0.022715
#
#
# Mechanical properties :
#
#
# Convention : Reuss Voigt Hill
#
# Bulk Modulus (GPa) = 44.33531 45.10992 44.72262
# Shear Modulus (GPa) = 24.46035 30.41363 27.43699
#
# Velocity S-wave (km/s) = 3.24756 3.62127 3.43950
# Velocity P-wave (km/s) = 5.76008 6.07742 5.92087
#
# Compressibility (1/GPa) = 0.02255538
#
# Stress axis : x y z
#
# Youngs Moduli (GPa) = 107.57016 40.15540 39.49058
#
# Poissons Ratio (x) = 0.00094 0.12566
# Poissons Ratio (y) = 0.00251 0.60334
# Poissons Ratio (z) = 0.34228 0.61349
#
# Static dielectric constant tensor:
#      x y z
#    x 4.207280 0.000000 0.000000 
#    y 0.000000 4.109170 0.000000 
#    z 0.000000 0.000000 3.822400 
# 
# 
# High freq. dielectric constant tensor:
#      x y z
#    x 1.929800 0.000000 0.000000 
#    y 0.000000 1.924850 0.000000 
#    z 0.000000 0.000000 1.899610 
# 
# From -- ./inp_files/7178.got.cif
#   From: 2010.03.12/outbox.cif.g09.slc.cpg/sg34_4_cif.got.tgz:7178.got - 2010.04.14 01:56:33.
