data_PCOD8172170
_publ_section_title
;
Structure prediction by ZEFSAII (Michael W. Deem and Ramdas Pophale) SiO2 
 PCOD8172170
Probable space group: C M M 2
;
_chemical_formula_sum "Si O2"
_cell_formula_units_Z 64
_cell_length_a 18.539656
_cell_length_b 15.321499
_cell_length_c 13.979087
_cell_angle_alpha 90.000000
_cell_angle_beta 90.000000
_cell_angle_gamma 90.000000
_cell_volume 3970.834043
_symmetry_space_group_name_H-M "C M M 2"
_symmetry_group_IT_number 35
_symmetry_cell_setting 'orthorhombic'
loop_
_space_group_symop_operation_xyz
x,y,z
-x,-y,z
-x,y,z
x,-y,z
1/2+x,1/2+y,z
1/2-x,1/2-y,z
1/2-x,1/2+y,z
1/2+x,1/2-y,z
loop_
_atom_site_type_symbol
_atom_site_label
_atom_site_fract_x
_atom_site_fract_y
_atom_site_fract_z
Si Si1 0.648782 0.599811 0.635840
Si Si2 0.580830 0.396781 0.234190
Si Si3 0.191418 0.402191 0.956302
Si Si4 0.718077 0.156652 0.746100
Si Si5 0.919197 0.103155 0.443639
Si Si6 0.921462 0.741559 0.727250
Si Si7 0.579659 0.243620 0.952321
Si Si8 0.343801 0.398847 0.044967
O O1 0.623589 0.500000 0.648296
O O2 0.732114 0.608732 0.667876
O O3 0.637675 0.631853 0.525776
O O4 0.597842 0.659127 0.701172
O O5 0.500000 0.362754 0.208791
O O6 0.579025 0.500000 0.239275
O O7 0.604390 0.359807 0.339046
O O8 0.638061 0.367623 0.153401
O O9 0.162267 0.500000 0.974617
O O10 0.212489 0.397276 0.844070
O O11 0.131441 0.333327 0.990558
O O12 0.260085 0.383526 0.023266
O O13 0.750000 0.250000 0.776505
O O14 0.640292 0.172665 0.694283
O O15 0.000000 0.137185 0.469225
O O16 0.921015 0.000000 0.437507
O O17 0.924542 0.735210 0.839962
O O18 0.000000 0.716448 0.683886
O O19 0.500000 0.231466 0.997424
O O20 0.609202 0.339640 0.974648
O O21 0.365530 0.500000 0.027909
#
# Coordination Sequence:
#
# PCOD8172170 Si02
#       8
#     8   8   8   8   8   8   8   8
#     4  10  17  25  42  66  88 110 138 172 213 259
#     4   8  14  25  40  60  88 118 144 169 203 253
#     4  10  19  31  47  64  85 116 152 185 218 257
#     4   9  17  29  43  60  86 117 143 175 217 259
#     4   8  14  24  38  59  88 117 141 168 205 251
#     4   9  18  30  42  58  82 114 146 174 209 252
#     4  10  20  32  45  63  89 118 149 184 218 256
#     4  10  18  28  46  69  90 114 143 176 220 269
#
# _framework density 16.117519999999999
#
# number of rings (size 3 to 8) (size 9 to 14) (size 15 to 20)
#    0.000    2.750    0.000    4.500    0.000    3.250 
#    0.000    1.250    0.000    5.625    0.000    0.000 
#    0.000    0.000    0.000    6.875    0.000   21.375 
#
# Total GULP energy -396504.039941 kJ/mol
# GULP energy per Si atom -12390.751248 kJ/mol
# Density = 1.608084 g / cm^3
# Si number density = 16.117520 Si / 1000 Ang^3
#
#
#
# Elastic Constant Matrix: (Units=GPa)
#
#
# Indices 1 2 3 4 5 6 
#
# 1 117.0933 39.4005 38.3978 0.0000 0.0000 0.0000
# 2 39.4005 58.0228 20.4587 0.0000 0.0000 0.0000
# 3 38.3978 20.4587 46.5287 0.0000 0.0000 0.0000
# 4 0.0000 0.0000 0.0000 9.8206 0.0000 0.0000
# 5 0.0000 0.0000 0.0000 0.0000 18.7401 0.0000
# 6 0.0000 0.0000 0.0000 0.0000 0.0000 18.1323
#
#
#
# Elastic Compliance Matrix: (Units=1/GPa)
#
#
# Indices 1 2 3 4 5 6 
#
# 1 0.013322 -0.006118 -0.008304 0.000000 0.000000 0.000000
# 2 -0.006118 0.023207 -0.005155 0.000000 0.000000 0.000000
# 3 -0.008304 -0.005155 0.030611 0.000000 0.000000 0.000000
# 4 0.000000 0.000000 0.000000 0.101827 0.000000 0.000000
# 5 0.000000 0.000000 0.000000 0.000000 0.053361 0.000000
# 6 0.000000 0.000000 0.000000 0.000000 0.000000 0.055150
#
#
# Mechanical properties :
#
#
# Convention : Reuss Voigt Hill
#
# Bulk Modulus (GPa) = 35.73180 46.46208 41.09694
# Shear Modulus (GPa) = 15.33923 17.56445 16.45184
#
# Velocity S-wave (km/s) = 3.08833 3.30475 3.19837
# Velocity P-wave (km/s) = 5.91056 6.59178 6.26044
#
# Compressibility (1/GPa) = 0.02798628
#
# Stress axis : x y z
#
# Youngs Moduli (GPa) = 75.06395 43.09056 32.66761
#
# Poissons Ratio (x) = 0.26365 0.27126
# Poissons Ratio (y) = 0.45927 0.16840
# Poissons Ratio (z) = 0.62331 0.22213
#
# Static dielectric constant tensor:
#      x y z
#    x 3.672830 0.000000 0.000000 
#    y 0.000000 2.866520 0.000000 
#    z 0.000000 0.000000 3.253870 
# 
# 
# High freq. dielectric constant tensor:
#      x y z
#    x 1.618290 0.000000 0.000000 
#    y 0.000000 1.591140 0.000000 
#    z 0.000000 0.000000 1.601910 
# 
# From -- ./inp_files/17238.got.cif
#   From: 2010.03.12/outbox.cif.g09.slc.cpg/sg35_9_cif.got.tgz:17238.got - 2010.04.14 02:02:04.
