data_PCOD8172067
_publ_section_title
;
Structure prediction by ZEFSAII (Michael W. Deem and Ramdas Pophale) SiO2 
 PCOD8172067
Probable space group: P N N 2
;
_chemical_formula_sum "Si O2"
_cell_formula_units_Z 24
_cell_length_a 8.932354
_cell_length_b 10.605217
_cell_length_c 10.830350
_cell_angle_alpha 90.000000
_cell_angle_beta 90.000000
_cell_angle_gamma 90.000000
_cell_volume 1025.954209
_symmetry_space_group_name_H-M "P N N 2"
_symmetry_group_IT_number 34
_symmetry_cell_setting 'orthorhombic'
loop_
_space_group_symop_operation_xyz
x,y,z
-x,-y,z
1/2-x,1/2+y,1/2+z
1/2+x,1/2-y,1/2+z
loop_
_atom_site_type_symbol
_atom_site_label
_atom_site_fract_x
_atom_site_fract_y
_atom_site_fract_z
Si Si1 0.346798 0.564037 0.510490
Si Si2 0.614337 0.105804 0.095623
Si Si3 0.929243 0.823471 0.432460
Si Si4 0.774556 0.062158 0.504084
Si Si5 0.266690 0.251467 0.216147
Si Si6 0.412879 0.783699 0.336635
O O1 0.500000 0.500000 0.553450
O O2 0.235666 0.444721 0.496126
O O3 0.269568 0.643685 0.617797
O O4 0.364195 0.644697 0.384876
O O5 0.685603 0.169112 0.219437
O O6 0.500000 0.000000 0.140870
O O7 0.523274 0.215907 0.029116
O O8 0.873815 0.754533 0.308741
O O9 0.088024 0.891885 0.416030
O O10 0.797153 0.910947 0.495028
O O11 0.782943 0.113002 0.646067
O O12 0.618892 0.114008 0.445722
O O13 0.414230 0.219303 0.295591
#
# Coordination Sequence:
#
# PCOD8172067 Si02
#       6
#     4   4   4   4   4   4
#     4  11  25  42  68 109 136 182 247 293 351 440
#     4  12  23  44  70 100 138 185 237 291 364 427
#     4  11  24  41  70  98 138 184 228 295 355 414
#     4  10  24  44  66 103 136 180 245 280 351 438
#     4  11  23  46  70 101 140 186 232 294 353 422
#     4  11  23  45  72  93 143 188 228 292 361 414
#
# _framework density 23.392855999999998
#
# number of rings (size 3 to 8) (size 9 to 14) (size 15 to 20)
#    0.000    1.000    3.333    3.000    4.667    2.667 
#    0.000    0.000    0.000    0.000    0.000    0.000 
#    0.000    0.000    0.000    0.000    0.000    0.000 
#
# Total GULP energy -297327.162128 kJ/mol
# GULP energy per Si atom -12388.631755 kJ/mol
# Density = 2.333961 g / cm^3
# Si number density = 23.392856 Si / 1000 Ang^3
#
#
#
# Elastic Constant Matrix: (Units=GPa)
#
#
# Indices 1 2 3 4 5 6 
#
# 1 84.2291 27.6210 48.8642 0.0000 0.0000 0.0000
# 2 27.6210 89.5997 56.7191 0.0000 0.0000 0.0000
# 3 48.8642 56.7191 113.6155 0.0000 0.0000 0.0000
# 4 0.0000 0.0000 0.0000 42.5635 0.0000 0.0000
# 5 0.0000 0.0000 0.0000 0.0000 37.0189 0.0000
# 6 0.0000 0.0000 0.0000 0.0000 0.0000 33.1708
#
#
#
# Elastic Compliance Matrix: (Units=1/GPa)
#
#
# Indices 1 2 3 4 5 6 
#
# 1 0.015862 -0.000835 -0.006405 0.000000 0.000000 0.000000
# 2 -0.000835 0.016361 -0.007809 0.000000 0.000000 0.000000
# 3 -0.006405 -0.007809 0.015455 0.000000 0.000000 0.000000
# 4 0.000000 0.000000 0.000000 0.023494 0.000000 0.000000
# 5 0.000000 0.000000 0.000000 0.000000 0.027013 0.000000
# 6 0.000000 0.000000 0.000000 0.000000 0.000000 0.030147
#
#
# Mechanical properties :
#
#
# Convention : Reuss Voigt Hill
#
# Bulk Modulus (GPa) = 56.88268 61.53921 59.21094
# Shear Modulus (GPa) = 30.43386 32.83328 31.63357
#
# Velocity S-wave (km/s) = 3.61084 3.75048 3.68132
# Velocity P-wave (km/s) = 6.46167 6.71705 6.59060
#
# Compressibility (1/GPa) = 0.01758004
#
# Stress axis : x y z
#
# Youngs Moduli (GPa) = 63.04342 61.11960 64.70565
#
# Poissons Ratio (x) = 0.05105 0.41444
# Poissons Ratio (y) = 0.05266 0.50527
# Poissons Ratio (z) = 0.40380 0.47726
#
# Static dielectric constant tensor:
#      x y z
#    x 4.099670 0.000000 0.000000 
#    y 0.000000 4.626230 0.000000 
#    z 0.000000 0.000000 4.237860 
# 
# 
# High freq. dielectric constant tensor:
#      x y z
#    x 1.917080 0.000000 0.000000 
#    y 0.000000 1.934310 0.000000 
#    z 0.000000 0.000000 1.913700 
# 
# From -- ./inp_files/4915.got.cif
#   From: 2010.03.12/outbox.cif.g09.slc.cpg/sg34_3_cif.got.tgz:4915.got - 2010.04.14 01:56:33.
