data_PCOD8172927
_publ_section_title
;
Structure prediction by ZEFSAII (Michael W. Deem and Ramdas Pophale) SiO2 
 PCOD8172927
Probable space group: C M M 2
;
_chemical_formula_sum "Si O2"
_cell_formula_units_Z 48
_cell_length_a 15.366667
_cell_length_b 8.568553
_cell_length_c 18.895856
_cell_angle_alpha 90.000000
_cell_angle_beta 90.000000
_cell_angle_gamma 90.000000
_cell_volume 2488.019261
_symmetry_space_group_name_H-M "C M M 2"
_symmetry_group_IT_number 35
_symmetry_cell_setting 'orthorhombic'
loop_
_space_group_symop_operation_xyz
x,y,z
-x,-y,z
-x,y,z
x,-y,z
1/2+x,1/2+y,z
1/2-x,1/2-y,z
1/2-x,1/2+y,z
1/2+x,1/2-y,z
loop_
_atom_site_type_symbol
_atom_site_label
_atom_site_fract_x
_atom_site_fract_y
_atom_site_fract_z
Si Si1 0.842339 0.185387 0.082280
Si Si2 0.000000 0.317535 0.834029
Si Si3 0.000000 0.685418 0.491562
Si Si4 0.342126 0.815491 0.734290
Si Si5 0.500000 0.815087 0.331122
Si Si6 0.156359 0.815098 0.581402
Si Si7 0.000000 0.183548 0.988442
Si Si8 0.657668 0.814634 0.235973
O O1 0.750000 0.250000 0.055861
O O2 0.914082 0.248913 0.027232
O O3 0.866853 0.249221 0.159249
O O4 0.838389 0.000000 0.085726
O O5 0.914556 0.267254 0.790923
O O6 0.000000 0.500000 0.849295
O O7 0.000000 0.228516 0.907209
O O8 0.000000 0.746825 0.411094
O O9 0.086034 0.751156 0.527357
O O10 0.000000 0.500000 0.496939
O O11 0.250000 0.750000 0.761667
O O12 0.368602 0.740098 0.659900
O O13 0.336093 0.000000 0.723665
O O14 0.585767 0.753391 0.291113
O O15 0.500000 0.000000 0.330242
O O16 0.250000 0.750000 0.558330
O O17 0.158153 0.000000 0.579250
O O18 0.000000 0.000000 0.995398
O O19 0.750000 0.750000 0.262479
O O20 0.661538 0.000000 0.231551
#
# Coordination Sequence:
#
# PCOD8172927 Si02
#       8
#     8   4   4   8   4   8   4   8
#     4  10  20  36  56  81 107 139 179 223 269 318
#     4  10  23  38  55  79 111 146 181 218 270 328
#     4  11  22  39  58  81 116 153 186 231 280 332
#     4  10  20  37  59  84 110 143 183 228 275 325
#     4   9  21  37  55  79 111 147 182 219 272 328
#     4  11  22  38  60  87 113 146 189 233 279 332
#     4  10  23  38  54  77 110 144 179 220 268 320
#     4  10  19  35  57  82 107 139 180 224 269 320
#
# _framework density 19.292453999999999
#
# number of rings (size 3 to 8) (size 9 to 14) (size 15 to 20)
#    0.000    1.833    0.000    6.250    0.000    4.667 
#    0.000    9.583    0.000    0.000    0.000    0.000 
#    0.000    0.000    0.000    0.000    0.000    0.000 
#
# Total GULP energy -297671.187100 kJ/mol
# GULP energy per Si atom -12402.966129 kJ/mol
# Density = 1.924854 g / cm^3
# Si number density = 19.292454 Si / 1000 Ang^3
#
#
#
# Elastic Constant Matrix: (Units=GPa)
#
#
# Indices 1 2 3 4 5 6 
#
# 1 175.6302 51.5621 112.7189 0.0000 0.0000 0.0000
# 2 51.5621 99.5362 43.7001 0.0000 0.0000 0.0000
# 3 112.7189 43.7001 139.2401 0.0000 0.0000 0.0000
# 4 0.0000 0.0000 0.0000 28.2493 0.0000 0.0000
# 5 0.0000 0.0000 0.0000 0.0000 1.3899 0.0000
# 6 0.0000 0.0000 0.0000 0.0000 0.0000 33.0779
#
#
#
# Elastic Compliance Matrix: (Units=1/GPa)
#
#
# Indices 1 2 3 4 5 6 
#
# 1 0.012296 -0.002319 -0.009226 0.000000 0.000000 0.000000
# 2 -0.002319 0.012089 -0.001917 0.000000 0.000000 0.000000
# 3 -0.009226 -0.001917 0.015252 0.000000 0.000000 0.000000
# 4 0.000000 0.000000 0.000000 0.035399 0.000000 0.000000
# 5 0.000000 0.000000 0.000000 0.000000 0.719452 0.000000
# 6 0.000000 0.000000 0.000000 0.000000 0.000000 0.030232
#
#
# Mechanical properties :
#
#
# Convention : Reuss Voigt Hill
#
# Bulk Modulus (GPa) = 78.65598 92.26317 85.45958
# Shear Modulus (GPa) = 5.84192 26.30514 16.07353
#
# Velocity S-wave (km/s) = 1.74203 3.69656 2.88957
# Velocity P-wave (km/s) = 6.70112 8.13306 7.45157
#
# Compressibility (1/GPa) = 0.01271359
#
# Stress axis : x y z
#
# Youngs Moduli (GPa) = 81.32852 82.71642 65.56430
#
# Poissons Ratio (x) = 0.19182 0.60490
# Poissons Ratio (y) = 0.18860 0.12569
# Poissons Ratio (z) = 0.75034 0.15857
#
# Static dielectric constant tensor:
#      x y z
#    x 3.914470 0.000000 0.000000 
#    y 0.000000 3.520520 0.000000 
#    z 0.000000 0.000000 3.551550 
# 
# 
# High freq. dielectric constant tensor:
#      x y z
#    x 1.769150 0.000000 0.000000 
#    y 0.000000 1.755120 0.000000 
#    z 0.000000 0.000000 1.746410 
# 
# From -- ./inp_files/17140.got.cif
#   From: 2010.03.12/outbox.cif.g09.slc.cpg/sg35_9_cif.got.tgz:17140.got - 2010.04.14 02:02:04.
