data_PCOD8172800
_publ_section_title
;
Structure prediction by ZEFSAII (Michael W. Deem and Ramdas Pophale) SiO2 
 PCOD8172800
Probable space group: C M M 2
;
_chemical_formula_sum "Si O2"
_cell_formula_units_Z 40
_cell_length_a 14.660166
_cell_length_b 8.431964
_cell_length_c 16.665192
_cell_angle_alpha 90.000000
_cell_angle_beta 90.000000
_cell_angle_gamma 90.000000
_cell_volume 2060.050910
_symmetry_space_group_name_H-M "C M M 2"
_symmetry_group_IT_number 35
_symmetry_cell_setting 'orthorhombic'
loop_
_space_group_symop_operation_xyz
x,y,z
-x,-y,z
-x,y,z
x,-y,z
1/2+x,1/2+y,z
1/2-x,1/2-y,z
1/2-x,1/2+y,z
1/2+x,1/2-y,z
loop_
_atom_site_type_symbol
_atom_site_label
_atom_site_fract_x
_atom_site_fract_y
_atom_site_fract_z
Si Si1 0.500000 0.187481 0.891561
Si Si2 0.851364 0.812738 0.599137
Si Si3 0.150851 0.688146 0.769081
Si Si4 0.500000 0.188563 0.069917
Si Si5 0.352405 0.813146 0.194783
Si Si6 0.000000 0.183963 0.309128
Si Si7 0.000000 0.683906 0.482991
O O1 0.588689 0.243426 0.843024
O O2 0.500000 0.000000 0.899359
O O3 0.500000 0.263590 0.980596
O O4 0.750000 0.750000 0.588061
O O5 0.886780 0.768421 0.687932
O O6 0.910789 0.724534 0.533427
O O7 0.857348 0.000000 0.586341
O O8 0.150679 0.500000 0.756071
O O9 0.250000 0.750000 0.791202
O O10 0.590956 0.246694 0.116667
O O11 0.500000 0.000000 0.066074
O O12 0.250000 0.750000 0.192970
O O13 0.407236 0.758026 0.273375
O O14 0.347376 0.000000 0.196630
O O15 0.000000 0.211503 0.403535
O O16 0.000000 0.000000 0.289229
O O17 0.000000 0.500000 0.459620
#
# Coordination Sequence:
#
# PCOD8172800 Si02
#       7
#     4   8   8   4   8   4   4
#     4   9  18  32  52  77 109 148 185 227 280 331
#     4  11  22  38  58  82 112 149 192 234 279 329
#     4  10  19  33  53  77 107 146 190 233 280 330
#     4   8  17  34  54  80 112 144 184 230 277 332
#     4  10  20  37  61  85 112 148 185 225 277 332
#     4  11  23  40  60  86 115 143 183 228 273 330
#     4  12  24  40  60  85 116 147 182 227 280 331
#
# _framework density 19.416995
#
# number of rings (size 3 to 8) (size 9 to 14) (size 15 to 20)
#    0.000    1.800    0.000    7.200    0.000    2.400 
#    0.000    5.500    0.000   13.200    0.000    0.000 
#    0.000    0.000    0.000    0.000    0.000    0.000 
#
# Total GULP energy -248012.647662 kJ/mol
# GULP energy per Si atom -12400.632383 kJ/mol
# Density = 1.937280 g / cm^3
# Si number density = 19.416995 Si / 1000 Ang^3
#
#
#
# Elastic Constant Matrix: (Units=GPa)
#
#
# Indices 1 2 3 4 5 6 
#
# 1 143.3363 26.8962 77.8612 0.0000 0.0000 0.0000
# 2 26.8962 78.4741 7.9959 0.0000 0.0000 0.0000
# 3 77.8612 7.9959 147.4862 0.0000 0.0000 0.0000
# 4 0.0000 0.0000 0.0000 23.1345 0.0000 0.0000
# 5 0.0000 0.0000 0.0000 0.0000 82.7136 0.0000
# 6 0.0000 0.0000 0.0000 0.0000 0.0000 29.5626
#
#
#
# Elastic Compliance Matrix: (Units=1/GPa)
#
#
# Indices 1 2 3 4 5 6 
#
# 1 0.010456 -0.003038 -0.005355 0.000000 0.000000 0.000000
# 2 -0.003038 0.013697 0.000861 0.000000 0.000000 0.000000
# 3 -0.005355 0.000861 0.009561 0.000000 0.000000 0.000000
# 4 0.000000 0.000000 0.000000 0.043226 0.000000 0.000000
# 5 0.000000 0.000000 0.000000 0.000000 0.012090 0.000000
# 6 0.000000 0.000000 0.000000 0.000000 0.000000 0.033827
#
#
# Mechanical properties :
#
#
# Convention : Reuss Voigt Hill
#
# Bulk Modulus (GPa) = 53.62127 66.08924 59.85525
# Shear Modulus (GPa) = 34.68985 44.18503 39.43744
#
# Velocity S-wave (km/s) = 4.23137 4.77548 4.51164
# Velocity P-wave (km/s) = 7.17971 8.03229 7.61794
#
# Compressibility (1/GPa) = 0.01864932
#
# Stress axis : x y z
#
# Youngs Moduli (GPa) = 95.64336 73.01131 104.59571
#
# Poissons Ratio (x) = 0.22180 0.56011
# Poissons Ratio (y) = 0.29055 -0.09008
# Poissons Ratio (z) = 0.51217 -0.06288
#
# Static dielectric constant tensor:
#      x y z
#    x 3.606740 0.000000 0.000000 
#    y 0.000000 3.501230 0.000000 
#    z 0.000000 0.000000 3.774270 
# 
# 
# High freq. dielectric constant tensor:
#      x y z
#    x 1.765440 0.000000 0.000000 
#    y 0.000000 1.754860 0.000000 
#    z 0.000000 0.000000 1.758050 
# 
# From -- ./inp_files/16648.got.cif
#   From: 2010.03.12/outbox.cif.g09.slc.cpg/sg35_9_cif.got.tgz:16648.got - 2010.04.14 02:02:04.
