data_PCOD8172960
_publ_section_title
;
Structure prediction by ZEFSAII (Michael W. Deem and Ramdas Pophale) SiO2 
 PCOD8172960
Probable space group: C M M 2
;
_chemical_formula_sum "Si O2"
_cell_formula_units_Z 48
_cell_length_a 17.959370
_cell_length_b 14.585989
_cell_length_c 9.883235
_cell_angle_alpha 90.000000
_cell_angle_beta 90.000000
_cell_angle_gamma 90.000000
_cell_volume 2588.964537
_symmetry_space_group_name_H-M "C M M 2"
_symmetry_group_IT_number 35
_symmetry_cell_setting 'orthorhombic'
loop_
_space_group_symop_operation_xyz
x,y,z
-x,-y,z
-x,y,z
x,-y,z
1/2+x,1/2+y,z
1/2-x,1/2-y,z
1/2-x,1/2+y,z
1/2+x,1/2-y,z
loop_
_atom_site_type_symbol
_atom_site_label
_atom_site_fract_x
_atom_site_fract_y
_atom_site_fract_z
Si Si1 0.357773 0.500000 0.746230
Si Si2 0.325786 0.198533 0.934990
Si Si3 0.415341 0.329294 0.416666
Si Si4 0.916946 0.802909 0.719792
Si Si5 0.270796 0.000000 0.951282
Si Si6 0.413375 0.824424 0.198413
Si Si7 0.183906 0.500000 0.247181
Si Si8 0.815152 0.000000 0.446366
O O1 0.409691 0.411123 0.748486
O O2 0.309433 0.500000 0.882269
O O3 0.307371 0.500000 0.609675
O O4 0.250000 0.250000 0.977103
O O5 0.356689 0.243966 0.799428
O O6 0.314656 0.090839 0.904418
O O7 0.385083 0.211927 0.054180
O O8 0.500000 0.366104 0.406051
O O9 0.402472 0.282600 0.562305
O O10 0.397517 0.254812 0.304639
O O11 0.359329 0.412193 0.392751
O O12 0.000000 0.772860 0.762367
O O13 0.262886 0.000000 0.114422
O O14 0.500000 0.849749 0.187572
O O15 0.368621 0.912228 0.248076
O O16 0.233263 0.500000 0.382181
#
# Coordination Sequence:
#
# PCOD8172960 Si02
#       8
#     4   8   8   8   4   8   4   4
#     4  10  19  36  56  84 118 147 184 234 287 340
#     4  11  22  37  59  85 114 149 186 239 282 343
#     4   9  20  37  58  83 116 150 187 232 283 342
#     4  10  20  37  59  85 114 151 190 231 286 342
#     4  10  22  38  53  80 119 143 183 228 289 328
#     4  10  22  40  59  81 111 151 192 233 282 337
#     4  10  23  37  57  81 110 153 189 238 274 336
#     4  10  21  33  56  87 116 147 186 230 287 336
#
# _framework density 18.540230999999999
#
# number of rings (size 3 to 8) (size 9 to 14) (size 15 to 20)
#    0.000    2.000    1.667    1.250    4.667    3.333 
#    0.000    1.250    0.000    5.000    0.000    1.167 
#    0.000    0.000    0.000    0.000    0.000    0.000 
#
# Total GULP energy -297665.588863 kJ/mol
# GULP energy per Si atom -12402.732869 kJ/mol
# Density = 1.849803 g / cm^3
# Si number density = 18.540231 Si / 1000 Ang^3
#
#
#
# Elastic Constant Matrix: (Units=GPa)
#
#
# Indices 1 2 3 4 5 6 
#
# 1 102.9333 40.0894 50.1751 0.0000 0.0000 0.0000
# 2 40.0894 101.8392 39.4337 0.0000 0.0000 0.0000
# 3 50.1751 39.4337 79.0666 0.0000 0.0000 0.0000
# 4 0.0000 0.0000 0.0000 26.2765 0.0000 0.0000
# 5 0.0000 0.0000 0.0000 0.0000 35.2173 0.0000
# 6 0.0000 0.0000 0.0000 0.0000 0.0000 -21.0343
#
#
#
# Elastic Compliance Matrix: (Units=1/GPa)
#
#
# Indices 1 2 3 4 5 6 
#
# 1 0.014635 -0.002683 -0.007949 0.000000 0.000000 0.000000
# 2 -0.002683 0.012661 -0.004612 0.000000 0.000000 0.000000
# 3 -0.007949 -0.004612 0.019992 0.000000 0.000000 0.000000
# 4 0.000000 0.000000 0.000000 0.038057 0.000000 0.000000
# 5 0.000000 0.000000 0.000000 0.000000 0.028395 0.000000
# 6 0.000000 0.000000 0.000000 0.000000 0.000000 -0.047541
#
#
# Mechanical properties :
#
#
# Convention : Reuss Voigt Hill
#
# Bulk Modulus (GPa) = 59.52349 60.35950 59.94150
# Shear Modulus (GPa) = 48.88195 18.36796 33.62496
#
# Velocity S-wave (km/s) = 5.14029 3.15097 4.26328
# Velocity P-wave (km/s) = 8.21005 6.77235 7.52561
#
# Compressibility (1/GPa) = 0.01680009
#
# Stress axis : x y z
#
# Youngs Moduli (GPa) = 68.33066 78.97961 50.01960
#
# Poissons Ratio (x) = 0.21191 0.39760
# Poissons Ratio (y) = 0.18334 0.23070
# Poissons Ratio (z) = 0.54316 0.36427
#
# Static dielectric constant tensor:
#      x y z
#    x 3.346690 0.000000 0.000000 
#    y 0.000000 3.469430 0.000000 
#    z 0.000000 0.000000 3.450090 
# 
# 
# High freq. dielectric constant tensor:
#      x y z
#    x 1.719500 0.000000 0.000000 
#    y 0.000000 1.725260 0.000000 
#    z 0.000000 0.000000 1.722080 
# 
# From -- ./inp_files/7367.got.cif
#   From: 2010.03.12/outbox.cif.g09.slc.cpg/sg35_4_cif.got.tgz:7367.got - 2010.04.14 02:02:04.
