data_PCOD8172270
_publ_section_title
;
Structure prediction by ZEFSAII (Michael W. Deem and Ramdas Pophale) SiO2 
 PCOD8172270
Probable space group: C M M 2
;
_chemical_formula_sum "Si O2"
_cell_formula_units_Z 64
_cell_length_a 16.815289
_cell_length_b 25.375181
_cell_length_c 9.959858
_cell_angle_alpha 90.000000
_cell_angle_beta 90.000000
_cell_angle_gamma 90.000000
_cell_volume 4249.781789
_symmetry_space_group_name_H-M "C M M 2"
_symmetry_group_IT_number 35
_symmetry_cell_setting 'orthorhombic'
loop_
_space_group_symop_operation_xyz
x,y,z
-x,-y,z
-x,y,z
x,-y,z
1/2+x,1/2+y,z
1/2-x,1/2-y,z
1/2-x,1/2+y,z
1/2+x,1/2-y,z
loop_
_atom_site_type_symbol
_atom_site_label
_atom_site_fract_x
_atom_site_fract_y
_atom_site_fract_z
Si Si1 0.172514 0.138466 0.278880
Si Si2 0.090232 0.851738 0.547620
Si Si3 0.409005 0.770308 0.608521
Si Si4 0.591745 0.631534 0.839405
Si Si5 0.591686 0.438495 0.086818
Si Si6 0.658067 0.742599 0.883849
Si Si7 0.688479 0.798123 0.371348
Si Si8 0.593203 0.742189 0.163683
O O1 0.140356 0.125304 0.426385
O O2 0.155953 0.087399 0.187465
O O3 0.265884 0.151572 0.306430
O O4 0.127983 0.185686 0.203733
O O5 0.104556 0.789264 0.558618
O O6 0.116422 0.881099 0.685482
O O7 0.000000 0.864420 0.513153
O O8 0.500000 0.788453 0.588441
O O9 0.388301 0.773352 0.765997
O O10 0.349380 0.807262 0.520150
O O11 0.500000 0.649941 0.839444
O O12 0.641855 0.680509 0.892040
O O13 0.606774 0.581755 0.934956
O O14 0.500000 0.426091 0.129502
O O15 0.608895 0.500000 0.086844
O O16 0.750000 0.750000 0.858066
O O17 0.631240 0.765334 0.027215
O O18 0.750000 0.750000 0.375990
O O19 0.613459 0.784591 0.277598
O O20 0.500000 0.735664 0.146352
#
# Coordination Sequence:
#
# PCOD8172270 Si02
#       8
#     8   8   8   8   8   8   8   8
#     4  11  19  29  46  66  93 119 156 197 237 274
#     4   9  16  26  43  63  86 122 155 182 220 268
#     4  10  18  29  42  61  92 129 159 182 214 266
#     4   9  18  31  45  62  89 123 159 189 230 276
#     4  10  20  34  51  67  86 119 161 204 245 283
#     4  11  20  27  43  66  93 123 159 195 222 265
#     4  10  19  28  41  64  91 123 157 186 224 268
#     4  11  19  29  42  62  93 128 157 187 223 274
#
# _framework density 15.059597
#
# number of rings (size 3 to 8) (size 9 to 14) (size 15 to 20)
#    0.000    1.875    3.750    4.875    1.750    0.000 
#    0.000    0.625    0.000    2.250    0.000    0.000 
#    0.000    2.000    0.000    0.250    0.000    0.000 
#
# Total GULP energy -396659.942015 kJ/mol
# GULP energy per Si atom -12395.623188 kJ/mol
# Density = 1.502532 g / cm^3
# Si number density = 15.059597 Si / 1000 Ang^3
#
#
#
# Elastic Constant Matrix: (Units=GPa)
#
#
# Indices 1 2 3 4 5 6 
#
# 1 66.8124 25.0772 29.2580 0.0000 0.0000 0.0000
# 2 25.0772 50.0735 27.6171 0.0000 0.0000 0.0000
# 3 29.2580 27.6171 104.6793 0.0000 0.0000 0.0000
# 4 0.0000 0.0000 0.0000 9.9723 0.0000 0.0000
# 5 0.0000 0.0000 0.0000 0.0000 28.4322 0.0000
# 6 0.0000 0.0000 0.0000 0.0000 0.0000 14.7954
#
#
#
# Elastic Compliance Matrix: (Units=1/GPa)
#
#
# Indices 1 2 3 4 5 6 
#
# 1 0.019383 -0.007863 -0.003343 0.000000 0.000000 0.000000
# 2 -0.007863 0.026561 -0.004810 0.000000 0.000000 0.000000
# 3 -0.003343 -0.004810 0.011756 0.000000 0.000000 0.000000
# 4 0.000000 0.000000 0.000000 0.100278 0.000000 0.000000
# 5 0.000000 0.000000 0.000000 0.000000 0.035171 0.000000
# 6 0.000000 0.000000 0.000000 0.000000 0.000000 0.067589
#
#
# Mechanical properties :
#
#
# Convention : Reuss Voigt Hill
#
# Bulk Modulus (GPa) = 38.95853 42.83000 40.89426
# Shear Modulus (GPa) = 16.59334 19.94751 18.27042
#
# Velocity S-wave (km/s) = 3.32301 3.64341 3.48689
# Velocity P-wave (km/s) = 6.37565 6.79716 6.58977
#
# Compressibility (1/GPa) = 0.02566832
#
# Stress axis : x y z
#
# Youngs Moduli (GPa) = 51.59286 37.64874 85.06084
#
# Poissons Ratio (x) = 0.29604 0.28435
# Poissons Ratio (y) = 0.40568 0.40913
# Poissons Ratio (z) = 0.17247 0.18108
#
# Static dielectric constant tensor:
#      x y z
#    x 2.941060 0.000000 0.000000 
#    y 0.000000 2.445690 0.000000 
#    z 0.000000 0.000000 3.257320 
# 
# 
# High freq. dielectric constant tensor:
#      x y z
#    x 1.569170 0.000000 0.000000 
#    y 0.000000 1.504330 0.000000 
#    z 0.000000 0.000000 1.604640 
# 
# From -- ./inp_files/8862.got.cif
#   From: 2010.03.12/outbox.cif.g09.slc.cpg/sg35_5_cif.got.tgz:8862.got - 2010.04.14 02:02:04.
