data_PCOD8172751
_publ_section_title
;
Structure prediction by ZEFSAII (Michael W. Deem and Ramdas Pophale) SiO2 
 PCOD8172751
Probable space group: C M M 2
;
_chemical_formula_sum "Si O2"
_cell_formula_units_Z 48
_cell_length_a 15.549449
_cell_length_b 8.838143
_cell_length_c 17.047241
_cell_angle_alpha 90.000000
_cell_angle_beta 90.000000
_cell_angle_gamma 90.000000
_cell_volume 2342.772563
_symmetry_space_group_name_H-M "C M M 2"
_symmetry_group_IT_number 35
_symmetry_cell_setting 'orthorhombic'
loop_
_space_group_symop_operation_xyz
x,y,z
-x,-y,z
-x,y,z
x,-y,z
1/2+x,1/2+y,z
1/2-x,1/2-y,z
1/2-x,1/2+y,z
1/2+x,1/2-y,z
loop_
_atom_site_type_symbol
_atom_site_label
_atom_site_fract_x
_atom_site_fract_y
_atom_site_fract_z
Si Si1 0.836583 0.177286 0.965300
Si Si2 0.338260 0.679869 0.608278
Si Si3 0.602509 0.330862 0.274515
Si Si4 0.100606 0.674757 0.119046
Si Si5 0.500000 0.820598 0.694897
Si Si6 0.904732 0.179411 0.443879
Si Si7 0.500000 0.678367 0.862504
O O1 0.750000 0.250000 0.929768
O O2 0.916670 0.226250 0.912136
O O3 0.824972 0.000000 0.965891
O O4 0.849206 0.231216 0.054153
O O5 0.338591 0.500000 0.619307
O O6 0.250000 0.750000 0.641141
O O7 0.415899 0.748847 0.656870
O O8 0.346093 0.729487 0.516928
O O9 0.500000 0.333458 0.278325
O O10 0.637523 0.500000 0.258541
O O11 0.635472 0.222943 0.204859
O O12 0.634633 0.267152 0.359662
O O13 0.120421 0.500000 0.105831
O O14 0.000000 0.712305 0.112148
O O15 0.500000 0.779819 0.785887
O O16 0.500000 0.000000 0.683229
O O17 0.000000 0.248922 0.457224
O O18 0.912827 0.000000 0.440859
O O19 0.500000 0.500000 0.842242
#
# Coordination Sequence:
#
# PCOD8172751 Si02
#       7
#     8   8   8   8   4   8   4
#     4  11  23  41  65  93 123 158 201 246 300 360
#     4  11  22  40  65  93 128 165 207 256 308 367
#     4   8  14  26  49  79 111 154 209 255 300 355
#     4  10  19  32  53  83 121 162 205 251 300 352
#     4  12  26  44  68  97 126 161 202 247 306 371
#     4   8  14  29  55  83 112 157 208 254 305 357
#     4  10  24  46  70  93 122 159 196 243 304 369
#
# _framework density 20.488544999999998
#
# number of rings (size 3 to 8) (size 9 to 14) (size 15 to 20)
#    0.000    2.167    1.667    3.250    0.000    2.667 
#    0.000    4.167    0.000    2.000    0.000    0.000 
#    0.000    0.000    0.000    0.000    0.000    0.000 
#
# Total GULP energy -297555.990252 kJ/mol
# GULP energy per Si atom -12398.166261 kJ/mol
# Density = 2.044191 g / cm^3
# Si number density = 20.488545 Si / 1000 Ang^3
#
#
#
# Elastic Constant Matrix: (Units=GPa)
#
#
# Indices 1 2 3 4 5 6 
#
# 1 129.3245 54.2957 61.5081 0.0000 0.0000 0.0000
# 2 54.2957 89.6173 52.8925 0.0000 0.0000 0.0000
# 3 61.5081 52.8925 136.1741 0.0000 0.0000 0.0000
# 4 0.0000 0.0000 0.0000 26.0818 0.0000 0.0000
# 5 0.0000 0.0000 0.0000 0.0000 -0.5722 0.0000
# 6 0.0000 0.0000 0.0000 0.0000 0.0000 28.5355
#
#
#
# Elastic Compliance Matrix: (Units=1/GPa)
#
#
# Indices 1 2 3 4 5 6 
#
# 1 0.011343 -0.004993 -0.003184 0.000000 0.000000 0.000000
# 2 -0.004993 0.016675 -0.004222 0.000000 0.000000 0.000000
# 3 -0.003184 -0.004222 0.010422 0.000000 0.000000 0.000000
# 4 0.000000 0.000000 0.000000 0.038341 0.000000 0.000000
# 5 0.000000 0.000000 0.000000 0.000000 -1.747716 0.000000
# 6 0.000000 0.000000 0.000000 0.000000 0.000000 0.035044
#
#
# Mechanical properties :
#
#
# Convention : Reuss Voigt Hill
#
# Bulk Modulus (GPa) = 73.30193 76.94539 75.12366
# Shear Modulus (GPa) = -3.11227 23.23699 10.06236
#
# Velocity S-wave (km/s) = -1.23383 3.37136 2.21853
# Velocity P-wave (km/s) = 5.81592 7.26578 6.58090
#
# Compressibility (1/GPa) = 0.01364221
#
# Stress axis : x y z
#
# Youngs Moduli (GPa) = 88.15831 59.96873 95.95486
#
# Poissons Ratio (x) = 0.29943 0.30554
# Poissons Ratio (y) = 0.44018 0.40509
# Poissons Ratio (z) = 0.28071 0.25317
#
# Static dielectric constant tensor:
#      x y z
#    x 3.627500 0.000000 0.000000 
#    y 0.000000 3.516680 0.000000 
#    z 0.000000 0.000000 4.006890 
# 
# 
# High freq. dielectric constant tensor:
#      x y z
#    x 1.789670 0.000000 0.000000 
#    y 0.000000 1.784960 0.000000 
#    z 0.000000 0.000000 1.808410 
# 
# From -- ./inp_files/18758.got.cif
#   From: 2010.03.12/outbox.cif.g09.slc.cpg/sg35_10_cif.got.tgz:18758.got - 2010.04.14 02:02:04.
