data_PCOD8172876
_publ_section_title
;
Structure prediction by ZEFSAII (Michael W. Deem and Ramdas Pophale) SiO2 
 PCOD8172876
Probable space group: C M M 2
;
_chemical_formula_sum "Si O2"
_cell_formula_units_Z 48
_cell_length_a 18.469565
_cell_length_b 7.938068
_cell_length_c 17.094524
_cell_angle_alpha 90.000000
_cell_angle_beta 90.000000
_cell_angle_gamma 90.000000
_cell_volume 2506.273685
_symmetry_space_group_name_H-M "C M M 2"
_symmetry_group_IT_number 35
_symmetry_cell_setting 'orthorhombic'
loop_
_space_group_symop_operation_xyz
x,y,z
-x,-y,z
-x,y,z
x,-y,z
1/2+x,1/2+y,z
1/2-x,1/2-y,z
1/2-x,1/2+y,z
1/2+x,1/2-y,z
loop_
_atom_site_type_symbol
_atom_site_label
_atom_site_fract_x
_atom_site_fract_y
_atom_site_fract_z
Si Si1 0.413564 0.000000 0.622860
Si Si2 0.330842 0.309039 0.041442
Si Si3 0.580755 0.808382 0.184146
Si Si4 0.586046 0.688080 0.723915
Si Si5 0.086033 0.814430 0.347755
Si Si6 0.413509 0.000000 0.445885
Si Si7 0.084728 0.303667 0.893183
O O1 0.383371 0.169189 0.665068
O O2 0.500000 0.000000 0.626027
O O3 0.384517 0.000000 0.534454
O O4 0.332134 0.500000 0.069783
O O5 0.250000 0.250000 0.026475
O O6 0.367460 0.201493 0.109716
O O7 0.374055 0.292234 0.961257
O O8 0.500000 0.743226 0.161327
O O9 0.612911 0.706700 0.258192
O O10 0.576216 0.000000 0.212216
O O11 0.500000 0.695268 0.722304
O O12 0.612992 0.500000 0.699581
O O13 0.613055 0.729444 0.811226
O O14 0.117677 0.668221 0.403801
O O15 0.000000 0.798897 0.347697
O O16 0.110632 0.000000 0.377840
O O17 0.500000 0.000000 0.444636
O O18 0.103117 0.500000 0.896729
O O19 0.000000 0.270155 0.904048
#
# Coordination Sequence:
#
# PCOD8172876 Si02
#       7
#     4   8   8   8   8   4   8
#     4   9  16  26  40  63  99 135 165 208 262 309
#     4  12  25  38  51  73 105 139 173 221 267 313
#     4  10  19  34  55  76 101 137 178 218 261 310
#     4   9  16  27  44  67  95 131 173 212 252 304
#     4   9  16  27  44  67  95 131 173 212 252 304
#     4   9  16  26  40  63  99 135 165 208 262 309
#     4  10  19  34  55  76 101 137 178 218 261 310
#
# _framework density 19.151938999999999
#
# number of rings (size 3 to 8) (size 9 to 14) (size 15 to 20)
#    0.000    2.167    1.667    3.000    0.000    4.667 
#    0.000    3.333    0.000    0.000    0.000    0.000 
#    0.000    1.333    0.667    0.000    0.000    0.000 
#
# Total GULP energy -297551.800460 kJ/mol
# GULP energy per Si atom -12397.991686 kJ/mol
# Density = 1.910835 g / cm^3
# Si number density = 19.151939 Si / 1000 Ang^3
#
#
#
# Elastic Constant Matrix: (Units=GPa)
#
#
# Indices 1 2 3 4 5 6 
#
# 1 23.0852 17.5908 18.1011 0.0000 0.0000 0.0000
# 2 17.5908 138.8522 64.1341 0.0000 0.0000 0.0000
# 3 18.1011 64.1341 142.0717 0.0000 0.0000 0.0000
# 4 0.0000 0.0000 0.0000 27.6972 0.0000 0.0000
# 5 0.0000 0.0000 0.0000 0.0000 12.9943 0.0000
# 6 0.0000 0.0000 0.0000 0.0000 0.0000 12.9791
#
#
#
# Elastic Compliance Matrix: (Units=1/GPa)
#
#
# Indices 1 2 3 4 5 6 
#
# 1 0.050071 -0.004292 -0.004442 0.000000 0.000000 0.000000
# 2 -0.004292 0.009467 -0.003727 0.000000 0.000000 0.000000
# 3 -0.004442 -0.003727 0.009287 0.000000 0.000000 0.000000
# 4 0.000000 0.000000 0.000000 0.036105 0.000000 0.000000
# 5 0.000000 0.000000 0.000000 0.000000 0.076957 0.000000
# 6 0.000000 0.000000 0.000000 0.000000 0.000000 0.077047
#
#
# Mechanical properties :
#
#
# Convention : Reuss Voigt Hill
#
# Bulk Modulus (GPa) = 22.77697 55.96235 39.36966
# Shear Modulus (GPa) = 16.75100 24.34632 20.54866
#
# Velocity S-wave (km/s) = 2.96064 3.56928 3.27911
# Velocity P-wave (km/s) = 4.85857 6.80221 5.91083
#
# Compressibility (1/GPa) = 0.04390400
#
# Stress axis : x y z
#
# Youngs Moduli (GPa) = 19.97160 105.63058 107.67722
#
# Poissons Ratio (x) = 0.45332 0.47832
# Poissons Ratio (y) = 0.08571 0.40129
# Poissons Ratio (z) = 0.08872 0.39366
#
# Static dielectric constant tensor:
#      x y z
#    x 2.713570 0.000000 0.000000 
#    y 0.000000 3.795640 0.000000 
#    z 0.000000 0.000000 3.542970 
# 
# 
# High freq. dielectric constant tensor:
#      x y z
#    x 1.671240 0.000000 0.000000 
#    y 0.000000 1.766420 0.000000 
#    z 0.000000 0.000000 1.747090 
# 
# From -- ./inp_files/17117.got.cif
#   From: 2010.03.12/outbox.cif.g09.slc.cpg/sg35_9_cif.got.tgz:17117.got - 2010.04.14 02:02:04.
