data_PCOD8172379
_publ_section_title
;
Structure prediction by ZEFSAII (Michael W. Deem and Ramdas Pophale) SiO2 
 PCOD8172379
Probable space group: C M M 2
;
_chemical_formula_sum "Si O2"
_cell_formula_units_Z 64
_cell_length_a 27.764321
_cell_length_b 8.684494
_cell_length_c 13.143364
_cell_angle_alpha 90.000000
_cell_angle_beta 90.000000
_cell_angle_gamma 90.000000
_cell_volume 3169.115824
_symmetry_space_group_name_H-M "C M M 2"
_symmetry_group_IT_number 35
_symmetry_cell_setting 'orthorhombic'
loop_
_space_group_symop_operation_xyz
x,y,z
-x,-y,z
-x,y,z
x,-y,z
1/2+x,1/2+y,z
1/2-x,1/2-y,z
1/2-x,1/2+y,z
1/2+x,1/2-y,z
loop_
_atom_site_type_symbol
_atom_site_label
_atom_site_fract_x
_atom_site_fract_y
_atom_site_fract_z
Si Si1 0.801106 0.321793 0.327150
Si Si2 0.943553 0.319015 0.631480
Si Si3 0.110231 0.181954 0.821212
Si Si4 0.896677 0.678551 0.426392
Si Si5 0.697280 0.817936 0.914315
Si Si6 0.303421 0.316763 0.122111
Si Si7 0.056628 0.321913 0.224039
Si Si8 0.554314 0.681925 0.018237
O O1 0.792555 0.500000 0.302818
O O2 0.750000 0.250000 0.358936
O O3 0.838755 0.297496 0.419794
O O4 0.826404 0.244583 0.227463
O O5 0.933891 0.500000 0.645414
O O6 0.920129 0.227774 0.723552
O O7 0.918079 0.250880 0.529908
O O8 0.000000 0.281876 0.626029
O O9 0.162419 0.265262 0.822249
O O10 0.081942 0.244547 0.919908
O O11 0.117796 0.000000 0.822901
O O12 0.910826 0.500000 0.426872
O O13 0.921267 0.753018 0.326405
O O14 0.750000 0.750000 0.893955
O O15 0.701329 0.000000 0.921377
O O16 0.673342 0.749709 0.018564
O O17 0.304680 0.500000 0.117839
O O18 0.250000 0.250000 0.125971
O O19 0.070801 0.500000 0.216075
O O20 0.000000 0.294036 0.229079
O O21 0.078548 0.240167 0.123403
O O22 0.500000 0.746096 0.010777
O O23 0.555380 0.500000 0.019555
#
# Coordination Sequence:
#
# PCOD8172379 Si02
#       8
#     8   8   8   8   8   8   8   8
#     4  10  19  33  52  78 113 153 195 239 288 344
#     4  10  21  40  65  89 113 147 196 250 302 358
#     4  11  23  39  59  85 117 155 198 242 296 352
#     4   9  19  35  57  83 111 146 190 242 298 350
#     4  11  22  38  59  85 118 155 197 243 292 348
#     4  10  18  31  51  78 113 153 194 235 283 338
#     4   9  17  31  53  81 110 140 179 229 287 350
#     4   9  19  35  53  77 113 151 184 228 289 350
#
# _framework density 20.194907000000001
#
# number of rings (size 3 to 8) (size 9 to 14) (size 15 to 20)
#    0.000    2.125    0.000    5.250    1.750    3.250 
#    0.000    4.375    0.000    3.000    0.000    0.000 
#    0.000    0.000    0.000    0.000    0.000    0.000 
#
# Total GULP energy -396732.659991 kJ/mol
# GULP energy per Si atom -12397.895625 kJ/mol
# Density = 2.014894 g / cm^3
# Si number density = 20.194907 Si / 1000 Ang^3
#
#
#
# Elastic Constant Matrix: (Units=GPa)
#
#
# Indices 1 2 3 4 5 6 
#
# 1 90.1879 39.1739 68.5813 0.0000 0.0000 0.0000
# 2 39.1739 98.5350 36.9601 0.0000 0.0000 0.0000
# 3 68.5813 36.9601 145.7826 0.0000 0.0000 0.0000
# 4 0.0000 0.0000 0.0000 2.8602 0.0000 0.0000
# 5 0.0000 0.0000 0.0000 0.0000 37.0418 0.0000
# 6 0.0000 0.0000 0.0000 0.0000 0.0000 24.2706
#
#
#
# Elastic Compliance Matrix: (Units=1/GPa)
#
#
# Indices 1 2 3 4 5 6 
#
# 1 0.019011 -0.004645 -0.007766 0.000000 0.000000 0.000000
# 2 -0.004645 0.012350 -0.000946 0.000000 0.000000 0.000000
# 3 -0.007766 -0.000946 0.010753 0.000000 0.000000 0.000000
# 4 0.000000 0.000000 0.000000 0.349630 0.000000 0.000000
# 5 0.000000 0.000000 0.000000 0.000000 0.026997 0.000000
# 6 0.000000 0.000000 0.000000 0.000000 0.000000 0.041202
#
#
# Mechanical properties :
#
#
# Convention : Reuss Voigt Hill
#
# Bulk Modulus (GPa) = 64.93423 69.32624 67.13024
# Shear Modulus (GPa) = 10.16695 25.48721 17.82708
#
# Velocity S-wave (km/s) = 2.24618 3.55640 2.97434
# Velocity P-wave (km/s) = 6.24105 7.16011 6.71632
#
# Compressibility (1/GPa) = 0.01540020
#
# Stress axis : x y z
#
# Youngs Moduli (GPa) = 52.60143 80.97024 93.00073
#
# Poissons Ratio (x) = 0.37612 0.72222
# Poissons Ratio (y) = 0.24434 0.08797
# Poissons Ratio (z) = 0.40849 0.07659
#
# Static dielectric constant tensor:
#      x y z
#    x 3.728750 0.000000 0.000000 
#    y 0.000000 3.495300 0.000000 
#    z 0.000000 0.000000 3.952380 
# 
# 
# High freq. dielectric constant tensor:
#      x y z
#    x 1.798560 0.000000 0.000000 
#    y 0.000000 1.772840 0.000000 
#    z 0.000000 0.000000 1.778700 
# 
# From -- ./inp_files/14523.got.cif
#   From: 2010.03.12/outbox.cif.g09.slc.cpg/sg35_8_cif.got.tgz:14523.got - 2010.04.14 02:02:04.
