data_PCOD8172267
_publ_section_title
;
Structure prediction by ZEFSAII (Michael W. Deem and Ramdas Pophale) SiO2 
 PCOD8172267
Probable space group: C M M 2
;
_chemical_formula_sum "Si O2"
_cell_formula_units_Z 48
_cell_length_a 9.658841
_cell_length_b 16.929004
_cell_length_c 14.066320
_cell_angle_alpha 90.000000
_cell_angle_beta 90.000000
_cell_angle_gamma 90.000000
_cell_volume 2300.048096
_symmetry_space_group_name_H-M "C M M 2"
_symmetry_group_IT_number 35
_symmetry_cell_setting 'orthorhombic'
loop_
_space_group_symop_operation_xyz
x,y,z
-x,-y,z
-x,y,z
x,-y,z
1/2+x,1/2+y,z
1/2-x,1/2-y,z
1/2-x,1/2+y,z
1/2+x,1/2-y,z
loop_
_atom_site_type_symbol
_atom_site_label
_atom_site_fract_x
_atom_site_fract_y
_atom_site_fract_z
Si Si1 0.835330 0.167924 0.524260
Si Si2 0.500000 0.675396 0.868644
Si Si3 0.000000 0.411517 0.032286
Si Si4 0.767085 0.343300 0.153366
Si Si5 0.268031 0.657255 0.728068
Si Si6 0.163368 0.669044 0.358038
Si Si7 0.000000 0.908833 0.068296
Si Si8 0.000000 0.360754 0.826947
O O1 0.750000 0.250000 0.529626
O O2 0.821131 0.123766 0.626142
O O3 0.750598 0.121024 0.440207
O O4 0.000000 0.178849 0.501100
O O5 0.370080 0.638318 0.814401
O O6 0.500000 0.770196 0.863105
O O7 0.500000 0.648100 0.977078
O O8 0.133597 0.365256 0.067235
O O9 0.000000 0.500000 0.072912
O O10 0.000000 0.415855 0.918552
O O11 0.750000 0.250000 0.149944
O O12 0.828040 0.372635 0.255018
O O13 0.627004 0.390053 0.136454
O O14 0.250000 0.750000 0.716017
O O15 0.126111 0.616955 0.758387
O O16 0.250000 0.750000 0.347351
O O17 0.000000 0.680452 0.384984
O O18 0.000000 0.000000 0.035747
#
# Coordination Sequence:
#
# PCOD8172267 Si02
#       8
#     8   4   4   8   8   8   4   4
#     4  10  18  28  48  80 121 154 183 240 305 357
#     4  10  18  36  53  78 118 150 201 236 295 352
#     4  12  24  42  61  88 122 160 205 256 311 362
#     4  11  23  40  63  89 122 161 205 249 302 364
#     4   9  18  29  49  79 114 150 191 235 295 349
#     4  10  20  32  54  85 118 154 193 246 303 358
#     4  12  26  40  61  90 122 160 205 256 311 362
#     4  10  20  32  55  82 110 160 195 248 285 360
#
# _framework density 20.869128
#
# number of rings (size 3 to 8) (size 9 to 14) (size 15 to 20)
#    0.000    1.667    1.667    5.000    9.333    1.333 
#    0.000    0.000    0.000    0.000    0.000    7.000 
#    0.000    0.000    0.000    0.000    0.000    0.000 
#
# Total GULP energy -297337.096301 kJ/mol
# GULP energy per Si atom -12389.045679 kJ/mol
# Density = 2.082163 g / cm^3
# Si number density = 20.869128 Si / 1000 Ang^3
#
#
#
# Elastic Constant Matrix: (Units=GPa)
#
#
# Indices 1 2 3 4 5 6 
#
# 1 193.5928 11.8856 57.2606 0.0000 0.0000 0.0000
# 2 11.8856 42.8207 12.0152 0.0000 0.0000 0.0000
# 3 57.2606 12.0152 141.5938 0.0000 0.0000 0.0000
# 4 0.0000 0.0000 0.0000 3.0950 0.0000 0.0000
# 5 0.0000 0.0000 0.0000 0.0000 -21.2643 0.0000
# 6 0.0000 0.0000 0.0000 0.0000 0.0000 16.1558
#
#
#
# Elastic Compliance Matrix: (Units=1/GPa)
#
#
# Indices 1 2 3 4 5 6 
#
# 1 0.005908 -0.000993 -0.002305 0.000000 0.000000 0.000000
# 2 -0.000993 0.024090 -0.001643 0.000000 0.000000 0.000000
# 3 -0.002305 -0.001643 0.008134 0.000000 0.000000 0.000000
# 4 0.000000 0.000000 0.000000 0.323099 0.000000 0.000000
# 5 0.000000 0.000000 0.000000 0.000000 -0.047027 0.000000
# 6 0.000000 0.000000 0.000000 0.000000 0.000000 0.061897
#
#
# Mechanical properties :
#
#
# Convention : Reuss Voigt Hill
#
# Bulk Modulus (GPa) = 35.39757 60.03667 47.71712
# Shear Modulus (GPa) = 12.64544 19.38702 16.01623
#
# Velocity S-wave (km/s) = 2.46426 3.05122 2.77331
# Velocity P-wave (km/s) = 5.00952 6.42214 5.75930
#
# Compressibility (1/GPa) = 0.02825053
#
# Stress axis : x y z
#
# Youngs Moduli (GPa) = 169.25541 41.51142 122.94093
#
# Poissons Ratio (x) = 0.04123 0.28338
# Poissons Ratio (y) = 0.16810 0.20194
# Poissons Ratio (z) = 0.39014 0.06818
#
# Static dielectric constant tensor:
#      x y z
#    x 4.144270 0.000000 0.000000 
#    y 0.000000 3.038020 0.000000 
#    z 0.000000 0.000000 4.843780 
# 
# 
# High freq. dielectric constant tensor:
#      x y z
#    x 1.838310 0.000000 0.000000 
#    y 0.000000 1.740090 0.000000 
#    z 0.000000 0.000000 1.845680 
# 
# From -- ./inp_files/15351.got.cif
#   From: 2010.03.12/outbox.cif.g09.slc.cpg/sg35_8_cif.got.tgz:15351.got - 2010.04.14 02:02:04.
