data_PCOD8172658
_publ_section_title
;
Structure prediction by ZEFSAII (Michael W. Deem and Ramdas Pophale) SiO2 
 PCOD8172658
Probable space group: C M M 2
;
_chemical_formula_sum "Si O2"
_cell_formula_units_Z 64
_cell_length_a 28.250662
_cell_length_b 8.701835
_cell_length_c 15.494463
_cell_angle_alpha 90.000000
_cell_angle_beta 90.000000
_cell_angle_gamma 90.000000
_cell_volume 3809.044115
_symmetry_space_group_name_H-M "C M M 2"
_symmetry_group_IT_number 35
_symmetry_cell_setting 'orthorhombic'
loop_
_space_group_symop_operation_xyz
x,y,z
-x,-y,z
-x,y,z
x,-y,z
1/2+x,1/2+y,z
1/2-x,1/2-y,z
1/2-x,1/2+y,z
1/2+x,1/2-y,z
loop_
_atom_site_type_symbol
_atom_site_label
_atom_site_fract_x
_atom_site_fract_y
_atom_site_fract_z
Si Si1 0.609685 0.678757 0.342330
Si Si2 0.946017 0.318825 0.848735
Si Si3 0.944464 0.322313 0.498154
Si Si4 0.611143 0.180134 0.015707
Si Si5 0.055234 0.322795 0.187233
Si Si6 0.556202 0.327224 0.673630
Si Si7 0.299495 0.181463 0.274868
Si Si8 0.700638 0.318609 0.088687
O O1 0.621605 0.500000 0.340945
O O2 0.582859 0.719833 0.429607
O O3 0.576833 0.717889 0.261313
O O4 0.658968 0.771727 0.340113
O O5 0.943727 0.500000 0.836694
O O6 0.924041 0.242545 0.762812
O O7 0.000000 0.265476 0.864688
O O8 0.915149 0.263633 0.929658
O O9 0.932913 0.500000 0.482278
O O10 0.926310 0.274564 0.593079
O O11 0.000000 0.288541 0.487666
O O12 0.577810 0.221580 0.096012
O O13 0.660037 0.273507 0.021114
O O14 0.622432 0.000000 0.012774
O O15 0.065382 0.500000 0.211013
O O16 0.000000 0.288861 0.180399
O O17 0.500000 0.322834 0.677387
O O18 0.575305 0.500000 0.662387
O O19 0.250000 0.250000 0.308639
O O20 0.312756 0.246896 0.181022
O O21 0.294973 0.000000 0.268395
O O22 0.705214 0.500000 0.098320
O O23 0.750000 0.250000 0.054530
#
# Coordination Sequence:
#
# PCOD8172658 Si02
#       8
#     8   8   8   8   8   8   8   8
#     4  12  23  34  49  73 102 134 169 207 251 299
#     4   9  17  30  49  73 101 135 172 206 244 295
#     4  10  20  34  52  73  99 134 173 211 252 300
#     4  10  19  32  50  72 100 134 171 209 248 295
#     4  10  20  33  48  67  97 138 176 207 243 290
#     4   9  17  30  48  71  99 130 165 210 257 295
#     4  11  21  36  55  74  97 127 165 210 255 300
#     4  11  21  34  52  73  97 127 165 210 257 302
#
# _framework density 16.802116000000002
#
# number of rings (size 3 to 8) (size 9 to 14) (size 15 to 20)
#    0.000    1.750    1.250    5.625    0.000    6.000 
#    0.000    0.000    0.000    2.250    0.000    0.875 
#    0.000    4.000    0.000    0.000    0.000    0.000 
#
# Total GULP energy -396908.159935 kJ/mol
# GULP energy per Si atom -12403.379998 kJ/mol
# Density = 1.676387 g / cm^3
# Si number density = 16.802116 Si / 1000 Ang^3
#
#
#
# Elastic Constant Matrix: (Units=GPa)
#
#
# Indices 1 2 3 4 5 6 
#
# 1 87.8403 40.7955 45.6246 0.0000 0.0000 0.0000
# 2 40.7955 96.2763 40.6824 0.0000 0.0000 0.0000
# 3 45.6246 40.6824 110.7157 0.0000 0.0000 0.0000
# 4 0.0000 0.0000 0.0000 21.7805 0.0000 0.0000
# 5 0.0000 0.0000 0.0000 0.0000 7.9586 0.0000
# 6 0.0000 0.0000 0.0000 0.0000 0.0000 25.5288
#
#
#
# Elastic Compliance Matrix: (Units=1/GPa)
#
#
# Indices 1 2 3 4 5 6 
#
# 1 0.016145 -0.004771 -0.004900 0.000000 0.000000 0.000000
# 2 -0.004771 0.013706 -0.003070 0.000000 0.000000 0.000000
# 3 -0.004900 -0.003070 0.012180 0.000000 0.000000 0.000000
# 4 0.000000 0.000000 0.000000 0.045913 0.000000 0.000000
# 5 0.000000 0.000000 0.000000 0.000000 0.125649 0.000000
# 6 0.000000 0.000000 0.000000 0.000000 0.000000 0.039171
#
#
# Mechanical properties :
#
#
# Convention : Reuss Voigt Hill
#
# Bulk Modulus (GPa) = 60.42946 61.00415 60.71680
# Shear Modulus (GPa) = 17.62040 22.23557 19.92799
#
# Velocity S-wave (km/s) = 3.24188 3.64177 3.44763
# Velocity P-wave (km/s) = 7.07506 7.35320 7.21547
#
# Compressibility (1/GPa) = 0.01654822
#
# Stress axis : x y z
#
# Youngs Moduli (GPa) = 61.93835 72.96315 82.10430
#
# Poissons Ratio (x) = 0.34807 0.40233
# Poissons Ratio (y) = 0.29548 0.25208
# Poissons Ratio (z) = 0.30351 0.22401
#
# Static dielectric constant tensor:
#      x y z
#    x 3.109730 0.000000 0.000000 
#    y 0.000000 3.204250 0.000000 
#    z 0.000000 0.000000 3.162220 
# 
# 
# High freq. dielectric constant tensor:
#      x y z
#    x 1.629810 0.000000 0.000000 
#    y 0.000000 1.657430 0.000000 
#    z 0.000000 0.000000 1.635480 
# 
# From -- ./inp_files/17745.got.cif
#   From: 2010.03.12/outbox.cif.g09.slc.cpg/sg35_9_cif.got.tgz:17745.got - 2010.04.14 02:02:04.
