data_PCOD8172106
_publ_section_title
;
Structure prediction by ZEFSAII (Michael W. Deem and Ramdas Pophale) SiO2 
 PCOD8172106
Probable space group: P N N 2
;
_chemical_formula_sum "Si O2"
_cell_formula_units_Z 32
_cell_length_a 13.864006
_cell_length_b 8.826441
_cell_length_c 11.734104
_cell_angle_alpha 90.000000
_cell_angle_beta 90.000000
_cell_angle_gamma 90.000000
_cell_volume 1435.900323
_symmetry_space_group_name_H-M "P N N 2"
_symmetry_group_IT_number 34
_symmetry_cell_setting 'orthorhombic'
loop_
_space_group_symop_operation_xyz
x,y,z
-x,-y,z
1/2-x,1/2+y,1/2+z
1/2+x,1/2-y,1/2+z
loop_
_atom_site_type_symbol
_atom_site_label
_atom_site_fract_x
_atom_site_fract_y
_atom_site_fract_z
Si Si1 0.274793 0.946522 0.677210
Si Si2 0.460921 0.674504 0.170628
Si Si3 0.582478 0.622562 0.568627
Si Si4 0.621955 0.726354 0.328161
Si Si5 0.752864 0.981709 0.414801
Si Si6 0.952200 0.842328 0.422020
Si Si7 0.526451 0.164800 0.707237
Si Si8 0.257787 0.268648 0.729342
O O1 0.245469 0.979873 0.547572
O O2 0.311160 0.104657 0.737376
O O3 0.187303 0.867563 0.741492
O O4 0.360484 0.824793 0.678761
O O5 0.500000 0.500000 0.181548
O O6 0.524038 0.769210 0.261019
O O7 0.348831 0.707905 0.196800
O O8 0.472115 0.741479 0.042424
O O9 0.500000 0.500000 0.606674
O O10 0.603072 0.613290 0.434636
O O11 0.532640 0.783133 0.596539
O O12 0.685145 0.621289 0.638167
O O13 0.660474 0.887143 0.373355
O O14 0.840080 0.865789 0.392701
O O15 0.758075 0.140775 0.347677
O O16 0.003921 0.762368 0.316953
O O17 0.000000 0.000000 0.439776
O O18 0.500000 0.000000 0.743597
#
# Coordination Sequence:
#
# PCOD8172106 Si02
#       8
#     4   4   4   4   4   4   4   4
#     4  12  25  47  71 106 146 192 244 309 372 452
#     4  11  23  45  74 102 144 194 244 309 373 444
#     4  12  27  46  75 109 146 195 252 310 372 457
#     4  12  25  48  74 109 146 195 247 307 381 450
#     4  12  25  46  72 102 151 191 239 314 374 445
#     4  11  22  44  71  98 140 192 247 299 368 452
#     4  12  24  42  68 103 142 187 242 305 371 440
#     4  12  25  48  71 107 147 193 249 307 372 448
#
# _framework density 22.285668000000001
#
# number of rings (size 3 to 8) (size 9 to 14) (size 15 to 20)
#    0.000    0.250    6.250    3.000    1.750    0.500 
#    2.250    0.000    0.000    0.000    0.000    0.000 
#    0.000    0.000    0.000    0.000    0.000    0.000 
#
# Total GULP energy -396506.571512 kJ/mol
# GULP energy per Si atom -12390.830360 kJ/mol
# Density = 2.223494 g / cm^3
# Si number density = 22.285668 Si / 1000 Ang^3
#
#
#
# Elastic Constant Matrix: (Units=GPa)
#
#
# Indices 1 2 3 4 5 6 
#
# 1 123.6536 23.7363 44.6051 0.0000 0.0000 0.0000
# 2 23.7363 65.2988 51.3394 0.0000 0.0000 0.0000
# 3 44.6051 51.3394 138.8011 0.0000 0.0000 0.0000
# 4 0.0000 0.0000 0.0000 24.3919 0.0000 0.0000
# 5 0.0000 0.0000 0.0000 0.0000 40.3190 0.0000
# 6 0.0000 0.0000 0.0000 0.0000 0.0000 41.8417
#
#
#
# Elastic Compliance Matrix: (Units=1/GPa)
#
#
# Indices 1 2 3 4 5 6 
#
# 1 0.009243 -0.001445 -0.002436 0.000000 0.000000 0.000000
# 2 -0.001445 0.021820 -0.007606 0.000000 0.000000 0.000000
# 3 -0.002436 -0.007606 0.010801 0.000000 0.000000 0.000000
# 4 0.000000 0.000000 0.000000 0.040997 0.000000 0.000000
# 5 0.000000 0.000000 0.000000 0.000000 0.024802 0.000000
# 6 0.000000 0.000000 0.000000 0.000000 0.000000 0.023900
#
#
# Mechanical properties :
#
#
# Convention : Reuss Voigt Hill
#
# Bulk Modulus (GPa) = 52.93931 63.01277 57.97604
# Shear Modulus (GPa) = 31.08811 35.18203 33.13507
#
# Velocity S-wave (km/s) = 3.73900 3.97758 3.86013
# Velocity P-wave (km/s) = 6.51510 7.03073 6.77782
#
# Compressibility (1/GPa) = 0.01888955
#
# Stress axis : x y z
#
# Youngs Moduli (GPa) = 108.18810 45.83033 92.58564
#
# Poissons Ratio (x) = 0.06621 0.22554
# Poissons Ratio (y) = 0.15629 0.70424
# Poissons Ratio (z) = 0.26355 0.34860
#
# Static dielectric constant tensor:
#      x y z
#    x 4.393680 0.000000 0.000000 
#    y 0.000000 4.008860 0.000000 
#    z 0.000000 0.000000 4.083630 
# 
# 
# High freq. dielectric constant tensor:
#      x y z
#    x 1.901410 0.000000 0.000000 
#    y 0.000000 1.857090 0.000000 
#    z 0.000000 0.000000 1.884990 
# 
# From -- ./inp_files/5688.got.cif
#   From: 2010.03.12/outbox.cif.g09.slc.cpg/sg34_3_cif.got.tgz:5688.got - 2010.04.14 01:56:33.
