data_PCOD8172265
_publ_section_title
;
Structure prediction by ZEFSAII (Michael W. Deem and Ramdas Pophale) SiO2 
 PCOD8172265
Probable space group: C M M 2
;
_chemical_formula_sum "Si O2"
_cell_formula_units_Z 48
_cell_length_a 17.642125
_cell_length_b 16.126377
_cell_length_c 9.309789
_cell_angle_alpha 90.000000
_cell_angle_beta 90.000000
_cell_angle_gamma 90.000000
_cell_volume 2648.668102
_symmetry_space_group_name_H-M "C M M 2"
_symmetry_group_IT_number 35
_symmetry_cell_setting 'orthorhombic'
loop_
_space_group_symop_operation_xyz
x,y,z
-x,-y,z
-x,y,z
x,-y,z
1/2+x,1/2+y,z
1/2-x,1/2-y,z
1/2-x,1/2+y,z
1/2+x,1/2-y,z
loop_
_atom_site_type_symbol
_atom_site_label
_atom_site_fract_x
_atom_site_fract_y
_atom_site_fract_z
Si Si1 0.177488 0.591844 0.694300
Si Si2 0.840712 0.736070 0.491611
Si Si3 0.089288 0.243369 0.195436
Si Si4 0.827652 0.088926 0.528319
Si Si5 0.810615 0.092022 0.204428
Si Si6 0.697351 0.174865 0.989330
O O1 0.140513 0.500000 0.672970
O O2 0.135118 0.662117 0.599153
O O3 0.265138 0.587837 0.651670
O O4 0.173594 0.615063 0.860923
O O5 0.750000 0.750000 0.486179
O O6 0.873804 0.714304 0.336211
O O7 0.876520 0.825786 0.544994
O O8 0.114343 0.147475 0.183948
O O9 0.119338 0.291420 0.056011
O O10 0.000000 0.250022 0.202182
O O11 0.786335 0.093200 0.372101
O O12 0.873526 0.000000 0.537917
O O13 0.740718 0.125523 0.113356
O O14 0.831552 0.000000 0.151864
O O15 0.750000 0.250000 0.931491
#
# Coordination Sequence:
#
# PCOD8172265 Si02
#       6
#     8   8   8   8   8   8
#     4  10  18  28  48  74  96 122 163 215 258 290
#     4   9  16  31  51  72  97 126 163 207 249 294
#     4  10  20  33  50  72 101 137 169 200 246 300
#     4   8  14  25  44  72  99 121 149 192 246 293
#     4   9  17  31  53  78 102 127 160 205 251 299
#     4  10  18  30  49  73 100 130 166 205 247 295
#
# _framework density 18.122313999999999
#
# number of rings (size 3 to 8) (size 9 to 14) (size 15 to 20)
#    0.000    2.667    0.000    5.500    0.000    0.333 
#    0.000    1.667    0.000    5.500    0.000    0.000 
#    0.000   25.333    0.000    0.000    0.000    0.000 
#
# Total GULP energy -297333.559506 kJ/mol
# GULP energy per Si atom -12388.898313 kJ/mol
# Density = 1.808107 g / cm^3
# Si number density = 18.122314 Si / 1000 Ang^3
#
#
#
# Elastic Constant Matrix: (Units=GPa)
#
#
# Indices 1 2 3 4 5 6 
#
# 1 62.9386 22.0242 29.2393 0.0000 0.0000 0.0000
# 2 22.0242 166.9983 52.6059 0.0000 0.0000 0.0000
# 3 29.2393 52.6059 77.3657 0.0000 0.0000 0.0000
# 4 0.0000 0.0000 0.0000 29.4759 0.0000 0.0000
# 5 0.0000 0.0000 0.0000 0.0000 7.2830 0.0000
# 6 0.0000 0.0000 0.0000 0.0000 0.0000 8.3496
#
#
#
# Elastic Compliance Matrix: (Units=1/GPa)
#
#
# Indices 1 2 3 4 5 6 
#
# 1 0.019285 -0.000315 -0.007075 0.000000 0.000000 0.000000
# 2 -0.000315 0.007625 -0.005066 0.000000 0.000000 0.000000
# 3 -0.007075 -0.005066 0.019044 0.000000 0.000000 0.000000
# 4 0.000000 0.000000 0.000000 0.033926 0.000000 0.000000
# 5 0.000000 0.000000 0.000000 0.000000 0.137305 0.000000
# 6 0.000000 0.000000 0.000000 0.000000 0.000000 0.119766
#
#
# Mechanical properties :
#
#
# Convention : Reuss Voigt Hill
#
# Bulk Modulus (GPa) = 47.51955 57.22684 52.37320
# Shear Modulus (GPa) = 13.55463 22.58391 18.06927
#
# Velocity S-wave (km/s) = 2.73784 3.53398 3.16107
# Velocity P-wave (km/s) = 6.02269 6.94972 6.50275
#
# Compressibility (1/GPa) = 0.02104397
#
# Stress axis : x y z
#
# Youngs Moduli (GPa) = 51.85298 131.13967 52.50973
#
# Poissons Ratio (x) = 0.04129 0.37148
# Poissons Ratio (y) = 0.01633 0.26602
# Poissons Ratio (z) = 0.36684 0.66436
#
# Static dielectric constant tensor:
#      x y z
#    x 2.647670 0.000000 0.000000 
#    y 0.000000 4.174150 0.000000 
#    z 0.000000 0.000000 3.290350 
# 
# 
# High freq. dielectric constant tensor:
#      x y z
#    x 1.623170 0.000000 0.000000 
#    y 0.000000 1.728960 0.000000 
#    z 0.000000 0.000000 1.703500 
# 
# From -- ./inp_files/8463.got.cif
#   From: 2010.03.12/outbox.cif.g09.slc.cpg/sg35_5_cif.got.tgz:8463.got - 2010.04.14 02:02:04.
