data_PCOD8172129
_publ_section_title
;
Structure prediction by ZEFSAII (Michael W. Deem and Ramdas Pophale) SiO2 
 PCOD8172129
Probable space group: P N N 2
;
_chemical_formula_sum "Si O2"
_cell_formula_units_Z 28
_cell_length_a 22.823283
_cell_length_b 8.933284
_cell_length_c 5.436224
_cell_angle_alpha 90.000000
_cell_angle_beta 90.000000
_cell_angle_gamma 90.000000
_cell_volume 1108.374690
_symmetry_space_group_name_H-M "P N N 2"
_symmetry_group_IT_number 34
_symmetry_cell_setting 'orthorhombic'
loop_
_space_group_symop_operation_xyz
x,y,z
-x,-y,z
1/2-x,1/2+y,1/2+z
1/2+x,1/2-y,1/2+z
loop_
_atom_site_type_symbol
_atom_site_label
_atom_site_fract_x
_atom_site_fract_y
_atom_site_fract_z
Si Si1 0.500000 0.500000 0.798080
Si Si2 0.567834 0.689808 0.162339
Si Si3 0.060287 0.318490 0.723879
Si Si4 0.723688 0.009610 0.675055
Si Si5 0.101643 0.064140 0.001622
Si Si6 0.397519 0.058639 0.868576
Si Si7 0.000000 0.500000 0.092648
Si Si8 0.275546 0.632247 0.675753
O O1 0.460585 0.610175 0.630157
O O2 0.552532 0.569427 0.954856
O O3 0.507675 0.774153 0.212854
O O4 0.596390 0.606009 0.397699
O O5 0.616603 0.809749 0.066875
O O6 0.104878 0.182117 0.776460
O O7 0.088100 0.397128 0.487754
O O8 0.056067 0.433196 0.949148
O O9 0.733385 0.188665 0.671943
O O10 0.655260 0.966098 0.679723
O O11 0.748583 0.938426 0.423805
O O12 0.750931 0.940900 0.924363
O O13 0.156209 0.085288 0.181711
O O14 0.460186 0.115086 0.753486
#
# Coordination Sequence:
#
# PCOD8172129 Si02
#       8
#     2   4   4   4   4   4   2   4
#     4  12  24  42  76 116 164 210 268 334 416 518
#     4  12  24  44  71 121 163 211 259 336 422 526
#     4  12  23  45  69 118 160 210 257 333 423 517
#     4  12  32  59  89 122 166 225 304 362 438 499
#     4  12  28  46  80 110 168 212 275 339 429 505
#     4  12  28  45  81 113 166 211 274 344 427 514
#     4  12  22  42  74 112 158 202 262 328 422 514
#     4  12  32  59  87 123 161 230 295 373 424 512
#
# _framework density 25.262212000000002
#
# number of rings (size 3 to 8) (size 9 to 14) (size 15 to 20)
#    0.000    0.000    5.714    2.571   12.000    1.143 
#    0.000    0.000    0.000    0.000    0.000    0.000 
#    0.000    0.000    0.000    0.000    0.000    0.000 
#
# Total GULP energy -346866.322237 kJ/mol
# GULP energy per Si atom -12388.082937 kJ/mol
# Density = 2.520471 g / cm^3
# Si number density = 25.262212 Si / 1000 Ang^3
#
#
#
# Elastic Constant Matrix: (Units=GPa)
#
#
# Indices 1 2 3 4 5 6 
#
# 1 142.4837 48.1470 63.6592 0.0000 0.0000 0.0000
# 2 48.1470 135.0618 52.1398 0.0000 0.0000 0.0000
# 3 63.6592 52.1398 140.1290 0.0000 0.0000 0.0000
# 4 0.0000 0.0000 0.0000 32.0781 0.0000 0.0000
# 5 0.0000 0.0000 0.0000 0.0000 47.8815 0.0000
# 6 0.0000 0.0000 0.0000 0.0000 0.0000 33.8011
#
#
#
# Elastic Compliance Matrix: (Units=1/GPa)
#
#
# Indices 1 2 3 4 5 6 
#
# 1 0.009226 -0.001951 -0.003465 0.000000 0.000000 0.000000
# 2 -0.001951 0.009059 -0.002484 0.000000 0.000000 0.000000
# 3 -0.003465 -0.002484 0.009635 0.000000 0.000000 0.000000
# 4 0.000000 0.000000 0.000000 0.031174 0.000000 0.000000
# 5 0.000000 0.000000 0.000000 0.000000 0.020885 0.000000
# 6 0.000000 0.000000 0.000000 0.000000 0.000000 0.029585
#
#
# Mechanical properties :
#
#
# Convention : Reuss Voigt Hill
#
# Bulk Modulus (GPa) = 82.52056 82.84071 82.68063
# Shear Modulus (GPa) = 38.63888 39.66737 39.15312
#
# Velocity S-wave (km/s) = 3.91514 3.96691 3.94111
# Velocity P-wave (km/s) = 7.29207 7.33794 7.31504
#
# Compressibility (1/GPa) = 0.01211819
#
# Stress axis : x y z
#
# Youngs Moduli (GPa) = 108.39099 110.39287 103.79014
#
# Poissons Ratio (x) = 0.21539 0.35966
# Poissons Ratio (y) = 0.21148 0.25783
# Poissons Ratio (z) = 0.37560 0.27423
#
# Static dielectric constant tensor:
#      x y z
#    x 4.514550 0.000000 0.000000 
#    y 0.000000 5.657670 0.000000 
#    z 0.000000 0.000000 5.167040 
# 
# 
# High freq. dielectric constant tensor:
#      x y z
#    x 1.995760 0.000000 0.000000 
#    y 0.000000 2.019010 0.000000 
#    z 0.000000 0.000000 2.026120 
# 
# From -- ./inp_files/1758.got.cif
#   From: 2010.03.12/outbox.cif.g09.slc.cpg/sg34_1_cif.got.tgz:1758.got - 2010.04.14 01:56:33.
