data_PCOD8172234
_publ_section_title
;
Structure prediction by ZEFSAII (Michael W. Deem and Ramdas Pophale) SiO2 
 PCOD8172234
Probable space group: C M M 2
;
_chemical_formula_sum "Si O2"
_cell_formula_units_Z 64
_cell_length_a 19.157804
_cell_length_b 17.172574
_cell_length_c 10.346871
_cell_angle_alpha 90.000000
_cell_angle_beta 90.000000
_cell_angle_gamma 90.000000
_cell_volume 3404.004745
_symmetry_space_group_name_H-M "C M M 2"
_symmetry_group_IT_number 35
_symmetry_cell_setting 'orthorhombic'
loop_
_space_group_symop_operation_xyz
x,y,z
-x,-y,z
-x,y,z
x,-y,z
1/2+x,1/2+y,z
1/2-x,1/2-y,z
1/2-x,1/2+y,z
1/2+x,1/2-y,z
loop_
_atom_site_type_symbol
_atom_site_label
_atom_site_fract_x
_atom_site_fract_y
_atom_site_fract_z
Si Si1 0.578107 0.169470 0.264020
Si Si2 0.922163 0.911166 0.095671
Si Si3 0.719408 0.665380 0.098299
Si Si4 0.777397 0.834881 0.405429
Si Si5 0.924806 0.159714 0.355651
Si Si6 0.850384 0.589929 0.026834
Si Si7 0.852262 0.409878 0.504086
Si Si8 0.078685 0.592447 0.765773
O O1 0.500000 0.139872 0.241103
O O2 0.584329 0.262297 0.268960
O O3 0.624364 0.141087 0.146588
O O4 0.604788 0.137233 0.399100
O O5 0.859855 0.852787 0.048483
O O6 0.924463 0.909989 0.252296
O O7 0.000000 0.885930 0.043512
O O8 0.906016 0.000000 0.053408
O O9 0.750000 0.750000 0.060045
O O10 0.725679 0.651421 0.251940
O O11 0.767147 0.602036 0.023426
O O12 0.750000 0.750000 0.443304
O O13 0.858305 0.846374 0.451890
O O14 0.730372 0.896914 0.482355
O O15 0.000000 0.161419 0.430619
O O16 0.869707 0.500000 0.049046
O O17 0.885431 0.622959 0.896624
O O18 0.870429 0.500000 0.488619
O O19 0.876036 0.378194 0.643967
O O20 0.077651 0.500000 0.767659
O O21 0.000000 0.625598 0.756216
#
# Coordination Sequence:
#
# PCOD8172234 Si02
#       8
#     8   8   8   8   8   8   8   8
#     4  11  20  31  51  80 108 137 171 210 259 315
#     4   9  17  29  47  72 104 142 177 210 257 317
#     4  10  19  32  51  76 111 138 167 221 275 316
#     4  10  17  31  49  72 104 136 164 212 267 309
#     4   9  18  31  48  74 108 141 168 207 267 318
#     4  11  20  32  51  77 105 142 181 217 260 311
#     4  11  21  33  52  77 100 135 178 217 260 308
#     4   9  20  37  51  69 107 147 174 210 262 317
#
# _framework density 18.801383999999999
#
# number of rings (size 3 to 8) (size 9 to 14) (size 15 to 20)
#    0.000    2.000    2.500    3.000    0.000    4.000 
#    0.000    1.250    0.000    0.000    0.000    0.875 
#    0.000    3.000    0.000    0.000    0.000    1.000 
#
# Total GULP energy -396568.971867 kJ/mol
# GULP energy per Si atom -12392.780371 kJ/mol
# Density = 1.875859 g / cm^3
# Si number density = 18.801384 Si / 1000 Ang^3
#
#
#
# Elastic Constant Matrix: (Units=GPa)
#
#
# Indices 1 2 3 4 5 6 
#
# 1 171.8118 24.8380 23.4722 0.0000 0.0000 0.0000
# 2 24.8380 49.3826 12.6029 0.0000 0.0000 0.0000
# 3 23.4722 12.6029 63.6734 0.0000 0.0000 0.0000
# 4 0.0000 0.0000 0.0000 0.5689 0.0000 0.0000
# 5 0.0000 0.0000 0.0000 0.0000 18.9568 0.0000
# 6 0.0000 0.0000 0.0000 0.0000 0.0000 28.5807
#
#
#
# Elastic Compliance Matrix: (Units=1/GPa)
#
#
# Indices 1 2 3 4 5 6 
#
# 1 0.006474 -0.002788 -0.001835 0.000000 0.000000 0.000000
# 2 -0.002788 0.022528 -0.003431 0.000000 0.000000 0.000000
# 3 -0.001835 -0.003431 0.017061 0.000000 0.000000 0.000000
# 4 0.000000 0.000000 0.000000 1.757860 0.000000 0.000000
# 5 0.000000 0.000000 0.000000 0.000000 0.052751 0.000000
# 6 0.000000 0.000000 0.000000 0.000000 0.000000 0.034989
#
#
# Mechanical properties :
#
#
# Convention : Reuss Voigt Hill
#
# Bulk Modulus (GPa) = 33.38366 45.18822 39.28594
# Shear Modulus (GPa) = 2.60722 24.55160 13.57941
#
# Velocity S-wave (km/s) = 1.17887 3.61756 2.69040
# Velocity P-wave (km/s) = 4.43255 6.44482 5.53097
#
# Compressibility (1/GPa) = 0.02995477
#
# Stress axis : x y z
#
# Youngs Moduli (GPa) = 154.46353 44.38924 58.61455
#
# Poissons Ratio (x) = 0.12376 0.10754
# Poissons Ratio (y) = 0.43065 0.20112
# Poissons Ratio (z) = 0.28340 0.15231
#
# Static dielectric constant tensor:
#      x y z
#    x 4.126990 0.000000 0.000000 
#    y 0.000000 3.359790 0.000000 
#    z 0.000000 0.000000 3.062700 
# 
# 
# High freq. dielectric constant tensor:
#      x y z
#    x 1.759400 0.000000 0.000000 
#    y 0.000000 1.717330 0.000000 
#    z 0.000000 0.000000 1.666780 
# 
# From -- ./inp_files/9443.got.cif
#   From: 2010.03.12/outbox.cif.g09.slc.cpg/sg35_5_cif.got.tgz:9443.got - 2010.04.14 02:02:04.
