data_PCOD8172277
_publ_section_title
;
Structure prediction by ZEFSAII (Michael W. Deem and Ramdas Pophale) SiO2 
 PCOD8172277
Probable space group: C M M 2
;
_chemical_formula_sum "Si O2"
_cell_formula_units_Z 64
_cell_length_a 28.415818
_cell_length_b 9.007310
_cell_length_c 15.725338
_cell_angle_alpha 90.000000
_cell_angle_beta 90.000000
_cell_angle_gamma 90.000000
_cell_volume 4024.901545
_symmetry_space_group_name_H-M "C M M 2"
_symmetry_group_IT_number 35
_symmetry_cell_setting 'orthorhombic'
loop_
_space_group_symop_operation_xyz
x,y,z
-x,-y,z
-x,y,z
x,-y,z
1/2+x,1/2+y,z
1/2-x,1/2-y,z
1/2-x,1/2+y,z
1/2+x,1/2-y,z
loop_
_atom_site_type_symbol
_atom_site_label
_atom_site_fract_x
_atom_site_fract_y
_atom_site_fract_z
Si Si1 0.946547 0.177347 0.461350
Si Si2 0.054308 0.173367 0.279131
Si Si3 0.945641 0.328511 0.779768
Si Si4 0.944031 0.827681 0.095139
Si Si5 0.702887 0.326333 0.696952
Si Si6 0.110388 0.675212 0.946343
Si Si7 0.895303 0.176199 0.627537
Si Si8 0.702223 0.325035 0.893315
O O1 0.925064 0.234034 0.369642
O O2 0.912919 0.237293 0.536339
O O3 0.000000 0.235464 0.475982
O O4 0.947418 0.000000 0.461296
O O5 0.073813 0.233215 0.188512
O O6 0.000000 0.212513 0.284687
O O7 0.062549 0.000000 0.274527
O O8 0.935643 0.500000 0.760158
O O9 0.917264 0.274432 0.862135
O O10 0.930288 0.234515 0.699008
O O11 0.000000 0.297980 0.798744
O O12 0.000000 0.809666 0.088022
O O13 0.930119 0.000000 0.080836
O O14 0.919476 0.723408 0.027286
O O15 0.710136 0.500000 0.686448
O O16 0.750000 0.250000 0.661270
O O17 0.658075 0.268239 0.643322
O O18 0.693928 0.282665 0.794823
O O19 0.118438 0.500000 0.948780
O O20 0.160204 0.758003 0.948857
O O21 0.897220 0.000000 0.631889
O O22 0.705150 0.500000 0.907531
O O23 0.750000 0.250000 0.926422
#
# Coordination Sequence:
#
# PCOD8172277 Si02
#       8
#     8   8   8   8   8   8   8   8
#     4   8  13  22  40  66  93 117 143 181 226 268
#     4   7  11  22  40  63  89 115 145 184 229 271
#     4  10  21  33  42  57  88 127 157 179 211 261
#     4   9  17  29  46  67  91 120 155 194 232 271
#     4   9  18  30  45  64  87 113 147 187 226 264
#     4  11  21  32  46  65  91 123 156 189 228 272
#     4  10  18  29  45  68  90 114 150 190 225 262
#     4  10  19  33  50  68  90 116 151 192 233 274
#
# _framework density 15.901011
#
# number of rings (size 3 to 8) (size 9 to 14) (size 15 to 20)
#    0.000    2.750    1.250    3.000    0.000    3.000 
#    0.000    0.000    0.000    0.750    0.000    2.625 
#    0.000    2.000    0.000    0.000    0.000    0.000 
#
# Total GULP energy -396546.341612 kJ/mol
# GULP energy per Si atom -12392.073175 kJ/mol
# Density = 1.586482 g / cm^3
# Si number density = 15.901011 Si / 1000 Ang^3
#
#
#
# Elastic Constant Matrix: (Units=GPa)
#
#
# Indices 1 2 3 4 5 6 
#
# 1 81.3045 26.8612 40.9649 0.0000 0.0000 0.0000
# 2 26.8612 35.6380 26.9970 0.0000 0.0000 0.0000
# 3 40.9649 26.9970 117.7698 0.0000 0.0000 0.0000
# 4 0.0000 0.0000 0.0000 10.6214 0.0000 0.0000
# 5 0.0000 0.0000 0.0000 0.0000 9.7167 0.0000
# 6 0.0000 0.0000 0.0000 0.0000 0.0000 23.5807
#
#
#
# Elastic Compliance Matrix: (Units=1/GPa)
#
#
# Indices 1 2 3 4 5 6 
#
# 1 0.017639 -0.010464 -0.003737 0.000000 0.000000 0.000000
# 2 -0.010464 0.040165 -0.005567 0.000000 0.000000 0.000000
# 3 -0.003737 -0.005567 0.011067 0.000000 0.000000 0.000000
# 4 0.000000 0.000000 0.000000 0.094150 0.000000 0.000000
# 5 0.000000 0.000000 0.000000 0.000000 0.102915 0.000000
# 6 0.000000 0.000000 0.000000 0.000000 0.000000 0.042408
#
#
# Mechanical properties :
#
#
# Convention : Reuss Voigt Hill
#
# Bulk Modulus (GPa) = 34.08996 47.15093 40.62044
# Shear Modulus (GPa) = 13.97980 18.10971 16.04475
#
# Velocity S-wave (km/s) = 2.96831 3.37842 3.17998
# Velocity P-wave (km/s) = 5.76483 6.70339 6.25175
#
# Compressibility (1/GPa) = 0.02933415
#
# Stress axis : x y z
#
# Youngs Moduli (GPa) = 56.69105 24.89760 90.35747
#
# Poissons Ratio (x) = 0.26054 0.33765
# Poissons Ratio (y) = 0.59324 0.50304
# Poissons Ratio (z) = 0.21185 0.13861
#
# Static dielectric constant tensor:
#      x y z
#    x 2.980430 0.000000 0.000000 
#    y 0.000000 2.790010 0.000000 
#    z 0.000000 0.000000 3.317630 
# 
# 
# High freq. dielectric constant tensor:
#      x y z
#    x 1.592520 0.000000 0.000000 
#    y 0.000000 1.589390 0.000000 
#    z 0.000000 0.000000 1.607490 
# 
# From -- ./inp_files/16146.got.cif
#   From: 2010.03.12/outbox.cif.g09.slc.cpg/sg35_9_cif.got.tgz:16146.got - 2010.04.14 02:02:04.
