data_PCOD8172561
_publ_section_title
;
Structure prediction by ZEFSAII (Michael W. Deem and Ramdas Pophale) SiO2 
 PCOD8172561
Probable space group: C M M 2
;
_chemical_formula_sum "Si O2"
_cell_formula_units_Z 64
_cell_length_a 14.611100
_cell_length_b 27.483495
_cell_length_c 9.078064
_cell_angle_alpha 90.000000
_cell_angle_beta 90.000000
_cell_angle_gamma 90.000000
_cell_volume 3645.424544
_symmetry_space_group_name_H-M "C M M 2"
_symmetry_group_IT_number 35
_symmetry_cell_setting 'orthorhombic'
loop_
_space_group_symop_operation_xyz
x,y,z
-x,-y,z
-x,y,z
x,-y,z
1/2+x,1/2+y,z
1/2-x,1/2-y,z
1/2-x,1/2+y,z
1/2+x,1/2-y,z
loop_
_atom_site_type_symbol
_atom_site_label
_atom_site_fract_x
_atom_site_fract_y
_atom_site_fract_z
Si Si1 0.896236 0.556349 0.411200
Si Si2 0.603036 0.318403 0.253775
Si Si3 0.898079 0.719402 0.406222
Si Si4 0.709859 0.138689 0.909879
Si Si5 0.786345 0.636007 0.252958
Si Si6 0.395287 0.943742 0.752539
Si Si7 0.400671 0.319206 0.917667
Si Si8 0.348655 0.770130 0.731755
O O1 0.881197 0.500000 0.376295
O O2 0.823730 0.585251 0.313382
O O3 0.878122 0.567686 0.581663
O O4 0.000000 0.571785 0.370186
O O5 0.500000 0.337212 0.289867
O O6 0.631002 0.273343 0.356702
O O7 0.676428 0.361652 0.280640
O O8 0.611546 0.300844 0.085074
O O9 0.829877 0.680630 0.339388
O O10 0.899723 0.715764 0.582540
O O11 0.000000 0.707895 0.348228
O O12 0.675438 0.087502 0.847412
O O13 0.818797 0.143801 0.876120
O O14 0.655128 0.182575 0.834834
O O15 0.688851 0.140470 0.082271
O O16 0.500000 0.930981 0.794743
O O17 0.375294 0.000000 0.786963
O O18 0.500000 0.345466 0.898420
O O19 0.402993 0.271492 0.817318
O O20 0.250000 0.750000 0.688631
#
# Coordination Sequence:
#
# PCOD8172561 Si02
#       8
#     8   8   8   8   8   8   8   8
#     4   9  19  36  55  74  97 126 158 192 236 288
#     4   9  19  34  50  68  95 131 166 200 238 279
#     4  11  21  31  46  70  99 132 166 198 236 282
#     4  10  21  32  49  75  98 125 161 199 240 286
#     4  11  20  32  50  73  99 126 160 200 241 284
#     4   9  19  36  55  73  96 126 157 192 237 287
#     4   9  18  34  51  68  96 131 164 199 238 279
#     4  10  19  31  47  69  98 131 165 199 235 278
#
# _framework density 17.556253999999999
#
# number of rings (size 3 to 8) (size 9 to 14) (size 15 to 20)
#    0.000    2.250    0.000    4.125    0.000    6.500 
#    0.000    1.250    0.000    0.750    0.000    5.250 
#    0.000    0.000    0.000    0.000    0.000    0.000 
#
# Total GULP energy -396772.828109 kJ/mol
# GULP energy per Si atom -12399.150878 kJ/mol
# Density = 1.751630 g / cm^3
# Si number density = 17.556254 Si / 1000 Ang^3
#
#
#
# Elastic Constant Matrix: (Units=GPa)
#
#
# Indices 1 2 3 4 5 6 
#
# 1 104.4701 58.2736 49.8463 0.0000 0.0000 0.0000
# 2 58.2736 86.8422 51.0901 0.0000 0.0000 0.0000
# 3 49.8463 51.0901 97.4854 0.0000 0.0000 0.0000
# 4 0.0000 0.0000 0.0000 28.4828 0.0000 0.0000
# 5 0.0000 0.0000 0.0000 0.0000 25.8621 0.0000
# 6 0.0000 0.0000 0.0000 0.0000 0.0000 28.1287
#
#
#
# Elastic Compliance Matrix: (Units=1/GPa)
#
#
# Indices 1 2 3 4 5 6 
#
# 1 0.016188 -0.008664 -0.003736 0.000000 0.000000 0.000000
# 2 -0.008664 0.021286 -0.006725 0.000000 0.000000 0.000000
# 3 -0.003736 -0.006725 0.015693 0.000000 0.000000 0.000000
# 4 0.000000 0.000000 0.000000 0.035109 0.000000 0.000000
# 5 0.000000 0.000000 0.000000 0.000000 0.038667 0.000000
# 6 0.000000 0.000000 0.000000 0.000000 0.000000 0.035551
#
#
# Mechanical properties :
#
#
# Convention : Reuss Voigt Hill
#
# Bulk Modulus (GPa) = 67.04779 67.46863 67.25821
# Shear Modulus (GPa) = 24.30536 25.13391 24.71964
#
# Velocity S-wave (km/s) = 3.72483 3.78778 3.75644
# Velocity P-wave (km/s) = 7.53474 7.59231 7.56358
#
# Compressibility (1/GPa) = 0.01491474
#
# Stress axis : x y z
#
# Youngs Moduli (GPa) = 61.77460 46.98008 63.72315
#
# Poissons Ratio (x) = 0.40705 0.23809
# Poissons Ratio (y) = 0.53524 0.42854
# Poissons Ratio (z) = 0.23081 0.31594
#
# Static dielectric constant tensor:
#      x y z
#    x 3.409530 0.000000 0.000000 
#    y 0.000000 3.027710 0.000000 
#    z 0.000000 0.000000 3.282200 
# 
# 
# High freq. dielectric constant tensor:
#      x y z
#    x 1.685210 0.000000 0.000000 
#    y 0.000000 1.650180 0.000000 
#    z 0.000000 0.000000 1.685730 
# 
# From -- ./inp_files/8020.got.cif
#   From: 2010.03.12/outbox.cif.g09.slc.cpg/sg35_5_cif.got.tgz:8020.got - 2010.04.14 02:02:04.
