data_PCOD8172180
_publ_section_title
;
Structure prediction by ZEFSAII (Michael W. Deem and Ramdas Pophale) SiO2 
 PCOD8172180
Probable space group: C M M 2
;
_chemical_formula_sum "Si O2"
_cell_formula_units_Z 40
_cell_length_a 18.779108
_cell_length_b 8.700621
_cell_length_c 13.190039
_cell_angle_alpha 90.000000
_cell_angle_beta 90.000000
_cell_angle_gamma 90.000000
_cell_volume 2155.119172
_symmetry_space_group_name_H-M "C M M 2"
_symmetry_group_IT_number 35
_symmetry_cell_setting 'orthorhombic'
loop_
_space_group_symop_operation_xyz
x,y,z
-x,-y,z
-x,y,z
x,-y,z
1/2+x,1/2+y,z
1/2-x,1/2-y,z
1/2-x,1/2+y,z
1/2+x,1/2-y,z
loop_
_atom_site_type_symbol
_atom_site_label
_atom_site_fract_x
_atom_site_fract_y
_atom_site_fract_z
Si Si1 0.170905 0.181981 0.009920
Si Si2 0.420280 0.182804 0.614441
Si Si3 0.828272 0.317591 0.804962
Si Si4 0.172421 0.679405 0.207969
Si Si5 0.827487 0.320469 0.430348
O O1 0.250000 0.250000 0.015364
O O2 0.131074 0.237885 0.113793
O O3 0.171399 0.000000 0.003340
O O4 0.135712 0.251658 0.908262
O O5 0.500000 0.251131 0.617797
O O6 0.377970 0.238571 0.713498
O O7 0.380940 0.248104 0.514349
O O8 0.423096 0.000000 0.610955
O O9 0.822823 0.500000 0.812162
O O10 0.750000 0.250000 0.787391
O O11 0.177184 0.500000 0.183308
O O12 0.250000 0.750000 0.216589
O O13 0.137637 0.710755 0.318647
O O14 0.817151 0.500000 0.447488
O O15 0.750000 0.250000 0.444453
#
# Coordination Sequence:
#
# PCOD8172180 Si02
#       5
#     8   8   8   8   8
#     4  10  17  26  42  65  94 123 151 187 229 272
#     4   9  18  32  49  69  93 122 156 193 232 272
#     4  10  18  29  48  71  95 122 153 191 230 272
#     4   9  15  24  40  65  94 120 148 184 227 272
#     4   9  17  29  48  72  96 122 152 189 229 271
#
# _framework density 18.560459000000002
#
# number of rings (size 3 to 8) (size 9 to 14) (size 15 to 20)
#    0.000    2.600    0.000    6.000    0.000    0.800 
#    0.000    1.000    0.000    6.600    0.000    5.600 
#    0.000    0.000    0.000    0.000    0.000    0.000 
#
# Total GULP energy -247807.952680 kJ/mol
# GULP energy per Si atom -12390.397634 kJ/mol
# Density = 1.851821 g / cm^3
# Si number density = 18.560459 Si / 1000 Ang^3
#
#
#
# Elastic Constant Matrix: (Units=GPa)
#
#
# Indices 1 2 3 4 5 6 
#
# 1 74.0682 20.9670 68.6318 0.0000 0.0000 0.0000
# 2 20.9670 86.1216 56.3979 0.0000 0.0000 0.0000
# 3 68.6318 56.3979 219.1103 0.0000 0.0000 0.0000
# 4 0.0000 0.0000 0.0000 24.7026 0.0000 0.0000
# 5 0.0000 0.0000 0.0000 0.0000 4.0200 0.0000
# 6 0.0000 0.0000 0.0000 0.0000 0.0000 11.5529
#
#
#
# Elastic Compliance Matrix: (Units=1/GPa)
#
#
# Indices 1 2 3 4 5 6 
#
# 1 0.019077 -0.000880 -0.005749 0.000000 0.000000 0.000000
# 2 -0.000880 0.014006 -0.003330 0.000000 0.000000 0.000000
# 3 -0.005749 -0.003330 0.007222 0.000000 0.000000 0.000000
# 4 0.000000 0.000000 0.000000 0.040482 0.000000 0.000000
# 5 0.000000 0.000000 0.000000 0.000000 0.248759 0.000000
# 6 0.000000 0.000000 0.000000 0.000000 0.000000 0.086558
#
#
# Mechanical properties :
#
#
# Convention : Reuss Voigt Hill
#
# Bulk Modulus (GPa) = 49.04753 74.58815 61.81784
# Shear Modulus (GPa) = 11.29137 23.60866 17.45002
#
# Velocity S-wave (km/s) = 2.46916 3.57036 3.06955
# Velocity P-wave (km/s) = 5.88321 7.56773 6.77800
#
# Compressibility (1/GPa) = 0.02038839
#
# Stress axis : x y z
#
# Youngs Moduli (GPa) = 52.41849 71.39775 138.47106
#
# Poissons Ratio (x) = 0.06280 0.79609
# Poissons Ratio (y) = 0.04611 0.46105
# Poissons Ratio (z) = 0.30136 0.23772
#
# Static dielectric constant tensor:
#      x y z
#    x 2.971140 0.000000 0.000000 
#    y 0.000000 3.306750 0.000000 
#    z 0.000000 0.000000 4.795480 
# 
# 
# High freq. dielectric constant tensor:
#      x y z
#    x 1.651750 0.000000 0.000000 
#    y 0.000000 1.711090 0.000000 
#    z 0.000000 0.000000 1.757930 
# 
# From -- ./inp_files/14704.got.cif
#   From: 2010.03.12/outbox.cif.g09.slc.cpg/sg35_8_cif.got.tgz:14704.got - 2010.04.14 02:02:04.
