data_PCOD8172662
_publ_section_title
;
Structure prediction by ZEFSAII (Michael W. Deem and Ramdas Pophale) SiO2 
 PCOD8172662
Probable space group: C M M 2
;
_chemical_formula_sum "Si O2"
_cell_formula_units_Z 64
_cell_length_a 18.687765
_cell_length_b 19.794366
_cell_length_c 10.026791
_cell_angle_alpha 90.000000
_cell_angle_beta 90.000000
_cell_angle_gamma 90.000000
_cell_volume 3709.034926
_symmetry_space_group_name_H-M "C M M 2"
_symmetry_group_IT_number 35
_symmetry_cell_setting 'orthorhombic'
loop_
_space_group_symop_operation_xyz
x,y,z
-x,-y,z
-x,y,z
x,-y,z
1/2+x,1/2+y,z
1/2-x,1/2-y,z
1/2-x,1/2+y,z
1/2+x,1/2-y,z
loop_
_atom_site_type_symbol
_atom_site_label
_atom_site_fract_x
_atom_site_fract_y
_atom_site_fract_z
Si Si1 0.719382 0.925125 0.621490
Si Si2 0.185817 0.425161 0.913869
Si Si3 0.917502 0.305293 0.875258
Si Si4 0.328880 0.575850 0.398462
Si Si5 0.866859 0.748482 0.144084
Si Si6 0.671027 0.219761 0.621936
Si Si7 0.749948 0.140517 0.160084
Si Si8 0.920350 0.798009 0.409151
O O1 0.733650 0.919128 0.779833
O O2 0.794541 0.920201 0.545425
O O3 0.670975 0.860149 0.581748
O O4 0.684164 0.000000 0.589864
O O5 0.155001 0.500000 0.932951
O O6 0.116253 0.378210 0.904711
O O7 0.238302 0.408662 0.035469
O O8 0.874754 0.268643 0.755894
O O9 0.000000 0.313817 0.834231
O O10 0.911260 0.260680 0.008505
O O11 0.354520 0.500000 0.365451
O O12 0.268519 0.598312 0.292147
O O13 0.397707 0.623846 0.395166
O O14 0.814193 0.810700 0.120069
O O15 0.822348 0.682217 0.186300
O O16 0.921163 0.763958 0.263707
O O17 0.750000 0.250000 0.646046
O O18 0.635872 0.259579 0.501035
O O19 0.000000 0.794212 0.469306
#
# Coordination Sequence:
#
# PCOD8172662 Si02
#       8
#     8   8   8   8   8   8   8   8
#     4   9  18  32  51  76 102 129 165 210 256 296
#     4   9  18  31  49  73 101 132 168 207 250 302
#     4  10  21  34  50  75 106 137 166 207 258 306
#     4  10  19  32  50  73 102 134 169 212 260 308
#     4   9  19  31  52  74 105 131 172 209 256 304
#     4  11  21  34  56  78 103 132 176 218 254 303
#     4   9  17  29  50  78  99 126 170 215 253 294
#     4  11  22  35  52  76 105 138 171 213 263 310
#
# _framework density 17.255163
#
# number of rings (size 3 to 8) (size 9 to 14) (size 15 to 20)
#    0.000    2.250    1.250    1.875    7.000    0.500 
#    0.000    0.000    0.000    1.125    0.000    0.000 
#    0.000    3.000    0.000    0.000    0.000    0.000 
#
# Total GULP energy -396687.837330 kJ/mol
# GULP energy per Si atom -12396.494917 kJ/mol
# Density = 1.721589 g / cm^3
# Si number density = 17.255163 Si / 1000 Ang^3
#
#
#
# Elastic Constant Matrix: (Units=GPa)
#
#
# Indices 1 2 3 4 5 6 
#
# 1 91.2304 29.3457 44.7237 0.0000 0.0000 0.0000
# 2 29.3457 108.2619 44.1162 0.0000 0.0000 0.0000
# 3 44.7237 44.1162 95.4356 0.0000 0.0000 0.0000
# 4 0.0000 0.0000 0.0000 26.2145 0.0000 0.0000
# 5 0.0000 0.0000 0.0000 0.0000 21.2049 0.0000
# 6 0.0000 0.0000 0.0000 0.0000 0.0000 9.4925
#
#
#
# Elastic Compliance Matrix: (Units=1/GPa)
#
#
# Indices 1 2 3 4 5 6 
#
# 1 0.014406 -0.001422 -0.006094 0.000000 0.000000 0.000000
# 2 -0.001422 0.011521 -0.004659 0.000000 0.000000 0.000000
# 3 -0.006094 -0.004659 0.015488 0.000000 0.000000 0.000000
# 4 0.000000 0.000000 0.000000 0.038147 0.000000 0.000000
# 5 0.000000 0.000000 0.000000 0.000000 0.047159 0.000000
# 6 0.000000 0.000000 0.000000 0.000000 0.000000 0.105346
#
#
# Mechanical properties :
#
#
# Convention : Reuss Voigt Hill
#
# Bulk Modulus (GPa) = 58.60002 59.03321 58.81661
# Shear Modulus (GPa) = 19.07636 23.16522 21.12079
#
# Velocity S-wave (km/s) = 3.32858 3.66800 3.50241
# Velocity P-wave (km/s) = 6.98621 7.22670 7.10747
#
# Compressibility (1/GPa) = 0.01706484
#
# Stress axis : x y z
#
# Youngs Moduli (GPa) = 69.41590 86.79863 64.56673
#
# Poissons Ratio (x) = 0.12340 0.39346
# Poissons Ratio (y) = 0.09869 0.30084
# Poissons Ratio (z) = 0.42301 0.40443
#
# Static dielectric constant tensor:
#      x y z
#    x 2.882430 0.000000 0.000000 
#    y 0.000000 3.470900 0.000000 
#    z 0.000000 0.000000 3.371710 
# 
# 
# High freq. dielectric constant tensor:
#      x y z
#    x 1.633500 0.000000 0.000000 
#    y 0.000000 1.674750 0.000000 
#    z 0.000000 0.000000 1.677820 
# 
# From -- ./inp_files/8770.got.cif
#   From: 2010.03.12/outbox.cif.g09.slc.cpg/sg35_5_cif.got.tgz:8770.got - 2010.04.14 02:02:04.
