data_PCOD8172504
_publ_section_title
;
Structure prediction by ZEFSAII (Michael W. Deem and Ramdas Pophale) SiO2 
 PCOD8172504
Probable space group: C M M 2
;
_chemical_formula_sum "Si O2"
_cell_formula_units_Z 64
_cell_length_a 8.991672
_cell_length_b 27.101628
_cell_length_c 18.274068
_cell_angle_alpha 90.000000
_cell_angle_beta 90.000000
_cell_angle_gamma 90.000000
_cell_volume 4453.188437
_symmetry_space_group_name_H-M "C M M 2"
_symmetry_group_IT_number 35
_symmetry_cell_setting 'orthorhombic'
loop_
_space_group_symop_operation_xyz
x,y,z
-x,-y,z
-x,y,z
x,-y,z
1/2+x,1/2+y,z
1/2-x,1/2-y,z
1/2-x,1/2+y,z
1/2+x,1/2-y,z
loop_
_atom_site_type_symbol
_atom_site_label
_atom_site_fract_x
_atom_site_fract_y
_atom_site_fract_z
Si Si1 0.168314 0.800503 0.627260
Si Si2 0.832459 0.441341 0.968807
Si Si3 0.828670 0.941686 0.822575
Si Si4 0.832359 0.558761 0.255953
Si Si5 0.326465 0.442759 0.401320
Si Si6 0.831667 0.105106 0.549214
Si Si7 0.823809 0.612962 0.690712
Si Si8 0.667872 0.558877 0.112427
O O1 0.250000 0.750000 0.608948
O O2 0.169333 0.834806 0.553878
O O3 0.254186 0.831440 0.690903
O O4 0.000000 0.789768 0.653112
O O5 0.835399 0.500000 0.971768
O O6 0.735219 0.423306 0.900159
O O7 0.000000 0.420480 0.962408
O O8 0.757674 0.420469 0.042654
O O9 0.732156 0.916351 0.760426
O O10 0.000000 0.925477 0.816525
O O11 0.810690 0.000000 0.814311
O O12 0.827446 0.500000 0.255025
O O13 0.757894 0.578271 0.330488
O O14 0.743617 0.579631 0.186115
O O15 0.000000 0.578632 0.252012
O O16 0.500000 0.433768 0.388178
O O17 0.290558 0.500000 0.414598
O O18 0.266655 0.412827 0.471806
O O19 0.732087 0.084510 0.616839
O O20 0.000000 0.084695 0.558742
O O21 0.000000 0.616083 0.691745
O O22 0.500000 0.578882 0.108718
O O23 0.669479 0.500000 0.112478
#
# Coordination Sequence:
#
# PCOD8172504 Si02
#       8
#     8   8   8   8   8   8   8   8
#     4   9  17  31  48  65  82 102 130 164 205 249
#     4   9  16  25  37  53  73  98 130 169 208 240
#     4  10  19  30  42  56  79 111 143 173 204 240
#     4   9  16  24  34  50  72  98 129 167 205 235
#     4   9  16  27  41  55  75 106 139 168 201 240
#     4   8  17  30  42  59  81 104 134 168 202 243
#     4  10  19  30  44  62  82 105 135 169 206 244
#     4   9  15  23  35  50  68  94 131 168 200 238
#
# _framework density 14.371725
#
# number of rings (size 3 to 8) (size 9 to 14) (size 15 to 20)
#    0.750    2.125    0.000    2.625    0.000    6.250 
#    0.000    1.250    0.000    0.000    0.000    0.000 
#    0.000    0.000    0.000    1.125    0.000   16.875 
#
# Total GULP energy -396570.213438 kJ/mol
# GULP energy per Si atom -12392.819170 kJ/mol
# Density = 1.433901 g / cm^3
# Si number density = 14.371725 Si / 1000 Ang^3
#
#
#
# Elastic Constant Matrix: (Units=GPa)
#
#
# Indices 1 2 3 4 5 6 
#
# 1 121.3076 23.9768 61.9152 0.0000 0.0000 0.0000
# 2 23.9768 25.7529 26.8978 0.0000 0.0000 0.0000
# 3 61.9152 26.8978 126.7891 0.0000 0.0000 0.0000
# 4 0.0000 0.0000 0.0000 -0.0326 0.0000 0.0000
# 5 0.0000 0.0000 0.0000 0.0000 24.5237 0.0000
# 6 0.0000 0.0000 0.0000 0.0000 0.0000 15.8739
#
#
#
# Elastic Compliance Matrix: (Units=1/GPa)
#
#
# Indices 1 2 3 4 5 6 
#
# 1 0.011736 -0.006347 -0.004384 0.000000 0.000000 0.000000
# 2 -0.006347 0.053316 -0.008211 0.000000 0.000000 0.000000
# 3 -0.004384 -0.008211 0.011770 0.000000 0.000000 0.000000
# 4 0.000000 0.000000 0.000000-30.706412 0.000000 0.000000
# 5 0.000000 0.000000 0.000000 0.000000 0.040777 0.000000
# 6 0.000000 0.000000 0.000000 0.000000 0.000000 0.062997
#
#
# Mechanical properties :
#
#
# Convention : Reuss Voigt Hill
#
# Bulk Modulus (GPa) = 25.68276 55.49214 40.58745
# Shear Modulus (GPa) = -0.16407 18.81032 9.32312
#
# Velocity S-wave (km/s) = -0.33824 3.62172 2.54975
# Velocity P-wave (km/s) = 4.21386 7.49566 6.08036
#
# Compressibility (1/GPa) = 0.03893662
#
# Stress axis : x y z
#
# Youngs Moduli (GPa) = 85.20893 18.75592 84.96021
#
# Poissons Ratio (x) = 0.11905 0.37251
# Poissons Ratio (y) = 0.54083 0.69764
# Poissons Ratio (z) = 0.37360 0.15401
#
# Static dielectric constant tensor:
#      x y z
#    x 2.959600 0.000000 0.000000 
#    y 0.000000 2.293210 0.000000 
#    z 0.000000 0.000000 2.898340 
# 
# 
# High freq. dielectric constant tensor:
#      x y z
#    x 1.566790 0.000000 0.000000 
#    y 0.000000 1.477130 0.000000 
#    z 0.000000 0.000000 1.552200 
# 
# From -- ./inp_files/18563.got.cif
#   From: 2010.03.12/outbox.cif.g09.slc.cpg/sg35_10_cif.got.tgz:18563.got - 2010.04.14 02:02:04.
