data_PCOD8172202
_publ_section_title
;
Structure prediction by ZEFSAII (Michael W. Deem and Ramdas Pophale) SiO2 
 PCOD8172202
Probable space group: C M M 2
;
_chemical_formula_sum "Si O2"
_cell_formula_units_Z 56
_cell_length_a 8.741714
_cell_length_b 18.927119
_cell_length_c 18.229102
_cell_angle_alpha 90.000000
_cell_angle_beta 90.000000
_cell_angle_gamma 90.000000
_cell_volume 3016.104478
_symmetry_space_group_name_H-M "C M M 2"
_symmetry_group_IT_number 35
_symmetry_cell_setting 'orthorhombic'
loop_
_space_group_symop_operation_xyz
x,y,z
-x,-y,z
-x,y,z
x,-y,z
1/2+x,1/2+y,z
1/2-x,1/2-y,z
1/2-x,1/2+y,z
1/2+x,1/2-y,z
loop_
_atom_site_type_symbol
_atom_site_label
_atom_site_fract_x
_atom_site_fract_y
_atom_site_fract_z
Si Si1 0.323933 0.083268 0.478140
Si Si2 0.178493 0.581964 0.775206
Si Si3 0.676696 0.673865 0.062964
Si Si4 0.322426 0.326969 0.900931
Si Si5 0.818747 0.671642 0.205020
Si Si6 0.319744 0.672930 0.352748
Si Si7 0.827963 0.916064 0.626987
O O1 0.500000 0.103992 0.465856
O O2 0.218135 0.121742 0.419486
O O3 0.273277 0.109978 0.558521
O O4 0.297263 0.000000 0.469822
O O5 0.218798 0.500000 0.784407
O O6 0.239756 0.620429 0.846504
O O7 0.257478 0.613926 0.702356
O O8 0.000000 0.595092 0.766885
O O9 0.500000 0.681051 0.084278
O O10 0.750000 0.750000 0.055218
O O11 0.761882 0.632183 0.130020
O O12 0.698176 0.638909 0.982691
O O13 0.500000 0.320596 0.880701
O O14 0.250000 0.250000 0.894250
O O15 0.750000 0.750000 0.201390
O O16 0.751282 0.637019 0.279089
O O17 0.000000 0.671667 0.209090
O O18 0.500000 0.680604 0.343403
O O19 0.250000 0.750000 0.367507
O O20 0.000000 0.887169 0.617978
O O21 0.825272 0.000000 0.629992
#
# Coordination Sequence:
#
# PCOD8172202 Si02
#       7
#     8   8   8   8   8   8   8
#     4  10  20  35  55  78 104 133 167 206 249 298
#     4  10  20  34  53  76 102 133 169 208 250 297
#     4   9  16  27  44  68  96 127 164 204 246 293
#     4  10  20  33  51  75 104 135 167 207 253 300
#     4  10  17  27  45  69  97 129 166 206 248 293
#     4  11  21  34  52  75 105 136 169 208 252 299
#     4   9  17  31  52  76 100 129 168 208 245 291
#
# _framework density 18.566996
#
# number of rings (size 3 to 8) (size 9 to 14) (size 15 to 20)
#    0.000    2.143    0.000    6.429    0.000    5.143 
#    0.000    0.714    0.000    0.857    0.000    4.000 
#    0.000    0.000    0.000    0.000    0.000    0.000 
#
# Total GULP energy -347079.755280 kJ/mol
# GULP energy per Si atom -12395.705546 kJ/mol
# Density = 1.852474 g / cm^3
# Si number density = 18.566996 Si / 1000 Ang^3
#
#
#
# Elastic Constant Matrix: (Units=GPa)
#
#
# Indices 1 2 3 4 5 6 
#
# 1 125.2642 33.5956 56.5102 0.0000 0.0000 0.0000
# 2 33.5956 28.5677 36.5011 0.0000 0.0000 0.0000
# 3 56.5102 36.5011 155.4630 0.0000 0.0000 0.0000
# 4 0.0000 0.0000 0.0000 54.0592 0.0000 0.0000
# 5 0.0000 0.0000 0.0000 0.0000 40.4455 0.0000
# 6 0.0000 0.0000 0.0000 0.0000 0.0000 22.2238
#
#
#
# Elastic Compliance Matrix: (Units=1/GPa)
#
#
# Indices 1 2 3 4 5 6 
#
# 1 0.011896 -0.012093 -0.001485 0.000000 0.000000 0.000000
# 2 -0.012093 0.062298 -0.010231 0.000000 0.000000 0.000000
# 3 -0.001485 -0.010231 0.009374 0.000000 0.000000 0.000000
# 4 0.000000 0.000000 0.000000 0.018498 0.000000 0.000000
# 5 0.000000 0.000000 0.000000 0.000000 0.024725 0.000000
# 6 0.000000 0.000000 0.000000 0.000000 0.000000 0.044997
#
#
# Mechanical properties :
#
#
# Convention : Reuss Voigt Hill
#
# Bulk Modulus (GPa) = 27.81579 62.50096 45.15838
# Shear Modulus (GPa) = 21.60858 35.52492 28.56675
#
# Velocity S-wave (km/s) = 3.41518 4.37892 3.92673
# Velocity P-wave (km/s) = 5.52857 7.70078 6.70325
#
# Compressibility (1/GPa) = 0.03595080
#
# Stress axis : x y z
#
# Youngs Moduli (GPa) = 84.05999 16.05190 106.67340
#
# Poissons Ratio (x) = 0.19411 0.15841
# Poissons Ratio (y) = 1.01650 1.09141
# Poissons Ratio (z) = 0.12483 0.16423
#
# Static dielectric constant tensor:
#      x y z
#    x 3.593000 0.000000 0.000000 
#    y 0.000000 2.878620 0.000000 
#    z 0.000000 0.000000 4.290870 
# 
# 
# High freq. dielectric constant tensor:
#      x y z
#    x 1.743050 0.000000 0.000000 
#    y 0.000000 1.652410 0.000000 
#    z 0.000000 0.000000 1.749850 
# 
# From -- ./inp_files/15587.got.cif
#   From: 2010.03.12/outbox.cif.g09.slc.cpg/sg35_8_cif.got.tgz:15587.got - 2010.04.14 02:02:04.
