data_PCOD8172172
_publ_section_title
;
Structure prediction by ZEFSAII (Michael W. Deem and Ramdas Pophale) SiO2 
 PCOD8172172
Probable space group: C M M 2
;
_chemical_formula_sum "Si O2"
_cell_formula_units_Z 56
_cell_length_a 8.970179
_cell_length_b 30.698858
_cell_length_c 12.655201
_cell_angle_alpha 90.000000
_cell_angle_beta 90.000000
_cell_angle_gamma 90.000000
_cell_volume 3484.916501
_symmetry_space_group_name_H-M "C M M 2"
_symmetry_group_IT_number 35
_symmetry_cell_setting 'orthorhombic'
loop_
_space_group_symop_operation_xyz
x,y,z
-x,-y,z
-x,y,z
x,-y,z
1/2+x,1/2+y,z
1/2-x,1/2-y,z
1/2-x,1/2+y,z
1/2+x,1/2-y,z
loop_
_atom_site_type_symbol
_atom_site_label
_atom_site_fract_x
_atom_site_fract_y
_atom_site_fract_z
Si Si1 0.175528 0.120858 0.436440
Si Si2 0.670329 0.387027 0.191962
Si Si3 0.177212 0.292489 0.428212
Si Si4 0.675092 0.049410 0.035201
Si Si5 0.174240 0.209345 0.200800
Si Si6 0.334857 0.551760 0.827795
Si Si7 0.322438 0.548378 0.597434
O O1 0.215609 0.111107 0.314900
O O2 0.262266 0.163134 0.480905
O O3 0.233748 0.080417 0.505864
O O4 0.000000 0.129303 0.449181
O O5 0.500000 0.401721 0.177236
O O6 0.773001 0.420665 0.130991
O O7 0.692913 0.337831 0.145364
O O8 0.250000 0.250000 0.485260
O O9 0.233651 0.292957 0.308430
O O10 0.000000 0.290242 0.435396
O O11 0.500000 0.050400 0.030632
O O12 0.733433 0.000000 0.053540
O O13 0.733554 0.068716 0.923925
O O14 0.250000 0.250000 0.135585
O O15 0.000000 0.218522 0.223395
O O16 0.500000 0.571351 0.845121
O O17 0.341968 0.500000 0.827629
O O18 0.269166 0.565882 0.713067
O O19 0.500000 0.546131 0.599530
O O20 0.257953 0.500000 0.574094
#
# Coordination Sequence:
#
# PCOD8172172 Si02
#       7
#     8   8   8   8   8   8   8
#     4   9  17  29  44  65  92 117 144 177 214 258
#     4   9  18  29  42  63  90 119 148 175 207 256
#     4  10  17  26  41  60  84 114 147 180 215 253
#     4  10  20  31  43  61  86 116 149 185 221 253
#     4   9  16  27  43  63  85 110 142 178 216 256
#     4   8  14  27  47  66  82 105 142 184 221 257
#     4   8  14  26  46  69  89 112 144 180 215 254
#
# _framework density 16.069253
#
# number of rings (size 3 to 8) (size 9 to 14) (size 15 to 20)
#    0.000    3.000    0.000    4.714    0.000    4.286 
#    0.000    2.143    0.000    1.286    0.000    1.000 
#    0.000    4.571    0.000    0.000    0.000    0.000 
#
# Total GULP energy -346928.094339 kJ/mol
# GULP energy per Si atom -12390.289084 kJ/mol
# Density = 1.603268 g / cm^3
# Si number density = 16.069253 Si / 1000 Ang^3
#
#
#
# Elastic Constant Matrix: (Units=GPa)
#
#
# Indices 1 2 3 4 5 6 
#
# 1 72.9341 46.2111 31.4764 0.0000 0.0000 0.0000
# 2 46.2111 111.9526 54.7324 0.0000 0.0000 0.0000
# 3 31.4764 54.7324 74.1235 0.0000 0.0000 0.0000
# 4 0.0000 0.0000 0.0000 1.6571 0.0000 0.0000
# 5 0.0000 0.0000 0.0000 0.0000 11.1780 0.0000
# 6 0.0000 0.0000 0.0000 0.0000 0.0000 26.2412
#
#
#
# Elastic Compliance Matrix: (Units=1/GPa)
#
#
# Indices 1 2 3 4 5 6 
#
# 1 0.019160 -0.006152 -0.003594 0.000000 0.000000 0.000000
# 2 -0.006152 0.015954 -0.009168 0.000000 0.000000 0.000000
# 3 -0.003594 -0.009168 0.021787 0.000000 0.000000 0.000000
# 4 0.000000 0.000000 0.000000 0.603450 0.000000 0.000000
# 5 0.000000 0.000000 0.000000 0.000000 0.089462 0.000000
# 6 0.000000 0.000000 0.000000 0.000000 0.000000 0.038108
#
#
# Mechanical properties :
#
#
# Convention : Reuss Voigt Hill
#
# Bulk Modulus (GPa) = 52.42901 58.20556 55.31728
# Shear Modulus (GPa) = 6.00887 16.25461 11.13174
#
# Velocity S-wave (km/s) = 1.93584 3.18391 2.63484
# Velocity P-wave (km/s) = 6.13957 7.05810 6.61480
#
# Compressibility (1/GPa) = 0.01907341
#
# Stress axis : x y z
#
# Youngs Moduli (GPa) = 52.19293 62.68162 45.89995
#
# Poissons Ratio (x) = 0.38560 0.16495
# Poissons Ratio (y) = 0.32107 0.42080
# Poissons Ratio (z) = 0.18757 0.57465
#
# Static dielectric constant tensor:
#      x y z
#    x 2.986650 0.000000 0.000000 
#    y 0.000000 3.607360 0.000000 
#    z 0.000000 0.000000 2.917470 
# 
# 
# High freq. dielectric constant tensor:
#      x y z
#    x 1.609480 0.000000 0.000000 
#    y 0.000000 1.616200 0.000000 
#    z 0.000000 0.000000 1.577680 
# 
# From -- ./inp_files/16070.got.cif
#   From: 2010.03.12/outbox.cif.g09.slc.cpg/sg35_9_cif.got.tgz:16070.got - 2010.04.14 02:02:04.
