data_PCOD8172632
_publ_section_title
;
Structure prediction by ZEFSAII (Michael W. Deem and Ramdas Pophale) SiO2 
 PCOD8172632
Probable space group: C M M 2
;
_chemical_formula_sum "Si O2"
_cell_formula_units_Z 40
_cell_length_a 30.621070
_cell_length_b 13.548852
_cell_length_c 5.170685
_cell_angle_alpha 90.000000
_cell_angle_beta 90.000000
_cell_angle_gamma 90.000000
_cell_volume 2145.215579
_symmetry_space_group_name_H-M "C M M 2"
_symmetry_group_IT_number 35
_symmetry_cell_setting 'orthorhombic'
loop_
_space_group_symop_operation_xyz
x,y,z
-x,-y,z
-x,y,z
x,-y,z
1/2+x,1/2+y,z
1/2-x,1/2-y,z
1/2-x,1/2+y,z
1/2+x,1/2-y,z
loop_
_atom_site_type_symbol
_atom_site_label
_atom_site_fract_x
_atom_site_fract_y
_atom_site_fract_z
Si Si1 0.549563 0.882073 0.032110
Si Si2 0.700588 0.721027 0.123196
Si Si3 0.284136 0.614339 0.624843
Si Si4 0.597042 0.884778 0.530425
Si Si5 0.313786 0.886555 0.770432
O O1 0.500000 0.844508 0.057219
O O2 0.578098 0.837463 0.268397
O O3 0.551553 0.000000 0.032097
O O4 0.570794 0.838445 0.771980
O O5 0.750000 0.750000 0.135649
O O6 0.689223 0.675901 0.404712
O O7 0.693812 0.637972 0.900141
O O8 0.675853 0.820815 0.027392
O O9 0.289304 0.500000 0.558124
O O10 0.232162 0.642476 0.634241
O O11 0.648864 0.865547 0.558045
O O12 0.586961 0.000000 0.525779
O O13 0.314010 0.000000 0.865382
#
# Coordination Sequence:
#
# PCOD8172632 Si02
#       5
#     8   8   8   8   8
#     4   9  16  26  39  56  80 111 148 183 210 248
#     4  10  19  32  46  64  85 112 147 185 229 272
#     4  10  20  33  48  63  83 113 151 192 230 266
#     4   9  17  27  41  60  82 111 146 182 220 253
#     4   9  19  33  48  68  93 119 152 195 230 263
#
# _framework density 18.646146000000002
#
# number of rings (size 3 to 8) (size 9 to 14) (size 15 to 20)
#    0.000    2.600    0.000    3.000    0.000    8.000 
#    0.000   13.000    0.000    0.000    0.000    0.000 
#    0.000    0.000    0.000    0.000    0.000   70.000 
#
# Total GULP energy -247816.882481 kJ/mol
# GULP energy per Si atom -12390.844124 kJ/mol
# Density = 1.860371 g / cm^3
# Si number density = 18.646146 Si / 1000 Ang^3
#
#
#
# Elastic Constant Matrix: (Units=GPa)
#
#
# Indices 1 2 3 4 5 6 
#
# 1 46.3864 12.7287 9.9244 0.0000 0.0000 0.0000
# 2 12.7287 55.4197 24.1442 0.0000 0.0000 0.0000
# 3 9.9244 24.1442 113.3670 0.0000 0.0000 0.0000
# 4 0.0000 0.0000 0.0000 20.8216 0.0000 0.0000
# 5 0.0000 0.0000 0.0000 0.0000 -1.2583 0.0000
# 6 0.0000 0.0000 0.0000 0.0000 0.0000 6.6947
#
#
#
# Elastic Compliance Matrix: (Units=1/GPa)
#
#
# Indices 1 2 3 4 5 6 
#
# 1 0.023107 -0.004879 -0.000984 0.000000 0.000000 0.000000
# 2 -0.004879 0.020920 -0.004028 0.000000 0.000000 0.000000
# 3 -0.000984 -0.004028 0.009765 0.000000 0.000000 0.000000
# 4 0.000000 0.000000 0.000000 0.048027 0.000000 0.000000
# 5 0.000000 0.000000 0.000000 0.000000 -0.794724 0.000000
# 6 0.000000 0.000000 0.000000 0.000000 0.000000 0.149372
#
#
# Mechanical properties :
#
#
# Convention : Reuss Voigt Hill
#
# Bulk Modulus (GPa) = 29.40280 34.30755 31.85517
# Shear Modulus (GPa) = -9.75773 16.47665 3.35946
#
# Velocity S-wave (km/s) = -2.29008 2.97585 1.34373
# Velocity P-wave (km/s) = 2.96824 5.49971 4.41912
#
# Compressibility (1/GPa) = 0.03401037
#
# Stress axis : x y z
#
# Youngs Moduli (GPa) = 43.27642 47.80208 102.40708
#
# Poissons Ratio (x) = 0.23321 0.10075
# Poissons Ratio (y) = 0.21113 0.41252
# Poissons Ratio (z) = 0.04258 0.19256
#
# Static dielectric constant tensor:
#      x y z
#    x 3.502290 0.000000 0.000000 
#    y 0.000000 3.942080 0.000000 
#    z 0.000000 0.000000 4.027920 
# 
# 
# High freq. dielectric constant tensor:
#      x y z
#    x 1.682570 0.000000 0.000000 
#    y 0.000000 1.669840 0.000000 
#    z 0.000000 0.000000 1.745930 
# 
# From -- ./inp_files/1981.got.cif
#   From: 2010.03.12/outbox.cif.g09.slc.cpg/sg35_1_cif.got.tgz:1981.got - 2010.04.14 02:02:04.
