data_PCOD8172844
_publ_section_title
;
Structure prediction by ZEFSAII (Michael W. Deem and Ramdas Pophale) SiO2 
 PCOD8172844
Probable space group: C M M 2
;
_chemical_formula_sum "Si O2"
_cell_formula_units_Z 40
_cell_length_a 18.397381
_cell_length_b 8.672508
_cell_length_c 12.829716
_cell_angle_alpha 90.000000
_cell_angle_beta 90.000000
_cell_angle_gamma 90.000000
_cell_volume 2046.999584
_symmetry_space_group_name_H-M "C M M 2"
_symmetry_group_IT_number 35
_symmetry_cell_setting 'orthorhombic'
loop_
_space_group_symop_operation_xyz
x,y,z
-x,-y,z
-x,y,z
x,-y,z
1/2+x,1/2+y,z
1/2-x,1/2-y,z
1/2-x,1/2+y,z
1/2+x,1/2-y,z
loop_
_atom_site_type_symbol
_atom_site_label
_atom_site_fract_x
_atom_site_fract_y
_atom_site_fract_z
Si Si1 0.827855 0.682805 0.383860
Si Si2 0.418670 0.183295 0.580851
Si Si3 0.827695 0.181284 0.164235
Si Si4 0.329670 0.182345 0.777685
Si Si5 0.584607 0.178951 0.982385
O O1 0.822169 0.500000 0.376209
O O2 0.750000 0.750000 0.415001
O O3 0.884429 0.737146 0.471598
O O4 0.854647 0.748586 0.273543
O O5 0.500000 0.251207 0.588584
O O6 0.370847 0.248997 0.676184
O O7 0.420957 0.000000 0.587413
O O8 0.750000 0.250000 0.130359
O O9 0.818978 0.000000 0.176420
O O10 0.887687 0.220662 0.078696
O O11 0.250000 0.250000 0.783950
O O12 0.374291 0.234758 0.878941
O O13 0.324123 0.000000 0.771206
O O14 0.500000 0.211120 0.965414
O O15 0.600052 0.000000 0.005823
#
# Coordination Sequence:
#
# PCOD8172844 Si02
#       5
#     8   8   8   8   8
#     4  10  19  33  55  80 107 141 180 222 267 317
#     4   9  18  33  54  80 108 139 177 219 264 317
#     4  11  22  37  57  80 109 144 184 228 272 320
#     4  10  20  35  57  82 108 140 178 220 265 317
#     4  10  21  37  57  81 110 144 181 222 271 326
#
# _framework density 19.540797000000001
#
# number of rings (size 3 to 8) (size 9 to 14) (size 15 to 20)
#    0.000    2.000    0.000    5.400    0.000    6.000 
#    0.000    3.000    0.000    6.000    0.000    0.000 
#    0.000    0.000    0.000    0.000    0.000    0.000 
#
# Total GULP energy -248064.921927 kJ/mol
# GULP energy per Si atom -12403.246096 kJ/mol
# Density = 1.949632 g / cm^3
# Si number density = 19.540797 Si / 1000 Ang^3
#
#
#
# Elastic Constant Matrix: (Units=GPa)
#
#
# Indices 1 2 3 4 5 6 
#
# 1 152.1086 35.1582 98.7011 0.0000 0.0000 0.0000
# 2 35.1582 68.2098 45.3263 0.0000 0.0000 0.0000
# 3 98.7011 45.3263 163.2819 0.0000 0.0000 0.0000
# 4 0.0000 0.0000 0.0000 8.7312 0.0000 0.0000
# 5 0.0000 0.0000 0.0000 0.0000 99.1586 0.0000
# 6 0.0000 0.0000 0.0000 0.0000 0.0000 26.1190
#
#
#
# Elastic Compliance Matrix: (Units=1/GPa)
#
#
# Indices 1 2 3 4 5 6 
#
# 1 0.010945 -0.001527 -0.006192 0.000000 0.000000 0.000000
# 2 -0.001527 0.018190 -0.004127 0.000000 0.000000 0.000000
# 3 -0.006192 -0.004127 0.011013 0.000000 0.000000 0.000000
# 4 0.000000 0.000000 0.000000 0.114532 0.000000 0.000000
# 5 0.000000 0.000000 0.000000 0.000000 0.010085 0.000000
# 6 0.000000 0.000000 0.000000 0.000000 0.000000 0.038286
#
#
# Mechanical properties :
#
#
# Convention : Reuss Voigt Hill
#
# Bulk Modulus (GPa) = 60.76519 82.44127 71.60323
# Shear Modulus (GPa) = 21.53058 40.42940 30.97999
#
# Velocity S-wave (km/s) = 3.32298 4.55353 3.98603
# Velocity P-wave (km/s) = 6.77399 8.36224 7.60967
#
# Compressibility (1/GPa) = 0.01645679
#
# Stress axis : x y z
#
# Youngs Moduli (GPa) = 91.36321 54.97616 90.80090
#
# Poissons Ratio (x) = 0.08393 0.56228
# Poissons Ratio (y) = 0.13949 0.37469
# Poissons Ratio (z) = 0.56576 0.22686
#
# Static dielectric constant tensor:
#      x y z
#    x 3.320530 0.000000 0.000000 
#    y 0.000000 3.384670 0.000000 
#    z 0.000000 0.000000 3.786960 
# 
# 
# High freq. dielectric constant tensor:
#      x y z
#    x 1.765800 0.000000 0.000000 
#    y 0.000000 1.739650 0.000000 
#    z 0.000000 0.000000 1.778440 
# 
# From -- ./inp_files/11023.got.cif
#   From: 2010.03.12/outbox.cif.g09.slc.cpg/sg35_6_cif.got.tgz:11023.got - 2010.04.14 02:02:04.
