data_PCOD8172952
_publ_section_title
;
Structure prediction by ZEFSAII (Michael W. Deem and Ramdas Pophale) SiO2 
 PCOD8172952
Probable space group: C M M 2
;
_chemical_formula_sum "Si O2"
_cell_formula_units_Z 56
_cell_length_a 25.763466
_cell_length_b 20.677312
_cell_length_c 5.191606
_cell_angle_alpha 90.000000
_cell_angle_beta 90.000000
_cell_angle_gamma 90.000000
_cell_volume 2765.668323
_symmetry_space_group_name_H-M "C M M 2"
_symmetry_group_IT_number 35
_symmetry_cell_setting 'orthorhombic'
loop_
_space_group_symop_operation_xyz
x,y,z
-x,-y,z
-x,y,z
x,-y,z
1/2+x,1/2+y,z
1/2-x,1/2-y,z
1/2-x,1/2+y,z
1/2+x,1/2-y,z
loop_
_atom_site_type_symbol
_atom_site_label
_atom_site_fract_x
_atom_site_fract_y
_atom_site_fract_z
Si Si1 0.396371 0.365523 0.322360
Si Si2 0.389776 0.882725 0.698607
Si Si3 0.058603 0.730223 0.452913
Si Si4 0.942262 0.397905 0.202859
Si Si5 0.559360 0.426682 0.825790
Si Si6 0.788023 0.074947 0.262891
Si Si7 0.277546 0.074619 0.765784
O O1 0.406127 0.290412 0.374850
O O2 0.406558 0.404354 0.584772
O O3 0.337492 0.378621 0.237521
O O4 0.432722 0.385860 0.084993
O O5 0.412169 0.809053 0.682989
O O6 0.408204 0.923011 0.445825
O O7 0.327842 0.880954 0.723269
O O8 0.414135 0.919536 0.942832
O O9 0.054675 0.680654 0.212781
O O10 0.000000 0.751645 0.538088
O O11 0.000000 0.427994 0.214354
O O12 0.500000 0.420086 0.739803
O O13 0.574971 0.500000 0.890392
O O14 0.762115 0.088718 0.536528
O O15 0.805072 0.000000 0.235397
O O16 0.748711 0.094022 0.035109
O O17 0.295049 0.000000 0.766528
#
# Coordination Sequence:
#
# PCOD8172952 Si02
#       7
#     8   8   8   8   8   8   8
#     4  12  23  37  60  83 115 155 200 240 290 351
#     4  10  19  35  60  83 115 149 191 237 290 343
#     4   9  21  36  58  86 116 153 192 228 279 351
#     4   9  18  33  56  81 115 153 185 222 280 348
#     4  11  23  37  54  81 115 151 194 248 301 345
#     4  10  21  38  59  83 111 147 195 248 295 340
#     4  10  21  39  63  86 110 148 198 244 293 351
#
# _framework density 20.248270999999999
#
# number of rings (size 3 to 8) (size 9 to 14) (size 15 to 20)
#    0.857    1.000    0.000    5.143    2.000    2.286 
#    0.000    0.714    0.000    4.714    0.000    0.000 
#    0.000    0.000    0.000    0.000    0.000    0.000 
#
# Total GULP energy -347097.528212 kJ/mol
# GULP energy per Si atom -12396.340293 kJ/mol
# Density = 2.020218 g / cm^3
# Si number density = 20.248271 Si / 1000 Ang^3
#
#
#
# Elastic Constant Matrix: (Units=GPa)
#
#
# Indices 1 2 3 4 5 6 
#
# 1 112.0103 38.9389 22.4455 0.0000 0.0000 0.0000
# 2 38.9389 52.9888 14.5996 0.0000 0.0000 0.0000
# 3 22.4455 14.5996 128.7351 0.0000 0.0000 0.0000
# 4 0.0000 0.0000 0.0000 11.1223 0.0000 0.0000
# 5 0.0000 0.0000 0.0000 0.0000 37.2091 0.0000
# 6 0.0000 0.0000 0.0000 0.0000 0.0000 -21.9319
#
#
#
# Elastic Compliance Matrix: (Units=1/GPa)
#
#
# Indices 1 2 3 4 5 6 
#
# 1 0.012151 -0.008615 -0.001142 0.000000 0.000000 0.000000
# 2 -0.008615 0.025588 -0.001400 0.000000 0.000000 0.000000
# 3 -0.001142 -0.001400 0.008126 0.000000 0.000000 0.000000
# 4 0.000000 0.000000 0.000000 0.089910 0.000000 0.000000
# 5 0.000000 0.000000 0.000000 0.000000 0.026875 0.000000
# 6 0.000000 0.000000 0.000000 0.000000 0.000000 -0.045596
#
#
# Mechanical properties :
#
#
# Convention : Reuss Voigt Hill
#
# Bulk Modulus (GPa) = 42.45832 49.52248 45.99040
# Shear Modulus (GPa) = 33.96321 19.79658 26.87990
#
# Velocity S-wave (km/s) = 4.09998 3.13020 3.64746
# Velocity P-wave (km/s) = 6.58995 6.12984 6.36405
#
# Compressibility (1/GPa) = 0.02355251
#
# Stress axis : x y z
#
# Youngs Moduli (GPa) = 82.29514 39.08037 123.06632
#
# Poissons Ratio (x) = 0.33667 0.14050
# Poissons Ratio (y) = 0.70897 0.17228
# Poissons Ratio (z) = 0.09395 0.05471
#
# Static dielectric constant tensor:
#      x y z
#    x 3.551280 0.000000 0.000000 
#    y 0.000000 3.333600 0.000000 
#    z 0.000000 0.000000 3.686850 
# 
# 
# High freq. dielectric constant tensor:
#      x y z
#    x 1.793580 0.000000 0.000000 
#    y 0.000000 1.759080 0.000000 
#    z 0.000000 0.000000 1.802570 
# 
# From -- ./inp_files/3423.got.cif
#   From: 2010.03.12/outbox.cif.g09.slc.cpg/sg35_2_cif.got.tgz:3423.got - 2010.04.14 02:02:04.
