data_PCOD8172806
_publ_section_title
;
Structure prediction by ZEFSAII (Michael W. Deem and Ramdas Pophale) SiO2 
 PCOD8172806
Probable space group: C M M 2
;
_chemical_formula_sum "Si O2"
_cell_formula_units_Z 56
_cell_length_a 23.436641
_cell_length_b 8.753678
_cell_length_c 15.505815
_cell_angle_alpha 90.000000
_cell_angle_beta 90.000000
_cell_angle_gamma 90.000000
_cell_volume 3181.123522
_symmetry_space_group_name_H-M "C M M 2"
_symmetry_group_IT_number 35
_symmetry_cell_setting 'orthorhombic'
loop_
_space_group_symop_operation_xyz
x,y,z
-x,-y,z
-x,y,z
x,-y,z
1/2+x,1/2+y,z
1/2-x,1/2-y,z
1/2-x,1/2+y,z
1/2+x,1/2-y,z
loop_
_atom_site_type_symbol
_atom_site_label
_atom_site_fract_x
_atom_site_fract_y
_atom_site_fract_z
Si Si1 0.884766 0.318791 0.598900
Si Si2 0.688343 0.179736 0.760898
Si Si3 0.000000 0.818958 0.860579
Si Si4 0.686860 0.681479 0.447969
Si Si5 0.309565 0.674782 0.260387
Si Si6 0.615262 0.818969 0.922742
Si Si7 0.000000 0.818787 0.662556
Si Si8 0.813109 0.820517 0.073065
O O1 0.891199 0.500000 0.596871
O O2 0.844595 0.262849 0.676552
O O3 0.857972 0.259614 0.510684
O O4 0.946055 0.244269 0.611321
O O5 0.750000 0.250000 0.761381
O O6 0.654703 0.238009 0.844416
O O7 0.694568 0.000000 0.761289
O O8 0.054002 0.756692 0.912006
O O9 0.000000 0.759124 0.761560
O O10 0.000000 0.000000 0.862919
O O11 0.689008 0.500000 0.464397
O O12 0.750000 0.750000 0.462310
O O13 0.662709 0.726411 0.351635
O O14 0.295504 0.500000 0.271887
O O15 0.250000 0.750000 0.246694
O O16 0.341413 0.705666 0.169191
O O17 0.608285 0.000000 0.923353
O O18 0.643110 0.763193 0.010879
O O19 0.000000 0.000000 0.659618
O O20 0.750000 0.750000 0.062885
O O21 0.808913 0.000000 0.051311
#
# Coordination Sequence:
#
# PCOD8172806 Si02
#       8
#     8   8   4   8   8   8   4   8
#     4  11  22  37  55  77 106 143 179 221 267 315
#     4  10  22  35  50  73 105 140 172 208 259 312
#     4  11  23  39  59  80 101 136 183 227 266 314
#     4  10  19  33  53  81 112 144 180 220 267 321
#     4   8  16  30  50  75 108 143 176 216 264 316
#     4  11  22  37  55  77 106 143 179 221 267 315
#     4  11  23  39  59  80 101 136 183 227 266 314
#     4  10  19  33  53  81 112 144 180 220 267 321
#
# _framework density 17.603843000000001
#
# number of rings (size 3 to 8) (size 9 to 14) (size 15 to 20)
#    0.000    1.857    1.429    3.000    0.000    6.286 
#    0.000    0.000    0.000    0.857    0.000    6.000 
#    0.000    0.000    0.000    0.000    0.000    0.000 
#
# Total GULP energy -347052.474164 kJ/mol
# GULP energy per Si atom -12394.731220 kJ/mol
# Density = 1.756378 g / cm^3
# Si number density = 17.603843 Si / 1000 Ang^3
#
#
#
# Elastic Constant Matrix: (Units=GPa)
#
#
# Indices 1 2 3 4 5 6 
#
# 1 128.7048 37.8318 67.8731 0.0000 0.0000 0.0000
# 2 37.8318 61.2101 40.4781 0.0000 0.0000 0.0000
# 3 67.8731 40.4781 141.3853 0.0000 0.0000 0.0000
# 4 0.0000 0.0000 0.0000 27.9961 0.0000 0.0000
# 5 0.0000 0.0000 0.0000 0.0000 3.2060 0.0000
# 6 0.0000 0.0000 0.0000 0.0000 0.0000 32.6348
#
#
#
# Elastic Compliance Matrix: (Units=1/GPa)
#
#
# Indices 1 2 3 4 5 6 
#
# 1 0.011198 -0.004152 -0.004187 0.000000 0.000000 0.000000
# 2 -0.004152 0.021692 -0.004217 0.000000 0.000000 0.000000
# 3 -0.004187 -0.004217 0.010290 0.000000 0.000000 0.000000
# 4 0.000000 0.000000 0.000000 0.035719 0.000000 0.000000
# 5 0.000000 0.000000 0.000000 0.000000 0.311920 0.000000
# 6 0.000000 0.000000 0.000000 0.000000 0.000000 0.030642
#
#
# Mechanical properties :
#
#
# Convention : Reuss Voigt Hill
#
# Bulk Modulus (GPa) = 55.34669 69.29624 62.32147
# Shear Modulus (GPa) = 11.04733 25.10852 18.07792
#
# Velocity S-wave (km/s) = 2.50782 3.78075 3.20805
# Velocity P-wave (km/s) = 6.31616 7.64908 7.01436
#
# Compressibility (1/GPa) = 0.01806793
#
# Stress axis : x y z
#
# Youngs Moduli (GPa) = 89.29898 46.09915 97.17987
#
# Poissons Ratio (x) = 0.19142 0.40689
# Poissons Ratio (y) = 0.37081 0.40981
# Poissons Ratio (z) = 0.37390 0.19440
#
# Static dielectric constant tensor:
#      x y z
#    x 3.029500 0.000000 0.000000 
#    y 0.000000 3.257530 0.000000 
#    z 0.000000 0.000000 3.776950 
# 
# 
# High freq. dielectric constant tensor:
#      x y z
#    x 1.656360 0.000000 0.000000 
#    y 0.000000 1.693720 0.000000 
#    z 0.000000 0.000000 1.696900 
# 
# From -- ./inp_files/15717.got.cif
#   From: 2010.03.12/outbox.cif.g09.slc.cpg/sg35_8_cif.got.tgz:15717.got - 2010.04.14 02:02:04.
