data_PCOD8172666
_publ_section_title
;
Structure prediction by ZEFSAII (Michael W. Deem and Ramdas Pophale) SiO2 
 PCOD8172666
Probable space group: C M M 2
;
_chemical_formula_sum "Si O2"
_cell_formula_units_Z 64
_cell_length_a 9.061244
_cell_length_b 28.191769
_cell_length_c 15.496930
_cell_angle_alpha 90.000000
_cell_angle_beta 90.000000
_cell_angle_gamma 90.000000
_cell_volume 3958.729475
_symmetry_space_group_name_H-M "C M M 2"
_symmetry_group_IT_number 35
_symmetry_cell_setting 'orthorhombic'
loop_
_space_group_symop_operation_xyz
x,y,z
-x,-y,z
-x,y,z
x,-y,z
1/2+x,1/2+y,z
1/2-x,1/2-y,z
1/2-x,1/2+y,z
1/2+x,1/2-y,z
loop_
_atom_site_type_symbol
_atom_site_label
_atom_site_fract_x
_atom_site_fract_y
_atom_site_fract_z
Si Si1 0.669195 0.444298 0.285420
Si Si2 0.662944 0.443752 0.788000
Si Si3 0.671633 0.296303 0.183979
Si Si4 0.325217 0.554064 0.597104
Si Si5 0.828378 0.396433 0.442660
Si Si6 0.826635 0.702910 0.364436
Si Si7 0.326573 0.054236 0.955670
Si Si8 0.830390 0.104122 0.110434
O O1 0.500000 0.429376 0.302657
O O2 0.686577 0.500000 0.274417
O O3 0.765963 0.427394 0.364817
O O4 0.727947 0.420181 0.197969
O O5 0.500000 0.422602 0.805691
O O6 0.653689 0.500000 0.787167
O O7 0.720162 0.428255 0.693251
O O8 0.770523 0.425840 0.863569
O O9 0.500000 0.285937 0.202660
O O10 0.750000 0.250000 0.142964
O O11 0.751188 0.309466 0.273392
O O12 0.689893 0.339336 0.117278
O O13 0.500000 0.556994 0.585074
O O14 0.272181 0.500000 0.580346
O O15 0.247809 0.589455 0.531518
O O16 0.798000 0.340704 0.428635
O O17 0.000000 0.407719 0.449111
O O18 0.750000 0.750000 0.404033
O O19 0.000000 0.711819 0.350208
O O20 0.500000 0.058198 0.955978
O O21 0.273993 0.000000 0.969984
O O22 0.264696 0.086746 0.030845
O O23 0.000000 0.089844 0.094659
#
# Coordination Sequence:
#
# PCOD8172666 Si02
#       8
#     8   8   8   8   8   8   8   8
#     4  10  20  33  47  63  90 130 169 197 223 267
#     4   8  15  30  50  69  91 122 160 199 235 275
#     4  10  19  32  51  71  91 119 156 199 244 283
#     4   9  18  32  50  71  95 127 165 198 229 274
#     4  11  22  32  45  69  98 126 156 195 242 284
#     4  10  20  33  49  68  91 121 157 198 242 284
#     4  10  20  31  46  71 100 128 158 196 241 282
#     4  10  20  33  49  68  92 127 165 196 231 279
#
# _framework density 16.166803000000002
#
# number of rings (size 3 to 8) (size 9 to 14) (size 15 to 20)
#    0.000    2.250    1.250    3.750    0.000    6.750 
#    0.000    1.250    0.000    0.000    0.000    0.875 
#    0.000    6.000    0.000    0.000    0.000    0.000 
#
# Total GULP energy -396778.276773 kJ/mol
# GULP energy per Si atom -12399.321149 kJ/mol
# Density = 1.613001 g / cm^3
# Si number density = 16.166803 Si / 1000 Ang^3
#
#
#
# Elastic Constant Matrix: (Units=GPa)
#
#
# Indices 1 2 3 4 5 6 
#
# 1 81.7955 43.3921 53.8938 0.0000 0.0000 0.0000
# 2 43.3921 80.0222 50.9654 0.0000 0.0000 0.0000
# 3 53.8938 50.9654 121.7269 0.0000 0.0000 0.0000
# 4 0.0000 0.0000 0.0000 11.1996 0.0000 0.0000
# 5 0.0000 0.0000 0.0000 0.0000 15.8149 0.0000
# 6 0.0000 0.0000 0.0000 0.0000 0.0000 25.8396
#
#
#
# Elastic Compliance Matrix: (Units=1/GPa)
#
#
# Indices 1 2 3 4 5 6 
#
# 1 0.019785 -0.007022 -0.005820 0.000000 0.000000 0.000000
# 2 -0.007022 0.019533 -0.005069 0.000000 0.000000 0.000000
# 3 -0.005820 -0.005069 0.012914 0.000000 0.000000 0.000000
# 4 0.000000 0.000000 0.000000 0.089289 0.000000 0.000000
# 5 0.000000 0.000000 0.000000 0.000000 0.063232 0.000000
# 6 0.000000 0.000000 0.000000 0.000000 0.000000 0.038700
#
#
# Mechanical properties :
#
#
# Convention : Reuss Voigt Hill
#
# Bulk Modulus (GPa) = 60.93736 64.44970 62.69353
# Shear Modulus (GPa) = 17.55959 19.59038 18.57499
#
# Velocity S-wave (km/s) = 3.29926 3.48482 3.39331
# Velocity P-wave (km/s) = 7.23106 7.49293 7.36316
#
# Compressibility (1/GPa) = 0.01641029
#
# Stress axis : x y z
#
# Youngs Moduli (GPa) = 50.54242 51.19620 77.43442
#
# Poissons Ratio (x) = 0.35950 0.45065
# Poissons Ratio (y) = 0.35491 0.39252
# Poissons Ratio (z) = 0.29415 0.25952
#
# Static dielectric constant tensor:
#      x y z
#    x 3.156760 0.000000 0.000000 
#    y 0.000000 3.028710 0.000000 
#    z 0.000000 0.000000 3.096730 
# 
# 
# High freq. dielectric constant tensor:
#      x y z
#    x 1.629220 0.000000 0.000000 
#    y 0.000000 1.604320 0.000000 
#    z 0.000000 0.000000 1.609590 
# 
# From -- ./inp_files/16194.got.cif
#   From: 2010.03.12/outbox.cif.g09.slc.cpg/sg35_9_cif.got.tgz:16194.got - 2010.04.14 02:02:04.
