data_PCOD8172762
_publ_section_title
;
Structure prediction by ZEFSAII (Michael W. Deem and Ramdas Pophale) SiO2 
 PCOD8172762
Probable space group: C M M 2
;
_chemical_formula_sum "Si O2"
_cell_formula_units_Z 64
_cell_length_a 8.932551
_cell_length_b 29.274614
_cell_length_c 12.454906
_cell_angle_alpha 90.000000
_cell_angle_beta 90.000000
_cell_angle_gamma 90.000000
_cell_volume 3256.920337
_symmetry_space_group_name_H-M "C M M 2"
_symmetry_group_IT_number 35
_symmetry_cell_setting 'orthorhombic'
loop_
_space_group_symop_operation_xyz
x,y,z
-x,-y,z
-x,y,z
x,-y,z
1/2+x,1/2+y,z
1/2-x,1/2-y,z
1/2-x,1/2+y,z
1/2+x,1/2-y,z
loop_
_atom_site_type_symbol
_atom_site_label
_atom_site_fract_x
_atom_site_fract_y
_atom_site_fract_z
Si Si1 0.167167 0.449831 0.392440
Si Si2 0.676975 0.889192 0.793012
Si Si3 0.177412 0.795820 0.742689
Si Si4 0.322223 0.052204 0.997117
Si Si5 0.176238 0.704373 0.284426
Si Si6 0.168636 0.083072 0.581817
Si Si7 0.821781 0.608741 0.199258
Si Si8 0.667786 0.316746 0.502594
O O1 0.160254 0.500000 0.340380
O O2 0.264824 0.453922 0.500493
O O3 0.241209 0.416858 0.304259
O O4 0.000000 0.432539 0.422374
O O5 0.500000 0.881401 0.791985
O O6 0.755592 0.839819 0.803482
O O7 0.727928 0.914865 0.685935
O O8 0.728751 0.922089 0.889330
O O9 0.250000 0.750000 0.792978
O O10 0.220381 0.796444 0.616738
O O11 0.000000 0.796367 0.759445
O O12 0.500000 0.050102 0.004008
O O13 0.256602 0.083218 0.094406
O O14 0.258757 0.000000 0.000232
O O15 0.250000 0.750000 0.235369
O O16 0.229621 0.661644 0.210443
O O17 0.221506 0.699126 0.409188
O O18 0.000000 0.709471 0.279886
O O19 0.172908 0.129135 0.513126
O O20 0.000000 0.070650 0.617269
O O21 0.000000 0.605311 0.197387
O O22 0.500000 0.300147 0.473826
#
# Coordination Sequence:
#
# PCOD8172762 Si02
#       8
#     8   8   8   8   8   8   8   8
#     4  10  19  32  54  83 111 141 180 225 276 339
#     4  10  20  34  56  84 113 146 187 236 285 334
#     4  10  20  34  53  80 114 153 192 231 279 332
#     4   9  18  35  60  86 109 138 184 239 288 334
#     4  11  21  32  51  78 110 146 183 221 268 325
#     4  10  20  34  52  76 113 153 184 224 276 332
#     4   9  18  34  55  81 111 142 179 229 282 332
#     4   9  18  32  50  74 106 146 185 222 264 316
#
# _framework density 19.650463999999999
#
# number of rings (size 3 to 8) (size 9 to 14) (size 15 to 20)
#    0.000    2.250    1.250    3.000    0.000    5.750 
#    0.000    1.875    0.000    7.125    0.000    0.000 
#    0.000    0.000    0.000    0.000    0.000    0.000 
#
# Total GULP energy -396690.692274 kJ/mol
# GULP energy per Si atom -12396.584134 kJ/mol
# Density = 1.960574 g / cm^3
# Si number density = 19.650464 Si / 1000 Ang^3
#
#
#
# Elastic Constant Matrix: (Units=GPa)
#
#
# Indices 1 2 3 4 5 6 
#
# 1 67.8647 41.3905 30.7964 0.0000 0.0000 0.0000
# 2 41.3905 153.4458 72.9666 0.0000 0.0000 0.0000
# 3 30.7964 72.9666 106.4673 0.0000 0.0000 0.0000
# 4 0.0000 0.0000 0.0000 23.3986 0.0000 0.0000
# 5 0.0000 0.0000 0.0000 0.0000 12.3274 0.0000
# 6 0.0000 0.0000 0.0000 0.0000 0.0000 26.0239
#
#
#
# Elastic Compliance Matrix: (Units=1/GPa)
#
#
# Indices 1 2 3 4 5 6 
#
# 1 0.018189 -0.003567 -0.002817 0.000000 0.000000 0.000000
# 2 -0.003567 0.010367 -0.006073 0.000000 0.000000 0.000000
# 3 -0.002817 -0.006073 0.014370 0.000000 0.000000 0.000000
# 4 0.000000 0.000000 0.000000 0.042738 0.000000 0.000000
# 5 0.000000 0.000000 0.000000 0.000000 0.081120 0.000000
# 6 0.000000 0.000000 0.000000 0.000000 0.000000 0.038426
#
#
# Mechanical properties :
#
#
# Convention : Reuss Voigt Hill
#
# Bulk Modulus (GPa) = 55.51918 68.67607 62.09763
# Shear Modulus (GPa) = 21.17505 24.52494 22.85000
#
# Velocity S-wave (km/s) = 3.28622 3.53662 3.41372
# Velocity P-wave (km/s) = 6.53557 7.19038 6.87078
#
# Compressibility (1/GPa) = 0.01801179
#
# Stress axis : x y z
#
# Youngs Moduli (GPa) = 54.97885 96.45972 69.59152
#
# Poissons Ratio (x) = 0.34406 0.19602
# Poissons Ratio (y) = 0.19610 0.42265
# Poissons Ratio (z) = 0.15486 0.58582
#
# Static dielectric constant tensor:
#      x y z
#    x 3.339490 0.000000 0.000000 
#    y 0.000000 3.834060 0.000000 
#    z 0.000000 0.000000 3.425950 
# 
# 
# High freq. dielectric constant tensor:
#      x y z
#    x 1.741340 0.000000 0.000000 
#    y 0.000000 1.779540 0.000000 
#    z 0.000000 0.000000 1.742310 
# 
# From -- ./inp_files/11972.got.cif
#   From: 2010.03.12/outbox.cif.g09.slc.cpg/sg35_6_cif.got.tgz:11972.got - 2010.04.14 02:02:04.
