data_PCOD8172657
_publ_section_title
;
Structure prediction by ZEFSAII (Michael W. Deem and Ramdas Pophale) SiO2 
 PCOD8172657
Probable space group: C M M 2
;
_chemical_formula_sum "Si O2"
_cell_formula_units_Z 56
_cell_length_a 9.336384
_cell_length_b 28.288629
_cell_length_c 12.794572
_cell_angle_alpha 90.000000
_cell_angle_beta 90.000000
_cell_angle_gamma 90.000000
_cell_volume 3379.219233
_symmetry_space_group_name_H-M "C M M 2"
_symmetry_group_IT_number 35
_symmetry_cell_setting 'orthorhombic'
loop_
_space_group_symop_operation_xyz
x,y,z
-x,-y,z
-x,y,z
x,-y,z
1/2+x,1/2+y,z
1/2-x,1/2-y,z
1/2-x,1/2+y,z
1/2+x,1/2-y,z
loop_
_atom_site_type_symbol
_atom_site_label
_atom_site_fract_x
_atom_site_fract_y
_atom_site_fract_z
Si Si1 0.168662 0.603753 0.562800
Si Si2 0.667026 0.054311 0.773954
Si Si3 0.834626 0.704356 0.485042
Si Si4 0.335294 0.554618 0.381085
Si Si5 0.833549 0.945968 0.976756
Si Si6 0.668252 0.796778 0.241892
Si Si7 0.332145 0.613865 0.178473
O O1 0.216319 0.586534 0.677056
O O2 0.215941 0.658335 0.549382
O O3 0.241810 0.570509 0.478383
O O4 0.000000 0.598310 0.545518
O O5 0.500000 0.059949 0.795983
O O6 0.707308 0.000000 0.748882
O O7 0.749125 0.072927 0.875881
O O8 0.750000 0.750000 0.526604
O O9 0.801471 0.694249 0.363975
O O10 0.000000 0.715461 0.503397
O O11 0.500000 0.564265 0.409075
O O12 0.306437 0.500000 0.357510
O O13 0.289206 0.582776 0.278136
O O14 0.789477 0.915029 0.075779
O O15 0.000000 0.941249 0.951452
O O16 0.791377 0.000000 0.001606
O O17 0.500000 0.792231 0.217771
O O18 0.750000 0.750000 0.204242
O O19 0.736102 0.839403 0.176703
O O20 0.500000 0.627046 0.180197
#
# Coordination Sequence:
#
# PCOD8172657 Si02
#       7
#     8   8   8   8   8   8   8
#     4  10  19  33  50  71  99 131 164 201 246 295
#     4   9  18  32  50  71  96 128 166 207 248 290
#     4   9  18  31  48  70  97 127 161 198 240 291
#     4  10  20  31  45  70 102 132 161 195 240 295
#     4   9  18  33  52  72  97 131 170 209 246 287
#     4  10  19  32  50  73 100 130 165 203 245 294
#     4  10  19  32  50  72 100 132 164 202 248 293
#
# _framework density 16.571874000000001
#
# number of rings (size 3 to 8) (size 9 to 14) (size 15 to 20)
#    0.000    2.429    1.429    1.286    0.000    4.857 
#    0.000    1.429    0.000    3.429    0.000    4.000 
#    0.000    0.000    0.000    0.000    0.000    0.000 
#
# Total GULP energy -347270.554560 kJ/mol
# GULP energy per Si atom -12402.519806 kJ/mol
# Density = 1.653416 g / cm^3
# Si number density = 16.571874 Si / 1000 Ang^3
#
#
#
# Elastic Constant Matrix: (Units=GPa)
#
#
# Indices 1 2 3 4 5 6 
#
# 1 56.7895 50.8841 49.7704 0.0000 0.0000 0.0000
# 2 50.8841 115.2886 63.4187 0.0000 0.0000 0.0000
# 3 49.7704 63.4187 114.2583 0.0000 0.0000 0.0000
# 4 0.0000 0.0000 0.0000 22.2761 0.0000 0.0000
# 5 0.0000 0.0000 0.0000 0.0000 27.1323 0.0000
# 6 0.0000 0.0000 0.0000 0.0000 0.0000 29.4610
#
#
#
# Elastic Compliance Matrix: (Units=1/GPa)
#
#
# Indices 1 2 3 4 5 6 
#
# 1 0.035267 -0.010242 -0.009677 0.000000 0.000000 0.000000
# 2 -0.010242 0.015461 -0.004120 0.000000 0.000000 0.000000
# 3 -0.009677 -0.004120 0.015254 0.000000 0.000000 0.000000
# 4 0.000000 0.000000 0.000000 0.044891 0.000000 0.000000
# 5 0.000000 0.000000 0.000000 0.000000 0.036856 0.000000
# 6 0.000000 0.000000 0.000000 0.000000 0.000000 0.033943
#
#
# Mechanical properties :
#
#
# Convention : Reuss Voigt Hill
#
# Bulk Modulus (GPa) = 55.85593 68.27585 62.06589
# Shear Modulus (GPa) = 21.21160 23.92478 22.56819
#
# Velocity S-wave (km/s) = 3.58156 3.80372 3.69431
# Velocity P-wave (km/s) = 7.13315 7.78334 7.46533
#
# Compressibility (1/GPa) = 0.01790320
#
# Stress axis : x y z
#
# Youngs Moduli (GPa) = 28.35482 64.67965 65.55546
#
# Poissons Ratio (x) = 0.66247 0.63440
# Poissons Ratio (y) = 0.29042 0.27009
# Poissons Ratio (z) = 0.27440 0.26648
#
# Static dielectric constant tensor:
#      x y z
#    x 3.096710 0.000000 0.000000 
#    y 0.000000 3.187230 0.000000 
#    z 0.000000 0.000000 3.040560 
# 
# 
# High freq. dielectric constant tensor:
#      x y z
#    x 1.638140 0.000000 0.000000 
#    y 0.000000 1.639840 0.000000 
#    z 0.000000 0.000000 1.621240 
# 
# From -- ./inp_files/16065.got.cif
#   From: 2010.03.12/outbox.cif.g09.slc.cpg/sg35_9_cif.got.tgz:16065.got - 2010.04.14 02:02:04.
