data_PCOD8172288
_publ_section_title
;
Structure prediction by ZEFSAII (Michael W. Deem and Ramdas Pophale) SiO2 
 PCOD8172288
Probable space group: C M M 2
;
_chemical_formula_sum "Si O2"
_cell_formula_units_Z 40
_cell_length_a 21.052622
_cell_length_b 12.701137
_cell_length_c 8.597658
_cell_angle_alpha 90.000000
_cell_angle_beta 90.000000
_cell_angle_gamma 90.000000
_cell_volume 2298.946999
_symmetry_space_group_name_H-M "C M M 2"
_symmetry_group_IT_number 35
_symmetry_cell_setting 'orthorhombic'
loop_
_space_group_symop_operation_xyz
x,y,z
-x,-y,z
-x,y,z
x,-y,z
1/2+x,1/2+y,z
1/2-x,1/2-y,z
1/2-x,1/2+y,z
1/2+x,1/2-y,z
loop_
_atom_site_type_symbol
_atom_site_label
_atom_site_fract_x
_atom_site_fract_y
_atom_site_fract_z
Si Si1 0.837782 0.317753 0.454020
Si Si2 0.571338 0.000000 0.456436
Si Si3 0.571338 0.000000 0.085865
Si Si4 0.206071 0.882945 0.951055
Si Si5 0.837782 0.317753 0.088282
Si Si6 0.793929 0.882945 0.591247
O O1 0.892722 0.395398 0.516787
O O2 0.843338 0.301253 0.271151
O O3 0.845451 0.203736 0.536430
O O4 0.769983 0.368669 0.492669
O O5 0.571575 0.000000 0.271151
O O6 0.500000 0.000000 0.523641
O O7 0.607278 0.104602 0.025514
O O8 0.500000 0.000000 0.018660
O O9 0.222823 0.865535 0.771151
O O10 0.178432 0.000000 0.980735
O O11 0.154549 0.796264 0.005872
O O12 0.269983 0.868669 0.049632
O O13 0.821568 0.000000 0.561567
#
# Coordination Sequence:
#
# PCOD8172288 Si02
#       6
#     8   4   4   8   8   8
#     4  10  18  29  48  71  95 123 159 197 234 283
#     4   9  18  32  49  71  99 127 156 197 242 279
#     4   9  18  32  49  71  99 127 156 197 242 279
#     4  10  19  30  46  68  99 129 152 192 242 286
#     4  10  18  29  48  71  95 123 159 197 234 283
#     4  10  19  30  46  68  99 129 152 192 242 286
#
# _framework density 17.399272
#
# number of rings (size 3 to 8) (size 9 to 14) (size 15 to 20)
#    0.000    2.200    2.000    4.800    0.000    2.400 
#    0.000    0.000    0.000   10.800    0.000    8.400 
#    0.000    0.000    0.000    0.000    0.000    0.000 
#
# Total GULP energy -247928.296469 kJ/mol
# GULP energy per Si atom -12396.414823 kJ/mol
# Density = 1.735967 g / cm^3
# Si number density = 17.399272 Si / 1000 Ang^3
#
#
#
# Elastic Constant Matrix: (Units=GPa)
#
#
# Indices 1 2 3 4 5 6 
#
# 1 85.0959 64.2007 4.2919 0.0000 0.0000 0.0000
# 2 64.2007 194.2006 34.2629 0.0000 0.0000 0.0000
# 3 4.2919 34.2629 39.0489 0.0000 0.0000 0.0000
# 4 0.0000 0.0000 0.0000 29.9995 0.0000 0.0000
# 5 0.0000 0.0000 0.0000 0.0000 0.8210 0.0000
# 6 0.0000 0.0000 0.0000 0.0000 0.0000 24.6177
#
#
#
# Elastic Compliance Matrix: (Units=1/GPa)
#
#
# Indices 1 2 3 4 5 6 
#
# 1 0.016033 -0.005903 0.003418 0.000000 0.000000 0.000000
# 2 -0.005903 0.008266 -0.006604 0.000000 0.000000 0.000000
# 3 0.003418 -0.006604 0.031028 0.000000 0.000000 0.000000
# 4 0.000000 0.000000 0.000000 0.033334 0.000000 0.000000
# 5 0.000000 0.000000 0.000000 0.000000 1.217965 0.000000
# 6 0.000000 0.000000 0.000000 0.000000 0.000000 0.040621
#
#
# Mechanical properties :
#
#
# Convention : Reuss Voigt Hill
#
# Bulk Modulus (GPa) = 26.91994 58.20628 42.56311
# Shear Modulus (GPa) = 3.62895 25.46030 14.54462
#
# Velocity S-wave (km/s) = 1.44576 3.82946 2.89439
# Velocity P-wave (km/s) = 4.27696 7.28553 5.97375
#
# Compressibility (1/GPa) = 0.03714718
#
# Stress axis : x y z
#
# Youngs Moduli (GPa) = 62.37223 120.97720 32.22903
#
# Poissons Ratio (x) = 0.71416 -0.11014
# Poissons Ratio (y) = 0.36820 0.21284
# Poissons Ratio (z) = -0.21316 0.79894
#
# Static dielectric constant tensor:
#      x y z
#    x 3.004540 0.000000 0.000000 
#    y 0.000000 3.789790 0.000000 
#    z 0.000000 0.000000 3.146430 
# 
# 
# High freq. dielectric constant tensor:
#      x y z
#    x 1.614750 0.000000 0.000000 
#    y 0.000000 1.694830 0.000000 
#    z 0.000000 0.000000 1.670100 
# 
# From -- ./inp_files/9162.got.cif
#   From: 2010.03.12/outbox.cif.g09.slc.cpg/sg35_5_cif.got.tgz:9162.got - 2010.04.14 02:02:04.
