data_PCOD8172271
_publ_section_title
;
Structure prediction by ZEFSAII (Michael W. Deem and Ramdas Pophale) SiO2 
 PCOD8172271
Probable space group: C M M 2
;
_chemical_formula_sum "Si O2"
_cell_formula_units_Z 64
_cell_length_a 8.829148
_cell_length_b 28.847002
_cell_length_c 15.721822
_cell_angle_alpha 90.000000
_cell_angle_beta 90.000000
_cell_angle_gamma 90.000000
_cell_volume 4004.260808
_symmetry_space_group_name_H-M "C M M 2"
_symmetry_group_IT_number 35
_symmetry_cell_setting 'orthorhombic'
loop_
_space_group_symop_operation_xyz
x,y,z
-x,-y,z
-x,y,z
x,-y,z
1/2+x,1/2+y,z
1/2-x,1/2-y,z
1/2-x,1/2+y,z
1/2+x,1/2-y,z
loop_
_atom_site_type_symbol
_atom_site_label
_atom_site_fract_x
_atom_site_fract_y
_atom_site_fract_z
Si Si1 0.326550 0.551151 0.226810
Si Si2 0.323155 0.700232 0.990194
Si Si3 0.319844 0.800921 0.637061
Si Si4 0.179190 0.300188 0.306527
Si Si5 0.321910 0.300263 0.803916
Si Si6 0.679934 0.854331 0.471829
Si Si7 0.823734 0.145887 0.153169
Si Si8 0.320868 0.050686 0.404621
O O1 0.500000 0.553653 0.257396
O O2 0.289890 0.500000 0.188541
O O3 0.294283 0.590414 0.155937
O O4 0.224202 0.561570 0.308179
O O5 0.500000 0.709284 0.997120
O O6 0.250000 0.750000 0.005942
O O7 0.267303 0.663994 0.061353
O O8 0.285699 0.677959 0.896940
O O9 0.500000 0.797272 0.638949
O O10 0.250000 0.750000 0.626055
O O11 0.259269 0.825706 0.724100
O O12 0.260112 0.832337 0.559303
O O13 0.250000 0.250000 0.299371
O O14 0.241151 0.324622 0.392139
O O15 0.226820 0.329927 0.225624
O O16 0.000000 0.295557 0.307921
O O17 0.500000 0.297613 0.785950
O O18 0.250000 0.250000 0.806281
O O19 0.500000 0.853783 0.470169
O O20 0.740051 0.907576 0.464417
O O21 0.000000 0.157687 0.167677
O O22 0.500000 0.049759 0.408050
O O23 0.256467 0.000000 0.433550
#
# Coordination Sequence:
#
# PCOD8172271 Si02
#       8
#     8   8   8   8   8   8   8   8
#     4   9  17  29  45  65  88 112 142 183 224 258
#     4   9  18  30  44  62  86 114 143 177 214 255
#     4  10  18  29  44  62  87 114 143 177 212 254
#     4  11  21  32  43  59  88 121 152 179 209 250
#     4   9  16  28  44  62  83 108 141 179 218 255
#     4   9  18  30  43  63  88 114 144 178 213 252
#     4  10  19  31  45  64  88 117 149 179 216 258
#     4   9  16  29  48  65  83 110 145 182 219 257
#
# _framework density 15.982975
#
# number of rings (size 3 to 8) (size 9 to 14) (size 15 to 20)
#    0.000    2.500    1.250    2.625    0.000    2.000 
#    0.000    3.125    0.000    0.000    0.000    0.875 
#    0.000    1.000    0.000    0.000    0.000    0.000 
#
# Total GULP energy -396532.206404 kJ/mol
# GULP energy per Si atom -12391.631450 kJ/mol
# Density = 1.594660 g / cm^3
# Si number density = 15.982975 Si / 1000 Ang^3
#
#
#
# Elastic Constant Matrix: (Units=GPa)
#
#
# Indices 1 2 3 4 5 6 
#
# 1 37.3741 22.4699 28.5922 0.0000 0.0000 0.0000
# 2 22.4699 114.6757 69.1082 0.0000 0.0000 0.0000
# 3 28.5922 69.1082 144.0587 0.0000 0.0000 0.0000
# 4 0.0000 0.0000 0.0000 12.4082 0.0000 0.0000
# 5 0.0000 0.0000 0.0000 0.0000 20.6042 0.0000
# 6 0.0000 0.0000 0.0000 0.0000 0.0000 9.2790
#
#
#
# Elastic Compliance Matrix: (Units=1/GPa)
#
#
# Indices 1 2 3 4 5 6 
#
# 1 0.032511 -0.003491 -0.004778 0.000000 0.000000 0.000000
# 2 -0.003491 0.012641 -0.005371 0.000000 0.000000 0.000000
# 3 -0.004778 -0.005371 0.010467 0.000000 0.000000 0.000000
# 4 0.000000 0.000000 0.000000 0.080592 0.000000 0.000000
# 5 0.000000 0.000000 0.000000 0.000000 0.048534 0.000000
# 6 0.000000 0.000000 0.000000 0.000000 0.000000 0.107770
#
#
# Mechanical properties :
#
#
# Convention : Reuss Voigt Hill
#
# Bulk Modulus (GPa) = 35.28819 59.60546 47.44682
# Shear Modulus (GPa) = 15.18647 20.18751 17.68699
#
# Velocity S-wave (km/s) = 3.08582 3.55782 3.33019
# Velocity P-wave (km/s) = 5.90109 7.36556 6.67362
#
# Compressibility (1/GPa) = 0.02833809
#
# Stress axis : x y z
#
# Youngs Moduli (GPa) = 30.75928 79.10570 95.54070
#
# Poissons Ratio (x) = 0.27614 0.45649
# Poissons Ratio (y) = 0.10738 0.51319
# Poissons Ratio (z) = 0.14697 0.42491
#
# Static dielectric constant tensor:
#      x y z
#    x 2.991810 0.000000 0.000000 
#    y 0.000000 3.254600 0.000000 
#    z 0.000000 0.000000 3.595440 
# 
# 
# High freq. dielectric constant tensor:
#      x y z
#    x 1.610210 0.000000 0.000000 
#    y 0.000000 1.596660 0.000000 
#    z 0.000000 0.000000 1.606500 
# 
# From -- ./inp_files/16191.got.cif
#   From: 2010.03.12/outbox.cif.g09.slc.cpg/sg35_9_cif.got.tgz:16191.got - 2010.04.14 02:02:04.
