data_PCOD8172429
_publ_section_title
;
Structure prediction by ZEFSAII (Michael W. Deem and Ramdas Pophale) SiO2 
 PCOD8172429
Probable space group: C M M 2
;
_chemical_formula_sum "Si O2"
_cell_formula_units_Z 56
_cell_length_a 8.864013
_cell_length_b 21.488666
_cell_length_c 14.461864
_cell_angle_alpha 90.000000
_cell_angle_beta 90.000000
_cell_angle_gamma 90.000000
_cell_volume 2754.635329
_symmetry_space_group_name_H-M "C M M 2"
_symmetry_group_IT_number 35
_symmetry_cell_setting 'orthorhombic'
loop_
_space_group_symop_operation_xyz
x,y,z
-x,-y,z
-x,y,z
x,-y,z
1/2+x,1/2+y,z
1/2-x,1/2-y,z
1/2-x,1/2+y,z
1/2+x,1/2-y,z
loop_
_atom_site_type_symbol
_atom_site_label
_atom_site_fract_x
_atom_site_fract_y
_atom_site_fract_z
Si Si1 0.674205 0.815074 0.386810
Si Si2 0.673883 0.878415 0.894668
Si Si3 0.177242 0.186550 0.738511
Si Si4 0.822755 0.928622 0.278951
Si Si5 0.672313 0.071314 0.088386
Si Si6 0.674230 0.122469 0.572756
Si Si7 0.322617 0.500000 0.583854
Si Si8 0.672215 0.000000 0.778465
O O1 0.500000 0.811327 0.358501
O O2 0.750000 0.750000 0.355829
O O3 0.743180 0.876422 0.340381
O O4 0.694475 0.823085 0.497302
O O5 0.500000 0.858418 0.886079
O O6 0.775708 0.826368 0.844739
O O7 0.706994 0.942018 0.842767
O O8 0.719989 0.885239 0.002058
O O9 0.250000 0.250000 0.703966
O O10 0.241822 0.135001 0.669157
O O11 0.000000 0.190146 0.728771
O O12 0.782297 0.913625 0.172852
O O13 0.000000 0.922082 0.292935
O O14 0.770731 0.000000 0.303356
O O15 0.500000 0.085223 0.118243
O O16 0.687441 0.000000 0.056185
O O17 0.500000 0.110556 0.595591
O O18 0.750026 0.059712 0.533141
O O19 0.500000 0.500000 0.566945
O O20 0.284711 0.500000 0.692418
O O21 0.500000 0.000000 0.742179
#
# Coordination Sequence:
#
# PCOD8172429 Si02
#       8
#     8   8   8   8   8   8   4   4
#     4  11  25  44  68  93 120 159 206 256 310 374
#     4  10  19  34  58  87 119 157 197 242 292 348
#     4  12  25  40  58  82 115 159 206 252 301 357
#     4  10  22  40  63  94 129 163 200 253 313 368
#     4   9  17  33  59  90 121 157 199 243 298 363
#     4  11  24  42  63  88 121 160 201 249 305 364
#     4  12  24  36  56  91 126 161 202 249 302 356
#     4  10  18  32  56  83 118 157 192 233 288 344
#
# _framework density 20.329369
#
# number of rings (size 3 to 8) (size 9 to 14) (size 15 to 20)
#    0.000    1.429    2.143    3.643    1.000    4.857 
#    0.000    0.714    0.000    3.429    0.000    0.000 
#    0.000    0.000    0.000    0.000    0.000    0.000 
#
# Total GULP energy -347200.965078 kJ/mol
# GULP energy per Si atom -12400.034467 kJ/mol
# Density = 2.028310 g / cm^3
# Si number density = 20.329369 Si / 1000 Ang^3
#
#
#
# Elastic Constant Matrix: (Units=GPa)
#
#
# Indices 1 2 3 4 5 6 
#
# 1 142.4358 58.8518 42.6514 0.0000 0.0000 0.0000
# 2 58.8518 110.6770 38.2945 0.0000 0.0000 0.0000
# 3 42.6514 38.2945 78.7056 0.0000 0.0000 0.0000
# 4 0.0000 0.0000 0.0000 24.2731 0.0000 0.0000
# 5 0.0000 0.0000 0.0000 0.0000 28.3113 0.0000
# 6 0.0000 0.0000 0.0000 0.0000 0.0000 34.7870
#
#
#
# Elastic Compliance Matrix: (Units=1/GPa)
#
#
# Indices 1 2 3 4 5 6 
#
# 1 0.009657 -0.003997 -0.003288 0.000000 0.000000 0.000000
# 2 -0.003997 0.012519 -0.003925 0.000000 0.000000 0.000000
# 3 -0.003288 -0.003925 0.016397 0.000000 0.000000 0.000000
# 4 0.000000 0.000000 0.000000 0.041198 0.000000 0.000000
# 5 0.000000 0.000000 0.000000 0.000000 0.035322 0.000000
# 6 0.000000 0.000000 0.000000 0.000000 0.000000 0.028746
#
#
# Mechanical properties :
#
#
# Convention : Reuss Voigt Hill
#
# Bulk Modulus (GPa) = 61.91178 67.93487 64.92333
# Shear Modulus (GPa) = 29.13007 30.27566 29.70286
#
# Velocity S-wave (km/s) = 3.78948 3.86328 3.82656
# Velocity P-wave (km/s) = 7.04751 7.30681 7.17833
#
# Compressibility (1/GPa) = 0.01615201
#
# Stress axis : x y z
#
# Youngs Moduli (GPa) = 103.55216 79.87953 60.98586
#
# Poissons Ratio (x) = 0.31930 0.20054
# Poissons Ratio (y) = 0.41393 0.23937
# Poissons Ratio (z) = 0.34051 0.31352
#
# Static dielectric constant tensor:
#      x y z
#    x 3.607930 0.000000 0.000000 
#    y 0.000000 3.715290 0.000000 
#    z 0.000000 0.000000 3.660020 
# 
# 
# High freq. dielectric constant tensor:
#      x y z
#    x 1.792470 0.000000 0.000000 
#    y 0.000000 1.790870 0.000000 
#    z 0.000000 0.000000 1.791020 
# 
# From -- ./inp_files/15768.got.cif
#   From: 2010.03.12/outbox.cif.g09.slc.cpg/sg35_8_cif.got.tgz:15768.got - 2010.04.14 02:02:04.
