data_PCOD8172153
_publ_section_title
;
Structure prediction by ZEFSAII (Michael W. Deem and Ramdas Pophale) SiO2 
 PCOD8172153
Probable space group: C M M 2
;
_chemical_formula_sum "Si O2"
_cell_formula_units_Z 48
_cell_length_a 18.567217
_cell_length_b 8.656895
_cell_length_c 15.835917
_cell_angle_alpha 90.000000
_cell_angle_beta 90.000000
_cell_angle_gamma 90.000000
_cell_volume 2545.377378
_symmetry_space_group_name_H-M "C M M 2"
_symmetry_group_IT_number 35
_symmetry_cell_setting 'orthorhombic'
loop_
_space_group_symop_operation_xyz
x,y,z
-x,-y,z
-x,y,z
x,-y,z
1/2+x,1/2+y,z
1/2-x,1/2-y,z
1/2-x,1/2+y,z
1/2+x,1/2-y,z
loop_
_atom_site_type_symbol
_atom_site_label
_atom_site_fract_x
_atom_site_fract_y
_atom_site_fract_z
Si Si1 0.670996 0.681318 0.349450
Si Si2 0.171237 0.681639 0.844239
Si Si3 0.330044 0.316813 0.015096
Si Si4 0.669590 0.817516 0.183321
Si Si5 0.171831 0.180412 0.533983
Si Si6 0.583910 0.319590 0.694319
O O1 0.673592 0.500000 0.331407
O O2 0.750000 0.750000 0.354105
O O3 0.629657 0.762469 0.270132
O O4 0.637085 0.720333 0.441546
O O5 0.178884 0.500000 0.857080
O O6 0.250000 0.750000 0.825474
O O7 0.119021 0.718646 0.767387
O O8 0.134408 0.755779 0.928352
O O9 0.330320 0.500000 0.017275
O O10 0.250000 0.250000 0.014449
O O11 0.369673 0.251307 0.099496
O O12 0.750000 0.750000 0.186480
O O13 0.670808 0.000000 0.177277
O O14 0.250000 0.250000 0.549839
O O15 0.116751 0.237535 0.605340
O O16 0.183872 0.000000 0.540065
O O17 0.500000 0.283373 0.691740
O O18 0.599581 0.500000 0.710601
#
# Coordination Sequence:
#
# PCOD8172153 Si02
#       6
#     8   8   8   8   8   8
#     4   9  15  24  38  60  90 122 157 194 236 285
#     4  11  21  34  52  75 102 131 167 207 250 298
#     4  10  17  27  43  65  94 127 161 197 241 289
#     4  10  16  23  36  59  92 126 157 191 236 286
#     4   9  18  31  49  72  97 128 164 204 246 290
#     4  10  21  37  54  73  99 131 167 207 253 302
#
# _framework density 18.857714000000001
#
# number of rings (size 3 to 8) (size 9 to 14) (size 15 to 20)
#    0.000    2.167    0.000    8.500    0.000    3.000 
#    0.000    0.000    0.000    0.000    0.000    1.167 
#    0.000    6.667    0.000    0.000    0.000    0.000 
#
# Total GULP energy -297393.383571 kJ/mol
# GULP energy per Si atom -12391.390982 kJ/mol
# Density = 1.881479 g / cm^3
# Si number density = 18.857714 Si / 1000 Ang^3
#
#
#
# Elastic Constant Matrix: (Units=GPa)
#
#
# Indices 1 2 3 4 5 6 
#
# 1 45.4818 23.6740 43.6302 0.0000 0.0000 0.0000
# 2 23.6740 141.2246 75.9121 0.0000 0.0000 0.0000
# 3 43.6302 75.9121 209.7543 0.0000 0.0000 0.0000
# 4 0.0000 0.0000 0.0000 35.0918 0.0000 0.0000
# 5 0.0000 0.0000 0.0000 0.0000 -4.5470 0.0000
# 6 0.0000 0.0000 0.0000 0.0000 0.0000 12.6691
#
#
#
# Elastic Compliance Matrix: (Units=1/GPa)
#
#
# Indices 1 2 3 4 5 6 
#
# 1 0.027886 -0.001933 -0.005101 0.000000 0.000000 0.000000
# 2 -0.001933 0.008925 -0.002828 0.000000 0.000000 0.000000
# 3 -0.005101 -0.002828 0.006852 0.000000 0.000000 0.000000
# 4 0.000000 0.000000 0.000000 0.028497 0.000000 0.000000
# 5 0.000000 0.000000 0.000000 0.000000 -0.219927 0.000000
# 6 0.000000 0.000000 0.000000 0.000000 0.000000 0.078932
#
#
# Mechanical properties :
#
#
# Convention : Reuss Voigt Hill
#
# Bulk Modulus (GPa) = 41.77166 75.87702 58.82434
# Shear Modulus (GPa) = -121.56129 25.52576 -48.01776
#
# Velocity S-wave (km/s) = -8.03756 3.68312 -5.05158
# Velocity P-wave (km/s) = 7.99608 7.64272 1.66227
#
# Compressibility (1/GPa) = 0.02393968
#
# Stress axis : x y z
#
# Youngs Moduli (GPa) = 35.86008 112.04408 145.94232
#
# Poissons Ratio (x) = 0.21655 0.74445
# Poissons Ratio (y) = 0.06931 0.41273
# Poissons Ratio (z) = 0.18292 0.31687
#
# Static dielectric constant tensor:
#      x y z
#    x 2.842210 0.000000 0.000000 
#    y 0.000000 3.428850 0.000000 
#    z 0.000000 0.000000 5.463520 
# 
# 
# High freq. dielectric constant tensor:
#      x y z
#    x 1.646500 0.000000 0.000000 
#    y 0.000000 1.743410 0.000000 
#    z 0.000000 0.000000 1.774120 
# 
# From -- ./inp_files/18748.got.cif
#   From: 2010.03.12/outbox.cif.g09.slc.cpg/sg35_10_cif.got.tgz:18748.got - 2010.04.14 02:02:04.
