data_PCOD8172060
_publ_section_title
;
Structure prediction by ZEFSAII (Michael W. Deem and Ramdas Pophale) SiO2 
 PCOD8172060
Probable space group: P N N 2
;
_chemical_formula_sum "Si O2"
_cell_formula_units_Z 22
_cell_length_a 11.515940
_cell_length_b 5.106950
_cell_length_c 15.537642
_cell_angle_alpha 90.000000
_cell_angle_beta 90.000000
_cell_angle_gamma 90.000000
_cell_volume 913.789388
_symmetry_space_group_name_H-M "P N N 2"
_symmetry_group_IT_number 34
_symmetry_cell_setting 'orthorhombic'
loop_
_space_group_symop_operation_xyz
x,y,z
-x,-y,z
1/2-x,1/2+y,1/2+z
1/2+x,1/2-y,1/2+z
loop_
_atom_site_type_symbol
_atom_site_label
_atom_site_fract_x
_atom_site_fract_y
_atom_site_fract_z
Si Si1 0.272396 0.335024 0.708530
Si Si2 0.306162 0.835088 0.395618
Si Si3 0.360903 0.310419 0.170304
Si Si4 0.930795 0.235641 0.485110
Si Si5 0.000000 0.000000 0.119171
Si Si6 0.500000 0.500000 0.317401
Si Si7 0.000000 0.500000 0.004599
O O1 0.251594 0.429227 0.806773
O O2 0.198625 0.533123 0.650943
O O3 0.404499 0.380961 0.682964
O O4 0.233798 0.038016 0.690062
O O5 0.201589 0.731263 0.454230
O O6 0.398438 0.604639 0.377978
O O7 0.384694 0.056837 0.444915
O O8 0.431627 0.357946 0.083906
O O9 0.449100 0.281313 0.251223
O O10 0.000000 0.500000 0.467113
O O11 0.000000 0.000000 0.436403
O O12 0.036058 0.245686 0.059862
#
# Coordination Sequence:
#
# PCOD8172060 Si02
#       7
#     4   4   4   4   2   2   2
#     4  11  25  43  72 103 145 185 238 296 352 428
#     4  11  26  46  73 109 146 188 241 304 362 417
#     4  11  23  45  71 104 136 187 245 291 347 418
#     4  12  27  45  72 105 151 190 233 294 366 436
#     4  12  25  46  71 106 142 192 234 286 363 430
#     4  10  23  46  75 108 132 190 242 302 335 420
#     4  12  26  48  76 102 142 190 242 298 348 424
#
# _framework density 24.075571
#
# number of rings (size 3 to 8) (size 9 to 14) (size 15 to 20)
#    0.000    0.727    0.909    6.000    3.818    7.273 
#    1.636    0.000    0.000    0.000    0.000    0.000 
#    0.000    0.000    0.000    0.000    0.000    0.000 
#
# Total GULP energy -272670.539221 kJ/mol
# GULP energy per Si atom -12394.115419 kJ/mol
# Density = 2.402077 g / cm^3
# Si number density = 24.075571 Si / 1000 Ang^3
#
#
#
# Elastic Constant Matrix: (Units=GPa)
#
#
# Indices 1 2 3 4 5 6 
#
# 1 161.9303 46.3225 57.3979 0.0000 0.0000 0.0000
# 2 46.3225 110.6246 40.0204 0.0000 0.0000 0.0000
# 3 57.3979 40.0204 95.1757 0.0000 0.0000 0.0000
# 4 0.0000 0.0000 0.0000 10.2831 0.0000 0.0000
# 5 0.0000 0.0000 0.0000 0.0000 32.8662 0.0000
# 6 0.0000 0.0000 0.0000 0.0000 0.0000 45.3362
#
#
#
# Elastic Compliance Matrix: (Units=1/GPa)
#
#
# Indices 1 2 3 4 5 6 
#
# 1 0.008192 -0.001938 -0.004126 0.000000 0.000000 0.000000
# 2 -0.001938 0.011120 -0.003507 0.000000 0.000000 0.000000
# 3 -0.004126 -0.003507 0.014470 0.000000 0.000000 0.000000
# 4 0.000000 0.000000 0.000000 0.097247 0.000000 0.000000
# 5 0.000000 0.000000 0.000000 0.000000 0.030426 0.000000
# 6 0.000000 0.000000 0.000000 0.000000 0.000000 0.022057
#
#
# Mechanical properties :
#
#
# Convention : Reuss Voigt Hill
#
# Bulk Modulus (GPa) = 68.30385 72.80134 70.55260
# Shear Modulus (GPa) = 24.09243 32.62974 28.36109
#
# Velocity S-wave (km/s) = 3.16682 3.68544 3.43593
# Velocity P-wave (km/s) = 6.46559 6.95804 6.71633
#
# Compressibility (1/GPa) = 0.01464046
#
# Stress axis : x y z
#
# Youngs Moduli (GPa) = 122.06683 89.92987 69.11009
#
# Poissons Ratio (x) = 0.17427 0.28513
# Poissons Ratio (y) = 0.23655 0.24237
# Poissons Ratio (z) = 0.50361 0.31539
#
# Static dielectric constant tensor:
#      x y z
#    x 4.570050 0.000000 0.000000 
#    y 0.000000 4.092300 0.000000 
#    z 0.000000 0.000000 4.502600 
# 
# 
# High freq. dielectric constant tensor:
#      x y z
#    x 1.966750 0.000000 0.000000 
#    y 0.000000 1.948450 0.000000 
#    z 0.000000 0.000000 1.959750 
# 
# From -- ./inp_files/6698.got.cif
#   From: 2010.03.12/outbox.cif.g09.slc.cpg/sg34_4_cif.got.tgz:6698.got - 2010.04.14 01:56:33.
