data_PCOD8172194
_publ_section_title
;
Structure prediction by ZEFSAII (Michael W. Deem and Ramdas Pophale) SiO2 
 PCOD8172194
Probable space group: C M M 2
;
_chemical_formula_sum "Si O2"
_cell_formula_units_Z 60
_cell_length_a 21.276831
_cell_length_b 13.561933
_cell_length_c 13.233845
_cell_angle_alpha 90.000000
_cell_angle_beta 90.000000
_cell_angle_gamma 90.000000
_cell_volume 3818.691568
_symmetry_space_group_name_H-M "C M M 2"
_symmetry_group_IT_number 35
_symmetry_cell_setting 'orthorhombic'
loop_
_space_group_symop_operation_xyz
x,y,z
-x,-y,z
-x,y,z
x,-y,z
1/2+x,1/2+y,z
1/2-x,1/2-y,z
1/2-x,1/2+y,z
1/2+x,1/2-y,z
loop_
_atom_site_type_symbol
_atom_site_label
_atom_site_fract_x
_atom_site_fract_y
_atom_site_fract_z
Si Si1 0.573311 0.695585 0.842110
Si Si2 0.574710 0.611022 0.416691
Si Si3 0.429101 0.108008 0.945398
Si Si4 0.250000 0.250000 0.087307
Si Si5 0.354955 0.887266 0.148741
Si Si6 0.574065 0.715336 0.218037
Si Si7 0.857113 0.114851 0.029922
Si Si8 0.925395 0.888517 0.636466
O O1 0.500000 0.669885 0.845318
O O2 0.586609 0.810897 0.861460
O O3 0.601794 0.673799 0.730813
O O4 0.604457 0.627010 0.926825
O O5 0.500000 0.611986 0.413695
O O6 0.599542 0.500000 0.402465
O O7 0.601238 0.675355 0.324328
O O8 0.597883 0.652056 0.526628
O O9 0.500000 0.124888 0.988808
O O10 0.424176 0.000000 0.894562
O O11 0.378571 0.116790 0.033720
O O12 0.290476 0.175148 0.157359
O O13 0.206261 0.179587 0.018777
O O14 0.407154 0.830916 0.215626
O O15 0.346298 0.000000 0.186245
O O16 0.500000 0.702694 0.209745
O O17 0.603807 0.654906 0.125359
O O18 0.840887 0.000000 0.046151
O O19 0.000000 0.884617 0.638035
O O20 0.901748 0.000000 0.649950
#
# Coordination Sequence:
#
# PCOD8172194 Si02
#       8
#     8   8   8   4   8   8   8   8
#     4  10  17  27  43  67  95 118 143 180 222 265
#     4   8  14  25  40  60  89 123 152 175 208 261
#     4   9  16  27  43  62  86 116 148 179 215 264
#     4  10  20  34  44  58  86 120 156 182 222 266
#     4  10  19  31  46  62  87 120 152 184 218 263
#     4  10  18  28  44  68  95 119 144 178 221 267
#     4  11  21  30  43  65  91 116 144 183 229 269
#     4   8  14  24  39  60  88 122 151 173 208 263
#
# _framework density 15.712187999999999
#
# number of rings (size 3 to 8) (size 9 to 14) (size 15 to 20)
#    0.000    2.533    2.667    2.800    0.000    2.933 
#    0.000    0.000    0.000    0.800    0.000    7.467 
#    0.000    4.267    0.000    0.000    0.000    0.000 
#
# Total GULP energy -371727.101498 kJ/mol
# GULP energy per Si atom -12390.903383 kJ/mol
# Density = 1.567643 g / cm^3
# Si number density = 15.712188 Si / 1000 Ang^3
#
#
#
# Elastic Constant Matrix: (Units=GPa)
#
#
# Indices 1 2 3 4 5 6 
#
# 1 46.9288 30.2832 23.1936 0.0000 0.0000 0.0000
# 2 30.2832 123.1682 55.2011 0.0000 0.0000 0.0000
# 3 23.1936 55.2011 122.5640 0.0000 0.0000 0.0000
# 4 0.0000 0.0000 0.0000 22.6816 0.0000 0.0000
# 5 0.0000 0.0000 0.0000 0.0000 1.8398 0.0000
# 6 0.0000 0.0000 0.0000 0.0000 0.0000 21.5860
#
#
#
# Elastic Compliance Matrix: (Units=1/GPa)
#
#
# Indices 1 2 3 4 5 6 
#
# 1 0.025949 -0.005236 -0.002552 0.000000 0.000000 0.000000
# 2 -0.005236 0.011229 -0.004066 0.000000 0.000000 0.000000
# 3 -0.002552 -0.004066 0.010473 0.000000 0.000000 0.000000
# 4 0.000000 0.000000 0.000000 0.044089 0.000000 0.000000
# 5 0.000000 0.000000 0.000000 0.000000 0.543535 0.000000
# 6 0.000000 0.000000 0.000000 0.000000 0.000000 0.046326
#
#
# Mechanical properties :
#
#
# Convention : Reuss Voigt Hill
#
# Bulk Modulus (GPa) = 41.76809 56.66856 49.21833
# Shear Modulus (GPa) = 7.00976 21.48702 14.24839
#
# Velocity S-wave (km/s) = 2.11448 3.70204 3.01464
# Velocity P-wave (km/s) = 5.70985 7.37688 6.59624
#
# Compressibility (1/GPa) = 0.02394172
#
# Stress axis : x y z
#
# Youngs Moduli (GPa) = 38.53681 89.05590 95.47950
#
# Poissons Ratio (x) = 0.46632 0.24368
# Poissons Ratio (y) = 0.20179 0.38826
# Poissons Ratio (z) = 0.09835 0.36214
#
# Static dielectric constant tensor:
#      x y z
#    x 2.810430 0.000000 0.000000 
#    y 0.000000 3.252050 0.000000 
#    z 0.000000 0.000000 3.164930 
# 
# 
# High freq. dielectric constant tensor:
#      x y z
#    x 1.570850 0.000000 0.000000 
#    y 0.000000 1.609400 0.000000 
#    z 0.000000 0.000000 1.582400 
# 
# From -- ./inp_files/13330.got.cif
#   From: 2010.03.12/outbox.cif.g09.slc.cpg/sg35_7_cif.got.tgz:13330.got - 2010.04.14 02:02:04.
