data_PCOD8172878
_publ_section_title
;
Structure prediction by ZEFSAII (Michael W. Deem and Ramdas Pophale) SiO2 
 PCOD8172878
Probable space group: C M M 2
;
_chemical_formula_sum "Si O2"
_cell_formula_units_Z 48
_cell_length_a 9.034236
_cell_length_b 29.749004
_cell_length_c 9.260312
_cell_angle_alpha 90.000000
_cell_angle_beta 90.000000
_cell_angle_gamma 90.000000
_cell_volume 2488.797035
_symmetry_space_group_name_H-M "C M M 2"
_symmetry_group_IT_number 35
_symmetry_cell_setting 'orthorhombic'
loop_
_space_group_symop_operation_xyz
x,y,z
-x,-y,z
-x,y,z
x,-y,z
1/2+x,1/2+y,z
1/2-x,1/2-y,z
1/2-x,1/2+y,z
1/2+x,1/2-y,z
loop_
_atom_site_type_symbol
_atom_site_label
_atom_site_fract_x
_atom_site_fract_y
_atom_site_fract_z
Si Si1 0.333388 0.500000 0.823761
Si Si2 0.827649 0.872782 0.113406
Si Si3 0.661573 0.074560 0.331312
Si Si4 0.671805 0.295960 0.346790
Si Si5 0.176625 0.594924 0.843278
Si Si6 0.836550 0.000000 0.485419
Si Si7 0.161374 0.648267 0.561205
O O1 0.500000 0.500000 0.891596
O O2 0.247206 0.545516 0.868652
O O3 0.348598 0.500000 0.654370
O O4 0.763583 0.917138 0.192286
O O5 0.798408 0.829378 0.212537
O O6 0.000000 0.879700 0.081274
O O7 0.737814 0.870198 0.963361
O O8 0.500000 0.055382 0.283945
O O9 0.745754 0.042725 0.439257
O O10 0.636546 0.119779 0.417915
O O11 0.500000 0.287067 0.366939
O O12 0.750000 0.250000 0.302934
O O13 0.728650 0.312787 0.505062
O O14 0.226111 0.617772 0.691467
O O15 0.000000 0.590011 0.851575
O O16 0.000000 0.000000 0.415383
O O17 0.000000 0.668140 0.607459
#
# Coordination Sequence:
#
# PCOD8172878 Si02
#       7
#     4   8   8   8   8   4   8
#     4  11  23  36  55  82 117 158 196 240 287 336
#     4  10  22  39  57  83 116 151 189 234 289 344
#     4  10  19  34  55  78 106 144 189 235 281 332
#     4  10  21  38  63  89 115 146 186 234 287 347
#     4  11  22  38  59  85 117 156 197 238 285 340
#     4  11  21  32  51  80 111 146 190 240 287 334
#     4   9  19  35  57  83 112 144 184 231 281 336
#
# _framework density 19.286425999999999
#
# number of rings (size 3 to 8) (size 9 to 14) (size 15 to 20)
#    0.000    1.833    1.667    2.500    0.000    5.333 
#    0.000    4.167    0.000    2.000    0.000    0.000 
#    0.000    0.000    0.000    0.000    0.000    0.000 
#
# Total GULP energy -297421.532227 kJ/mol
# GULP energy per Si atom -12392.563843 kJ/mol
# Density = 1.924253 g / cm^3
# Si number density = 19.286426 Si / 1000 Ang^3
#
#
#
# Elastic Constant Matrix: (Units=GPa)
#
#
# Indices 1 2 3 4 5 6 
#
# 1 139.5196 59.9801 43.0912 0.0000 0.0000 0.0000
# 2 59.9801 79.7399 29.5836 0.0000 0.0000 0.0000
# 3 43.0912 29.5836 90.3061 0.0000 0.0000 0.0000
# 4 0.0000 0.0000 0.0000 23.6947 0.0000 0.0000
# 5 0.0000 0.0000 0.0000 0.0000 31.5187 0.0000
# 6 0.0000 0.0000 0.0000 0.0000 0.0000 37.1727
#
#
#
# Elastic Compliance Matrix: (Units=1/GPa)
#
#
# Indices 1 2 3 4 5 6 
#
# 1 0.011245 -0.007363 -0.002954 0.000000 0.000000 0.000000
# 2 -0.007363 0.019096 -0.002743 0.000000 0.000000 0.000000
# 3 -0.002954 -0.002743 0.013381 0.000000 0.000000 0.000000
# 4 0.000000 0.000000 0.000000 0.042204 0.000000 0.000000
# 5 0.000000 0.000000 0.000000 0.000000 0.031727 0.000000
# 6 0.000000 0.000000 0.000000 0.000000 0.000000 0.026901
#
#
# Mechanical properties :
#
#
# Convention : Reuss Voigt Hill
#
# Bulk Modulus (GPa) = 56.80307 63.87504 60.33905
# Shear Modulus (GPa) = 28.32198 30.27124 29.29661
#
# Velocity S-wave (km/s) = 3.83625 3.96607 3.90170
# Velocity P-wave (km/s) = 7.00990 7.35962 7.18689
#
# Compressibility (1/GPa) = 0.01760468
#
# Stress axis : x y z
#
# Youngs Moduli (GPa) = 88.92883 52.36589 74.73068
#
# Poissons Ratio (x) = 0.38555 0.22074
# Poissons Ratio (y) = 0.65474 0.20496
# Poissons Ratio (z) = 0.26268 0.14362
#
# Static dielectric constant tensor:
#      x y z
#    x 3.911800 0.000000 0.000000 
#    y 0.000000 3.303490 0.000000 
#    z 0.000000 0.000000 3.462310 
# 
# 
# High freq. dielectric constant tensor:
#      x y z
#    x 1.768640 0.000000 0.000000 
#    y 0.000000 1.729060 0.000000 
#    z 0.000000 0.000000 1.743980 
# 
# From -- ./inp_files/5375.got.cif
#   From: 2010.03.12/outbox.cif.g09.slc.cpg/sg35_3_cif.got.tgz:5375.got - 2010.04.14 02:02:04.
