data_PCOD8172100
_publ_section_title
;
Structure prediction by ZEFSAII (Michael W. Deem and Ramdas Pophale) SiO2 
 PCOD8172100
Probable space group: P N N 2
;
_chemical_formula_sum "Si O2"
_cell_formula_units_Z 32
_cell_length_a 8.126366
_cell_length_b 29.071757
_cell_length_c 6.535096
_cell_angle_alpha 90.000000
_cell_angle_beta 90.000000
_cell_angle_gamma 90.000000
_cell_volume 1543.901645
_symmetry_space_group_name_H-M "P N N 2"
_symmetry_group_IT_number 34
_symmetry_cell_setting 'orthorhombic'
loop_
_space_group_symop_operation_xyz
x,y,z
-x,-y,z
1/2-x,1/2+y,1/2+z
1/2+x,1/2-y,1/2+z
loop_
_atom_site_type_symbol
_atom_site_label
_atom_site_fract_x
_atom_site_fract_y
_atom_site_fract_z
Si Si1 0.911347 0.632124 0.369880
Si Si2 0.337533 0.707880 0.410612
Si Si3 0.605919 0.457504 0.531771
Si Si4 0.344609 0.579582 0.943488
Si Si5 0.609992 0.957027 0.767814
Si Si6 0.466089 0.375372 0.280897
Si Si7 0.451483 0.214280 0.610347
Si Si8 0.124456 0.654153 0.728263
O O1 0.722283 0.620275 0.341247
O O2 0.010591 0.590199 0.271237
O O3 0.948182 0.677949 0.243217
O O4 0.956242 0.638439 0.611078
O O5 0.475739 0.677556 0.297026
O O6 0.425941 0.743949 0.560327
O O7 0.212529 0.729754 0.239217
O O8 0.239136 0.672520 0.549216
O O9 0.500000 0.500000 0.445458
O O10 0.575613 0.453210 0.773585
O O11 0.799263 0.466864 0.484438
O O12 0.562471 0.408579 0.433652
O O13 0.207181 0.611729 0.841337
O O14 0.256363 0.546458 0.104367
O O15 0.491349 0.608864 0.049115
O O16 0.500000 0.000000 0.705784
O O17 0.405836 0.194278 0.389866
#
# Coordination Sequence:
#
# PCOD8172100 Si02
#       8
#     4   4   4   4   4   4   4   4
#     4  11  24  42  65  97 128 171 212 264 330 387
#     4  11  25  41  65  95 127 167 216 264 327 379
#     4  11  23  42  66  94 127 173 215 264 326 388
#     4  11  21  44  68  88 130 175 214 264 328 389
#     4  11  23  42  66  95 133 164 213 274 322 384
#     4  11  24  42  65  95 131 166 214 270 321 385
#     4  11  25  42  65  95 128 169 215 268 319 392
#     4  11  21  45  66  87 131 172 209 264 325 386
#
# _framework density 20.726707000000001
#
# number of rings (size 3 to 8) (size 9 to 14) (size 15 to 20)
#    0.000    1.000    5.000    2.250    3.500    6.500 
#    2.250    0.000    0.000    0.000    0.000    0.000 
#    0.000    0.000    0.000    0.000    0.000    0.000 
#
# Total GULP energy -396762.940530 kJ/mol
# GULP energy per Si atom -12398.841892 kJ/mol
# Density = 2.067953 g / cm^3
# Si number density = 20.726707 Si / 1000 Ang^3
#
#
#
# Elastic Constant Matrix: (Units=GPa)
#
#
# Indices 1 2 3 4 5 6 
#
# 1 117.9166 34.8881 37.6110 0.0000 0.0000 0.0000
# 2 34.8881 99.3269 22.9851 0.0000 0.0000 0.0000
# 3 37.6110 22.9851 101.7680 0.0000 0.0000 0.0000
# 4 0.0000 0.0000 0.0000 27.1576 0.0000 0.0000
# 5 0.0000 0.0000 0.0000 0.0000 30.8023 0.0000
# 6 0.0000 0.0000 0.0000 0.0000 0.0000 30.4337
#
#
#
# Elastic Compliance Matrix: (Units=1/GPa)
#
#
# Indices 1 2 3 4 5 6 
#
# 1 0.010350 -0.002902 -0.003170 0.000000 0.000000 0.000000
# 2 -0.002902 0.011437 -0.001511 0.000000 0.000000 0.000000
# 3 -0.003170 -0.001511 0.011339 0.000000 0.000000 0.000000
# 4 0.000000 0.000000 0.000000 0.036822 0.000000 0.000000
# 5 0.000000 0.000000 0.000000 0.000000 0.032465 0.000000
# 6 0.000000 0.000000 0.000000 0.000000 0.000000 0.032858
#
#
# Mechanical properties :
#
#
# Convention : Reuss Voigt Hill
#
# Bulk Modulus (GPa) = 55.67556 56.66442 56.16999
# Shear Modulus (GPa) = 31.96464 32.58054 32.27259
#
# Velocity S-wave (km/s) = 3.93134 3.96903 3.95023
# Velocity P-wave (km/s) = 6.89401 6.95719 6.92567
#
# Compressibility (1/GPa) = 0.01796120
#
# Stress axis : x y z
#
# Youngs Moduli (GPa) = 96.61643 87.43845 88.19193
#
# Poissons Ratio (x) = 0.25374 0.27955
# Poissons Ratio (y) = 0.28038 0.13322
# Poissons Ratio (z) = 0.30625 0.13208
#
# Static dielectric constant tensor:
#      x y z
#    x 3.908910 0.000000 0.000000 
#    y 0.000000 3.718640 0.000000 
#    z 0.000000 0.000000 4.071670 
# 
# 
# High freq. dielectric constant tensor:
#      x y z
#    x 1.808850 0.000000 0.000000 
#    y 0.000000 1.811900 0.000000 
#    z 0.000000 0.000000 1.819570 
# 
# From -- ./inp_files/658.got.cif
#   From: 2010.03.12/outbox.cif.g09.slc.cpg/sg34_1_cif.got.tgz:658.got - 2010.04.14 01:56:33.
