data_PCOD8172284
_publ_section_title
;
Structure prediction by ZEFSAII (Michael W. Deem and Ramdas Pophale) SiO2 
 PCOD8172284
Probable space group: C M M 2
;
_chemical_formula_sum "Si O2"
_cell_formula_units_Z 64
_cell_length_a 9.068347
_cell_length_b 28.360654
_cell_length_c 15.531401
_cell_angle_alpha 90.000000
_cell_angle_beta 90.000000
_cell_angle_gamma 90.000000
_cell_volume 3994.431743
_symmetry_space_group_name_H-M "C M M 2"
_symmetry_group_IT_number 35
_symmetry_cell_setting 'orthorhombic'
loop_
_space_group_symop_operation_xyz
x,y,z
-x,-y,z
-x,y,z
x,-y,z
1/2+x,1/2+y,z
1/2-x,1/2-y,z
1/2-x,1/2+y,z
1/2+x,1/2-y,z
loop_
_atom_site_type_symbol
_atom_site_label
_atom_site_fract_x
_atom_site_fract_y
_atom_site_fract_z
Si Si1 0.824986 0.447497 0.265470
Si Si2 0.333900 0.556047 0.765470
Si Si3 0.672973 0.298360 0.165880
Si Si4 0.172429 0.553991 0.596194
Si Si5 0.825773 0.388225 0.428186
Si Si6 0.672973 0.701640 0.365060
Si Si7 0.327571 0.053991 0.934746
Si Si8 0.674227 0.111775 0.102754
O O1 0.757033 0.500000 0.265470
O O2 0.769022 0.420585 0.349984
O O3 0.769022 0.420585 0.180956
O O4 0.000000 0.450612 0.265470
O O5 0.500000 0.575110 0.765470
O O6 0.326161 0.500000 0.765470
O O7 0.253860 0.574903 0.679863
O O8 0.253860 0.574903 0.851077
O O9 0.500000 0.293939 0.148795
O O10 0.750000 0.250000 0.138094
O O11 0.708050 0.309927 0.265470
O O12 0.741014 0.338852 0.106113
O O13 0.219017 0.500000 0.576857
O O14 0.219176 0.585710 0.515671
O O15 0.000000 0.557066 0.614443
O O16 0.741014 0.338852 0.424827
O O17 0.000000 0.379049 0.421930
O O18 0.500000 0.706061 0.382145
O O19 0.750000 0.750000 0.392846
O O20 0.500000 0.057066 0.916497
O O21 0.280983 0.000000 0.954083
O O22 0.280824 0.085710 0.015270
O O23 0.500000 0.120951 0.109010
#
# Coordination Sequence:
#
# PCOD8172284 Si02
#       8
#     8   8   8   8   8   8   8   8
#     4   9  16  26  42  65  94 127 160 189 218 263
#     4   9  17  29  45  65  90 123 160 199 241 277
#     4  10  20  33  49  67  90 120 157 199 241 280
#     4   9  17  29  46  69  96 126 160 196 232 274
#     4  10  18  29  47  70  95 124 158 194 233 275
#     4  10  20  33  49  67  90 120 157 199 241 280
#     4   9  17  29  46  69  96 126 160 196 232 274
#     4  10  18  29  47  70  95 124 158 194 233 275
#
# _framework density 16.022303000000001
#
# number of rings (size 3 to 8) (size 9 to 14) (size 15 to 20)
#    0.000    2.500    1.250    1.875    0.000    6.500 
#    0.000    0.000    0.000    3.000    0.000    0.875 
#    0.000    0.000    0.000    0.000    0.000    0.000 
#
# Total GULP energy -396849.254840 kJ/mol
# GULP energy per Si atom -12401.539214 kJ/mol
# Density = 1.598584 g / cm^3
# Si number density = 16.022303 Si / 1000 Ang^3
#
#
#
# Elastic Constant Matrix: (Units=GPa)
#
#
# Indices 1 2 3 4 5 6 
#
# 1 61.8585 48.0288 53.9020 0.0000 0.0000 0.0000
# 2 48.0288 113.2789 65.8861 0.0000 0.0000 0.0000
# 3 53.9020 65.8861 138.1203 0.0000 0.0000 0.0000
# 4 0.0000 0.0000 0.0000 11.7041 0.0000 0.0000
# 5 0.0000 0.0000 0.0000 0.0000 17.9555 0.0000
# 6 0.0000 0.0000 0.0000 0.0000 0.0000 24.3021
#
#
#
# Elastic Compliance Matrix: (Units=1/GPa)
#
#
# Indices 1 2 3 4 5 6 
#
# 1 0.028787 -0.007849 -0.007490 0.000000 0.000000 0.000000
# 2 -0.007849 0.014357 -0.003786 0.000000 0.000000 0.000000
# 3 -0.007490 -0.003786 0.011969 0.000000 0.000000 0.000000
# 4 0.000000 0.000000 0.000000 0.085440 0.000000 0.000000
# 5 0.000000 0.000000 0.000000 0.000000 0.055693 0.000000
# 6 0.000000 0.000000 0.000000 0.000000 0.000000 0.041149
#
#
# Mechanical properties :
#
#
# Convention : Reuss Voigt Hill
#
# Bulk Modulus (GPa) = 59.29848 72.09907 65.69877
# Shear Modulus (GPa) = 17.77681 20.48840 19.13261
#
# Velocity S-wave (km/s) = 3.33454 3.57983 3.45936
# Velocity P-wave (km/s) = 7.20526 7.88567 7.55313
#
# Compressibility (1/GPa) = 0.01686384
#
# Stress axis : x y z
#
# Youngs Moduli (GPa) = 34.73846 69.65039 83.54917
#
# Poissons Ratio (x) = 0.54666 0.62579
# Poissons Ratio (y) = 0.27265 0.31630
# Poissons Ratio (z) = 0.26019 0.26368
#
# Static dielectric constant tensor:
#      x y z
#    x 2.915350 0.000000 0.000000 
#    y 0.000000 2.925900 0.000000 
#    z 0.000000 0.000000 3.021340 
# 
# 
# High freq. dielectric constant tensor:
#      x y z
#    x 1.607610 0.000000 0.000000 
#    y 0.000000 1.597720 0.000000 
#    z 0.000000 0.000000 1.606040 
# 
# From -- ./inp_files/16144.got.cif
#   From: 2010.03.12/outbox.cif.g09.slc.cpg/sg35_9_cif.got.tgz:16144.got - 2010.04.14 02:02:04.
