data_PCOD8172101
_publ_section_title
;
Structure prediction by ZEFSAII (Michael W. Deem and Ramdas Pophale) SiO2 
 PCOD8172101
Probable space group: P N N 2
;
_chemical_formula_sum "Si O2"
_cell_formula_units_Z 18
_cell_length_a 6.839598
_cell_length_b 21.075640
_cell_length_c 6.837822
_cell_angle_alpha 90.000000
_cell_angle_beta 90.000000
_cell_angle_gamma 90.000000
_cell_volume 985.664555
_symmetry_space_group_name_H-M "P N N 2"
_symmetry_group_IT_number 34
_symmetry_cell_setting 'orthorhombic'
loop_
_space_group_symop_operation_xyz
x,y,z
-x,-y,z
1/2-x,1/2+y,1/2+z
1/2+x,1/2-y,1/2+z
loop_
_atom_site_type_symbol
_atom_site_label
_atom_site_fract_x
_atom_site_fract_y
_atom_site_fract_z
Si Si1 0.150997 0.621802 0.708870
Si Si2 0.127305 0.313246 0.410472
Si Si3 0.849829 0.621679 0.009996
Si Si4 0.500000 0.000000 0.358545
Si Si5 0.948430 0.186735 0.231669
O O1 0.370034 0.643286 0.671026
O O2 0.029042 0.646307 0.526484
O O3 0.135607 0.544881 0.720271
O O4 0.050884 0.649552 0.910106
O O5 0.187975 0.356824 0.229096
O O6 0.319038 0.297512 0.539902
O O7 0.026678 0.249993 0.332263
O O8 0.861377 0.544655 0.994638
O O9 0.667469 0.646144 0.887900
#
# Coordination Sequence:
#
# PCOD8172101 Si02
#       5
#     4   4   4   2   4
#     4   9  21  40  62  84 125 158 195 252 295 355
#     4  11  22  37  61  94 119 155 201 248 307 359
#     4   9  21  40  60  86 123 158 197 248 297 355
#     4   8  20  44  60  80 124 160 204 246 296 352
#     4  11  22  37  62  92 119 154 200 249 306 359
#
# _framework density 18.261792
#
# number of rings (size 3 to 8) (size 9 to 14) (size 15 to 20)
#    1.333    0.889    0.000    2.667    0.000    8.889 
#    0.000    0.000    4.889    0.000    0.000    0.000 
#    0.000    0.000    0.000    0.000    0.000    0.000 
#
# Total GULP energy -222996.225280 kJ/mol
# GULP energy per Si atom -12388.679182 kJ/mol
# Density = 1.822023 g / cm^3
# Si number density = 18.261792 Si / 1000 Ang^3
#
#
#
# Elastic Constant Matrix: (Units=GPa)
#
#
# Indices 1 2 3 4 5 6 
#
# 1 135.2706 70.7477 70.7621 0.0000 0.0000 0.0000
# 2 70.7477 173.6195 70.7523 0.0000 0.0000 0.0000
# 3 70.7621 70.7523 135.0367 0.0000 0.0000 0.0000
# 4 0.0000 0.0000 0.0000 -4.2958 0.0000 0.0000
# 5 0.0000 0.0000 0.0000 0.0000 20.6984 0.0000
# 6 0.0000 0.0000 0.0000 0.0000 0.0000 13.2851
#
#
#
# Elastic Compliance Matrix: (Units=1/GPa)
#
#
# Indices 1 2 3 4 5 6 
#
# 1 0.011125 -0.002743 -0.004392 0.000000 0.000000 0.000000
# 2 -0.002743 0.008000 -0.002754 0.000000 0.000000 0.000000
# 3 -0.004392 -0.002754 0.011150 0.000000 0.000000 0.000000
# 4 0.000000 0.000000 0.000000 -0.232786 0.000000 0.000000
# 5 0.000000 0.000000 0.000000 0.000000 0.048313 0.000000
# 6 0.000000 0.000000 0.000000 0.000000 0.000000 0.075272
#
#
# Mechanical properties :
#
#
# Convention : Reuss Voigt Hill
#
# Bulk Modulus (GPa) = 95.27815 96.49455 95.88635
# Shear Modulus (GPa) = -89.85046 21.38186 -34.23430
#
# Velocity S-wave (km/s) = -7.02198 3.42548 -4.33441
# Velocity P-wave (km/s) = 3.66844 8.28248 5.25081
#
# Compressibility (1/GPa) = 0.01049559
#
# Stress axis : x y z
#
# Youngs Moduli (GPa) = 89.88652 125.00190 89.68578
#
# Poissons Ratio (x) = 0.34293 0.39394
# Poissons Ratio (y) = 0.24659 0.24699
# Poissons Ratio (z) = 0.39482 0.34425
#
# Static dielectric constant tensor:
#      x y z
#    x 3.335450 0.000000 0.000000 
#    y 0.000000 3.357300 0.000000 
#    z 0.000000 0.000000 3.310180 
# 
# 
# High freq. dielectric constant tensor:
#      x y z
#    x 1.704430 0.000000 0.000000 
#    y 0.000000 1.709890 0.000000 
#    z 0.000000 0.000000 1.704290 
# 
# From -- ./inp_files/162.got.cif
#   From: 2010.03.12/outbox.cif.g09.slc.cpg/sg34_1_cif.got.tgz:162.got - 2010.04.14 01:56:33.
