data_PCOD8172837
_publ_section_title
;
Structure prediction by ZEFSAII (Michael W. Deem and Ramdas Pophale) SiO2 
 PCOD8172837
Probable space group: C M M 2
;
_chemical_formula_sum "Si O2"
_cell_formula_units_Z 64
_cell_length_a 29.375104
_cell_length_b 8.601359
_cell_length_c 12.589533
_cell_angle_alpha 90.000000
_cell_angle_beta 90.000000
_cell_angle_gamma 90.000000
_cell_volume 3180.944618
_symmetry_space_group_name_H-M "C M M 2"
_symmetry_group_IT_number 35
_symmetry_cell_setting 'orthorhombic'
loop_
_space_group_symop_operation_xyz
x,y,z
-x,-y,z
-x,y,z
x,-y,z
1/2+x,1/2+y,z
1/2-x,1/2-y,z
1/2-x,1/2+y,z
1/2+x,1/2-y,z
loop_
_atom_site_type_symbol
_atom_site_label
_atom_site_fract_x
_atom_site_fract_y
_atom_site_fract_z
Si Si1 0.887254 0.184568 0.523190
Si Si2 0.174350 0.322412 0.203253
Si Si3 0.548635 0.315120 0.343673
Si Si4 0.297001 0.821091 0.969300
Si Si5 0.085704 0.821531 0.135990
Si Si6 0.392366 0.314225 0.909862
Si Si7 0.297222 0.181584 0.438195
Si Si8 0.447119 0.183855 0.713372
O O1 0.912369 0.252906 0.418712
O O2 0.835942 0.244866 0.513707
O O3 0.915522 0.245896 0.622408
O O4 0.887287 0.000000 0.529566
O O5 0.156075 0.500000 0.209398
O O6 0.134182 0.199172 0.192480
O O7 0.199591 0.277364 0.312576
O O8 0.204772 0.301873 0.097541
O O9 0.500000 0.266463 0.392234
O O10 0.554098 0.500000 0.338873
O O11 0.550856 0.249347 0.222410
O O12 0.250000 0.750000 0.924485
O O13 0.339337 0.735410 0.911507
O O14 0.300073 0.000000 0.936041
O O15 0.075028 0.000000 0.117398
O O16 0.085154 0.746249 0.019185
O O17 0.394400 0.500000 0.899236
O O18 0.423240 0.236142 0.821448
O O19 0.250000 0.250000 0.480686
O O20 0.298407 0.000000 0.457769
O O21 0.500000 0.243260 0.707585
O O22 0.446349 0.000000 0.704855
#
# Coordination Sequence:
#
# PCOD8172837 Si02
#       8
#     8   8   8   8   8   8   8   8
#     4  11  22  39  63  88 118 155 198 249 299 353
#     4   9  18  31  50  78 117 161 201 243 287 341
#     4   9  17  30  52  84 118 151 187 232 290 351
#     4  10  19  33  54  84 122 164 205 246 293 348
#     4   9  17  31  53  82 118 156 193 239 291 347
#     4  10  21  37  60  89 119 155 200 249 298 353
#     4  11  22  36  56  85 121 161 203 245 294 352
#     4  11  25  45  67  89 116 153 198 249 303 357
#
# _framework density 20.119810999999999
#
# number of rings (size 3 to 8) (size 9 to 14) (size 15 to 20)
#    0.000    2.000    1.250    2.625    0.000    3.500 
#    0.000    1.875    0.000    1.125    0.000    0.000 
#    0.000    0.000    0.000    0.000    0.000    0.000 
#
# Total GULP energy -396489.370203 kJ/mol
# GULP energy per Si atom -12390.292819 kJ/mol
# Density = 2.007402 g / cm^3
# Si number density = 20.119811 Si / 1000 Ang^3
#
#
#
# Elastic Constant Matrix: (Units=GPa)
#
#
# Indices 1 2 3 4 5 6 
#
# 1 149.4300 34.0048 73.6652 0.0000 0.0000 0.0000
# 2 34.0048 61.4120 31.0651 0.0000 0.0000 0.0000
# 3 73.6652 31.0651 110.9936 0.0000 0.0000 0.0000
# 4 0.0000 0.0000 0.0000 24.7784 0.0000 0.0000
# 5 0.0000 0.0000 0.0000 0.0000 25.7460 0.0000
# 6 0.0000 0.0000 0.0000 0.0000 0.0000 26.9483
#
#
#
# Elastic Compliance Matrix: (Units=1/GPa)
#
#
# Indices 1 2 3 4 5 6 
#
# 1 0.010294 -0.002614 -0.006101 0.000000 0.000000 0.000000
# 2 -0.002614 0.019633 -0.003760 0.000000 0.000000 0.000000
# 3 -0.006101 -0.003760 0.014111 0.000000 0.000000 0.000000
# 4 0.000000 0.000000 0.000000 0.040358 0.000000 0.000000
# 5 0.000000 0.000000 0.000000 0.000000 0.038841 0.000000
# 6 0.000000 0.000000 0.000000 0.000000 0.000000 0.037108
#
#
# Mechanical properties :
#
#
# Convention : Reuss Voigt Hill
#
# Bulk Modulus (GPa) = 52.38703 66.58954 59.48829
# Shear Modulus (GPa) = 26.08823 27.70124 26.89473
#
# Velocity S-wave (km/s) = 3.60480 3.71457 3.66010
# Velocity P-wave (km/s) = 6.58940 7.18093 6.89151
#
# Compressibility (1/GPa) = 0.01908869
#
# Stress axis : x y z
#
# Youngs Moduli (GPa) = 97.13960 50.93488 70.86780
#
# Poissons Ratio (x) = 0.13315 0.43234
# Poissons Ratio (y) = 0.25394 0.26645
# Poissons Ratio (z) = 0.59261 0.19151
#
# Static dielectric constant tensor:
#      x y z
#    x 3.695640 0.000000 0.000000 
#    y 0.000000 3.518190 0.000000 
#    z 0.000000 0.000000 3.765810 
# 
# 
# High freq. dielectric constant tensor:
#      x y z
#    x 1.787900 0.000000 0.000000 
#    y 0.000000 1.773950 0.000000 
#    z 0.000000 0.000000 1.777550 
# 
# From -- ./inp_files/14534.got.cif
#   From: 2010.03.12/outbox.cif.g09.slc.cpg/sg35_8_cif.got.tgz:14534.got - 2010.04.14 02:02:04.
