data_PCOD8172813
_publ_section_title
;
Structure prediction by ZEFSAII (Michael W. Deem and Ramdas Pophale) SiO2 
 PCOD8172813
Probable space group: C M M 2
;
_chemical_formula_sum "Si O2"
_cell_formula_units_Z 64
_cell_length_a 8.812771
_cell_length_b 19.335110
_cell_length_c 20.275255
_cell_angle_alpha 90.000000
_cell_angle_beta 90.000000
_cell_angle_gamma 90.000000
_cell_volume 3454.820256
_symmetry_space_group_name_H-M "C M M 2"
_symmetry_group_IT_number 35
_symmetry_cell_setting 'orthorhombic'
loop_
_space_group_symop_operation_xyz
x,y,z
-x,-y,z
-x,y,z
x,-y,z
1/2+x,1/2+y,z
1/2-x,1/2-y,z
1/2-x,1/2+y,z
1/2+x,1/2-y,z
loop_
_atom_site_type_symbol
_atom_site_label
_atom_site_fract_x
_atom_site_fract_y
_atom_site_fract_z
Si Si1 0.319974 0.077384 0.580560
Si Si2 0.823165 0.920035 0.943950
Si Si3 0.326473 0.081510 0.220081
Si Si4 0.320477 0.677277 0.324498
Si Si5 0.831860 0.082046 0.089484
Si Si6 0.180749 0.676845 0.463847
Si Si7 0.322372 0.178993 0.841882
Si Si8 0.179405 0.678141 0.692966
O O1 0.500000 0.073077 0.582206
O O2 0.267345 0.118833 0.515783
O O3 0.260532 0.116784 0.645866
O O4 0.250222 0.000000 0.579009
O O5 0.724497 0.882293 0.889520
O O6 0.000000 0.906943 0.930707
O O7 0.781524 0.000000 0.937582
O O8 0.779048 0.891770 0.017149
O O9 0.500000 0.101964 0.233701
O O10 0.217221 0.118868 0.271427
O O11 0.283944 0.106459 0.146114
O O12 0.299468 0.000000 0.227766
O O13 0.500000 0.685185 0.332324
O O14 0.250000 0.750000 0.301009
O O15 0.247604 0.654114 0.393588
O O16 0.000000 0.111001 0.106007
O O17 0.840254 0.000000 0.085886
O O18 0.250000 0.750000 0.486380
O O19 0.000000 0.683653 0.459031
O O20 0.500000 0.188796 0.843819
O O21 0.250000 0.250000 0.867275
O O22 0.267631 0.161392 0.767533
O O23 0.250000 0.750000 0.668241
O O24 0.000000 0.685469 0.687444
#
# Coordination Sequence:
#
# PCOD8172813 Si02
#       8
#     8   8   8   8   8   8   8   8
#     4   9  18  32  51  76 104 132 164 206 254 300
#     4   9  18  33  53  76 104 137 171 211 259 309
#     4  10  20  34  54  80 108 137 171 212 256 304
#     4  11  22  37  56  77 105 138 173 214 258 305
#     4   8  15  30  51  74 101 135 173 210 253 306
#     4  10  19  33  54  76  99 132 171 208 250 303
#     4  10  20  33  51  75 103 136 174 217 260 306
#     4   9  18  33  53  74  98 132 171 209 251 302
#
# _framework density 18.524843000000001
#
# number of rings (size 3 to 8) (size 9 to 14) (size 15 to 20)
#    0.000    2.500    0.000    4.125    0.000    3.000 
#    0.000    5.000    0.000    6.000    0.000    0.000 
#    0.000    0.000    0.000    0.000    0.000    0.000 
#
# Total GULP energy -396768.086188 kJ/mol
# GULP energy per Si atom -12399.002693 kJ/mol
# Density = 1.848268 g / cm^3
# Si number density = 18.524843 Si / 1000 Ang^3
#
#
#
# Elastic Constant Matrix: (Units=GPa)
#
#
# Indices 1 2 3 4 5 6 
#
# 1 70.2481 32.8786 38.8377 0.0000 0.0000 0.0000
# 2 32.8786 96.4715 69.7989 0.0000 0.0000 0.0000
# 3 38.8377 69.7989 123.3321 0.0000 0.0000 0.0000
# 4 0.0000 0.0000 0.0000 23.9330 0.0000 0.0000
# 5 0.0000 0.0000 0.0000 0.0000 24.5236 0.0000
# 6 0.0000 0.0000 0.0000 0.0000 0.0000 27.7541
#
#
#
# Elastic Compliance Matrix: (Units=1/GPa)
#
#
# Indices 1 2 3 4 5 6 
#
# 1 0.017879 -0.003420 -0.003694 0.000000 0.000000 0.000000
# 2 -0.003420 0.018208 -0.009227 0.000000 0.000000 0.000000
# 3 -0.003694 -0.009227 0.014494 0.000000 0.000000 0.000000
# 4 0.000000 0.000000 0.000000 0.041783 0.000000 0.000000
# 5 0.000000 0.000000 0.000000 0.000000 0.040777 0.000000
# 6 0.000000 0.000000 0.000000 0.000000 0.000000 0.036031
#
#
# Mechanical properties :
#
#
# Convention : Reuss Voigt Hill
#
# Bulk Modulus (GPa) = 55.87893 63.67581 59.77737
# Shear Modulus (GPa) = 24.05923 25.14456 24.60189
#
# Velocity S-wave (km/s) = 3.60773 3.68821 3.64819
# Velocity P-wave (km/s) = 6.89813 7.25155 7.07705
#
# Compressibility (1/GPa) = 0.01789583
#
# Stress axis : x y z
#
# Youngs Moduli (GPa) = 55.93297 54.92201 68.99537
#
# Poissons Ratio (x) = 0.18785 0.25489
# Poissons Ratio (y) = 0.19131 0.63665
# Poissons Ratio (z) = 0.20663 0.50679
#
# Static dielectric constant tensor:
#      x y z
#    x 3.309040 0.000000 0.000000 
#    y 0.000000 3.347860 0.000000 
#    z 0.000000 0.000000 3.636430 
# 
# 
# High freq. dielectric constant tensor:
#      x y z
#    x 1.710380 0.000000 0.000000 
#    y 0.000000 1.701380 0.000000 
#    z 0.000000 0.000000 1.730850 
# 
# From -- ./inp_files/18312.got.cif
#   From: 2010.03.12/outbox.cif.g09.slc.cpg/sg35_10_cif.got.tgz:18312.got - 2010.04.14 02:02:04.
