data_PCOD8172238
_publ_section_title
;
Structure prediction by ZEFSAII (Michael W. Deem and Ramdas Pophale) SiO2 
 PCOD8172238
Probable space group: C M M 2
;
_chemical_formula_sum "Si O2"
_cell_formula_units_Z 64
_cell_length_a 8.918803
_cell_length_b 31.033507
_cell_length_c 11.922114
_cell_angle_alpha 90.000000
_cell_angle_beta 90.000000
_cell_angle_gamma 90.000000
_cell_volume 3299.823402
_symmetry_space_group_name_H-M "C M M 2"
_symmetry_group_IT_number 35
_symmetry_cell_setting 'orthorhombic'
loop_
_space_group_symop_operation_xyz
x,y,z
-x,-y,z
-x,y,z
x,-y,z
1/2+x,1/2+y,z
1/2-x,1/2-y,z
1/2-x,1/2+y,z
1/2+x,1/2-y,z
loop_
_atom_site_type_symbol
_atom_site_label
_atom_site_fract_x
_atom_site_fract_y
_atom_site_fract_z
Si Si1 0.327575 0.952074 0.768110
Si Si2 0.678146 0.577903 0.986942
Si Si3 0.823914 0.793556 0.227988
Si Si4 0.176914 0.874835 0.380837
Si Si5 0.677076 0.325558 0.991481
Si Si6 0.322615 0.706112 0.751740
Si Si7 0.822227 0.047700 0.226258
Si Si8 0.677134 0.872102 0.620381
O O1 0.500000 0.943785 0.797756
O O2 0.235887 0.949364 0.882698
O O3 0.272361 0.916979 0.677761
O O4 0.302660 0.000000 0.717271
O O5 0.500000 0.577235 0.983938
O O6 0.742330 0.626383 0.978852
O O7 0.740206 0.557266 0.101912
O O8 0.750000 0.750000 0.275115
O O9 0.782370 0.832714 0.309305
O O10 0.000000 0.786407 0.223353
O O11 0.757862 0.803333 0.103584
O O12 0.235703 0.916786 0.313880
O O13 0.270665 0.873093 0.493340
O O14 0.000000 0.877221 0.406437
O O15 0.500000 0.329190 0.004207
O O16 0.723744 0.298585 0.882153
O O17 0.500000 0.707720 0.735282
O O18 0.250000 0.750000 0.705474
O O19 0.259435 0.666550 0.682314
O O20 0.000000 0.050600 0.221468
O O21 0.768610 0.000000 0.264093
O O22 0.500000 0.864879 0.626471
#
# Coordination Sequence:
#
# PCOD8172238 Si02
#       8
#     8   8   8   8   8   8   8   8
#     4  10  22  39  57  81 116 153 187 232 290 343
#     4  10  17  32  59  89 116 146 184 227 280 341
#     4  10  20  36  57  83 114 147 180 221 275 330
#     4  10  21  38  58  79 110 148 187 234 285 330
#     4   9  17  32  57  86 117 147 177 223 278 331
#     4  11  22  38  61  88 118 149 186 230 282 339
#     4   9  17  31  56  88 116 143 180 229 284 340
#     4  11  24  41  59  80 110 150 198 242 284 333
#
# _framework density 19.394977999999998
#
# number of rings (size 3 to 8) (size 9 to 14) (size 15 to 20)
#    0.000    2.000    2.500    1.500    0.000    2.750 
#    0.000    3.125    0.000    0.750    0.000    0.000 
#    0.000    0.000    0.000    0.000    0.000    0.000 
#
# Total GULP energy -396819.200492 kJ/mol
# GULP energy per Si atom -12400.600015 kJ/mol
# Density = 1.935083 g / cm^3
# Si number density = 19.394978 Si / 1000 Ang^3
#
#
#
# Elastic Constant Matrix: (Units=GPa)
#
#
# Indices 1 2 3 4 5 6 
#
# 1 43.5748 46.1047 44.7608 0.0000 0.0000 0.0000
# 2 46.1047 179.1844 69.3133 0.0000 0.0000 0.0000
# 3 44.7608 69.3133 135.5851 0.0000 0.0000 0.0000
# 4 0.0000 0.0000 0.0000 7.4576 0.0000 0.0000
# 5 0.0000 0.0000 0.0000 0.0000 21.1799 0.0000
# 6 0.0000 0.0000 0.0000 0.0000 0.0000 23.4218
#
#
#
# Elastic Compliance Matrix: (Units=1/GPa)
#
#
# Indices 1 2 3 4 5 6 
#
# 1 0.039926 -0.006450 -0.009883 0.000000 0.000000 0.000000
# 2 -0.006450 0.007998 -0.001960 0.000000 0.000000 0.000000
# 3 -0.009883 -0.001960 0.011640 0.000000 0.000000 0.000000
# 4 0.000000 0.000000 0.000000 0.134091 0.000000 0.000000
# 5 0.000000 0.000000 0.000000 0.000000 0.047215 0.000000
# 6 0.000000 0.000000 0.000000 0.000000 0.000000 0.042695
#
#
# Mechanical properties :
#
#
# Convention : Reuss Voigt Hill
#
# Bulk Modulus (GPa) = 43.51909 75.41132 59.46521
# Shear Modulus (GPa) = 15.25269 23.62290 19.43779
#
# Velocity S-wave (km/s) = 2.80737 3.49376 3.16920
# Velocity P-wave (km/s) = 5.74417 7.43246 6.64217
#
# Compressibility (1/GPa) = 0.02297842
#
# Stress axis : x y z
#
# Youngs Moduli (GPa) = 25.04647 125.02431 85.91011
#
# Poissons Ratio (x) = 0.80639 0.84909
# Poissons Ratio (y) = 0.16155 0.16835
# Poissons Ratio (z) = 0.24755 0.24500
#
# Static dielectric constant tensor:
#      x y z
#    x 3.197190 0.000000 0.000000 
#    y 0.000000 3.808440 0.000000 
#    z 0.000000 0.000000 3.568700 
# 
# 
# High freq. dielectric constant tensor:
#      x y z
#    x 1.723340 0.000000 0.000000 
#    y 0.000000 1.774180 0.000000 
#    z 0.000000 0.000000 1.753600 
# 
# From -- ./inp_files/11934.got.cif
#   From: 2010.03.12/outbox.cif.g09.slc.cpg/sg35_6_cif.got.tgz:11934.got - 2010.04.14 02:02:04.
