data_PCOD8172691
_publ_section_title
;
Structure prediction by ZEFSAII (Michael W. Deem and Ramdas Pophale) SiO2 
 PCOD8172691
Probable space group: C M M 2
;
_chemical_formula_sum "Si O2"
_cell_formula_units_Z 48
_cell_length_a 15.633652
_cell_length_b 8.912206
_cell_length_c 17.276102
_cell_angle_alpha 90.000000
_cell_angle_beta 90.000000
_cell_angle_gamma 90.000000
_cell_volume 2407.084944
_symmetry_space_group_name_H-M "C M M 2"
_symmetry_group_IT_number 35
_symmetry_cell_setting 'orthorhombic'
loop_
_space_group_symop_operation_xyz
x,y,z
-x,-y,z
-x,y,z
x,-y,z
1/2+x,1/2+y,z
1/2-x,1/2-y,z
1/2-x,1/2+y,z
1/2+x,1/2-y,z
loop_
_atom_site_type_symbol
_atom_site_label
_atom_site_fract_x
_atom_site_fract_y
_atom_site_fract_z
Si Si1 0.656962 0.676794 0.672040
Si Si2 0.000000 0.178963 0.108369
Si Si3 0.000000 0.821794 0.283032
Si Si4 0.096766 0.670248 0.524291
Si Si5 0.342818 0.677369 0.007349
Si Si6 0.336043 0.678128 0.377630
Si Si7 0.838959 0.827157 0.838741
O O1 0.664072 0.500000 0.655565
O O2 0.750000 0.750000 0.666554
O O3 0.597720 0.754017 0.608457
O O4 0.612334 0.706673 0.757284
O O5 0.913813 0.239720 0.066894
O O6 0.000000 0.240765 0.195713
O O7 0.000000 0.000000 0.104992
O O8 0.915246 0.763060 0.326226
O O9 0.000000 0.000000 0.283039
O O10 0.131488 0.500000 0.528521
O O11 0.154498 0.764757 0.465429
O O12 0.000000 0.673425 0.493919
O O13 0.331446 0.500000 0.017054
O O14 0.250000 0.750000 0.023205
O O15 0.380605 0.720227 0.921155
O O16 0.329091 0.500000 0.377083
O O17 0.250000 0.750000 0.341951
O O18 0.750000 0.750000 0.830274
O O19 0.818016 0.000000 0.843930
#
# Coordination Sequence:
#
# PCOD8172691 Si02
#       7
#     8   4   4   8   8   8   8
#     4  10  19  32  51  76 107 143 186 230 274 322
#     4   9  18  34  57  84 113 146 182 223 275 331
#     4   9  20  38  59  84 115 146 180 225 275 335
#     4  11  23  38  55  77 109 145 185 231 279 328
#     4   9  17  32  55  81 111 147 186 227 273 324
#     4  11  22  39  62  86 112 146 187 227 277 334
#     4   8  15  28  47  74 103 140 182 225 268 314
#
# _framework density 19.941133000000001
#
# number of rings (size 3 to 8) (size 9 to 14) (size 15 to 20)
#    0.000    2.333    0.833    2.000    0.000    2.333 
#    1.500    0.417    0.000    3.000    0.000    0.000 
#    0.000    0.000    0.000    0.000    0.000    0.000 
#
# Total GULP energy -297364.255877 kJ/mol
# GULP energy per Si atom -12390.177328 kJ/mol
# Density = 1.989575 g / cm^3
# Si number density = 19.941133 Si / 1000 Ang^3
#
#
#
# Elastic Constant Matrix: (Units=GPa)
#
#
# Indices 1 2 3 4 5 6 
#
# 1 117.9471 34.4262 67.3893 0.0000 0.0000 0.0000
# 2 34.4262 65.7881 39.1169 0.0000 0.0000 0.0000
# 3 67.3893 39.1169 157.4314 0.0000 0.0000 0.0000
# 4 0.0000 0.0000 0.0000 22.6854 0.0000 0.0000
# 5 0.0000 0.0000 0.0000 0.0000 20.5782 0.0000
# 6 0.0000 0.0000 0.0000 0.0000 0.0000 24.8454
#
#
#
# Elastic Compliance Matrix: (Units=1/GPa)
#
#
# Indices 1 2 3 4 5 6 
#
# 1 0.011973 -0.003776 -0.004187 0.000000 0.000000 0.000000
# 2 -0.003776 0.019026 -0.003111 0.000000 0.000000 0.000000
# 3 -0.004187 -0.003111 0.008917 0.000000 0.000000 0.000000
# 4 0.000000 0.000000 0.000000 0.044081 0.000000 0.000000
# 5 0.000000 0.000000 0.000000 0.000000 0.048595 0.000000
# 6 0.000000 0.000000 0.000000 0.000000 0.000000 0.040249
#
#
# Mechanical properties :
#
#
# Convention : Reuss Voigt Hill
#
# Bulk Modulus (GPa) = 56.27961 69.22571 62.75266
# Shear Modulus (GPa) = 24.88663 26.97073 25.92868
#
# Velocity S-wave (km/s) = 3.53654 3.68165 3.60983
# Velocity P-wave (km/s) = 6.70525 7.27070 6.99369
#
# Compressibility (1/GPa) = 0.01776842
#
# Stress axis : x y z
#
# Youngs Moduli (GPa) = 83.52447 52.55968 112.14325
#
# Poissons Ratio (x) = 0.19845 0.46952
# Poissons Ratio (y) = 0.31536 0.34890
# Poissons Ratio (z) = 0.34970 0.16352
#
# Static dielectric constant tensor:
#      x y z
#    x 3.463720 0.000000 0.000000 
#    y 0.000000 3.382370 0.000000 
#    z 0.000000 0.000000 4.125110 
# 
# 
# High freq. dielectric constant tensor:
#      x y z
#    x 1.761770 0.000000 0.000000 
#    y 0.000000 1.761360 0.000000 
#    z 0.000000 0.000000 1.789440 
# 
# From -- ./inp_files/15239.got.cif
#   From: 2010.03.12/outbox.cif.g09.slc.cpg/sg35_8_cif.got.tgz:15239.got - 2010.04.14 02:02:04.
