data_PCOD8172610
_publ_section_title
;
Structure prediction by ZEFSAII (Michael W. Deem and Ramdas Pophale) SiO2 
 PCOD8172610
Probable space group: C M M 2
;
_chemical_formula_sum "Si O2"
_cell_formula_units_Z 64
_cell_length_a 28.778439
_cell_length_b 9.145841
_cell_length_c 12.406628
_cell_angle_alpha 90.000000
_cell_angle_beta 90.000000
_cell_angle_gamma 90.000000
_cell_volume 3265.462048
_symmetry_space_group_name_H-M "C M M 2"
_symmetry_group_IT_number 35
_symmetry_cell_setting 'orthorhombic'
loop_
_space_group_symop_operation_xyz
x,y,z
-x,-y,z
-x,y,z
x,-y,z
1/2+x,1/2+y,z
1/2-x,1/2-y,z
1/2-x,1/2+y,z
1/2+x,1/2-y,z
loop_
_atom_site_type_symbol
_atom_site_label
_atom_site_fract_x
_atom_site_fract_y
_atom_site_fract_z
Si Si1 0.553899 0.670206 0.979580
Si Si2 0.396687 0.330260 0.203188
Si Si3 0.293925 0.670682 0.259561
Si Si4 0.948467 0.164822 0.606047
Si Si5 0.204831 0.329355 0.711237
Si Si6 0.894624 0.672059 0.787220
Si Si7 0.316051 0.164752 0.469938
Si Si8 0.421692 0.835275 0.410337
O O1 0.500000 0.718103 0.985308
O O2 0.558052 0.500000 0.950552
O O3 0.581155 0.760664 0.890782
O O4 0.578916 0.706763 0.091325
O O5 0.402221 0.500000 0.234501
O O6 0.341840 0.288720 0.198254
O O7 0.422633 0.233304 0.291539
O O8 0.284529 0.500000 0.257464
O O9 0.250000 0.750000 0.201568
O O10 0.294976 0.724361 0.383250
O O11 0.915982 0.262897 0.679365
O O12 0.952929 0.235491 0.487634
O O13 0.000000 0.161077 0.657015
O O14 0.928383 0.000000 0.598100
O O15 0.214394 0.500000 0.713167
O O16 0.250000 0.250000 0.760381
O O17 0.160325 0.290986 0.785557
O O18 0.197069 0.276736 0.588250
O O19 0.903539 0.500000 0.785979
O O20 0.371122 0.165309 0.462083
O O21 0.297348 0.000000 0.448939
O O22 0.441567 0.000000 0.403373
#
# Coordination Sequence:
#
# PCOD8172610 Si02
#       8
#     8   8   8   8   8   8   8   8
#     4  10  22  42  66  88 111 146 195 247 296 349
#     4   9  20  38  58  83 116 152 191 238 291 348
#     4  10  19  31  50  79 113 152 194 233 280 336
#     4  11  23  37  56  84 117 155 196 234 284 352
#     4  10  21  36  54  81 115 152 191 232 283 340
#     4  11  23  41  61  85 118 150 189 244 297 346
#     4   9  17  32  51  76 113 153 190 230 277 333
#     4  10  19  34  56  84 120 155 188 236 290 341
#
# _framework density 19.599063999999998
#
# number of rings (size 3 to 8) (size 9 to 14) (size 15 to 20)
#    0.000    2.000    1.250    2.250    0.000    7.250 
#    0.000    1.875    0.000    3.000    0.000    0.000 
#    0.000    0.000    0.000    0.000    0.000    0.000 
#
# Total GULP energy -396808.851523 kJ/mol
# GULP energy per Si atom -12400.276610 kJ/mol
# Density = 1.955446 g / cm^3
# Si number density = 19.599064 Si / 1000 Ang^3
#
#
#
# Elastic Constant Matrix: (Units=GPa)
#
#
# Indices 1 2 3 4 5 6 
#
# 1 129.6988 62.6321 63.7001 0.0000 0.0000 0.0000
# 2 62.6321 98.9081 67.7719 0.0000 0.0000 0.0000
# 3 63.7001 67.7719 104.6563 0.0000 0.0000 0.0000
# 4 0.0000 0.0000 0.0000 26.5194 0.0000 0.0000
# 5 0.0000 0.0000 0.0000 0.0000 18.3634 0.0000
# 6 0.0000 0.0000 0.0000 0.0000 0.0000 30.6857
#
#
#
# Elastic Compliance Matrix: (Units=1/GPa)
#
#
# Indices 1 2 3 4 5 6 
#
# 1 0.012104 -0.004704 -0.004321 0.000000 0.000000 0.000000
# 2 -0.004704 0.020003 -0.010090 0.000000 0.000000 0.000000
# 3 -0.004321 -0.010090 0.018719 0.000000 0.000000 0.000000
# 4 0.000000 0.000000 0.000000 0.037708 0.000000 0.000000
# 5 0.000000 0.000000 0.000000 0.000000 0.054456 0.000000
# 6 0.000000 0.000000 0.000000 0.000000 0.000000 0.032588
#
#
# Mechanical properties :
#
#
# Convention : Reuss Voigt Hill
#
# Bulk Modulus (GPa) = 79.39155 80.16349 79.77752
# Shear Modulus (GPa) = 22.93500 24.39099 23.66300
#
# Velocity S-wave (km/s) = 3.42454 3.53157 3.47847
# Velocity P-wave (km/s) = 7.49883 7.59077 7.54494
#
# Compressibility (1/GPa) = 0.01259580
#
# Stress axis : x y z
#
# Youngs Moduli (GPa) = 82.61782 49.99312 53.42097
#
# Poissons Ratio (x) = 0.23516 0.23084
# Poissons Ratio (y) = 0.38861 0.53902
# Poissons Ratio (z) = 0.35701 0.50444
#
# Static dielectric constant tensor:
#      x y z
#    x 3.775690 0.000000 0.000000 
#    y 0.000000 3.609710 0.000000 
#    z 0.000000 0.000000 3.368520 
# 
# 
# High freq. dielectric constant tensor:
#      x y z
#    x 1.775020 0.000000 0.000000 
#    y 0.000000 1.767650 0.000000 
#    z 0.000000 0.000000 1.738960 
# 
# From -- ./inp_files/11921.got.cif
#   From: 2010.03.12/outbox.cif.g09.slc.cpg/sg35_6_cif.got.tgz:11921.got - 2010.04.14 02:02:04.
