data_PCOD8172437
_publ_section_title
;
Structure prediction by ZEFSAII (Michael W. Deem and Ramdas Pophale) SiO2 
 PCOD8172437
Probable space group: C M M 2
;
_chemical_formula_sum "Si O2"
_cell_formula_units_Z 64
_cell_length_a 30.755974
_cell_length_b 8.779260
_cell_length_c 11.970640
_cell_angle_alpha 90.000000
_cell_angle_beta 90.000000
_cell_angle_gamma 90.000000
_cell_volume 3232.248676
_symmetry_space_group_name_H-M "C M M 2"
_symmetry_group_IT_number 35
_symmetry_cell_setting 'orthorhombic'
loop_
_space_group_symop_operation_xyz
x,y,z
-x,-y,z
-x,y,z
x,-y,z
1/2+x,1/2+y,z
1/2-x,1/2-y,z
1/2-x,1/2+y,z
1/2+x,1/2-y,z
loop_
_atom_site_type_symbol
_atom_site_label
_atom_site_fract_x
_atom_site_fract_y
_atom_site_fract_z
Si Si1 0.049447 0.325337 0.946240
Si Si2 0.576238 0.675572 0.725027
Si Si3 0.704676 0.319627 0.478865
Si Si4 0.874201 0.179866 0.077420
Si Si5 0.125268 0.181298 0.330641
Si Si6 0.705732 0.178843 0.946108
Si Si7 0.951575 0.181183 0.482697
Si Si8 0.678645 0.675212 0.725070
O O1 0.064565 0.500000 0.955896
O O2 0.052341 0.274752 0.817887
O O3 0.000000 0.304817 0.987623
O O4 0.079753 0.221740 0.023483
O O5 0.562275 0.500000 0.739309
O O6 0.561349 0.740558 0.605394
O O7 0.627457 0.694557 0.737835
O O8 0.707097 0.500000 0.473137
O O9 0.750000 0.250000 0.438513
O O10 0.667631 0.257414 0.395549
O O11 0.693529 0.265722 0.604024
O O12 0.873688 0.240881 0.204150
O O13 0.835197 0.256514 0.011626
O O14 0.867913 0.000000 0.070596
O O15 0.082135 0.246771 0.391463
O O16 0.124322 0.000000 0.333995
O O17 0.750000 0.250000 0.996047
O O18 0.707412 0.000000 0.961715
O O19 0.702426 0.220530 0.815594
O O20 0.000000 0.237787 0.451455
O O21 0.948859 0.000000 0.483774
O O22 0.692242 0.500000 0.744446
#
# Coordination Sequence:
#
# PCOD8172437 Si02
#       8
#     8   8   8   8   8   8   8   8
#     4  11  24  40  58  84 120 158 195 241 296 348
#     4  10  18  32  59  90 118 151 190 233 287 349
#     4  10  20  36  57  84 118 151 185 228 283 339
#     4  11  23  40  62  86 115 153 201 247 290 341
#     4   9  19  36  56  81 114 149 186 238 289 333
#     4  12  25  41  62  87 119 154 194 240 294 349
#     4   9  16  29  54  88 119 147 183 229 284 342
#     4  10  19  34  59  88 121 154 187 233 288 346
#
# _framework density 19.800457000000002
#
# number of rings (size 3 to 8) (size 9 to 14) (size 15 to 20)
#    0.000    1.750    2.500    2.625    0.000    4.000 
#    0.000    3.750    0.000    1.500    0.000    1.750 
#    0.000    0.000    0.000    0.000    0.000    0.000 
#
# Total GULP energy -396898.560230 kJ/mol
# GULP energy per Si atom -12403.080007 kJ/mol
# Density = 1.975539 g / cm^3
# Si number density = 19.800457 Si / 1000 Ang^3
#
#
#
# Elastic Constant Matrix: (Units=GPa)
#
#
# Indices 1 2 3 4 5 6 
#
# 1 136.3185 36.3537 62.1799 0.0000 0.0000 0.0000
# 2 36.3537 65.6421 33.5942 0.0000 0.0000 0.0000
# 3 62.1799 33.5942 142.7815 0.0000 0.0000 0.0000
# 4 0.0000 0.0000 0.0000 10.0603 0.0000 0.0000
# 5 0.0000 0.0000 0.0000 0.0000 9.7703 0.0000
# 6 0.0000 0.0000 0.0000 0.0000 0.0000 28.1960
#
#
#
# Elastic Compliance Matrix: (Units=1/GPa)
#
#
# Indices 1 2 3 4 5 6 
#
# 1 0.009895 -0.003723 -0.003433 0.000000 0.000000 0.000000
# 2 -0.003723 0.018720 -0.002783 0.000000 0.000000 0.000000
# 3 -0.003433 -0.002783 0.009154 0.000000 0.000000 0.000000
# 4 0.000000 0.000000 0.000000 0.099401 0.000000 0.000000
# 5 0.000000 0.000000 0.000000 0.000000 0.102351 0.000000
# 6 0.000000 0.000000 0.000000 0.000000 0.000000 0.035466
#
#
# Mechanical properties :
#
#
# Convention : Reuss Voigt Hill
#
# Bulk Modulus (GPa) = 55.89683 67.66640 61.78162
# Shear Modulus (GPa) = 16.62080 23.77960 20.20020
#
# Velocity S-wave (km/s) = 2.90041 3.46925 3.19750
# Velocity P-wave (km/s) = 6.28553 7.09196 6.70089
#
# Compressibility (1/GPa) = 0.01789010
#
# Stress axis : x y z
#
# Youngs Moduli (GPa) = 101.06625 53.41782 109.24617
#
# Poissons Ratio (x) = 0.19886 0.37505
# Poissons Ratio (y) = 0.37625 0.30407
# Poissons Ratio (z) = 0.34696 0.14868
#
# Static dielectric constant tensor:
#      x y z
#    x 3.794040 0.000000 0.000000 
#    y 0.000000 3.279880 0.000000 
#    z 0.000000 0.000000 3.757530 
# 
# 
# High freq. dielectric constant tensor:
#      x y z
#    x 1.790280 0.000000 0.000000 
#    y 0.000000 1.739860 0.000000 
#    z 0.000000 0.000000 1.771740 
# 
# From -- ./inp_files/11946.got.cif
#   From: 2010.03.12/outbox.cif.g09.slc.cpg/sg35_6_cif.got.tgz:11946.got - 2010.04.14 02:02:04.
