data_PCOD8172581
_publ_section_title
;
Structure prediction by ZEFSAII (Michael W. Deem and Ramdas Pophale) SiO2 
 PCOD8172581
Probable space group: C M M 2
;
_chemical_formula_sum "Si O2"
_cell_formula_units_Z 64
_cell_length_a 9.279330
_cell_length_b 19.217012
_cell_length_c 20.361465
_cell_angle_alpha 90.000000
_cell_angle_beta 90.000000
_cell_angle_gamma 90.000000
_cell_volume 3630.876718
_symmetry_space_group_name_H-M "C M M 2"
_symmetry_group_IT_number 35
_symmetry_cell_setting 'orthorhombic'
loop_
_space_group_symop_operation_xyz
x,y,z
-x,-y,z
-x,y,z
x,-y,z
1/2+x,1/2+y,z
1/2-x,1/2-y,z
1/2-x,1/2+y,z
1/2+x,1/2-y,z
loop_
_atom_site_type_symbol
_atom_site_label
_atom_site_fract_x
_atom_site_fract_y
_atom_site_fract_z
Si Si1 0.668999 0.823201 0.177270
Si Si2 0.329120 0.077800 0.062554
Si Si3 0.662581 0.418454 0.709601
Si Si4 0.836275 0.680599 0.319568
Si Si5 0.332139 0.819060 0.951033
Si Si6 0.668885 0.823201 0.461971
Si Si7 0.168474 0.680552 0.800641
Si Si8 0.664549 0.419085 0.559621
O O1 0.500000 0.808998 0.165385
O O2 0.750000 0.750000 0.168748
O O3 0.729442 0.878656 0.124882
O O4 0.696696 0.858030 0.250109
O O5 0.500000 0.072451 0.066201
O O6 0.262069 0.000000 0.063131
O O7 0.280850 0.116455 0.995735
O O8 0.500000 0.397566 0.730143
O O9 0.685298 0.500000 0.717547
O O10 0.777883 0.382332 0.756194
O O11 0.690626 0.396007 0.634609
O O12 0.750000 0.750000 0.319014
O O13 0.803267 0.642087 0.389017
O O14 0.000000 0.704523 0.319810
O O15 0.500000 0.803704 0.960890
O O16 0.250000 0.750000 0.974074
O O17 0.295469 0.838084 0.876005
O O18 0.500000 0.810639 0.474692
O O19 0.750000 0.750000 0.469169
O O20 0.726527 0.876919 0.514794
O O21 0.250000 0.750000 0.778458
O O22 0.000000 0.692009 0.789390
O O23 0.500000 0.403362 0.539128
O O24 0.699362 0.500000 0.550816
#
# Coordination Sequence:
#
# PCOD8172581 Si02
#       8
#     8   8   8   8   8   8   8   8
#     4   9  16  28  48  70  91 121 159 195 233 278
#     4   9  17  29  46  69  96 125 157 193 233 277
#     4   9  19  36  55  73  96 127 161 198 240 287
#     4   8  15  27  43  67  95 121 154 194 235 278
#     4   9  18  32  50  71  95 124 158 195 233 276
#     4  10  19  31  49  73 100 128 160 201 245 287
#     4  10  20  33  51  75 101 128 159 199 243 286
#     4   9  19  36  54  71  95 128 163 198 239 288
#
# _framework density 17.626595999999999
#
# number of rings (size 3 to 8) (size 9 to 14) (size 15 to 20)
#    0.000    2.875    0.000    1.875    0.000    3.000 
#    0.000    3.125    0.000    3.750    0.000    0.000 
#    0.000    0.000    0.000    0.000    0.000    0.000 
#
# Total GULP energy -396558.023525 kJ/mol
# GULP energy per Si atom -12392.438235 kJ/mol
# Density = 1.758648 g / cm^3
# Si number density = 17.626596 Si / 1000 Ang^3
#
#
#
# Elastic Constant Matrix: (Units=GPa)
#
#
# Indices 1 2 3 4 5 6 
#
# 1 63.9904 40.6024 49.0537 0.0000 0.0000 0.0000
# 2 40.6024 93.5993 68.6218 0.0000 0.0000 0.0000
# 3 49.0537 68.6218 122.1275 0.0000 0.0000 0.0000
# 4 0.0000 0.0000 0.0000 9.8787 0.0000 0.0000
# 5 0.0000 0.0000 0.0000 0.0000 25.8432 0.0000
# 6 0.0000 0.0000 0.0000 0.0000 0.0000 27.6336
#
#
#
# Elastic Compliance Matrix: (Units=1/GPa)
#
#
# Indices 1 2 3 4 5 6 
#
# 1 0.024273 -0.005750 -0.006518 0.000000 0.000000 0.000000
# 2 -0.005750 0.019530 -0.008664 0.000000 0.000000 0.000000
# 3 -0.006518 -0.008664 0.015675 0.000000 0.000000 0.000000
# 4 0.000000 0.000000 0.000000 0.101228 0.000000 0.000000
# 5 0.000000 0.000000 0.000000 0.000000 0.038695 0.000000
# 6 0.000000 0.000000 0.000000 0.000000 0.000000 0.036188
#
#
# Mechanical properties :
#
#
# Convention : Reuss Voigt Hill
#
# Bulk Modulus (GPa) = 56.77948 66.25255 61.51601
# Shear Modulus (GPa) = 17.64756 20.76705 19.20730
#
# Velocity S-wave (km/s) = 3.16759 3.43617 3.30461
# Velocity P-wave (km/s) = 6.75725 7.30830 7.03817
#
# Compressibility (1/GPa) = 0.01761200
#
# Stress axis : x y z
#
# Youngs Moduli (GPa) = 41.19833 51.20227 63.79760
#
# Poissons Ratio (x) = 0.29443 0.41585
# Poissons Ratio (y) = 0.23691 0.55275
# Poissons Ratio (z) = 0.26854 0.44362
#
# Static dielectric constant tensor:
#      x y z
#    x 3.162810 0.000000 0.000000 
#    y 0.000000 3.062480 0.000000 
#    z 0.000000 0.000000 3.767470 
# 
# 
# High freq. dielectric constant tensor:
#      x y z
#    x 1.671820 0.000000 0.000000 
#    y 0.000000 1.656430 0.000000 
#    z 0.000000 0.000000 1.699960 
# 
# From -- ./inp_files/18396.got.cif
#   From: 2010.03.12/outbox.cif.g09.slc.cpg/sg35_10_cif.got.tgz:18396.got - 2010.04.14 02:02:04.
