data_PCOD8172886
_publ_section_title
;
Structure prediction by ZEFSAII (Michael W. Deem and Ramdas Pophale) SiO2 
 PCOD8172886
Probable space group: C M M 2
;
_chemical_formula_sum "Si O2"
_cell_formula_units_Z 48
_cell_length_a 8.620358
_cell_length_b 18.610335
_cell_length_c 15.408667
_cell_angle_alpha 90.000000
_cell_angle_beta 90.000000
_cell_angle_gamma 90.000000
_cell_volume 2471.977780
_symmetry_space_group_name_H-M "C M M 2"
_symmetry_group_IT_number 35
_symmetry_cell_setting 'orthorhombic'
loop_
_space_group_symop_operation_xyz
x,y,z
-x,-y,z
-x,y,z
x,-y,z
1/2+x,1/2+y,z
1/2-x,1/2-y,z
1/2-x,1/2+y,z
1/2+x,1/2-y,z
loop_
_atom_site_type_symbol
_atom_site_label
_atom_site_fract_x
_atom_site_fract_y
_atom_site_fract_z
Si Si1 0.676482 0.915300 0.109540
Si Si2 0.183999 0.670659 0.450413
Si Si3 0.184400 0.580588 0.614435
Si Si4 0.316107 0.827942 0.776417
Si Si5 0.318025 0.672946 0.958515
Si Si6 0.182746 0.917145 0.292149
O O1 0.500000 0.887613 0.102553
O O2 0.746314 0.891091 0.201292
O O3 0.686212 0.000000 0.099173
O O4 0.780180 0.882444 0.033996
O O5 0.250000 0.750000 0.456778
O O6 0.246721 0.625802 0.532709
O O7 0.242682 0.632372 0.364437
O O8 0.000000 0.674116 0.448918
O O9 0.252807 0.500000 0.609420
O O10 0.243276 0.617187 0.703058
O O11 0.000000 0.578356 0.612674
O O12 0.500000 0.823268 0.778915
O O13 0.250000 0.750000 0.753874
O O14 0.255461 0.855907 0.868990
O O15 0.500000 0.680252 0.945508
O O16 0.250000 0.750000 0.984093
O O17 0.000000 0.905554 0.289423
O O18 0.226450 0.000000 0.310941
#
# Coordination Sequence:
#
# PCOD8172886 Si02
#       6
#     8   8   8   8   8   8
#     4  10  21  38  60  85 113 147 186 227 276 333
#     4  11  22  37  58  83 113 148 188 231 277 330
#     4   9  19  35  56  82 110 143 184 229 277 331
#     4  10  19  34  56  80 109 145 185 229 278 331
#     4  11  22  37  57  82 114 149 188 232 279 330
#     4  10  21  38  59  84 114 146 183 229 279 330
#
# _framework density 19.417650999999999
#
# number of rings (size 3 to 8) (size 9 to 14) (size 15 to 20)
#    0.000    1.833    0.000    5.500    0.000    4.000 
#    0.000    7.500    0.000    5.500    0.000    0.000 
#    0.000    0.000    0.000    0.000    0.000    0.000 
#
# Total GULP energy -297690.844668 kJ/mol
# GULP energy per Si atom -12403.785194 kJ/mol
# Density = 1.937346 g / cm^3
# Si number density = 19.417651 Si / 1000 Ang^3
#
#
#
# Elastic Constant Matrix: (Units=GPa)
#
#
# Indices 1 2 3 4 5 6 
#
# 1 79.0558 34.2713 37.0984 0.0000 0.0000 0.0000
# 2 34.2713 115.2473 90.5635 0.0000 0.0000 0.0000
# 3 37.0984 90.5635 168.2201 0.0000 0.0000 0.0000
# 4 0.0000 0.0000 0.0000 45.3366 0.0000 0.0000
# 5 0.0000 0.0000 0.0000 0.0000 26.5892 0.0000
# 6 0.0000 0.0000 0.0000 0.0000 0.0000 17.2584
#
#
#
# Elastic Compliance Matrix: (Units=1/GPa)
#
#
# Indices 1 2 3 4 5 6 
#
# 1 0.014749 -0.003172 -0.001545 0.000000 0.000000 0.000000
# 2 -0.003172 0.015722 -0.007764 0.000000 0.000000 0.000000
# 3 -0.001545 -0.007764 0.010465 0.000000 0.000000 0.000000
# 4 0.000000 0.000000 0.000000 0.022057 0.000000 0.000000
# 5 0.000000 0.000000 0.000000 0.000000 0.037609 0.000000
# 6 0.000000 0.000000 0.000000 0.000000 0.000000 0.057943
#
#
# Mechanical properties :
#
#
# Convention : Reuss Voigt Hill
#
# Bulk Modulus (GPa) = 62.60329 76.26551 69.43440
# Shear Modulus (GPa) = 26.47839 31.20951 28.84395
#
# Velocity S-wave (km/s) = 3.69674 4.01343 3.85834
# Velocity P-wave (km/s) = 7.10855 7.79990 7.46224
#
# Compressibility (1/GPa) = 0.01597360
#
# Stress axis : x y z
#
# Youngs Moduli (GPa) = 67.79938 63.60643 95.55243
#
# Poissons Ratio (x) = 0.20175 0.14764
# Poissons Ratio (y) = 0.21505 0.74191
# Poissons Ratio (z) = 0.10476 0.49387
#
# Static dielectric constant tensor:
#      x y z
#    x 3.542160 0.000000 0.000000 
#    y 0.000000 3.588080 0.000000 
#    z 0.000000 0.000000 3.754950 
# 
# 
# High freq. dielectric constant tensor:
#      x y z
#    x 1.756650 0.000000 0.000000 
#    y 0.000000 1.754760 0.000000 
#    z 0.000000 0.000000 1.772550 
# 
# From -- ./inp_files/15156.got.cif
#   From: 2010.03.12/outbox.cif.g09.slc.cpg/sg35_8_cif.got.tgz:15156.got - 2010.04.14 02:02:04.
