data_PCOD8172464
_publ_section_title
;
Structure prediction by ZEFSAII (Michael W. Deem and Ramdas Pophale) SiO2 
 PCOD8172464
Probable space group: C M M 2
;
_chemical_formula_sum "Si O2"
_cell_formula_units_Z 56
_cell_length_a 9.394613
_cell_length_b 21.371390
_cell_length_c 14.539671
_cell_angle_alpha 90.000000
_cell_angle_beta 90.000000
_cell_angle_gamma 90.000000
_cell_volume 2919.216088
_symmetry_space_group_name_H-M "C M M 2"
_symmetry_group_IT_number 35
_symmetry_cell_setting 'orthorhombic'
loop_
_space_group_symop_operation_xyz
x,y,z
-x,-y,z
-x,y,z
x,-y,z
1/2+x,1/2+y,z
1/2-x,1/2-y,z
1/2-x,1/2+y,z
1/2+x,1/2-y,z
loop_
_atom_site_type_symbol
_atom_site_label
_atom_site_fract_x
_atom_site_fract_y
_atom_site_fract_z
Si Si1 0.838709 0.000000 0.354481
Si Si2 0.837808 0.115869 0.135348
Si Si3 0.661299 0.307717 0.311474
Si Si4 0.330795 0.000000 0.168826
Si Si5 0.334987 0.072211 0.647810
Si Si6 0.165602 0.928677 0.832132
Si Si7 0.663071 0.617160 0.482627
Si Si8 0.336061 0.311934 0.959375
O O1 0.811513 0.941891 0.419142
O O2 0.726640 0.000000 0.272491
O O3 0.000000 0.000000 0.313879
O O4 0.814149 0.135093 0.241365
O O5 0.728378 0.060146 0.114274
O O6 0.000000 0.092530 0.119273
O O7 0.806349 0.173671 0.066815
O O8 0.500000 0.285924 0.307098
O O9 0.750000 0.250000 0.275317
O O10 0.702626 0.324850 0.416352
O O11 0.500000 0.000000 0.168383
O O12 0.500000 0.089542 0.657886
O O13 0.257935 0.086719 0.742891
O O14 0.266633 0.116311 0.569892
O O15 0.313143 0.000000 0.619573
O O16 0.208696 0.875680 0.905973
O O17 0.000000 0.923480 0.805830
O O18 0.198634 0.000000 0.867602
O O19 0.500000 0.620418 0.517310
O O20 0.500000 0.296218 0.940249
O O21 0.250000 0.250000 0.928557
#
# Coordination Sequence:
#
# PCOD8172464 Si02
#       8
#     4   8   8   4   8   8   8   8
#     4  10  18  34  56  77 108 147 184 221 272 334
#     4  10  21  39  60  81 113 155 193 230 281 349
#     4  10  21  36  54  77 107 149 193 232 278 329
#     4  12  24  34  52  87 120 149 188 241 292 328
#     4  10  20  33  53  84 116 145 177 228 293 340
#     4   9  19  37  60  87 114 148 194 237 284 350
#     4  10  19  33  55  80 107 146 187 224 270 331
#     4  10  22  39  64  90 115 152 195 242 293 347
#
# _framework density 19.183233000000001
#
# number of rings (size 3 to 8) (size 9 to 14) (size 15 to 20)
#    0.000    2.000    2.143    1.500    1.000    3.429 
#    0.000    0.714    0.000    0.000    0.000    0.000 
#    0.000    0.000    0.000    0.000    0.000    0.000 
#
# Total GULP energy -347134.172073 kJ/mol
# GULP energy per Si atom -12397.649003 kJ/mol
# Density = 1.913957 g / cm^3
# Si number density = 19.183233 Si / 1000 Ang^3
#
#
#
# Elastic Constant Matrix: (Units=GPa)
#
#
# Indices 1 2 3 4 5 6 
#
# 1 103.8945 60.2061 49.6699 0.0000 0.0000 0.0000
# 2 60.2061 103.2018 37.1535 0.0000 0.0000 0.0000
# 3 49.6699 37.1535 92.5471 0.0000 0.0000 0.0000
# 4 0.0000 0.0000 0.0000 100.8982 0.0000 0.0000
# 5 0.0000 0.0000 0.0000 0.0000 24.0143 0.0000
# 6 0.0000 0.0000 0.0000 0.0000 0.0000 33.4529
#
#
#
# Elastic Compliance Matrix: (Units=1/GPa)
#
#
# Indices 1 2 3 4 5 6 
#
# 1 0.016986 -0.007747 -0.006006 0.000000 0.000000 0.000000
# 2 -0.007747 0.014860 -0.001808 0.000000 0.000000 0.000000
# 3 -0.006006 -0.001808 0.014755 0.000000 0.000000 0.000000
# 4 0.000000 0.000000 0.000000 0.009911 0.000000 0.000000
# 5 0.000000 0.000000 0.000000 0.000000 0.041642 0.000000
# 6 0.000000 0.000000 0.000000 0.000000 0.000000 0.029893
#
#
# Mechanical properties :
#
#
# Convention : Reuss Voigt Hill
#
# Bulk Modulus (GPa) = 64.60604 65.96692 65.28648
# Shear Modulus (GPa) = 30.42695 41.84733 36.13714
#
# Velocity S-wave (km/s) = 3.98694 4.67567 4.34497
# Velocity P-wave (km/s) = 7.41254 7.97569 7.69926
#
# Compressibility (1/GPa) = 0.01547843
#
# Stress axis : x y z
#
# Youngs Moduli (GPa) = 58.87218 67.29451 67.77528
#
# Poissons Ratio (x) = 0.52133 0.40708
# Poissons Ratio (y) = 0.45608 0.12253
# Poissons Ratio (z) = 0.35360 0.12166
#
# Static dielectric constant tensor:
#      x y z
#    x 3.405510 0.000000 0.000000 
#    y 0.000000 2.562800 0.000000 
#    z 0.000000 0.000000 3.483320 
# 
# 
# High freq. dielectric constant tensor:
#      x y z
#    x 1.736640 0.000000 0.000000 
#    y 0.000000 1.736530 0.000000 
#    z 0.000000 0.000000 1.743210 
# 
# From -- ./inp_files/15726.got.cif
#   From: 2010.03.12/outbox.cif.g09.slc.cpg/sg35_8_cif.got.tgz:15726.got - 2010.04.14 02:02:04.
