data_PCOD8172474
_publ_section_title
;
Structure prediction by ZEFSAII (Michael W. Deem and Ramdas Pophale) SiO2 
 PCOD8172474
Probable space group: C M M 2
;
_chemical_formula_sum "Si O2"
_cell_formula_units_Z 64
_cell_length_a 30.812410
_cell_length_b 8.700979
_cell_length_c 11.838182
_cell_angle_alpha 90.000000
_cell_angle_beta 90.000000
_cell_angle_gamma 90.000000
_cell_volume 3173.794485
_symmetry_space_group_name_H-M "C M M 2"
_symmetry_group_IT_number 35
_symmetry_cell_setting 'orthorhombic'
loop_
_space_group_symop_operation_xyz
x,y,z
-x,-y,z
-x,y,z
x,-y,z
1/2+x,1/2+y,z
1/2-x,1/2-y,z
1/2-x,1/2+y,z
1/2+x,1/2-y,z
loop_
_atom_site_type_symbol
_atom_site_label
_atom_site_fract_x
_atom_site_fract_y
_atom_site_fract_z
Si Si1 0.293659 0.819376 0.154390
Si Si2 0.372491 0.678454 0.288645
Si Si3 0.125152 0.680004 0.531195
Si Si4 0.450842 0.824047 0.165838
Si Si5 0.677852 0.680182 0.927504
Si Si6 0.705654 0.179845 0.692117
Si Si7 0.585848 0.177518 0.924800
Si Si8 0.452089 0.182282 0.689237
O O1 0.250000 0.750000 0.210669
O O2 0.335834 0.771547 0.223528
O O3 0.290403 0.000000 0.157376
O O4 0.295682 0.762722 0.025978
O O5 0.362714 0.500000 0.273515
O O6 0.371531 0.721526 0.419129
O O7 0.419427 0.715770 0.237129
O O8 0.121195 0.500000 0.502173
O O9 0.167530 0.714745 0.604621
O O10 0.082992 0.741271 0.598844
O O11 0.500000 0.779438 0.197354
O O12 0.440895 0.000000 0.199354
O O13 0.445243 0.801686 0.031848
O O14 0.685368 0.500000 0.938154
O O15 0.695630 0.738078 0.809141
O O16 0.627458 0.717411 0.942558
O O17 0.750000 0.250000 0.641372
O O18 0.710772 0.000000 0.714004
O O19 0.560550 0.237596 0.814694
O O20 0.600734 0.000000 0.909830
O O21 0.500000 0.247310 0.658892
O O22 0.452707 0.000000 0.687953
#
# Coordination Sequence:
#
# PCOD8172474 Si02
#       8
#     8   8   8   8   8   8   8   8
#     4  12  25  44  68  94 125 161 205 255 310 373
#     4  12  26  43  63  90 125 166 210 260 317 370
#     4  10  22  41  63  88 120 162 211 260 307 360
#     4  10  21  38  64  95 126 165 211 257 309 372
#     4  12  23  37  61  94 130 166 202 245 307 371
#     4  11  23  41  64  92 124 161 205 252 305 362
#     4  10  18  34  61  93 126 162 201 250 307 368
#     4   9  17  33  61  94 123 155 201 252 302 360
#
# _framework density 20.165137999999999
#
# number of rings (size 3 to 8) (size 9 to 14) (size 15 to 20)
#    0.000    1.250    2.500    4.500    0.000    3.750 
#    0.000    2.500    0.000    1.875    0.000    0.000 
#    0.000    0.000    0.000    0.000    0.000    0.000 
#
# Total GULP energy -396940.912223 kJ/mol
# GULP energy per Si atom -12404.403507 kJ/mol
# Density = 2.011924 g / cm^3
# Si number density = 20.165138 Si / 1000 Ang^3
#
#
#
# Elastic Constant Matrix: (Units=GPa)
#
#
# Indices 1 2 3 4 5 6 
#
# 1 148.1410 51.9788 41.4352 0.0000 0.0000 0.0000
# 2 51.9788 118.9543 46.3693 0.0000 0.0000 0.0000
# 3 41.4352 46.3693 104.2972 0.0000 0.0000 0.0000
# 4 0.0000 0.0000 0.0000 19.1320 0.0000 0.0000
# 5 0.0000 0.0000 0.0000 0.0000 -11.7927 0.0000
# 6 0.0000 0.0000 0.0000 0.0000 0.0000 30.0244
#
#
#
# Elastic Compliance Matrix: (Units=1/GPa)
#
#
# Indices 1 2 3 4 5 6 
#
# 1 0.008317 -0.002838 -0.002043 0.000000 0.000000 0.000000
# 2 -0.002838 0.011137 -0.003824 0.000000 0.000000 0.000000
# 3 -0.002043 -0.003824 0.012100 0.000000 0.000000 0.000000
# 4 0.000000 0.000000 0.000000 0.052269 0.000000 0.000000
# 5 0.000000 0.000000 0.000000 0.000000 -0.084798 0.000000
# 6 0.000000 0.000000 0.000000 0.000000 0.000000 0.033306
#
#
# Mechanical properties :
#
#
# Convention : Reuss Voigt Hill
#
# Bulk Modulus (GPa) = 70.69670 72.32879 71.51275
# Shear Modulus (GPa) = 91.81823 22.91334 57.36579
#
# Velocity S-wave (km/s) = 6.75515 3.37454 5.33945
# Velocity P-wave (km/s) = 9.79682 7.15049 8.57634
#
# Compressibility (1/GPa) = 0.01414493
#
# Stress axis : x y z
#
# Youngs Moduli (GPa) = 120.22855 89.78731 82.64780
#
# Poissons Ratio (x) = 0.25484 0.16881
# Poissons Ratio (y) = 0.34124 0.31604
# Poissons Ratio (z) = 0.24557 0.34335
#
# Static dielectric constant tensor:
#      x y z
#    x 4.102000 0.000000 0.000000 
#    y 0.000000 3.525420 0.000000 
#    z 0.000000 0.000000 3.662140 
# 
# 
# High freq. dielectric constant tensor:
#      x y z
#    x 1.805650 0.000000 0.000000 
#    y 0.000000 1.771960 0.000000 
#    z 0.000000 0.000000 1.786590 
# 
# From -- ./inp_files/14515.got.cif
#   From: 2010.03.12/outbox.cif.g09.slc.cpg/sg35_8_cif.got.tgz:14515.got - 2010.04.14 02:02:04.
