data_PCOD8172283
_publ_section_title
;
Structure prediction by ZEFSAII (Michael W. Deem and Ramdas Pophale) SiO2 
 PCOD8172283
Probable space group: C M M 2
;
_chemical_formula_sum "Si O2"
_cell_formula_units_Z 64
_cell_length_a 38.396381
_cell_length_b 9.629073
_cell_length_c 10.354575
_cell_angle_alpha 90.000000
_cell_angle_beta 90.000000
_cell_angle_gamma 90.000000
_cell_volume 3828.309576
_symmetry_space_group_name_H-M "C M M 2"
_symmetry_group_IT_number 35
_symmetry_cell_setting 'orthorhombic'
loop_
_space_group_symop_operation_xyz
x,y,z
-x,-y,z
-x,y,z
x,-y,z
1/2+x,1/2+y,z
1/2-x,1/2-y,z
1/2-x,1/2+y,z
1/2+x,1/2-y,z
loop_
_atom_site_type_symbol
_atom_site_label
_atom_site_fract_x
_atom_site_fract_y
_atom_site_fract_z
Si Si1 0.857992 0.836732 0.708080
Si Si2 0.142008 0.163268 0.007201
Si Si3 0.039200 0.335592 0.357639
Si Si4 0.461441 0.835619 0.857639
Si Si5 0.419015 0.164842 0.609315
Si Si6 0.279968 0.346949 0.704326
Si Si7 0.580985 0.164842 0.105963
Si Si8 0.720032 0.346949 0.010955
O O1 0.882503 0.745589 0.615604
O O2 0.818647 0.794428 0.668490
O O3 0.864313 0.000000 0.685103
O O4 0.864991 0.798698 0.857640
O O5 0.117497 0.254410 0.099678
O O6 0.181353 0.205573 0.046791
O O7 0.135688 0.000000 0.030178
O O8 0.036160 0.500000 0.357641
O O9 0.060206 0.285568 0.483086
O O10 0.060205 0.285569 0.232190
O O11 0.000000 0.272395 0.357640
O O12 0.500000 0.769811 0.857641
O O13 0.441613 0.784689 0.730748
O O14 0.464180 0.000000 0.857641
O O15 0.441612 0.784687 0.984527
O O16 0.411994 0.000000 0.609784
O O17 0.274018 0.500000 0.646544
O O18 0.250000 0.250000 0.643463
O O19 0.276594 0.352490 0.857640
O O20 0.588006 0.000000 0.105493
O O21 0.725982 0.500000 0.068736
O O22 0.750000 0.250000 0.071817
#
# Coordination Sequence:
#
# PCOD8172283 Si02
#       8
#     8   8   8   8   8   8   8   8
#     4   9  17  29  44  64  95 128 153 185 232 276
#     4   9  17  29  44  64  95 128 153 185 232 276
#     4   9  18  32  49  69  94 121 150 193 244 281
#     4   9  16  26  43  67  90 111 144 189 228 267
#     4  10  18  29  47  70  91 117 155 193 230 274
#     4   8  14  24  38  59  88 122 153 181 220 268
#     4  10  18  29  47  70  91 117 155 193 230 274
#     4   8  14  24  38  59  88 122 153 181 220 268
#
# _framework density 16.717561
#
# number of rings (size 3 to 8) (size 9 to 14) (size 15 to 20)
#    0.000    3.000    1.250    2.250    0.000    4.000 
#    0.000    3.125    0.000    4.500    0.000    0.875 
#    0.000    0.000    0.000    0.000    0.000    0.000 
#
# Total GULP energy -396662.351176 kJ/mol
# GULP energy per Si atom -12395.698474 kJ/mol
# Density = 1.667951 g / cm^3
# Si number density = 16.717561 Si / 1000 Ang^3
#
#
#
# Elastic Constant Matrix: (Units=GPa)
#
#
# Indices 1 2 3 4 5 6 
#
# 1 169.3804 63.1512 59.2887 0.0000 0.0000 0.0000
# 2 63.1512 48.7143 26.7870 0.0000 0.0000 0.0000
# 3 59.2887 26.7870 91.9771 0.0000 0.0000 0.0000
# 4 0.0000 0.0000 0.0000 10.8073 0.0000 0.0000
# 5 0.0000 0.0000 0.0000 0.0000 20.6128 0.0000
# 6 0.0000 0.0000 0.0000 0.0000 0.0000 27.4229
#
#
#
# Elastic Compliance Matrix: (Units=1/GPa)
#
#
# Indices 1 2 3 4 5 6 
#
# 1 0.012547 -0.014071 -0.003990 0.000000 0.000000 0.000000
# 2 -0.014071 0.040223 -0.002644 0.000000 0.000000 0.000000
# 3 -0.003990 -0.002644 0.014214 0.000000 0.000000 0.000000
# 4 0.000000 0.000000 0.000000 0.092530 0.000000 0.000000
# 5 0.000000 0.000000 0.000000 0.000000 0.048514 0.000000
# 6 0.000000 0.000000 0.000000 0.000000 0.000000 0.036466
#
#
# Mechanical properties :
#
#
# Convention : Reuss Voigt Hill
#
# Bulk Modulus (GPa) = 39.10213 67.61398 53.35806
# Shear Modulus (GPa) = 16.98213 22.49159 19.73686
#
# Velocity S-wave (km/s) = 3.19066 3.67193 3.43972
# Velocity P-wave (km/s) = 6.08394 7.64919 6.91102
#
# Compressibility (1/GPa) = 0.02557405
#
# Stress axis : x y z
#
# Youngs Moduli (GPa) = 79.70319 24.86145 70.35309
#
# Poissons Ratio (x) = 0.34983 0.28068
# Poissons Ratio (y) = 1.12151 0.18602
# Poissons Ratio (z) = 0.31798 0.06574
#
# Static dielectric constant tensor:
#      x y z
#    x 3.369420 0.000000 0.000000 
#    y 0.000000 2.971500 0.000000 
#    z 0.000000 0.000000 2.851850 
# 
# 
# High freq. dielectric constant tensor:
#      x y z
#    x 1.660190 0.000000 0.000000 
#    y 0.000000 1.615400 0.000000 
#    z 0.000000 0.000000 1.603500 
# 
# From -- ./inp_files/10639.got.cif
#   From: 2010.03.12/outbox.cif.g09.slc.cpg/sg35_6_cif.got.tgz:10639.got - 2010.04.14 02:02:04.
