data_PCOD8172627
_publ_section_title
;
Structure prediction by ZEFSAII (Michael W. Deem and Ramdas Pophale) SiO2 
 PCOD8172627
Probable space group: C M M 2
;
_chemical_formula_sum "Si O2"
_cell_formula_units_Z 64
_cell_length_a 29.141167
_cell_length_b 8.940449
_cell_length_c 12.358376
_cell_angle_alpha 90.000000
_cell_angle_beta 90.000000
_cell_angle_gamma 90.000000
_cell_volume 3219.790942
_symmetry_space_group_name_H-M "C M M 2"
_symmetry_group_IT_number 35
_symmetry_cell_setting 'orthorhombic'
loop_
_space_group_symop_operation_xyz
x,y,z
-x,-y,z
-x,y,z
x,-y,z
1/2+x,1/2+y,z
1/2-x,1/2-y,z
1/2-x,1/2+y,z
1/2+x,1/2-y,z
loop_
_atom_site_type_symbol
_atom_site_label
_atom_site_fract_x
_atom_site_fract_y
_atom_site_fract_z
Si Si1 0.947898 0.322259 0.203750
Si Si2 0.550808 0.330901 0.574787
Si Si3 0.673995 0.330782 0.710713
Si Si4 0.796266 0.173695 0.471940
Si Si5 0.795601 0.171350 0.946787
Si Si6 0.612052 0.823520 0.406177
Si Si7 0.084261 0.327581 0.764288
Si Si8 0.889391 0.324467 0.000381
O O1 0.950530 0.500000 0.204195
O O2 0.918352 0.264815 0.305652
O O3 0.921574 0.265144 0.096869
O O4 0.000000 0.257094 0.207549
O O5 0.500000 0.321352 0.524746
O O6 0.569685 0.500000 0.567661
O O7 0.584925 0.220352 0.513930
O O8 0.548292 0.275740 0.699558
O O9 0.653594 0.500000 0.708588
O O10 0.701657 0.298609 0.601101
O O11 0.705425 0.310848 0.816525
O O12 0.634222 0.208502 0.716222
O O13 0.750000 0.250000 0.428422
O O14 0.838581 0.245463 0.406751
O O15 0.794988 0.000000 0.443243
O O16 0.750000 0.250000 0.992995
O O17 0.794433 0.000000 0.982447
O O18 0.840481 0.243006 0.001333
O O19 0.619313 0.000000 0.402047
O O20 0.072330 0.500000 0.744555
O O21 0.082690 0.287457 0.891006
O O22 0.879212 0.500000 0.010243
#
# Coordination Sequence:
#
# PCOD8172627 Si02
#       8
#     8   8   8   8   8   8   8   8
#     4   9  19  38  64  89 112 143 187 241 295 343
#     4  11  23  37  54  79 115 156 191 230 288 349
#     4   9  18  32  51  76 113 156 190 228 278 334
#     4  11  22  36  56  83 117 156 194 234 284 339
#     4  10  19  32  52  81 116 155 195 234 278 332
#     4  11  22  38  61  87 114 146 191 243 290 342
#     4  10  19  31  53  83 115 150 188 232 279 339
#     4   9  19  36  58  85 115 148 187 234 287 341
#
# _framework density 19.877068000000001
#
# number of rings (size 3 to 8) (size 9 to 14) (size 15 to 20)
#    0.000    2.000    1.250    2.625    0.000    3.500 
#    0.000    3.125    0.000    1.875    0.000    0.000 
#    0.000    0.000    0.000    0.000    0.000    0.000 
#
# Total GULP energy -396764.962374 kJ/mol
# GULP energy per Si atom -12398.905074 kJ/mol
# Density = 1.983183 g / cm^3
# Si number density = 19.877068 Si / 1000 Ang^3
#
#
#
# Elastic Constant Matrix: (Units=GPa)
#
#
# Indices 1 2 3 4 5 6 
#
# 1 149.9578 52.3363 62.8541 0.0000 0.0000 0.0000
# 2 52.3363 79.8334 38.8119 0.0000 0.0000 0.0000
# 3 62.8541 38.8119 99.7545 0.0000 0.0000 0.0000
# 4 0.0000 0.0000 0.0000 17.2842 0.0000 0.0000
# 5 0.0000 0.0000 0.0000 0.0000 25.6880 0.0000
# 6 0.0000 0.0000 0.0000 0.0000 0.0000 29.7613
#
#
#
# Elastic Compliance Matrix: (Units=1/GPa)
#
#
# Indices 1 2 3 4 5 6 
#
# 1 0.010168 -0.004380 -0.004703 0.000000 0.000000 0.000000
# 2 -0.004380 0.017335 -0.003985 0.000000 0.000000 0.000000
# 3 -0.004703 -0.003985 0.014538 0.000000 0.000000 0.000000
# 4 0.000000 0.000000 0.000000 0.057856 0.000000 0.000000
# 5 0.000000 0.000000 0.000000 0.000000 0.038929 0.000000
# 6 0.000000 0.000000 0.000000 0.000000 0.000000 0.033601
#
#
# Mechanical properties :
#
#
# Convention : Reuss Voigt Hill
#
# Bulk Modulus (GPa) = 62.86833 70.83893 66.85363
# Shear Modulus (GPa) = 24.52617 26.24957 25.38787
#
# Velocity S-wave (km/s) = 3.51649 3.63794 3.57773
# Velocity P-wave (km/s) = 6.94153 7.30493 7.12555
#
# Compressibility (1/GPa) = 0.01590626
#
# Stress axis : x y z
#
# Youngs Moduli (GPa) = 98.34525 57.68832 68.78402
#
# Poissons Ratio (x) = 0.25265 0.32348
# Poissons Ratio (y) = 0.43072 0.27410
# Poissons Ratio (z) = 0.46251 0.22988
#
# Static dielectric constant tensor:
#      x y z
#    x 3.570900 0.000000 0.000000 
#    y 0.000000 3.502980 0.000000 
#    z 0.000000 0.000000 3.614290 
# 
# 
# High freq. dielectric constant tensor:
#      x y z
#    x 1.776790 0.000000 0.000000 
#    y 0.000000 1.767320 0.000000 
#    z 0.000000 0.000000 1.758630 
# 
# From -- ./inp_files/14546.got.cif
#   From: 2010.03.12/outbox.cif.g09.slc.cpg/sg35_8_cif.got.tgz:14546.got - 2010.04.14 02:02:04.
