data_PCOD8172742
_publ_section_title
;
Structure prediction by ZEFSAII (Michael W. Deem and Ramdas Pophale) SiO2 
 PCOD8172742
Probable space group: C M M 2
;
_chemical_formula_sum "Si O2"
_cell_formula_units_Z 56
_cell_length_a 8.840139
_cell_length_b 18.218761
_cell_length_c 18.047285
_cell_angle_alpha 90.000000
_cell_angle_beta 90.000000
_cell_angle_gamma 90.000000
_cell_volume 2906.630385
_symmetry_space_group_name_H-M "C M M 2"
_symmetry_group_IT_number 35
_symmetry_cell_setting 'orthorhombic'
loop_
_space_group_symop_operation_xyz
x,y,z
-x,-y,z
-x,y,z
x,-y,z
1/2+x,1/2+y,z
1/2-x,1/2-y,z
1/2-x,1/2+y,z
1/2+x,1/2-y,z
loop_
_atom_site_type_symbol
_atom_site_label
_atom_site_fract_x
_atom_site_fract_y
_atom_site_fract_z
Si Si1 0.679173 0.829325 0.599870
Si Si2 0.824078 0.085042 0.302418
Si Si3 0.179737 0.670212 0.885160
Si Si4 0.174565 0.584648 0.455025
Si Si5 0.679808 0.917625 0.028094
Si Si6 0.678909 0.170738 0.170574
Si Si7 0.820056 0.417561 0.741870
O O1 0.500000 0.822719 0.603368
O O2 0.750000 0.750000 0.605570
O O3 0.731625 0.867393 0.523914
O O4 0.740501 0.877594 0.668234
O O5 0.775837 0.107361 0.385123
O O6 0.728351 0.133723 0.246683
O O7 0.000000 0.102135 0.291937
O O8 0.785923 0.000000 0.287695
O O9 0.250000 0.750000 0.884781
O O10 0.238517 0.626471 0.813388
O O11 0.000000 0.677156 0.885561
O O12 0.239543 0.626987 0.957206
O O13 0.198283 0.500000 0.476605
O O14 0.000000 0.600401 0.435715
O O15 0.500000 0.920635 0.027110
O O16 0.738476 0.878458 0.102477
O O17 0.746579 0.000000 0.025834
O O18 0.500000 0.178474 0.169698
O O19 0.750000 0.250000 0.162209
O O20 0.753947 0.500000 0.744216
O O21 0.000000 0.420501 0.741734
#
# Coordination Sequence:
#
# PCOD8172742 Si02
#       7
#     8   8   8   8   8   8   8
#     4  10  20  33  51  76 105 136 171 214 261 309
#     4  10  21  37  57  81 108 137 173 218 266 318
#     4  10  19  32  53  79 108 139 171 212 259 306
#     4   9  18  34  55  76 100 135 178 218 257 306
#     4   9  18  33  54  79 104 135 178 220 257 305
#     4  11  22  36  55  78 107 141 177 219 266 316
#     4   9  17  31  53  78 102 134 178 219 252 295
#
# _framework density 19.266295
#
# number of rings (size 3 to 8) (size 9 to 14) (size 15 to 20)
#    0.000    2.286    0.000    3.000    0.000    6.000 
#    0.000    2.143    0.000    5.571    0.000    0.000 
#    0.000    0.000    0.000    0.000    0.000    0.000 
#
# Total GULP energy -347279.325790 kJ/mol
# GULP energy per Si atom -12402.833064 kJ/mol
# Density = 1.922244 g / cm^3
# Si number density = 19.266295 Si / 1000 Ang^3
#
#
#
# Elastic Constant Matrix: (Units=GPa)
#
#
# Indices 1 2 3 4 5 6 
#
# 1 37.0157 34.4345 31.9220 0.0000 0.0000 0.0000
# 2 34.4345 177.9985 102.5224 0.0000 0.0000 0.0000
# 3 31.9220 102.5224 159.9360 0.0000 0.0000 0.0000
# 4 0.0000 0.0000 0.0000 33.7862 0.0000 0.0000
# 5 0.0000 0.0000 0.0000 0.0000 13.5836 0.0000
# 6 0.0000 0.0000 0.0000 0.0000 0.0000 30.5136
#
#
#
# Elastic Compliance Matrix: (Units=1/GPa)
#
#
# Indices 1 2 3 4 5 6 
#
# 1 0.034595 -0.004305 -0.004145 0.000000 0.000000 0.000000
# 2 -0.004305 0.009442 -0.005193 0.000000 0.000000 0.000000
# 3 -0.004145 -0.005193 0.010409 0.000000 0.000000 0.000000
# 4 0.000000 0.000000 0.000000 0.029598 0.000000 0.000000
# 5 0.000000 0.000000 0.000000 0.000000 0.073618 0.000000
# 6 0.000000 0.000000 0.000000 0.000000 0.000000 0.032772
#
#
# Mechanical properties :
#
#
# Convention : Reuss Voigt Hill
#
# Bulk Modulus (GPa) = 36.82029 79.18978 58.00503
# Shear Modulus (GPa) = 22.04830 29.31478 25.68154
#
# Velocity S-wave (km/s) = 3.38656 3.90495 3.65496
# Velocity P-wave (km/s) = 5.86894 7.84369 6.92705
#
# Compressibility (1/GPa) = 0.02715894
#
# Stress axis : x y z
#
# Youngs Moduli (GPa) = 28.90565 105.90924 96.07147
#
# Poissons Ratio (x) = 0.45593 0.39825
# Poissons Ratio (y) = 0.12444 0.49893
# Poissons Ratio (z) = 0.11983 0.55002
#
# Static dielectric constant tensor:
#      x y z
#    x 3.173640 0.000000 0.000000 
#    y 0.000000 3.641830 0.000000 
#    z 0.000000 0.000000 3.761760 
# 
# 
# High freq. dielectric constant tensor:
#      x y z
#    x 1.714890 0.000000 0.000000 
#    y 0.000000 1.760880 0.000000 
#    z 0.000000 0.000000 1.767970 
# 
# From -- ./inp_files/15645.got.cif
#   From: 2010.03.12/outbox.cif.g09.slc.cpg/sg35_8_cif.got.tgz:15645.got - 2010.04.14 02:02:04.
