data_PCOD8172331
_publ_section_title
;
Structure prediction by ZEFSAII (Michael W. Deem and Ramdas Pophale) SiO2 
 PCOD8172331
Probable space group: C M M 2
;
_chemical_formula_sum "Si O2"
_cell_formula_units_Z 56
_cell_length_a 9.326467
_cell_length_b 21.721746
_cell_length_c 14.756121
_cell_angle_alpha 90.000000
_cell_angle_beta 90.000000
_cell_angle_gamma 90.000000
_cell_volume 2989.400458
_symmetry_space_group_name_H-M "C M M 2"
_symmetry_group_IT_number 35
_symmetry_cell_setting 'orthorhombic'
loop_
_space_group_symop_operation_xyz
x,y,z
-x,-y,z
-x,y,z
x,-y,z
1/2+x,1/2+y,z
1/2-x,1/2-y,z
1/2-x,1/2+y,z
1/2+x,1/2-y,z
loop_
_atom_site_type_symbol
_atom_site_label
_atom_site_fract_x
_atom_site_fract_y
_atom_site_fract_z
Si Si1 0.159110 0.500000 0.099090
Si Si2 0.831501 0.070327 0.616639
Si Si3 0.835172 0.429649 0.796409
Si Si4 0.670100 0.311842 0.495851
Si Si5 0.170148 0.000000 0.278930
Si Si6 0.168552 0.189831 0.130582
Si Si7 0.663246 0.878381 0.986054
Si Si8 0.668330 0.630098 0.316300
O O1 0.275470 0.500000 0.176794
O O2 0.000000 0.500000 0.142448
O O3 0.182142 0.442693 0.034700
O O4 0.761271 0.088871 0.711691
O O5 0.786375 0.124960 0.547929
O O6 0.000000 0.070748 0.630538
O O7 0.783979 0.000000 0.586467
O O8 0.807909 0.500000 0.825584
O O9 0.793876 0.385888 0.880849
O O10 0.000000 0.419769 0.768948
O O11 0.500000 0.300108 0.502876
O O12 0.750000 0.250000 0.532199
O O13 0.728284 0.323596 0.392807
O O14 0.223677 0.939742 0.333476
O O15 0.000000 0.000000 0.269741
O O16 0.250000 0.250000 0.161378
O O17 0.209489 0.144247 0.212638
O O18 0.000000 0.201026 0.122025
O O19 0.228442 0.168779 0.033476
O O20 0.500000 0.854057 0.995035
O O21 0.500000 0.632403 0.329908
#
# Coordination Sequence:
#
# PCOD8172331 Si02
#       8
#     4   8   8   8   4   8   8   8
#     4  10  18  30  50  77 108 138 170 211 260 307
#     4   9  19  35  56  83 111 139 177 227 278 325
#     4   9  17  32  55  81 109 140 173 212 266 327
#     4  10  21  38  58  81 108 143 183 223 272 329
#     4  10  18  32  52  79 110 140 178 221 266 317
#     4  11  22  36  52  74 104 143 187 227 267 313
#     4  10  19  33  53  78 108 142 176 214 261 316
#     4   9  19  33  54  80 107 140 178 219 266 320
#
# _framework density 18.732852999999999
#
# number of rings (size 3 to 8) (size 9 to 14) (size 15 to 20)
#    0.000    2.286    2.143    0.857    1.000    1.143 
#    0.000    2.143    0.000    1.714    0.000    0.000 
#    0.000    0.000    0.000    0.000    0.000    0.000 
#
# Total GULP energy -346967.348509 kJ/mol
# GULP energy per Si atom -12391.691018 kJ/mol
# Density = 1.869022 g / cm^3
# Si number density = 18.732853 Si / 1000 Ang^3
#
#
#
# Elastic Constant Matrix: (Units=GPa)
#
#
# Indices 1 2 3 4 5 6 
#
# 1 49.2093 41.8736 34.6644 0.0000 0.0000 0.0000
# 2 41.8736 115.3814 46.0257 0.0000 0.0000 0.0000
# 3 34.6644 46.0257 97.3543 0.0000 0.0000 0.0000
# 4 0.0000 0.0000 0.0000 36.3591 0.0000 0.0000
# 5 0.0000 0.0000 0.0000 0.0000 25.4812 0.0000
# 6 0.0000 0.0000 0.0000 0.0000 0.0000 31.6177
#
#
#
# Elastic Compliance Matrix: (Units=1/GPa)
#
#
# Indices 1 2 3 4 5 6 
#
# 1 0.033412 -0.009095 -0.007597 0.000000 0.000000 0.000000
# 2 -0.009095 0.013157 -0.002982 0.000000 0.000000 0.000000
# 3 -0.007597 -0.002982 0.014386 0.000000 0.000000 0.000000
# 4 0.000000 0.000000 0.000000 0.027503 0.000000 0.000000
# 5 0.000000 0.000000 0.000000 0.000000 0.039245 0.000000
# 6 0.000000 0.000000 0.000000 0.000000 0.000000 0.031628
#
#
# Mechanical properties :
#
#
# Convention : Reuss Voigt Hill
#
# Bulk Modulus (GPa) = 46.27951 56.34138 51.31045
# Shear Modulus (GPa) = 24.28566 27.98368 26.13467
#
# Velocity S-wave (km/s) = 3.60449 3.86920 3.73919
# Velocity P-wave (km/s) = 6.48705 7.07831 6.78912
#
# Compressibility (1/GPa) = 0.02160783
#
# Stress axis : x y z
#
# Youngs Moduli (GPa) = 29.92894 76.00420 69.50996
#
# Poissons Ratio (x) = 0.69129 0.52807
# Poissons Ratio (y) = 0.27222 0.20726
# Poissons Ratio (z) = 0.22737 0.22662
#
# Static dielectric constant tensor:
#      x y z
#    x 3.275200 0.000000 0.000000 
#    y 0.000000 3.226140 0.000000 
#    z 0.000000 0.000000 3.531250 
# 
# 
# High freq. dielectric constant tensor:
#      x y z
#    x 1.706760 0.000000 0.000000 
#    y 0.000000 1.728540 0.000000 
#    z 0.000000 0.000000 1.723380 
# 
# From -- ./inp_files/15774.got.cif
#   From: 2010.03.12/outbox.cif.g09.slc.cpg/sg35_8_cif.got.tgz:15774.got - 2010.04.14 02:02:04.
