data_PCOD8172353
_publ_section_title
;
Structure prediction by ZEFSAII (Michael W. Deem and Ramdas Pophale) SiO2 
 PCOD8172353
Probable space group: C M M 2
;
_chemical_formula_sum "Si O2"
_cell_formula_units_Z 64
_cell_length_a 29.059012
_cell_length_b 8.933538
_cell_length_c 12.392750
_cell_angle_alpha 90.000000
_cell_angle_beta 90.000000
_cell_angle_gamma 90.000000
_cell_volume 3217.155272
_symmetry_space_group_name_H-M "C M M 2"
_symmetry_group_IT_number 35
_symmetry_cell_setting 'orthorhombic'
loop_
_space_group_symop_operation_xyz
x,y,z
-x,-y,z
-x,y,z
x,-y,z
1/2+x,1/2+y,z
1/2-x,1/2-y,z
1/2-x,1/2+y,z
1/2+x,1/2-y,z
loop_
_atom_site_type_symbol
_atom_site_label
_atom_site_fract_x
_atom_site_fract_y
_atom_site_fract_z
Si Si1 0.704686 0.830007 0.969260
Si Si2 0.575279 0.673001 0.830831
Si Si3 0.149209 0.821924 0.539584
Si Si4 0.799792 0.823208 0.323342
Si Si5 0.049008 0.172575 0.592327
Si Si6 0.335616 0.830192 0.751032
Si Si7 0.448586 0.172322 0.047024
Si Si8 0.861951 0.822691 0.123400
O O1 0.750000 0.750000 0.014863
O O2 0.705595 0.826689 0.838426
O O3 0.703942 0.000000 0.012137
O O4 0.660692 0.742314 0.015087
O O5 0.581103 0.500000 0.863263
O O6 0.546592 0.691503 0.721222
O O7 0.624513 0.743756 0.811740
O O8 0.550264 0.757030 0.927928
O O9 0.174596 0.769253 0.431756
O O10 0.096234 0.757765 0.542634
O O11 0.177734 0.752530 0.639724
O O12 0.148993 0.000000 0.552993
O O13 0.750000 0.750000 0.313402
O O14 0.832270 0.769321 0.225953
O O15 0.793056 0.000000 0.322969
O O16 0.000000 0.242320 0.548582
O O17 0.049837 0.000000 0.559789
O O18 0.350132 0.000000 0.724166
O O19 0.500000 0.187091 0.095736
O O20 0.413680 0.257319 0.128062
O O21 0.433351 0.000000 0.037675
O O22 0.864645 0.000000 0.117495
#
# Coordination Sequence:
#
# PCOD8172353 Si02
#       8
#     8   8   8   8   8   8   8   8
#     4  11  23  37  56  83 117 152 190 237 294 358
#     4  10  18  30  52  80 114 156 198 239 282 337
#     4   9  19  36  57  82 114 147 189 240 291 347
#     4  10  23  42  63  88 112 144 194 250 302 354
#     4   8  14  26  48  79 111 145 184 225 273 330
#     4  10  20  34  53  81 118 155 192 235 290 349
#     4  11  23  37  55  83 120 159 197 238 288 347
#     4  11  23  40  62  85 114 150 196 248 298 353
#
# _framework density 19.893353000000001
#
# number of rings (size 3 to 8) (size 9 to 14) (size 15 to 20)
#    0.000    2.000    1.250    3.375    0.000    6.000 
#    0.000    3.125    0.000    5.625    0.000    0.000 
#    0.000    0.000    0.000    0.000    0.000    0.000 
#
# Total GULP energy -396634.370031 kJ/mol
# GULP energy per Si atom -12394.824063 kJ/mol
# Density = 1.984808 g / cm^3
# Si number density = 19.893353 Si / 1000 Ang^3
#
#
#
# Elastic Constant Matrix: (Units=GPa)
#
#
# Indices 1 2 3 4 5 6 
#
# 1 115.3236 45.9668 49.8224 0.0000 0.0000 0.0000
# 2 45.9668 91.1927 35.8410 0.0000 0.0000 0.0000
# 3 49.8224 35.8410 109.7412 0.0000 0.0000 0.0000
# 4 0.0000 0.0000 0.0000 20.7476 0.0000 0.0000
# 5 0.0000 0.0000 0.0000 0.0000 25.7613 0.0000
# 6 0.0000 0.0000 0.0000 0.0000 0.0000 27.9215
#
#
#
# Elastic Compliance Matrix: (Units=1/GPa)
#
#
# Indices 1 2 3 4 5 6 
#
# 1 0.012253 -0.004578 -0.004068 0.000000 0.000000 0.000000
# 2 -0.004578 0.014291 -0.002589 0.000000 0.000000 0.000000
# 3 -0.004068 -0.002589 0.011805 0.000000 0.000000 0.000000
# 4 0.000000 0.000000 0.000000 0.048198 0.000000 0.000000
# 5 0.000000 0.000000 0.000000 0.000000 0.038818 0.000000
# 6 0.000000 0.000000 0.000000 0.000000 0.000000 0.035815
#
#
# Mechanical properties :
#
#
# Convention : Reuss Voigt Hill
#
# Bulk Modulus (GPa) = 62.97406 64.39087 63.68246
# Shear Modulus (GPa) = 26.46311 27.19456 26.82883
#
# Velocity S-wave (km/s) = 3.65121 3.70133 3.67636
# Velocity P-wave (km/s) = 7.03560 7.12073 7.07829
#
# Compressibility (1/GPa) = 0.01587956
#
# Stress axis : x y z
#
# Youngs Moduli (GPa) = 81.61075 69.97521 84.71147
#
# Poissons Ratio (x) = 0.32032 0.34460
# Poissons Ratio (y) = 0.37358 0.21932
# Poissons Ratio (z) = 0.33199 0.18117
#
# Static dielectric constant tensor:
#      x y z
#    x 3.743280 0.000000 0.000000 
#    y 0.000000 3.543350 0.000000 
#    z 0.000000 0.000000 3.793240 
# 
# 
# High freq. dielectric constant tensor:
#      x y z
#    x 1.781910 0.000000 0.000000 
#    y 0.000000 1.767290 0.000000 
#    z 0.000000 0.000000 1.755660 
# 
# From -- ./inp_files/14576.got.cif
#   From: 2010.03.12/outbox.cif.g09.slc.cpg/sg35_8_cif.got.tgz:14576.got - 2010.04.14 02:02:04.
