data_PCOD8172193
_publ_section_title
;
Structure prediction by ZEFSAII (Michael W. Deem and Ramdas Pophale) SiO2 
 PCOD8172193
Probable space group: C M M 2
;
_chemical_formula_sum "Si O2"
_cell_formula_units_Z 48
_cell_length_a 31.119671
_cell_length_b 8.492078
_cell_length_c 9.799192
_cell_angle_alpha 90.000000
_cell_angle_beta 90.000000
_cell_angle_gamma 90.000000
_cell_volume 2589.639069
_symmetry_space_group_name_H-M "C M M 2"
_symmetry_group_IT_number 35
_symmetry_cell_setting 'orthorhombic'
loop_
_space_group_symop_operation_xyz
x,y,z
-x,-y,z
-x,y,z
x,-y,z
1/2+x,1/2+y,z
1/2-x,1/2-y,z
1/2-x,1/2+y,z
1/2+x,1/2-y,z
loop_
_atom_site_type_symbol
_atom_site_label
_atom_site_fract_x
_atom_site_fract_y
_atom_site_fract_z
Si Si1 0.620474 0.814575 0.577980
Si Si2 0.952750 0.686975 0.776604
Si Si3 0.450092 0.817994 0.084287
Si Si4 0.118420 0.817760 0.280327
Si Si5 0.293939 0.183673 0.261701
Si Si6 0.207825 0.184975 0.562975
O O1 0.581471 0.746303 0.668668
O O2 0.611471 0.777202 0.420284
O O3 0.663387 0.729611 0.637317
O O4 0.625612 0.000000 0.597495
O O5 0.954475 0.500000 0.770492
O O6 0.000000 0.754297 0.738836
O O7 0.940344 0.737887 0.930043
O O8 0.500000 0.791778 0.119930
O O9 0.421925 0.711045 0.183419
O O10 0.437412 0.000000 0.105044
O O11 0.162504 0.763800 0.203783
O O12 0.122144 0.000000 0.318026
O O13 0.250000 0.250000 0.192524
O O14 0.292908 0.219406 0.421909
O O15 0.296410 0.000000 0.232719
O O16 0.250000 0.250000 0.644401
O O17 0.211188 0.000000 0.536901
#
# Coordination Sequence:
#
# PCOD8172193 Si02
#       6
#     8   8   8   8   8   8
#     4  10  18  30  50  76 102 129 163 203 247 290
#     4   8  16  32  54  76  96 123 163 206 246 293
#     4   9  18  35  56  74  94 126 167 207 249 298
#     4  11  21  32  47  73 106 135 165 202 244 289
#     4  10  17  28  46  69  97 129 164 201 244 290
#     4  10  17  27  43  66  97 130 163 199 241 288
#
# _framework density 18.535402000000001
#
# number of rings (size 3 to 8) (size 9 to 14) (size 15 to 20)
#    0.000    2.333    0.000    9.000    0.000    1.000 
#    0.000    3.333    0.000    4.500    0.000    4.667 
#    0.000    0.000    0.000    0.000    0.000    0.000 
#
# Total GULP energy -297477.842778 kJ/mol
# GULP energy per Si atom -12394.910116 kJ/mol
# Density = 1.849321 g / cm^3
# Si number density = 18.535402 Si / 1000 Ang^3
#
#
#
# Elastic Constant Matrix: (Units=GPa)
#
#
# Indices 1 2 3 4 5 6 
#
# 1 156.0260 30.8915 59.2695 0.0000 0.0000 0.0000
# 2 30.8915 70.2381 10.6925 0.0000 0.0000 0.0000
# 3 59.2695 10.6925 54.7000 0.0000 0.0000 0.0000
# 4 0.0000 0.0000 0.0000 8.0282 0.0000 0.0000
# 5 0.0000 0.0000 0.0000 0.0000 5.0021 0.0000
# 6 0.0000 0.0000 0.0000 0.0000 0.0000 31.6301
#
#
#
# Elastic Compliance Matrix: (Units=1/GPa)
#
#
# Indices 1 2 3 4 5 6 
#
# 1 0.011583 -0.003281 -0.011909 0.000000 0.000000 0.000000
# 2 -0.003281 0.015604 0.000505 0.000000 0.000000 0.000000
# 3 -0.011909 0.000505 0.031086 0.000000 0.000000 0.000000
# 4 0.000000 0.000000 0.000000 0.124560 0.000000 0.000000
# 5 0.000000 0.000000 0.000000 0.000000 0.199918 0.000000
# 6 0.000000 0.000000 0.000000 0.000000 0.000000 0.031615
#
#
# Mechanical properties :
#
#
# Convention : Reuss Voigt Hill
#
# Bulk Modulus (GPa) = 34.59856 53.63013 44.11435
# Shear Modulus (GPa) = 11.02852 20.93946 15.98399
#
# Velocity S-wave (km/s) = 2.44190 3.36475 2.93976
# Velocity P-wave (km/s) = 5.16307 6.64019 5.94766
#
# Compressibility (1/GPa) = 0.02890294
#
# Stress axis : x y z
#
# Youngs Moduli (GPa) = 86.33611 64.08815 32.16844
#
# Poissons Ratio (x) = 0.21029 0.38309
# Poissons Ratio (y) = 0.28329 -0.01625
# Poissons Ratio (z) = 1.02816 -0.03238
#
# Static dielectric constant tensor:
#      x y z
#    x 4.385530 0.000000 0.000000 
#    y 0.000000 3.223020 0.000000 
#    z 0.000000 0.000000 2.996470 
# 
# 
# High freq. dielectric constant tensor:
#      x y z
#    x 1.746240 0.000000 0.000000 
#    y 0.000000 1.713850 0.000000 
#    z 0.000000 0.000000 1.661180 
# 
# From -- ./inp_files/11467.got.cif
#   From: 2010.03.12/outbox.cif.g09.slc.cpg/sg35_6_cif.got.tgz:11467.got - 2010.04.14 02:02:04.
