data_PCOD8172222
_publ_section_title
;
Structure prediction by ZEFSAII (Michael W. Deem and Ramdas Pophale) SiO2 
 PCOD8172222
Probable space group: C M M 2
;
_chemical_formula_sum "Si O2"
_cell_formula_units_Z 64
_cell_length_a 14.745141
_cell_length_b 28.113031
_cell_length_c 9.058637
_cell_angle_alpha 90.000000
_cell_angle_beta 90.000000
_cell_angle_gamma 90.000000
_cell_volume 3755.082285
_symmetry_space_group_name_H-M "C M M 2"
_symmetry_group_IT_number 35
_symmetry_cell_setting 'orthorhombic'
loop_
_space_group_symop_operation_xyz
x,y,z
-x,-y,z
-x,y,z
x,-y,z
1/2+x,1/2+y,z
1/2-x,1/2-y,z
1/2-x,1/2+y,z
1/2+x,1/2-y,z
loop_
_atom_site_type_symbol
_atom_site_label
_atom_site_fract_x
_atom_site_fract_y
_atom_site_fract_z
Si Si1 0.898401 0.182371 0.930740
Si Si2 0.601646 0.052527 0.931790
Si Si3 0.287514 0.858268 0.585262
Si Si4 0.784546 0.640008 0.930906
Si Si5 0.098759 0.818119 0.592408
Si Si6 0.399256 0.219923 0.082346
Si Si7 0.847535 0.269458 0.406497
Si Si8 0.397931 0.947380 0.581208
O O1 0.824046 0.140979 0.961411
O O2 0.889701 0.198763 0.761126
O O3 0.000000 0.162959 0.965529
O O4 0.873458 0.226996 0.032371
O O5 0.500000 0.066423 0.984549
O O6 0.673939 0.090754 0.993536
O O7 0.604689 0.051585 0.756570
O O8 0.627265 0.000000 0.992758
O O9 0.306909 0.854328 0.758771
O O10 0.179547 0.854704 0.550000
O O11 0.341413 0.815616 0.509355
O O12 0.326345 0.908198 0.521887
O O13 0.827858 0.683783 0.016035
O O14 0.099136 0.770924 0.494699
O O15 0.000000 0.843115 0.569999
O O16 0.500000 0.207035 0.024844
O O17 0.400500 0.217143 0.258995
O O18 0.750000 0.250000 0.360010
O O19 0.500000 0.934426 0.528168
O O20 0.370877 0.000000 0.521175
#
# Coordination Sequence:
#
# PCOD8172222 Si02
#       8
#     8   8   8   8   8   8   8   8
#     4   9  18  30  44  62  86 117 149 179 212 251
#     4   8  14  25  42  65  88 108 136 175 216 257
#     4   9  18  29  46  67  85 112 148 181 213 252
#     4  10  17  29  47  65  86 113 147 182 213 251
#     4   9  17  30  45  62  87 117 147 178 212 252
#     4  11  21  30  42  63  90 118 145 176 216 257
#     4  10  19  30  43  62  89 118 146 176 212 254
#     4   8  14  25  42  64  87 109 137 176 217 255
#
# _framework density 17.043569000000002
#
# number of rings (size 3 to 8) (size 9 to 14) (size 15 to 20)
#    0.000    2.750    0.000    3.375    0.000    3.500 
#    0.000    0.000    0.000    1.500    0.000    7.000 
#    0.000    0.000    0.000    7.125    0.000    9.625 
#
# Total GULP energy -396610.016966 kJ/mol
# GULP energy per Si atom -12394.063030 kJ/mol
# Density = 1.700478 g / cm^3
# Si number density = 17.043569 Si / 1000 Ang^3
#
#
#
# Elastic Constant Matrix: (Units=GPa)
#
#
# Indices 1 2 3 4 5 6 
#
# 1 127.4682 81.2351 26.0045 0.0000 0.0000 0.0000
# 2 81.2351 115.2430 22.3086 0.0000 0.0000 0.0000
# 3 26.0045 22.3086 38.5251 0.0000 0.0000 0.0000
# 4 0.0000 0.0000 0.0000 0.5621 0.0000 0.0000
# 5 0.0000 0.0000 0.0000 0.0000 16.2825 0.0000
# 6 0.0000 0.0000 0.0000 0.0000 0.0000 29.1519
#
#
#
# Elastic Compliance Matrix: (Units=1/GPa)
#
#
# Indices 1 2 3 4 5 6 
#
# 1 0.014899 -0.009636 -0.004477 0.000000 0.000000 0.000000
# 2 -0.009636 0.016005 -0.002763 0.000000 0.000000 0.000000
# 3 -0.004477 -0.002763 0.030580 0.000000 0.000000 0.000000
# 4 0.000000 0.000000 0.000000 1.779190 0.000000 0.000000
# 5 0.000000 0.000000 0.000000 0.000000 0.061416 0.000000
# 6 0.000000 0.000000 0.000000 0.000000 0.000000 0.034303
#
#
# Mechanical properties :
#
#
# Convention : Reuss Voigt Hill
#
# Bulk Modulus (GPa) = 36.06178 60.03697 48.04938
# Shear Modulus (GPa) = 2.52603 19.31182 10.91893
#
# Velocity S-wave (km/s) = 1.21874 3.36979 2.53385
# Velocity P-wave (km/s) = 4.81508 7.10230 6.06744
#
# Compressibility (1/GPa) = 0.02773019
#
# Stress axis : x y z
#
# Youngs Moduli (GPa) = 67.11636 62.48164 32.70162
#
# Poissons Ratio (x) = 0.60207 0.14642
# Poissons Ratio (y) = 0.64673 0.09037
# Poissons Ratio (z) = 0.30050 0.17267
#
# Static dielectric constant tensor:
#      x y z
#    x 3.412330 0.000000 0.000000 
#    y 0.000000 3.270140 0.000000 
#    z 0.000000 0.000000 2.904860 
# 
# 
# High freq. dielectric constant tensor:
#      x y z
#    x 1.665750 0.000000 0.000000 
#    y 0.000000 1.632120 0.000000 
#    z 0.000000 0.000000 1.630800 
# 
# From -- ./inp_files/8008.got.cif
#   From: 2010.03.12/outbox.cif.g09.slc.cpg/sg35_5_cif.got.tgz:8008.got - 2010.04.14 02:02:04.
