data_PCOD8172483
_publ_section_title
;
Structure prediction by ZEFSAII (Michael W. Deem and Ramdas Pophale) SiO2 
 PCOD8172483
Probable space group: C M M 2
;
_chemical_formula_sum "Si O2"
_cell_formula_units_Z 18
_cell_length_a 7.671021
_cell_length_b 15.538178
_cell_length_c 8.484111
_cell_angle_alpha 90.000000
_cell_angle_beta 90.000000
_cell_angle_gamma 90.000000
_cell_volume 1011.252494
_symmetry_space_group_name_H-M "C M M 2"
_symmetry_group_IT_number 35
_symmetry_cell_setting 'orthorhombic'
loop_
_space_group_symop_operation_xyz
x,y,z
-x,-y,z
-x,y,z
x,-y,z
1/2+x,1/2+y,z
1/2-x,1/2-y,z
1/2-x,1/2+y,z
1/2+x,1/2-y,z
loop_
_atom_site_type_symbol
_atom_site_label
_atom_site_fract_x
_atom_site_fract_y
_atom_site_fract_z
Si Si1 0.000000 0.000000 0.073990
Si Si2 0.500000 0.595226 0.772933
Si Si3 0.307165 0.500000 0.375229
Si Si4 0.197108 0.658135 0.567325
O O1 0.174036 0.000000 0.184100
O O2 0.000000 0.914010 0.964045
O O3 0.500000 0.500000 0.697262
O O4 0.324582 0.642429 0.715650
O O5 0.500000 0.500000 0.451259
O O6 0.209582 0.585868 0.432112
O O7 0.250000 0.750000 0.491111
O O8 0.000000 0.659733 0.632063
#
# Coordination Sequence:
#
# PCOD8172483 Si02
#       4
#     2   4   4   8
#     4   8  20  38  66  72 128 158 180 232 306 336
#     4  10  19  40  59  83 117 151 192 241 283 347
#     4  10  18  38  58  85 115 153 189 231 290 340
#     4  12  21  35  63  89 114 150 201 245 283 331
#
# _framework density 17.799710000000001
#
# number of rings (size 3 to 8) (size 9 to 14) (size 15 to 20)
#    1.333    0.000    6.667    0.667    0.000    0.000 
#    0.000    6.667    0.000    0.000    0.000    0.000 
#    0.000    0.000    0.000    0.000    0.000    0.000 
#
# Total GULP energy -111503.767581 kJ/mol
# GULP energy per Si atom -12389.307509 kJ/mol
# Density = 1.775920 g / cm^3
# Si number density = 17.799710 Si / 1000 Ang^3
#
#
#
# Elastic Constant Matrix: (Units=GPa)
#
#
# Indices 1 2 3 4 5 6 
#
# 1 152.4061 41.1364 41.1055 0.0000 0.0000 0.0000
# 2 41.1364 142.9898 45.3629 0.0000 0.0000 0.0000
# 3 41.1055 45.3629 127.2434 0.0000 0.0000 0.0000
# 4 0.0000 0.0000 0.0000 10.4213 0.0000 0.0000
# 5 0.0000 0.0000 0.0000 0.0000 17.0633 0.0000
# 6 0.0000 0.0000 0.0000 0.0000 0.0000 30.3683
#
#
#
# Elastic Compliance Matrix: (Units=1/GPa)
#
#
# Indices 1 2 3 4 5 6 
#
# 1 0.007485 -0.001563 -0.001861 0.000000 0.000000 0.000000
# 2 -0.001563 0.008212 -0.002423 0.000000 0.000000 0.000000
# 3 -0.001861 -0.002423 0.009324 0.000000 0.000000 0.000000
# 4 0.000000 0.000000 0.000000 0.095957 0.000000 0.000000
# 5 0.000000 0.000000 0.000000 0.000000 0.058605 0.000000
# 6 0.000000 0.000000 0.000000 0.000000 0.000000 0.032929
#
#
# Mechanical properties :
#
#
# Convention : Reuss Voigt Hill
#
# Bulk Modulus (GPa) = 75.03149 75.31656 75.17403
# Shear Modulus (GPa) = 21.86770 31.23955 26.55362
#
# Velocity S-wave (km/s) = 3.50886 4.19389 3.86657
# Velocity P-wave (km/s) = 7.65904 8.11522 7.89043
#
# Compressibility (1/GPa) = 0.01332774
#
# Stress axis : x y z
#
# Youngs Moduli (GPa) = 133.59710 121.77694 107.25301
#
# Poissons Ratio (x) = 0.19034 0.19958
# Poissons Ratio (y) = 0.20882 0.25983
# Poissons Ratio (z) = 0.24860 0.29501
#
# Static dielectric constant tensor:
#      x y z
#    x 3.282650 0.000000 0.000000 
#    y 0.000000 3.393580 0.000000 
#    z 0.000000 0.000000 2.929780 
# 
# 
# High freq. dielectric constant tensor:
#      x y z
#    x 1.690520 0.000000 0.000000 
#    y 0.000000 1.694450 0.000000 
#    z 0.000000 0.000000 1.655240 
# 
# From -- ./inp_files/4256.got.cif
#   From: 2010.03.12/outbox.cif.g09.slc.cpg/sg35_3_cif.got.tgz:4256.got - 2010.04.14 02:02:04.
