data_PCOD8172823
_publ_section_title
;
Structure prediction by ZEFSAII (Michael W. Deem and Ramdas Pophale) SiO2 
 PCOD8172823
Probable space group: C M M 2
;
_chemical_formula_sum "Si O2"
_cell_formula_units_Z 48
_cell_length_a 8.777577
_cell_length_b 18.247568
_cell_length_c 15.731773
_cell_angle_alpha 90.000000
_cell_angle_beta 90.000000
_cell_angle_gamma 90.000000
_cell_volume 2519.749164
_symmetry_space_group_name_H-M "C M M 2"
_symmetry_group_IT_number 35
_symmetry_cell_setting 'orthorhombic'
loop_
_space_group_symop_operation_xyz
x,y,z
-x,-y,z
-x,y,z
x,-y,z
1/2+x,1/2+y,z
1/2-x,1/2-y,z
1/2-x,1/2+y,z
1/2+x,1/2-y,z
loop_
_atom_site_type_symbol
_atom_site_label
_atom_site_fract_x
_atom_site_fract_y
_atom_site_fract_z
Si Si1 0.819370 0.831002 0.500000
Si Si2 0.318582 0.582029 0.028257
Si Si3 0.820106 0.169999 0.867733
Si Si4 0.176693 0.413914 0.346768
Si Si5 0.676538 0.327825 0.684779
Si Si6 0.319753 0.329858 0.191637
O O1 0.750000 0.750000 0.488886
O O2 0.740106 0.886604 0.436369
O O3 0.781542 0.865427 0.594413
O O4 0.000000 0.826945 0.483024
O O5 0.500000 0.579761 0.028085
O O6 0.252239 0.500000 0.036117
O O7 0.258372 0.629574 0.107387
O O8 0.255060 0.617199 0.941005
O O9 0.750000 0.250000 0.878697
O O10 0.777741 0.133498 0.774738
O O11 0.000000 0.178297 0.878267
O O12 0.203857 0.500000 0.340527
O O13 0.270553 0.375912 0.272708
O O14 0.000000 0.392974 0.338508
O O15 0.500000 0.312792 0.685866
O O16 0.750000 0.250000 0.685472
O O17 0.500000 0.322930 0.190917
O O18 0.250000 0.250000 0.196178
#
# Coordination Sequence:
#
# PCOD8172823 Si02
#       6
#     8   8   8   8   8   8
#     4  10  19  33  54  79 107 138 176 218 259 306
#     4   9  18  32  51  76 105 137 171 208 253 304
#     4   9  16  29  50  75 103 134 171 212 252 297
#     4  11  24  40  56  76 104 137 172 212 261 313
#     4   8  15  27  46  74 103 133 169 210 254 296
#     4  11  22  37  58  81 105 134 172 215 258 307
#
# _framework density 19.049513999999999
#
# number of rings (size 3 to 8) (size 9 to 14) (size 15 to 20)
#    0.000    2.333    0.000    3.000    0.000    2.667 
#    0.000    1.667    0.000    5.500    0.000    0.000 
#    0.000    0.000    0.000    0.000    0.000    0.000 
#
# Total GULP energy -297385.952854 kJ/mol
# GULP energy per Si atom -12391.081369 kJ/mol
# Density = 1.900616 g / cm^3
# Si number density = 19.049514 Si / 1000 Ang^3
#
#
#
# Elastic Constant Matrix: (Units=GPa)
#
#
# Indices 1 2 3 4 5 6 
#
# 1 43.3324 30.8015 33.7002 0.0000 0.0000 0.0000
# 2 30.8015 93.5428 63.4780 0.0000 0.0000 0.0000
# 3 33.7002 63.4780 180.5497 0.0000 0.0000 0.0000
# 4 0.0000 0.0000 0.0000 9.8942 0.0000 0.0000
# 5 0.0000 0.0000 0.0000 0.0000 19.3960 0.0000
# 6 0.0000 0.0000 0.0000 0.0000 0.0000 11.8155
#
#
#
# Elastic Compliance Matrix: (Units=1/GPa)
#
#
# Indices 1 2 3 4 5 6 
#
# 1 0.031251 -0.008316 -0.002909 0.000000 0.000000 0.000000
# 2 -0.008316 0.016253 -0.004162 0.000000 0.000000 0.000000
# 3 -0.002909 -0.004162 0.007545 0.000000 0.000000 0.000000
# 4 0.000000 0.000000 0.000000 0.101069 0.000000 0.000000
# 5 0.000000 0.000000 0.000000 0.000000 0.051557 0.000000
# 6 0.000000 0.000000 0.000000 0.000000 0.000000 0.084634
#
#
# Mechanical properties :
#
#
# Convention : Reuss Voigt Hill
#
# Bulk Modulus (GPa) = 41.19585 63.70939 52.45262
# Shear Modulus (GPa) = 15.09771 20.85083 17.97427
#
# Velocity S-wave (km/s) = 2.81828 3.31200 3.07507
# Velocity P-wave (km/s) = 5.68004 6.93848 6.34056
#
# Compressibility (1/GPa) = 0.02427429
#
# Stress axis : x y z
#
# Youngs Moduli (GPa) = 31.99874 61.52753 132.53845
#
# Poissons Ratio (x) = 0.51166 0.38561
# Poissons Ratio (y) = 0.26610 0.55163
# Poissons Ratio (z) = 0.09310 0.25608
#
# Static dielectric constant tensor:
#      x y z
#    x 3.414650 0.000000 0.000000 
#    y 0.000000 3.321450 0.000000 
#    z 0.000000 0.000000 4.327150 
# 
# 
# High freq. dielectric constant tensor:
#      x y z
#    x 1.729170 0.000000 0.000000 
#    y 0.000000 1.715690 0.000000 
#    z 0.000000 0.000000 1.772830 
# 
# From -- ./inp_files/15076.got.cif
#   From: 2010.03.12/outbox.cif.g09.slc.cpg/sg35_8_cif.got.tgz:15076.got - 2010.04.14 02:02:04.
