data_PCOD8172854
_publ_section_title
;
Structure prediction by ZEFSAII (Michael W. Deem and Ramdas Pophale) SiO2 
 PCOD8172854
Probable space group: C M M 2
;
_chemical_formula_sum "Si O2"
_cell_formula_units_Z 64
_cell_length_a 8.721143
_cell_length_b 29.029819
_cell_length_c 12.568948
_cell_angle_alpha 90.000000
_cell_angle_beta 90.000000
_cell_angle_gamma 90.000000
_cell_volume 3182.120821
_symmetry_space_group_name_H-M "C M M 2"
_symmetry_group_IT_number 35
_symmetry_cell_setting 'orthorhombic'
loop_
_space_group_symop_operation_xyz
x,y,z
-x,-y,z
-x,y,z
x,-y,z
1/2+x,1/2+y,z
1/2-x,1/2-y,z
1/2-x,1/2+y,z
1/2+x,1/2-y,z
loop_
_atom_site_type_symbol
_atom_site_label
_atom_site_fract_x
_atom_site_fract_y
_atom_site_fract_z
Si Si1 0.681263 0.702686 0.073000
Si Si2 0.178553 0.613320 0.157437
Si Si3 0.321114 0.550527 0.989220
Si Si4 0.680292 0.202926 0.616467
Si Si5 0.670748 0.316228 0.835339
Si Si6 0.681146 0.946428 0.358581
Si Si7 0.168138 0.919702 0.774146
Si Si8 0.183283 0.108487 0.553218
O O1 0.500000 0.703813 0.076453
O O2 0.750000 0.750000 0.118707
O O3 0.736769 0.662225 0.151745
O O4 0.739547 0.696643 0.951032
O O5 0.214244 0.585395 0.051267
O O6 0.236409 0.582350 0.256072
O O7 0.000000 0.623156 0.166343
O O8 0.500000 0.566405 0.992710
O O9 0.302410 0.500000 0.039628
O O10 0.259309 0.548315 0.866243
O O11 0.500000 0.202255 0.599702
O O12 0.750000 0.250000 0.567809
O O13 0.718876 0.201819 0.742244
O O14 0.750768 0.160262 0.549750
O O15 0.500000 0.294929 0.818985
O O16 0.659253 0.370635 0.831123
O O17 0.500000 0.942610 0.375240
O O18 0.766582 0.923189 0.456755
O O19 0.730810 0.000000 0.347302
O O20 0.253200 0.916083 0.660252
O O21 0.000000 0.939213 0.748187
O O22 0.000000 0.112729 0.559357
#
# Coordination Sequence:
#
# PCOD8172854 Si02
#       8
#     8   8   8   8   8   8   8   8
#     4  11  22  37  58  86 121 158 200 245 295 353
#     4  11  23  40  61  85 118 156 199 249 300 352
#     4  10  19  33  56  85 117 155 195 237 294 358
#     4  11  21  34  55  85 123 163 203 243 291 349
#     4   9  17  32  53  79 117 160 201 243 287 341
#     4  10  23  44  66  87 115 153 198 251 306 356
#     4   8  15  31  52  80 118 154 186 232 290 343
#     4  10  21  38  61  89 119 152 199 250 299 355
#
# _framework density 20.112373999999999
#
# number of rings (size 3 to 8) (size 9 to 14) (size 15 to 20)
#    0.000    2.000    1.250    3.750    0.000    4.500 
#    0.000    2.500    0.000    3.000    0.000    0.000 
#    0.000    0.000    0.000    0.000    0.000    0.000 
#
# Total GULP energy -396604.845740 kJ/mol
# GULP energy per Si atom -12393.901429 kJ/mol
# Density = 2.006660 g / cm^3
# Si number density = 20.112374 Si / 1000 Ang^3
#
#
#
# Elastic Constant Matrix: (Units=GPa)
#
#
# Indices 1 2 3 4 5 6 
#
# 1 72.5526 45.7851 35.2424 0.0000 0.0000 0.0000
# 2 45.7851 139.1759 61.8567 0.0000 0.0000 0.0000
# 3 35.2424 61.8567 105.4327 0.0000 0.0000 0.0000
# 4 0.0000 0.0000 0.0000 22.4823 0.0000 0.0000
# 5 0.0000 0.0000 0.0000 0.0000 25.8060 0.0000
# 6 0.0000 0.0000 0.0000 0.0000 0.0000 30.9206
#
#
#
# Elastic Compliance Matrix: (Units=1/GPa)
#
#
# Indices 1 2 3 4 5 6 
#
# 1 0.018300 -0.004466 -0.003497 0.000000 0.000000 0.000000
# 2 -0.004466 0.010810 -0.004849 0.000000 0.000000 0.000000
# 3 -0.003497 -0.004849 0.013498 0.000000 0.000000 0.000000
# 4 0.000000 0.000000 0.000000 0.044479 0.000000 0.000000
# 5 0.000000 0.000000 0.000000 0.000000 0.038751 0.000000
# 6 0.000000 0.000000 0.000000 0.000000 0.000000 0.032341
#
#
# Mechanical properties :
#
#
# Convention : Reuss Voigt Hill
#
# Bulk Modulus (GPa) = 58.87829 66.99218 62.93524
# Shear Modulus (GPa) = 26.39020 27.46025 26.92523
#
# Velocity S-wave (km/s) = 3.62627 3.69906 3.66285
# Velocity P-wave (km/s) = 6.84627 7.18508 7.01772
#
# Compressibility (1/GPa) = 0.01698419
#
# Stress axis : x y z
#
# Youngs Moduli (GPa) = 54.64467 92.51115 74.08234
#
# Poissons Ratio (x) = 0.41316 0.25906
# Poissons Ratio (y) = 0.24405 0.35923
# Poissons Ratio (z) = 0.19108 0.44859
#
# Static dielectric constant tensor:
#      x y z
#    x 3.439810 0.000000 0.000000 
#    y 0.000000 3.885720 0.000000 
#    z 0.000000 0.000000 3.618760 
# 
# 
# High freq. dielectric constant tensor:
#      x y z
#    x 1.765680 0.000000 0.000000 
#    y 0.000000 1.796230 0.000000 
#    z 0.000000 0.000000 1.769040 
# 
# From -- ./inp_files/11841.got.cif
#   From: 2010.03.12/outbox.cif.g09.slc.cpg/sg35_6_cif.got.tgz:11841.got - 2010.04.14 02:02:04.
