data_PCOD8172191
_publ_section_title
;
Structure prediction by ZEFSAII (Michael W. Deem and Ramdas Pophale) SiO2 
 PCOD8172191
Probable space group: C M M 2
;
_chemical_formula_sum "Si O2"
_cell_formula_units_Z 56
_cell_length_a 8.833026
_cell_length_b 30.737378
_cell_length_c 12.715760
_cell_angle_alpha 90.000000
_cell_angle_beta 90.000000
_cell_angle_gamma 90.000000
_cell_volume 3452.380454
_symmetry_space_group_name_H-M "C M M 2"
_symmetry_group_IT_number 35
_symmetry_cell_setting 'orthorhombic'
loop_
_space_group_symop_operation_xyz
x,y,z
-x,-y,z
-x,y,z
x,-y,z
1/2+x,1/2+y,z
1/2-x,1/2-y,z
1/2-x,1/2+y,z
1/2+x,1/2-y,z
loop_
_atom_site_type_symbol
_atom_site_label
_atom_site_fract_x
_atom_site_fract_y
_atom_site_fract_z
Si Si1 0.179205 0.118648 0.427000
Si Si2 0.675606 0.386111 0.189982
Si Si3 0.320677 0.206751 0.426577
Si Si4 0.821055 0.950906 0.018358
Si Si5 0.676494 0.290804 0.198726
Si Si6 0.832922 0.551615 0.809855
Si Si7 0.177832 0.550460 0.577269
O O1 0.241707 0.110311 0.308133
O O2 0.255815 0.162023 0.476470
O O3 0.223094 0.077179 0.495254
O O4 0.000000 0.125800 0.425939
O O5 0.500000 0.397333 0.197010
O O6 0.751466 0.420743 0.110128
O O7 0.699718 0.337361 0.142032
O O8 0.500000 0.207720 0.438581
O O9 0.250000 0.250000 0.482360
O O10 0.269533 0.207032 0.306130
O O11 0.000000 0.949824 0.022758
O O12 0.759650 0.000000 0.035066
O O13 0.773947 0.932120 0.904240
O O14 0.500000 0.282374 0.222018
O O15 0.750000 0.250000 0.133527
O O16 0.840534 0.500000 0.807799
O O17 0.774290 0.566318 0.694739
O O18 0.000000 0.570784 0.830307
O O19 0.217630 0.500000 0.560064
O O20 0.000000 0.558685 0.559386
#
# Coordination Sequence:
#
# PCOD8172191 Si02
#       7
#     8   8   8   8   8   8   8
#     4  10  19  30  44  65  92 120 151 182 216 262
#     4   8  16  28  40  59  89 118 140 170 213 257
#     4  10  17  27  43  62  86 115 147 182 220 259
#     4   9  16  27  44  63  83 110 144 177 210 252
#     4   9  15  25  40  58  82 111 144 180 216 253
#     4   8  15  29  46  62  82 108 140 181 224 258
#     4   9  18  32  47  63  87 118 148 181 224 267
#
# _framework density 16.220693000000001
#
# number of rings (size 3 to 8) (size 9 to 14) (size 15 to 20)
#    0.000    3.000    0.000    4.714    0.000    1.429 
#    0.000    7.143    0.000    1.714    0.000    1.000 
#    0.000    4.571    0.000    0.000    0.000    0.000 
#
# Total GULP energy -346892.109240 kJ/mol
# GULP energy per Si atom -12389.003901 kJ/mol
# Density = 1.618377 g / cm^3
# Si number density = 16.220693 Si / 1000 Ang^3
#
#
#
# Elastic Constant Matrix: (Units=GPa)
#
#
# Indices 1 2 3 4 5 6 
#
# 1 66.2092 38.3737 25.4317 0.0000 0.0000 0.0000
# 2 38.3737 101.2308 53.4436 0.0000 0.0000 0.0000
# 3 25.4317 53.4436 79.9861 0.0000 0.0000 0.0000
# 4 0.0000 0.0000 0.0000 2.4139 0.0000 0.0000
# 5 0.0000 0.0000 0.0000 0.0000 17.7143 0.0000
# 6 0.0000 0.0000 0.0000 0.0000 0.0000 24.5786
#
#
#
# Elastic Compliance Matrix: (Units=1/GPa)
#
#
# Indices 1 2 3 4 5 6 
#
# 1 0.019552 -0.006380 -0.001954 0.000000 0.000000 0.000000
# 2 -0.006380 0.017344 -0.009560 0.000000 0.000000 0.000000
# 3 -0.001954 -0.009560 0.019511 0.000000 0.000000 0.000000
# 4 0.000000 0.000000 0.000000 0.414260 0.000000 0.000000
# 5 0.000000 0.000000 0.000000 0.000000 0.056452 0.000000
# 6 0.000000 0.000000 0.000000 0.000000 0.000000 0.040686
#
#
# Mechanical properties :
#
#
# Convention : Reuss Voigt Hill
#
# Bulk Modulus (GPa) = 48.49819 53.54711 51.02265
# Shear Modulus (GPa) = 8.19047 17.61983 12.90515
#
# Velocity S-wave (km/s) = 2.24952 3.29942 2.82369
# Velocity P-wave (km/s) = 6.05896 6.89914 6.49266
#
# Compressibility (1/GPa) = 0.02061933
#
# Stress axis : x y z
#
# Youngs Moduli (GPa) = 51.14602 57.65648 51.25320
#
# Poissons Ratio (x) = 0.36786 0.10012
# Poissons Ratio (y) = 0.32632 0.48998
# Poissons Ratio (z) = 0.09992 0.55120
#
# Static dielectric constant tensor:
#      x y z
#    x 3.009400 0.000000 0.000000 
#    y 0.000000 3.610430 0.000000 
#    z 0.000000 0.000000 2.987130 
# 
# 
# High freq. dielectric constant tensor:
#      x y z
#    x 1.617350 0.000000 0.000000 
#    y 0.000000 1.623040 0.000000 
#    z 0.000000 0.000000 1.583130 
# 
# From -- ./inp_files/16074.got.cif
#   From: 2010.03.12/outbox.cif.g09.slc.cpg/sg35_9_cif.got.tgz:16074.got - 2010.04.14 02:02:04.
