data_PCOD8172164
_publ_section_title
;
Structure prediction by ZEFSAII (Michael W. Deem and Ramdas Pophale) SiO2 
 PCOD8172164
Probable space group: C M M 2
;
_chemical_formula_sum "Si O2"
_cell_formula_units_Z 48
_cell_length_a 29.447921
_cell_length_b 16.251659
_cell_length_c 5.255892
_cell_angle_alpha 90.000000
_cell_angle_beta 90.000000
_cell_angle_gamma 90.000000
_cell_volume 2515.352023
_symmetry_space_group_name_H-M "C M M 2"
_symmetry_group_IT_number 35
_symmetry_cell_setting 'orthorhombic'
loop_
_space_group_symop_operation_xyz
x,y,z
-x,-y,z
-x,y,z
x,-y,z
1/2+x,1/2+y,z
1/2-x,1/2-y,z
1/2-x,1/2+y,z
1/2+x,1/2-y,z
loop_
_atom_site_type_symbol
_atom_site_label
_atom_site_fract_x
_atom_site_fract_y
_atom_site_fract_z
Si Si1 0.053812 0.091942 0.412860
Si Si2 0.628555 0.812257 0.941125
Si Si3 0.757395 0.152830 0.457479
Si Si4 0.343386 0.094814 0.441076
Si Si5 0.446303 0.311227 0.912625
Si Si6 0.708588 0.313089 0.957587
O O1 0.070372 0.140226 0.662578
O O2 0.000000 0.086322 0.414169
O O3 0.074535 0.000000 0.416037
O O4 0.070203 0.137916 0.158755
O O5 0.633134 0.857325 0.210263
O O6 0.661750 0.734320 0.924025
O O7 0.638270 0.873922 0.710872
O O8 0.577501 0.777910 0.917255
O O9 0.750000 0.250000 0.495370
O O10 0.710622 0.104754 0.424689
O O11 0.790418 0.133411 0.218236
O O12 0.782824 0.125962 0.718182
O O13 0.356453 0.000000 0.415460
O O14 0.500000 0.295859 0.912558
O O15 0.750000 0.250000 0.996487
#
# Coordination Sequence:
#
# PCOD8172164 Si02
#       6
#     8   8   8   8   8   8
#     4   9  17  33  57  84 113 143 178 225 275 326
#     4  12  21  36  57  82 107 151 185 236 271 328
#     4  10  16  32  53  77 103 130 167 224 264 335
#     4  12  23  35  55  84 110 140 190 240 279 328
#     4  10  21  35  56  87 112 146 194 229 270 326
#     4  10  16  30  55  78  98 129 179 212 258 331
#
# _framework density 19.082816999999999
#
# number of rings (size 3 to 8) (size 9 to 14) (size 15 to 20)
#    0.000    1.500    6.667    2.000    0.000    2.000 
#    0.000    0.000    0.000    9.000    0.000    0.000 
#    0.000    0.000    0.000    0.000    0.000    0.000 
#
# Total GULP energy -297544.539359 kJ/mol
# GULP energy per Si atom -12397.689140 kJ/mol
# Density = 1.903938 g / cm^3
# Si number density = 19.082817 Si / 1000 Ang^3
#
#
#
# Elastic Constant Matrix: (Units=GPa)
#
#
# Indices 1 2 3 4 5 6 
#
# 1 50.9253 28.0228 11.5817 0.0000 0.0000 0.0000
# 2 28.0228 67.5890 23.5880 0.0000 0.0000 0.0000
# 3 11.5817 23.5880 151.5198 0.0000 0.0000 0.0000
# 4 0.0000 0.0000 0.0000 9.4954 0.0000 0.0000
# 5 0.0000 0.0000 0.0000 0.0000 14.1489 0.0000
# 6 0.0000 0.0000 0.0000 0.0000 0.0000 17.4122
#
#
#
# Elastic Compliance Matrix: (Units=1/GPa)
#
#
# Indices 1 2 3 4 5 6 
#
# 1 0.025456 -0.010442 -0.000320 0.000000 0.000000 0.000000
# 2 -0.010442 0.019929 -0.002304 0.000000 0.000000 0.000000
# 3 -0.000320 -0.002304 0.006983 0.000000 0.000000 0.000000
# 4 0.000000 0.000000 0.000000 0.105314 0.000000 0.000000
# 5 0.000000 0.000000 0.000000 0.000000 0.070677 0.000000
# 6 0.000000 0.000000 0.000000 0.000000 0.000000 0.057431
#
#
# Mechanical properties :
#
#
# Convention : Reuss Voigt Hill
#
# Bulk Modulus (GPa) = 38.11844 44.04657 41.08251
# Shear Modulus (GPa) = 15.59248 22.00075 18.79661
#
# Velocity S-wave (km/s) = 2.86159 3.39913 3.14188
# Velocity P-wave (km/s) = 5.56209 6.20785 5.89382
#
# Compressibility (1/GPa) = 0.02623402
#
# Stress axis : x y z
#
# Youngs Moduli (GPa) = 39.28424 50.17833 143.20521
#
# Poissons Ratio (x) = 0.52398 0.04584
# Poissons Ratio (y) = 0.41022 0.32998
# Poissons Ratio (z) = 0.01258 0.11562
#
# Static dielectric constant tensor:
#      x y z
#    x 3.426150 0.000000 0.000000 
#    y 0.000000 3.316200 0.000000 
#    z 0.000000 0.000000 4.729580 
# 
# 
# High freq. dielectric constant tensor:
#      x y z
#    x 1.710090 0.000000 0.000000 
#    y 0.000000 1.704030 0.000000 
#    z 0.000000 0.000000 1.780350 
# 
# From -- ./inp_files/3694.got.cif
#   From: 2010.03.12/outbox.cif.g09.slc.cpg/sg35_2_cif.got.tgz:3694.got - 2010.04.14 02:02:04.
