data_PCOD8172045
_publ_section_title
;
Structure prediction by ZEFSAII (Michael W. Deem and Ramdas Pophale) SiO2 
 PCOD8172045
Probable space group: P N N 2
;
_chemical_formula_sum "Si O2"
_cell_formula_units_Z 28
_cell_length_a 5.464637
_cell_length_b 21.111060
_cell_length_c 12.113652
_cell_angle_alpha 90.000000
_cell_angle_beta 90.000000
_cell_angle_gamma 90.000000
_cell_volume 1397.482736
_symmetry_space_group_name_H-M "P N N 2"
_symmetry_group_IT_number 34
_symmetry_cell_setting 'orthorhombic'
loop_
_space_group_symop_operation_xyz
x,y,z
-x,-y,z
1/2-x,1/2+y,1/2+z
1/2+x,1/2-y,1/2+z
loop_
_atom_site_type_symbol
_atom_site_label
_atom_site_fract_x
_atom_site_fract_y
_atom_site_fract_z
Si Si1 0.353758 0.174074 0.257770
Si Si2 0.940038 0.739216 0.954936
Si Si3 0.207401 0.339737 0.559832
Si Si4 0.383216 0.064141 0.940739
Si Si5 0.406721 0.565308 0.658865
Si Si6 0.812990 0.700426 0.184872
Si Si7 0.803896 0.840117 0.788456
O O1 0.473753 0.181069 0.377702
O O2 0.531809 0.187460 0.154197
O O3 0.247858 0.103093 0.251023
O O4 0.155676 0.230503 0.242498
O O5 0.774120 0.786071 0.882117
O O6 0.784652 0.707985 0.052867
O O7 0.164197 0.779687 0.004722
O O8 0.385112 0.387820 0.620684
O O9 0.075118 0.379050 0.462808
O O10 0.194476 0.091510 0.849783
O O11 0.500000 0.000000 0.892317
O O12 0.254430 0.044740 0.054544
O O13 0.500000 0.500000 0.713820
O O14 0.564467 0.666001 0.226269
O O15 0.064772 0.662622 0.209643
#
# Coordination Sequence:
#
# PCOD8172045 Si02
#       7
#     4   4   4   4   4   4   4
#     4  10  23  35  58  90 123 168 202 256 323 379
#     4  11  20  39  60  85 129 164 204 250 323 387
#     4  11  20  39  56  91 127 155 208 257 311 384
#     4  11  21  35  60  88 123 166 202 258 326 380
#     4  11  21  36  57  90 127 160 207 265 315 381
#     4  11  23  39  57  89 127 160 203 257 310 376
#     4  11  24  38  59  92 126 158 204 258 312 378
#
# _framework density 20.036027000000001
#
# number of rings (size 3 to 8) (size 9 to 14) (size 15 to 20)
#    0.000    1.143    4.286    4.286    0.000    2.286 
#    0.000    0.000    0.000    0.000    3.714    1.000 
#    0.000    0.000    0.000    0.000    0.000    0.000 
#
# Total GULP energy -347108.543137 kJ/mol
# GULP energy per Si atom -12396.733683 kJ/mol
# Density = 1.999042 g / cm^3
# Si number density = 20.036027 Si / 1000 Ang^3
#
#
#
# Elastic Constant Matrix: (Units=GPa)
#
#
# Indices 1 2 3 4 5 6 
#
# 1 99.3874 45.6731 34.2367 0.0000 0.0000 0.0000
# 2 45.6731 123.1378 51.4617 0.0000 0.0000 0.0000
# 3 34.2367 51.4617 101.0481 0.0000 0.0000 0.0000
# 4 0.0000 0.0000 0.0000 14.8477 0.0000 0.0000
# 5 0.0000 0.0000 0.0000 0.0000 18.6356 0.0000
# 6 0.0000 0.0000 0.0000 0.0000 0.0000 34.2927
#
#
#
# Elastic Compliance Matrix: (Units=1/GPa)
#
#
# Indices 1 2 3 4 5 6 
#
# 1 0.012569 -0.003662 -0.002394 0.000000 0.000000 0.000000
# 2 -0.003662 0.011383 -0.004557 0.000000 0.000000 0.000000
# 3 -0.002394 -0.004557 0.013028 0.000000 0.000000 0.000000
# 4 0.000000 0.000000 0.000000 0.067351 0.000000 0.000000
# 5 0.000000 0.000000 0.000000 0.000000 0.053661 0.000000
# 6 0.000000 0.000000 0.000000 0.000000 0.000000 0.029161
#
#
# Mechanical properties :
#
#
# Convention : Reuss Voigt Hill
#
# Bulk Modulus (GPa) = 63.46727 65.14626 64.30676
# Shear Modulus (GPa) = 23.40508 26.36863 24.88685
#
# Velocity S-wave (km/s) = 3.42153 3.63169 3.52817
# Velocity P-wave (km/s) = 6.88146 7.08313 6.98302
#
# Compressibility (1/GPa) = 0.01575615
#
# Stress axis : x y z
#
# Youngs Moduli (GPa) = 79.56153 87.84688 76.75772
#
# Poissons Ratio (x) = 0.32165 0.18374
# Poissons Ratio (y) = 0.29132 0.34977
# Poissons Ratio (z) = 0.19045 0.40030
#
# Static dielectric constant tensor:
#      x y z
#    x 4.291480 0.000000 0.000000 
#    y 0.000000 3.537970 0.000000 
#    z 0.000000 0.000000 3.705060 
# 
# 
# High freq. dielectric constant tensor:
#      x y z
#    x 1.791030 0.000000 0.000000 
#    y 0.000000 1.761130 0.000000 
#    z 0.000000 0.000000 1.760820 
# 
# From -- ./inp_files/4496.got.cif
#   From: 2010.03.12/outbox.cif.g09.slc.cpg/sg34_3_cif.got.tgz:4496.got - 2010.04.14 01:56:33.
