data_PCOD8172969
_publ_section_title
;
Structure prediction by ZEFSAII (Michael W. Deem and Ramdas Pophale) SiO2 
 PCOD8172969
Probable space group: C M M 2
;
_chemical_formula_sum "Si O2"
_cell_formula_units_Z 40
_cell_length_a 8.915279
_cell_length_b 28.662670
_cell_length_c 7.723358
_cell_angle_alpha 90.000000
_cell_angle_beta 90.000000
_cell_angle_gamma 90.000000
_cell_volume 1973.593692
_symmetry_space_group_name_H-M "C M M 2"
_symmetry_group_IT_number 35
_symmetry_cell_setting 'orthorhombic'
loop_
_space_group_symop_operation_xyz
x,y,z
-x,-y,z
-x,y,z
x,-y,z
1/2+x,1/2+y,z
1/2-x,1/2-y,z
1/2-x,1/2+y,z
1/2+x,1/2-y,z
loop_
_atom_site_type_symbol
_atom_site_label
_atom_site_fract_x
_atom_site_fract_y
_atom_site_fract_z
Si Si1 0.676278 0.604892 0.837070
Si Si2 0.828047 0.944989 0.187330
Si Si3 0.174694 0.203575 0.979279
Si Si4 0.323050 0.890347 0.491187
Si Si5 0.677142 0.297479 0.377056
O O1 0.500000 0.600007 0.800247
O O2 0.723730 0.658462 0.871477
O O3 0.768107 0.586434 0.671218
O O4 0.723823 0.573648 0.000658
O O5 0.724017 0.923387 0.334075
O O6 0.000000 0.929572 0.222256
O O7 0.808912 0.000000 0.190058
O O8 0.250000 0.250000 0.901224
O O9 0.000000 0.211972 0.967591
O O10 0.223402 0.195330 0.177460
O O11 0.500000 0.884236 0.489353
O O12 0.244007 0.840244 0.483215
O O13 0.500000 0.295709 0.405807
O O14 0.750000 0.250000 0.449086
#
# Coordination Sequence:
#
# PCOD8172969 Si02
#       5
#     8   8   8   8   8
#     4  10  21  40  63  90 122 159 206 257 302 358
#     4  10  22  44  71  92 115 155 206 259 314 368
#     4   9  18  33  57  86 119 156 199 248 296 350
#     4  12  25  39  60  93 130 167 202 246 306 369
#     4  10  19  36  60  89 123 163 210 254 300 357
#
# _framework density 20.267596000000001
#
# number of rings (size 3 to 8) (size 9 to 14) (size 15 to 20)
#    0.000    1.800    2.000    2.400    0.000    4.400 
#    0.000    4.000    0.000    0.000    0.000    0.000 
#    0.000    0.000    0.000    0.000    0.000    0.000 
#
# Total GULP energy -248078.329862 kJ/mol
# GULP energy per Si atom -12403.916493 kJ/mol
# Density = 2.022147 g / cm^3
# Si number density = 20.267596 Si / 1000 Ang^3
#
#
#
# Elastic Constant Matrix: (Units=GPa)
#
#
# Indices 1 2 3 4 5 6 
#
# 1 95.0248 42.5869 54.8206 0.0000 0.0000 0.0000
# 2 42.5869 88.3531 44.4822 0.0000 0.0000 0.0000
# 3 54.8206 44.4822 123.8976 0.0000 0.0000 0.0000
# 4 0.0000 0.0000 0.0000 4.4350 0.0000 0.0000
# 5 0.0000 0.0000 0.0000 0.0000 120.1521 0.0000
# 6 0.0000 0.0000 0.0000 0.0000 0.0000 28.8260
#
#
#
# Elastic Compliance Matrix: (Units=1/GPa)
#
#
# Indices 1 2 3 4 5 6 
#
# 1 0.015743 -0.004982 -0.005177 0.000000 0.000000 0.000000
# 2 -0.004982 0.015392 -0.003322 0.000000 0.000000 0.000000
# 3 -0.005177 -0.003322 0.011555 0.000000 0.000000 0.000000
# 4 0.000000 0.000000 0.000000 0.225478 0.000000 0.000000
# 5 0.000000 0.000000 0.000000 0.000000 0.008323 0.000000
# 6 0.000000 0.000000 0.000000 0.000000 0.000000 0.034691
#
#
# Mechanical properties :
#
#
# Convention : Reuss Voigt Hill
#
# Bulk Modulus (GPa) = 63.58118 65.67275 64.62697
# Shear Modulus (GPa) = 14.56089 41.70833 28.13461
#
# Velocity S-wave (km/s) = 2.68327 4.54131 3.72984
# Velocity P-wave (km/s) = 6.40616 7.74411 7.10669
#
# Compressibility (1/GPa) = 0.01572792
#
# Stress axis : x y z
#
# Youngs Moduli (GPa) = 63.52042 64.96947 86.54621
#
# Poissons Ratio (x) = 0.32366 0.44807
# Poissons Ratio (y) = 0.31644 0.28749
# Poissons Ratio (z) = 0.32886 0.21581
#
# Static dielectric constant tensor:
#      x y z
#    x 3.184770 0.000000 0.000000 
#    y 0.000000 3.721190 0.000000 
#    z 0.000000 0.000000 3.739730 
# 
# 
# High freq. dielectric constant tensor:
#      x y z
#    x 1.779790 0.000000 0.000000 
#    y 0.000000 1.791180 0.000000 
#    z 0.000000 0.000000 1.797250 
# 
# From -- ./inp_files/4986.got.cif
#   From: 2010.03.12/outbox.cif.g09.slc.cpg/sg35_3_cif.got.tgz:4986.got - 2010.04.14 02:02:04.
