data_PCOD8172760
_publ_section_title
;
Structure prediction by ZEFSAII (Michael W. Deem and Ramdas Pophale) SiO2 
 PCOD8172760
Probable space group: C M M 2
;
_chemical_formula_sum "Si O2"
_cell_formula_units_Z 48
_cell_length_a 27.966174
_cell_length_b 8.932111
_cell_length_c 10.347495
_cell_angle_alpha 90.000000
_cell_angle_beta 90.000000
_cell_angle_gamma 90.000000
_cell_volume 2584.772902
_symmetry_space_group_name_H-M "C M M 2"
_symmetry_group_IT_number 35
_symmetry_cell_setting 'orthorhombic'
loop_
_space_group_symop_operation_xyz
x,y,z
-x,-y,z
-x,y,z
x,-y,z
1/2+x,1/2+y,z
1/2-x,1/2-y,z
1/2-x,1/2+y,z
1/2+x,1/2-y,z
loop_
_atom_site_type_symbol
_atom_site_label
_atom_site_fract_x
_atom_site_fract_y
_atom_site_fract_z
Si Si1 0.103130 0.672784 0.156860
Si Si2 0.797332 0.325958 0.045290
Si Si3 0.897683 0.824045 0.657150
Si Si4 0.701357 0.322556 0.771243
Si Si5 0.555895 0.169628 0.895420
Si Si6 0.054414 0.177634 0.397329
O O1 0.089022 0.500000 0.178258
O O2 0.160318 0.694381 0.148683
O O3 0.082793 0.768818 0.272814
O O4 0.080772 0.734089 0.023747
O O5 0.787784 0.500000 0.015697
O O6 0.750000 0.250000 0.105677
O O7 0.810643 0.245354 0.911211
O O8 0.842060 0.779394 0.675378
O O9 0.930040 0.765459 0.772618
O O10 0.917886 0.757910 0.522827
O O11 0.903768 0.000000 0.657584
O O12 0.707620 0.500000 0.783820
O O13 0.750000 0.250000 0.715037
O O14 0.500000 0.179989 0.918105
O O15 0.573258 0.000000 0.871872
O O16 0.000000 0.238953 0.396680
O O17 0.054407 0.000000 0.397739
#
# Coordination Sequence:
#
# PCOD8172760 Si02
#       6
#     8   8   8   8   8   8
#     4  10  21  37  56  80 111 145 182 225 274 326
#     4  10  19  33  55  82 112 143 177 222 273 324
#     4  10  21  37  56  80 110 144 183 226 274 325
#     4  10  19  32  54  82 111 143 178 221 273 325
#     4  10  20  34  54  80 109 140 178 227 277 325
#     4  10  22  39  57  78 109 149 188 227 273 325
#
# _framework density 18.570298000000001
#
# number of rings (size 3 to 8) (size 9 to 14) (size 15 to 20)
#    0.000    2.000    1.667    3.000    0.000    5.333 
#    0.000    0.833    0.000    4.000    0.000    0.000 
#    0.000    0.000    0.000    0.000    0.000    0.000 
#
# Total GULP energy -297617.642068 kJ/mol
# GULP energy per Si atom -12400.735086 kJ/mol
# Density = 1.852803 g / cm^3
# Si number density = 18.570298 Si / 1000 Ang^3
#
#
#
# Elastic Constant Matrix: (Units=GPa)
#
#
# Indices 1 2 3 4 5 6 
#
# 1 133.5598 38.3535 62.9507 0.0000 0.0000 0.0000
# 2 38.3535 41.2517 16.9768 0.0000 0.0000 0.0000
# 3 62.9507 16.9768 109.0287 0.0000 0.0000 0.0000
# 4 0.0000 0.0000 0.0000 38.8599 0.0000 0.0000
# 5 0.0000 0.0000 0.0000 0.0000 32.7330 0.0000
# 6 0.0000 0.0000 0.0000 0.0000 0.0000 30.1243
#
#
#
# Elastic Compliance Matrix: (Units=1/GPa)
#
#
# Indices 1 2 3 4 5 6 
#
# 1 0.013141 -0.009718 -0.006074 0.000000 0.000000 0.000000
# 2 -0.009718 0.033088 0.000459 0.000000 0.000000 0.000000
# 3 -0.006074 0.000459 0.012607 0.000000 0.000000 0.000000
# 4 0.000000 0.000000 0.000000 0.025733 0.000000 0.000000
# 5 0.000000 0.000000 0.000000 0.000000 0.030550 0.000000
# 6 0.000000 0.000000 0.000000 0.000000 0.000000 0.033196
#
#
# Mechanical properties :
#
#
# Convention : Reuss Voigt Hill
#
# Bulk Modulus (GPa) = 35.49904 57.82247 46.66075
# Shear Modulus (GPa) = 26.54333 31.38073 28.96203
#
# Velocity S-wave (km/s) = 3.78477 4.11522 3.95345
# Velocity P-wave (km/s) = 6.18521 7.33381 6.78386
#
# Compressibility (1/GPa) = 0.02816977
#
# Stress axis : x y z
#
# Youngs Moduli (GPa) = 76.09932 30.22275 79.31822
#
# Poissons Ratio (x) = 0.29370 0.48178
# Poissons Ratio (y) = 0.73952 -0.03639
# Poissons Ratio (z) = 0.46223 -0.01386
#
# Static dielectric constant tensor:
#      x y z
#    x 3.769180 0.000000 0.000000 
#    y 0.000000 3.394200 0.000000 
#    z 0.000000 0.000000 3.318760 
# 
# 
# High freq. dielectric constant tensor:
#      x y z
#    x 1.740480 0.000000 0.000000 
#    y 0.000000 1.717100 0.000000 
#    z 0.000000 0.000000 1.701250 
# 
# From -- ./inp_files/5302.got.cif
#   From: 2010.03.12/outbox.cif.g09.slc.cpg/sg35_3_cif.got.tgz:5302.got - 2010.04.14 02:02:04.
