data_PCOD8172637
_publ_section_title
;
Structure prediction by ZEFSAII (Michael W. Deem and Ramdas Pophale) SiO2 
 PCOD8172637
Probable space group: C M M 2
;
_chemical_formula_sum "Si O2"
_cell_formula_units_Z 40
_cell_length_a 9.024884
_cell_length_b 28.217862
_cell_length_c 10.141379
_cell_angle_alpha 90.000000
_cell_angle_beta 90.000000
_cell_angle_gamma 90.000000
_cell_volume 2582.633303
_symmetry_space_group_name_H-M "C M M 2"
_symmetry_group_IT_number 35
_symmetry_cell_setting 'orthorhombic'
loop_
_space_group_symop_operation_xyz
x,y,z
-x,-y,z
-x,y,z
x,-y,z
1/2+x,1/2+y,z
1/2-x,1/2-y,z
1/2-x,1/2+y,z
1/2+x,1/2-y,z
loop_
_atom_site_type_symbol
_atom_site_label
_atom_site_fract_x
_atom_site_fract_y
_atom_site_fract_z
Si Si1 0.674535 0.865152 0.148580
Si Si2 0.330833 0.642091 0.404362
Si Si3 0.324999 0.798931 0.617170
Si Si4 0.168684 0.052980 0.257212
Si Si5 0.672629 0.202314 0.917205
O O1 0.500000 0.863887 0.172067
O O2 0.754891 0.837394 0.270106
O O3 0.732309 0.919902 0.146397
O O4 0.720792 0.840805 0.011380
O O5 0.500000 0.660135 0.414058
O O6 0.239409 0.658190 0.531361
O O7 0.323556 0.584269 0.392682
O O8 0.500000 0.795004 0.596829
O O9 0.250000 0.750000 0.570784
O O10 0.281141 0.810385 0.767953
O O11 0.000000 0.051139 0.205798
O O12 0.230184 0.000000 0.282668
O O13 0.500000 0.212149 0.926805
O O14 0.750000 0.250000 0.966572
#
# Coordination Sequence:
#
# PCOD8172637 Si02
#       5
#     8   8   8   8   8
#     4   9  17  30  47  71  95 121 154 191 230 273
#     4   9  18  31  47  70  94 122 154 191 232 271
#     4  10  19  32  48  67  93 126 158 191 227 273
#     4   8  16  31  49  69  93 119 151 191 233 276
#     4   9  19  32  47  67  94 125 157 189 226 270
#
# _framework density 15.488068
#
# number of rings (size 3 to 8) (size 9 to 14) (size 15 to 20)
#    1.200    1.800    0.000    1.200    0.000    3.600 
#    0.000    2.000    0.000    1.200    0.000    5.600 
#    0.000    0.000    0.000    0.000    0.000    0.000 
#
# Total GULP energy -247780.010939 kJ/mol
# GULP energy per Si atom -12389.000547 kJ/mol
# Density = 1.545282 g / cm^3
# Si number density = 15.488068 Si / 1000 Ang^3
#
#
#
# Elastic Constant Matrix: (Units=GPa)
#
#
# Indices 1 2 3 4 5 6 
#
# 1 73.5441 43.9892 40.6377 0.0000 0.0000 0.0000
# 2 43.9892 107.6557 58.6346 0.0000 0.0000 0.0000
# 3 40.6377 58.6346 83.1921 0.0000 0.0000 0.0000
# 4 0.0000 0.0000 0.0000 12.7901 0.0000 0.0000
# 5 0.0000 0.0000 0.0000 0.0000 20.8443 0.0000
# 6 0.0000 0.0000 0.0000 0.0000 0.0000 24.7270
#
#
#
# Elastic Compliance Matrix: (Units=1/GPa)
#
#
# Indices 1 2 3 4 5 6 
#
# 1 0.019943 -0.004614 -0.006490 0.000000 0.000000 0.000000
# 2 -0.004614 0.016144 -0.009124 0.000000 0.000000 0.000000
# 3 -0.006490 -0.009124 0.021621 0.000000 0.000000 0.000000
# 4 0.000000 0.000000 0.000000 0.078185 0.000000 0.000000
# 5 0.000000 0.000000 0.000000 0.000000 0.047975 0.000000
# 6 0.000000 0.000000 0.000000 0.000000 0.000000 0.040442
#
#
# Mechanical properties :
#
#
# Convention : Reuss Voigt Hill
#
# Bulk Modulus (GPa) = 57.96505 61.21276 59.58890
# Shear Modulus (GPa) = 18.48309 19.74765 19.11537
#
# Velocity S-wave (km/s) = 3.45828 3.57462 3.51693
# Velocity P-wave (km/s) = 7.31116 7.52632 7.41952
#
# Compressibility (1/GPa) = 0.01725178
#
# Stress axis : x y z
#
# Youngs Moduli (GPa) = 50.14234 61.94271 46.25064
#
# Poissons Ratio (x) = 0.28583 0.30015
# Poissons Ratio (y) = 0.23138 0.42201
# Poissons Ratio (z) = 0.32540 0.56519
#
# Static dielectric constant tensor:
#      x y z
#    x 3.007530 0.000000 0.000000 
#    y 0.000000 2.888110 0.000000 
#    z 0.000000 0.000000 2.860740 
# 
# 
# High freq. dielectric constant tensor:
#      x y z
#    x 1.607180 0.000000 0.000000 
#    y 0.000000 1.575050 0.000000 
#    z 0.000000 0.000000 1.573820 
# 
# From -- ./inp_files/5120.got.cif
#   From: 2010.03.12/outbox.cif.g09.slc.cpg/sg35_3_cif.got.tgz:5120.got - 2010.04.14 02:02:04.
