data_PCOD8172673
_publ_section_title
;
Structure prediction by ZEFSAII (Michael W. Deem and Ramdas Pophale) SiO2 
 PCOD8172673
Probable space group: C M M 2
;
_chemical_formula_sum "Si O2"
_cell_formula_units_Z 56
_cell_length_a 9.050983
_cell_length_b 19.107128
_cell_length_c 18.328917
_cell_angle_alpha 90.000000
_cell_angle_beta 90.000000
_cell_angle_gamma 90.000000
_cell_volume 3169.771576
_symmetry_space_group_name_H-M "C M M 2"
_symmetry_group_IT_number 35
_symmetry_cell_setting 'orthorhombic'
loop_
_space_group_symop_operation_xyz
x,y,z
-x,-y,z
-x,y,z
x,-y,z
1/2+x,1/2+y,z
1/2-x,1/2-y,z
1/2-x,1/2+y,z
1/2+x,1/2-y,z
loop_
_atom_site_type_symbol
_atom_site_label
_atom_site_fract_x
_atom_site_fract_y
_atom_site_fract_z
Si Si1 0.169500 0.677989 0.504960
Si Si2 0.328677 0.582475 0.783763
Si Si3 0.326599 0.175442 0.347615
Si Si4 0.666911 0.583389 0.071286
Si Si5 0.674581 0.174328 0.663571
Si Si6 0.166703 0.583268 0.929287
Si Si7 0.673533 0.080429 0.216061
O O1 0.250000 0.750000 0.503686
O O2 0.208430 0.639800 0.427788
O O3 0.206817 0.640804 0.582341
O O4 0.000000 0.697889 0.505014
O O5 0.500000 0.603375 0.783234
O O6 0.306254 0.500000 0.774055
O O7 0.244336 0.619666 0.718544
O O8 0.258674 0.609179 0.859456
O O9 0.500000 0.187412 0.337889
O O10 0.250000 0.250000 0.338133
O O11 0.267752 0.122734 0.286103
O O12 0.500000 0.611913 0.068640
O O13 0.669730 0.500000 0.069201
O O14 0.744515 0.610557 0.144856
O O15 0.755147 0.613547 0.001699
O O16 0.500000 0.181957 0.678411
O O17 0.750000 0.250000 0.672533
O O18 0.165110 0.500000 0.932177
O O19 0.000000 0.612663 0.924790
O O20 0.500000 0.089541 0.203206
O O21 0.715452 0.000000 0.229802
#
# Coordination Sequence:
#
# PCOD8172673 Si02
#       7
#     8   8   8   8   8   8   8
#     4   8  15  28  46  68  91 118 155 195 232 273
#     4  10  20  33  49  71 100 130 160 197 241 286
#     4   9  17  30  48  69  92 120 155 193 233 276
#     4   9  16  26  42  65  92 121 154 191 230 273
#     4  10  19  32  51  73  97 126 162 201 241 287
#     4   9  16  27  45  68  93 122 157 194 232 277
#     4   9  17  29  45  66  93 123 154 189 230 276
#
# _framework density 17.666888
#
# number of rings (size 3 to 8) (size 9 to 14) (size 15 to 20)
#    0.000    2.857    0.000    1.714    0.000    5.429 
#    0.000    0.714    0.000    3.429    0.000    6.000 
#    0.000    0.000    0.000    0.000    0.000    0.000 
#
# Total GULP energy -346941.572527 kJ/mol
# GULP energy per Si atom -12390.770447 kJ/mol
# Density = 1.762668 g / cm^3
# Si number density = 17.666888 Si / 1000 Ang^3
#
#
#
# Elastic Constant Matrix: (Units=GPa)
#
#
# Indices 1 2 3 4 5 6 
#
# 1 100.0855 28.2112 80.3061 0.0000 0.0000 0.0000
# 2 28.2112 33.3082 48.4676 0.0000 0.0000 0.0000
# 3 80.3061 48.4676 205.2894 0.0000 0.0000 0.0000
# 4 0.0000 0.0000 0.0000 5.6932 0.0000 0.0000
# 5 0.0000 0.0000 0.0000 0.0000 28.9443 0.0000
# 6 0.0000 0.0000 0.0000 0.0000 0.0000 19.7508
#
#
#
# Elastic Compliance Matrix: (Units=1/GPa)
#
#
# Indices 1 2 3 4 5 6 
#
# 1 0.015442 -0.006534 -0.004498 0.000000 0.000000 0.000000
# 2 -0.006534 0.048499 -0.008894 0.000000 0.000000 0.000000
# 3 -0.004498 -0.008894 0.008731 0.000000 0.000000 0.000000
# 4 0.000000 0.000000 0.000000 0.175648 0.000000 0.000000
# 5 0.000000 0.000000 0.000000 0.000000 0.034549 0.000000
# 6 0.000000 0.000000 0.000000 0.000000 0.000000 0.050631
#
#
# Mechanical properties :
#
#
# Convention : Reuss Voigt Hill
#
# Bulk Modulus (GPa) = 30.46991 72.51700 51.49345
# Shear Modulus (GPa) = 13.01091 22.99088 18.00090
#
# Velocity S-wave (km/s) = 2.71672 3.61134 3.19549
# Velocity P-wave (km/s) = 5.20818 7.65016 6.54409
#
# Compressibility (1/GPa) = 0.03281927
#
# Stress axis : x y z
#
# Youngs Moduli (GPa) = 64.75661 20.61897 114.53777
#
# Poissons Ratio (x) = 0.13472 0.51522
# Poissons Ratio (y) = 0.42311 1.01875
# Poissons Ratio (z) = 0.29129 0.18339
#
# Static dielectric constant tensor:
#      x y z
#    x 3.345630 0.000000 0.000000 
#    y 0.000000 2.740400 0.000000 
#    z 0.000000 0.000000 3.968660 
# 
# 
# High freq. dielectric constant tensor:
#      x y z
#    x 1.693750 0.000000 0.000000 
#    y 0.000000 1.619770 0.000000 
#    z 0.000000 0.000000 1.710220 
# 
# From -- ./inp_files/15609.got.cif
#   From: 2010.03.12/outbox.cif.g09.slc.cpg/sg35_8_cif.got.tgz:15609.got - 2010.04.14 02:02:04.
