data_PCOD8172743
_publ_section_title
;
Structure prediction by ZEFSAII (Michael W. Deem and Ramdas Pophale) SiO2 
 PCOD8172743
Probable space group: C M M 2
;
_chemical_formula_sum "Si O2"
_cell_formula_units_Z 48
_cell_length_a 9.121497
_cell_length_b 18.166523
_cell_length_c 15.613113
_cell_angle_alpha 90.000000
_cell_angle_beta 90.000000
_cell_angle_gamma 90.000000
_cell_volume 2587.184708
_symmetry_space_group_name_H-M "C M M 2"
_symmetry_group_IT_number 35
_symmetry_cell_setting 'orthorhombic'
loop_
_space_group_symop_operation_xyz
x,y,z
-x,-y,z
-x,y,z
x,-y,z
1/2+x,1/2+y,z
1/2-x,1/2-y,z
1/2-x,1/2+y,z
1/2+x,1/2-y,z
loop_
_atom_site_type_symbol
_atom_site_label
_atom_site_fract_x
_atom_site_fract_y
_atom_site_fract_z
Si Si1 0.827305 0.672020 0.850370
Si Si2 0.830931 0.585109 0.679548
Si Si3 0.171099 0.085509 0.999165
Si Si4 0.668395 0.325350 0.349275
Si Si5 0.672386 0.671280 0.535181
Si Si6 0.329097 0.327546 0.164639
O O1 0.750000 0.750000 0.846327
O O2 0.786761 0.628641 0.764529
O O3 0.768595 0.626356 0.929968
O O4 0.000000 0.683320 0.861054
O O5 0.796671 0.500000 0.696429
O O6 0.732055 0.612586 0.601901
O O7 0.000000 0.598137 0.655679
O O8 0.000000 0.100431 0.980921
O O9 0.208929 0.000000 0.995755
O O10 0.219295 0.114826 0.092471
O O11 0.500000 0.304512 0.349948
O O12 0.750000 0.250000 0.348187
O O13 0.705737 0.364463 0.440221
O O14 0.707210 0.365196 0.258530
O O15 0.500000 0.682918 0.550505
O O16 0.750000 0.750000 0.547556
O O17 0.500000 0.310322 0.156831
O O18 0.250000 0.250000 0.150767
#
# Coordination Sequence:
#
# PCOD8172743 Si02
#       6
#     8   8   8   8   8   8
#     4  11  23  39  59  81 104 133 171 214 260 310
#     4  10  22  39  56  76 105 139 172 210 260 313
#     4  10  21  36  54  78 108 141 175 212 257 307
#     4   8  15  28  47  73 103 134 171 214 257 300
#     4  10  19  32  53  80 107 138 177 218 259 304
#     4   9  17  31  51  75 103 136 174 215 258 304
#
# _framework density 18.552985
#
# number of rings (size 3 to 8) (size 9 to 14) (size 15 to 20)
#    0.000    2.333    0.000    2.500    0.000    6.667 
#    0.000    0.833    0.000    3.000    0.000    0.000 
#    0.000    0.000    0.000    0.000    0.000    0.000 
#
# Total GULP energy -297409.941079 kJ/mol
# GULP energy per Si atom -12392.080878 kJ/mol
# Density = 1.851076 g / cm^3
# Si number density = 18.552985 Si / 1000 Ang^3
#
#
#
# Elastic Constant Matrix: (Units=GPa)
#
#
# Indices 1 2 3 4 5 6 
#
# 1 66.9500 48.3350 71.8815 0.0000 0.0000 0.0000
# 2 48.3350 112.2276 80.3077 0.0000 0.0000 0.0000
# 3 71.8815 80.3077 190.5420 0.0000 0.0000 0.0000
# 4 0.0000 0.0000 0.0000 -5.2280 0.0000 0.0000
# 5 0.0000 0.0000 0.0000 0.0000 20.0053 0.0000
# 6 0.0000 0.0000 0.0000 0.0000 0.0000 17.7865
#
#
#
# Elastic Compliance Matrix: (Units=1/GPa)
#
#
# Indices 1 2 3 4 5 6 
#
# 1 0.028026 -0.006450 -0.007854 0.000000 0.000000 0.000000
# 2 -0.006450 0.014243 -0.003570 0.000000 0.000000 0.000000
# 3 -0.007854 -0.003570 0.009716 0.000000 0.000000 0.000000
# 4 0.000000 0.000000 0.000000 -0.191278 0.000000 0.000000
# 5 0.000000 0.000000 0.000000 0.000000 0.049987 0.000000
# 6 0.000000 0.000000 0.000000 0.000000 0.000000 0.056222
#
#
# Mechanical properties :
#
#
# Convention : Reuss Voigt Hill
#
# Bulk Modulus (GPa) = 61.58950 85.64088 73.61519
# Shear Modulus (GPa) = 619.12347 17.79246 318.45797
#
# Velocity S-wave (km/s) = 18.28743 3.10014 13.11566
# Velocity P-wave (km/s) = 21.89007 7.68602 16.40503
#
# Compressibility (1/GPa) = 0.01623653
#
# Stress axis : x y z
#
# Youngs Moduli (GPa) = 35.68118 70.21094 102.92680
#
# Poissons Ratio (x) = 0.45287 0.80841
# Poissons Ratio (y) = 0.23015 0.36741
# Poissons Ratio (z) = 0.28025 0.25063
#
# Static dielectric constant tensor:
#      x y z
#    x 3.530330 0.000000 0.000000 
#    y 0.000000 3.192680 0.000000 
#    z 0.000000 0.000000 4.202910 
# 
# 
# High freq. dielectric constant tensor:
#      x y z
#    x 1.722440 0.000000 0.000000 
#    y 0.000000 1.693440 0.000000 
#    z 0.000000 0.000000 1.748820 
# 
# From -- ./inp_files/15103.got.cif
#   From: 2010.03.12/outbox.cif.g09.slc.cpg/sg35_8_cif.got.tgz:15103.got - 2010.04.14 02:02:04.
