data_PCOD8172030
_publ_section_title
;
Structure prediction by ZEFSAII (Michael W. Deem and Ramdas Pophale) SiO2 
 PCOD8172030
Probable space group: P N N 2
;
_chemical_formula_sum "Si O2"
_cell_formula_units_Z 24
_cell_length_a 9.051947
_cell_length_b 20.995312
_cell_length_c 5.438773
_cell_angle_alpha 90.000000
_cell_angle_beta 90.000000
_cell_angle_gamma 90.000000
_cell_volume 1033.630387
_symmetry_space_group_name_H-M "P N N 2"
_symmetry_group_IT_number 34
_symmetry_cell_setting 'orthorhombic'
loop_
_space_group_symop_operation_xyz
x,y,z
-x,-y,z
1/2-x,1/2+y,1/2+z
1/2+x,1/2-y,1/2+z
loop_
_atom_site_type_symbol
_atom_site_label
_atom_site_fract_x
_atom_site_fract_y
_atom_site_fract_z
Si Si1 0.757989 0.671620 0.004010
Si Si2 0.224780 0.063937 0.664646
Si Si3 0.758648 0.319602 0.487178
Si Si4 0.500000 0.500000 0.501660
Si Si5 0.417780 0.869901 0.014665
Si Si6 0.478162 0.614555 0.802790
Si Si7 0.500000 0.000000 0.808597
O O1 0.750966 0.745422 0.933827
O O2 0.837099 0.658984 0.267276
O O3 0.830092 0.639076 0.766779
O O4 0.588763 0.645352 0.004217
O O5 0.135645 0.062933 0.415101
O O6 0.384972 0.033716 0.624686
O O7 0.230803 0.138307 0.744434
O O8 0.145813 0.018726 0.857118
O O9 0.624589 0.332229 0.677272
O O10 0.924004 0.337220 0.574122
O O11 0.562488 0.565017 0.626989
O O12 0.433845 0.945339 0.982181
#
# Coordination Sequence:
#
# PCOD8172030 Si02
#       7
#     4   4   4   2   4   4   2
#     4  12  28  45  75 107 145 190 248 297 365 441
#     4  10  23  43  69 100 139 190 233 303 360 429
#     4  10  26  46  68 101 146 188 241 298 364 440
#     4  10  22  42  66 104 140 178 244 296 364 430
#     4  11  28  48  74 110 143 199 241 304 370 434
#     4  11  25  43  73 104 143 192 239 305 366 430
#     4  10  24  48  70 102 150 184 248 294 366 440
#
# _framework density 23.219134
#
# number of rings (size 3 to 8) (size 9 to 14) (size 15 to 20)
#    0.000    1.333    0.000    2.500   18.667    0.667 
#    0.000    0.000    0.000    0.000    0.000    0.000 
#    0.000    0.000    0.000    0.000    0.000    0.000 
#
# Total GULP energy -297331.774609 kJ/mol
# GULP energy per Si atom -12388.823942 kJ/mol
# Density = 2.316629 g / cm^3
# Si number density = 23.219134 Si / 1000 Ang^3
#
#
#
# Elastic Constant Matrix: (Units=GPa)
#
#
# Indices 1 2 3 4 5 6 
#
# 1 88.8218 42.1034 17.3162 0.0000 0.0000 0.0000
# 2 42.1034 143.7383 16.7377 0.0000 0.0000 0.0000
# 3 17.3162 16.7377 71.8951 0.0000 0.0000 0.0000
# 4 0.0000 0.0000 0.0000 197.6580 0.0000 0.0000
# 5 0.0000 0.0000 0.0000 0.0000 37.3639 0.0000
# 6 0.0000 0.0000 0.0000 0.0000 0.0000 26.0028
#
#
#
# Elastic Compliance Matrix: (Units=1/GPa)
#
#
# Indices 1 2 3 4 5 6 
#
# 1 0.013461 -0.003665 -0.002389 0.000000 0.000000 0.000000
# 2 -0.003665 0.008149 -0.001014 0.000000 0.000000 0.000000
# 3 -0.002389 -0.001014 0.014721 0.000000 0.000000 0.000000
# 4 0.000000 0.000000 0.000000 0.005059 0.000000 0.000000
# 5 0.000000 0.000000 0.000000 0.000000 0.026764 0.000000
# 6 0.000000 0.000000 0.000000 0.000000 0.000000 0.038457
#
#
# Mechanical properties :
#
#
# Convention : Reuss Voigt Hill
#
# Bulk Modulus (GPa) = 45.05661 50.75220 47.90440
# Shear Modulus (GPa) = 39.01799 67.42482 53.22140
#
# Velocity S-wave (km/s) = 4.10374 5.39458 4.79282
# Velocity P-wave (km/s) = 6.47313 7.79149 7.16271
#
# Compressibility (1/GPa) = 0.02219430
#
# Stress axis : x y z
#
# Youngs Moduli (GPa) = 74.28602 122.71863 67.93149
#
# Poissons Ratio (x) = 0.44975 0.16229
# Poissons Ratio (y) = 0.27225 0.06891
# Poissons Ratio (z) = 0.17747 0.12448
#
# Static dielectric constant tensor:
#      x y z
#    x 4.486640 0.000000 0.000000 
#    y 0.000000 4.201460 0.000000 
#    z 0.000000 0.000000 3.987070 
# 
# 
# High freq. dielectric constant tensor:
#      x y z
#    x 1.939360 0.000000 0.000000 
#    y 0.000000 1.933140 0.000000 
#    z 0.000000 0.000000 1.900160 
# 
# From -- ./inp_files/501.got.cif
#   From: 2010.03.12/outbox.cif.g09.slc.cpg/sg34_1_cif.got.tgz:501.got - 2010.04.14 01:56:33.
