data_PCOD8172670
_publ_section_title
;
Structure prediction by ZEFSAII (Michael W. Deem and Ramdas Pophale) SiO2 
 PCOD8172670
Probable space group: C M M 2
;
_chemical_formula_sum "Si O2"
_cell_formula_units_Z 48
_cell_length_a 15.735620
_cell_length_b 8.609413
_cell_length_c 17.450427
_cell_angle_alpha 90.000000
_cell_angle_beta 90.000000
_cell_angle_gamma 90.000000
_cell_volume 2364.087024
_symmetry_space_group_name_H-M "C M M 2"
_symmetry_group_IT_number 35
_symmetry_cell_setting 'orthorhombic'
loop_
_space_group_symop_operation_xyz
x,y,z
-x,-y,z
-x,y,z
x,-y,z
1/2+x,1/2+y,z
1/2-x,1/2-y,z
1/2-x,1/2+y,z
1/2+x,1/2-y,z
loop_
_atom_site_type_symbol
_atom_site_label
_atom_site_fract_x
_atom_site_fract_y
_atom_site_fract_z
Si Si1 0.000000 0.814748 0.833740
Si Si2 0.662573 0.316916 0.741532
Si Si3 0.157228 0.314547 0.265885
Si Si4 0.097060 0.314745 0.590215
Si Si5 0.344611 0.684256 0.110048
Si Si6 0.000000 0.184142 0.006140
Si Si7 0.099432 0.329921 0.425165
O O1 0.916334 0.750456 0.790556
O O2 0.000000 0.749016 0.919926
O O3 0.000000 0.000000 0.832610
O O4 0.665559 0.500000 0.745988
O O5 0.750000 0.250000 0.776297
O O6 0.655677 0.264037 0.653454
O O7 0.149871 0.500000 0.264663
O O8 0.250000 0.250000 0.257613
O O9 0.113176 0.246854 0.189672
O O10 0.121575 0.241328 0.345872
O O11 0.105602 0.500000 0.593255
O O12 0.128804 0.252344 0.505817
O O13 0.000000 0.263161 0.605313
O O14 0.336782 0.500000 0.113880
O O15 0.250000 0.750000 0.092017
O O16 0.412600 0.740650 0.046360
O O17 0.000000 0.000000 0.005435
O O18 0.142356 0.500000 0.419122
O O19 0.000000 0.349828 0.431936
#
# Coordination Sequence:
#
# PCOD8172670 Si02
#       7
#     4   8   8   8   8   4   8
#     4   9  20  40  61  82 113 146 178 223 277 337
#     4  11  22  37  59  86 114 147 188 227 277 333
#     4  10  19  32  51  73 105 143 181 223 270 317
#     4   9  17  33  56  79 110 148 187 231 278 325
#     4  10  20  36  57  82 112 144 182 225 273 327
#     4   9  20  38  61  84 109 146 180 217 279 337
#     4   8  16  30  49  75 104 141 183 223 267 315
#
# _framework density 20.303822
#
# number of rings (size 3 to 8) (size 9 to 14) (size 15 to 20)
#    0.000    2.500    0.833    3.500    1.167    1.333 
#    0.000    4.583    0.000    9.000    0.000    0.000 
#    0.000    0.000    0.000    0.000    0.000    0.000 
#
# Total GULP energy -297332.810347 kJ/mol
# GULP energy per Si atom -12388.867098 kJ/mol
# Density = 2.025761 g / cm^3
# Si number density = 20.303822 Si / 1000 Ang^3
#
#
#
# Elastic Constant Matrix: (Units=GPa)
#
#
# Indices 1 2 3 4 5 6 
#
# 1 112.8432 24.6070 74.2999 0.0000 0.0000 0.0000
# 2 24.6070 49.9877 27.4588 0.0000 0.0000 0.0000
# 3 74.2999 27.4588 184.4483 0.0000 0.0000 0.0000
# 4 0.0000 0.0000 0.0000 22.5007 0.0000 0.0000
# 5 0.0000 0.0000 0.0000 0.0000 23.8220 0.0000
# 6 0.0000 0.0000 0.0000 0.0000 0.0000 18.6985
#
#
#
# Elastic Compliance Matrix: (Units=1/GPa)
#
#
# Indices 1 2 3 4 5 6 
#
# 1 0.012672 -0.003740 -0.004548 0.000000 0.000000 0.000000
# 2 -0.003740 0.022890 -0.001901 0.000000 0.000000 0.000000
# 3 -0.004548 -0.001901 0.007537 0.000000 0.000000 0.000000
# 4 0.000000 0.000000 0.000000 0.044443 0.000000 0.000000
# 5 0.000000 0.000000 0.000000 0.000000 0.041978 0.000000
# 6 0.000000 0.000000 0.000000 0.000000 0.000000 0.053480
#
#
# Mechanical properties :
#
#
# Convention : Reuss Voigt Hill
#
# Bulk Modulus (GPa) = 44.01183 66.66786 55.33984
# Shear Modulus (GPa) = 23.70223 27.73181 25.71702
#
# Velocity S-wave (km/s) = 3.42040 3.69974 3.56281
# Velocity P-wave (km/s) = 6.10921 7.15242 6.65130
#
# Compressibility (1/GPa) = 0.02272116
#
# Stress axis : x y z
#
# Youngs Moduli (GPa) = 78.91589 43.68686 132.68688
#
# Poissons Ratio (x) = 0.16337 0.60342
# Poissons Ratio (y) = 0.29512 0.25227
# Poissons Ratio (z) = 0.35889 0.08306
#
# Static dielectric constant tensor:
#      x y z
#    x 3.706440 0.000000 0.000000 
#    y 0.000000 3.301610 0.000000 
#    z 0.000000 0.000000 4.615490 
# 
# 
# High freq. dielectric constant tensor:
#      x y z
#    x 1.786700 0.000000 0.000000 
#    y 0.000000 1.755890 0.000000 
#    z 0.000000 0.000000 1.808520 
# 
# From -- ./inp_files/18763.got.cif
#   From: 2010.03.12/outbox.cif.g09.slc.cpg/sg35_10_cif.got.tgz:18763.got - 2010.04.14 02:02:04.
