data_PCOD8172554
_publ_section_title
;
Structure prediction by ZEFSAII (Michael W. Deem and Ramdas Pophale) SiO2 
 PCOD8172554
Probable space group: C M M 2
;
_chemical_formula_sum "Si O2"
_cell_formula_units_Z 48
_cell_length_a 39.271139
_cell_length_b 13.282192
_cell_length_c 5.104094
_cell_angle_alpha 90.000000
_cell_angle_beta 90.000000
_cell_angle_gamma 90.000000
_cell_volume 2662.330180
_symmetry_space_group_name_H-M "C M M 2"
_symmetry_group_IT_number 35
_symmetry_cell_setting 'orthorhombic'
loop_
_space_group_symop_operation_xyz
x,y,z
-x,-y,z
-x,y,z
x,-y,z
1/2+x,1/2+y,z
1/2-x,1/2-y,z
1/2-x,1/2+y,z
1/2+x,1/2-y,z
loop_
_atom_site_type_symbol
_atom_site_label
_atom_site_fract_x
_atom_site_fract_y
_atom_site_fract_z
Si Si1 0.079674 0.119123 0.556840
Si Si2 0.345994 0.697358 0.574506
Si Si3 0.306770 0.884134 0.481517
Si Si4 0.235323 0.383238 0.992811
Si Si5 0.310418 0.381765 0.073383
Si Si6 0.537929 0.618997 0.051632
O O1 0.114832 0.176698 0.516760
O O2 0.054759 0.150523 0.323507
O O3 0.086975 0.000000 0.563389
O O4 0.061597 0.159355 0.818488
O O5 0.339818 0.817053 0.544711
O O6 0.337083 0.664789 0.869169
O O7 0.322290 0.637406 0.369789
O O8 0.277975 0.866394 0.700596
O O9 0.318693 0.000000 0.471199
O O10 0.291569 0.842864 0.207525
O O11 0.239991 0.500000 0.062020
O O12 0.272795 0.332403 0.021801
O O13 0.309160 0.500000 0.021560
O O14 0.500000 0.666085 0.034519
O O15 0.535034 0.500000 0.026754
#
# Coordination Sequence:
#
# PCOD8172554 Si02
#       6
#     8   8   8   8   8   8
#     4  10  19  31  46  69 101 127 154 189 225 278
#     4  12  23  33  51  73  99 135 163 195 251 301
#     4  10  21  37  52  69  93 123 169 220 255 285
#     4   9  19  35  52  68  91 124 164 215 257 289
#     4  11  22  35  50  72 100 128 163 201 247 308
#     4   9  17  30  49  70  95 129 159 183 216 264
#
# _framework density 18.029318
#
# number of rings (size 3 to 8) (size 9 to 14) (size 15 to 20)
#    0.000    1.833    0.000    5.000    0.000   10.000 
#    0.000    0.000    0.000    0.000    0.000    0.000 
#    0.000    4.000    0.000    0.000    0.000    0.000 
#
# Total GULP energy -297686.610579 kJ/mol
# GULP energy per Si atom -12403.608774 kJ/mol
# Density = 1.798828 g / cm^3
# Si number density = 18.029318 Si / 1000 Ang^3
#
#
#
# Elastic Constant Matrix: (Units=GPa)
#
#
# Indices 1 2 3 4 5 6 
#
# 1 108.7759 29.4874 9.8921 0.0000 0.0000 0.0000
# 2 29.4874 54.1394 11.7647 0.0000 0.0000 0.0000
# 3 9.8921 11.7647 83.9956 0.0000 0.0000 0.0000
# 4 0.0000 0.0000 0.0000 18.7684 0.0000 0.0000
# 5 0.0000 0.0000 0.0000 0.0000 18.8566 0.0000
# 6 0.0000 0.0000 0.0000 0.0000 0.0000 18.8796
#
#
#
# Elastic Compliance Matrix: (Units=1/GPa)
#
#
# Indices 1 2 3 4 5 6 
#
# 1 0.010803 -0.005784 -0.000462 0.000000 0.000000 0.000000
# 2 -0.005784 0.022147 -0.002421 0.000000 0.000000 0.000000
# 3 -0.000462 -0.002421 0.012299 0.000000 0.000000 0.000000
# 4 0.000000 0.000000 0.000000 0.053281 0.000000 0.000000
# 5 0.000000 0.000000 0.000000 0.000000 0.053032 0.000000
# 6 0.000000 0.000000 0.000000 0.000000 0.000000 0.052967
#
#
# Mechanical properties :
#
#
# Convention : Reuss Voigt Hill
#
# Bulk Modulus (GPa) = 35.82209 38.79990 37.31099
# Shear Modulus (GPa) = 21.62934 24.35203 22.99068
#
# Velocity S-wave (km/s) = 3.46739 3.67916 3.57484
# Velocity P-wave (km/s) = 5.99519 6.29408 6.14645
#
# Compressibility (1/GPa) = 0.02791574
#
# Stress axis : x y z
#
# Youngs Moduli (GPa) = 92.56630 45.15296 81.30809
#
# Poissons Ratio (x) = 0.26114 0.03758
# Poissons Ratio (y) = 0.53536 0.19684
# Poissons Ratio (z) = 0.04278 0.10931
#
# Static dielectric constant tensor:
#      x y z
#    x 3.269250 0.000000 0.000000 
#    y 0.000000 3.177710 0.000000 
#    z 0.000000 0.000000 3.473700 
# 
# 
# High freq. dielectric constant tensor:
#      x y z
#    x 1.682180 0.000000 0.000000 
#    y 0.000000 1.666680 0.000000 
#    z 0.000000 0.000000 1.720570 
# 
# From -- ./inp_files/2029.got.cif
#   From: 2010.03.12/outbox.cif.g09.slc.cpg/sg35_2_cif.got.tgz:2029.got - 2010.04.14 02:02:04.
