data_PCOD8172452
_publ_section_title
;
Structure prediction by ZEFSAII (Michael W. Deem and Ramdas Pophale) SiO2 
 PCOD8172452
Probable space group: C M M 2
;
_chemical_formula_sum "Si O2"
_cell_formula_units_Z 56
_cell_length_a 8.821574
_cell_length_b 21.673594
_cell_length_c 14.802352
_cell_angle_alpha 90.000000
_cell_angle_beta 90.000000
_cell_angle_gamma 90.000000
_cell_volume 2830.138848
_symmetry_space_group_name_H-M "C M M 2"
_symmetry_group_IT_number 35
_symmetry_cell_setting 'orthorhombic'
loop_
_space_group_symop_operation_xyz
x,y,z
-x,-y,z
-x,y,z
x,-y,z
1/2+x,1/2+y,z
1/2-x,1/2-y,z
1/2-x,1/2+y,z
1/2+x,1/2-y,z
loop_
_atom_site_type_symbol
_atom_site_label
_atom_site_fract_x
_atom_site_fract_y
_atom_site_fract_z
Si Si1 0.679805 0.927838 0.027040
Si Si2 0.677939 0.500000 0.521941
Si Si3 0.177871 0.390476 0.415339
Si Si4 0.320978 0.931805 0.227757
Si Si5 0.319164 0.314992 0.915493
Si Si6 0.680432 0.500000 0.726606
Si Si7 0.673759 0.188384 0.574876
Si Si8 0.178609 0.624412 0.753442
O O1 0.500000 0.919169 0.015932
O O2 0.737161 0.911634 0.129205
O O3 0.722454 0.000000 0.004668
O O4 0.763484 0.876745 0.967170
O O5 0.500000 0.500000 0.528276
O O6 0.731308 0.558229 0.467072
O O7 0.742209 0.500000 0.623778
O O8 0.229396 0.386015 0.309850
O O9 0.217427 0.328740 0.471361
O O10 0.000000 0.406291 0.421648
O O11 0.500000 0.934552 0.221341
O O12 0.258906 0.000000 0.252294
O O13 0.500000 0.310935 0.920291
O O14 0.250000 0.250000 0.953519
O O15 0.259814 0.322955 0.813127
O O16 0.500000 0.500000 0.734472
O O17 0.749012 0.441324 0.778819
O O18 0.500000 0.202790 0.581833
O O19 0.750000 0.250000 0.606387
O O20 0.716815 0.135997 0.647781
O O21 0.000000 0.624179 0.774228
#
# Coordination Sequence:
#
# PCOD8172452 Si02
#       8
#     8   4   8   8   8   4   8   8
#     4   9  19  38  64  94 123 155 197 248 305 365
#     4  11  21  31  49  82 117 150 183 231 284 322
#     4  10  18  33  56  81 111 152 195 232 274 339
#     4   8  14  28  57  88 113 147 191 236 284 344
#     4  12  26  44  65  89 119 158 203 251 305 365
#     4  11  23  37  55  86 123 158 193 241 298 348
#     4  10  22  36  54  78 108 151 196 237 283 335
#     4  11  23  40  62  87 115 153 197 244 296 354
#
# _framework density 19.787013999999999
#
# number of rings (size 3 to 8) (size 9 to 14) (size 15 to 20)
#    0.000    1.857    2.143    3.429    1.000    3.714 
#    0.000    1.429    0.000    1.714    0.000    0.000 
#    0.000    0.000    0.000    0.000    0.000    0.000 
#
# Total GULP energy -346939.829139 kJ/mol
# GULP energy per Si atom -12390.708184 kJ/mol
# Density = 1.974198 g / cm^3
# Si number density = 19.787014 Si / 1000 Ang^3
#
#
#
# Elastic Constant Matrix: (Units=GPa)
#
#
# Indices 1 2 3 4 5 6 
#
# 1 72.7438 48.8086 35.9343 0.0000 0.0000 0.0000
# 2 48.8086 118.1534 41.8770 0.0000 0.0000 0.0000
# 3 35.9343 41.8770 101.5519 0.0000 0.0000 0.0000
# 4 0.0000 0.0000 0.0000 30.5959 0.0000 0.0000
# 5 0.0000 0.0000 0.0000 0.0000 20.4646 0.0000
# 6 0.0000 0.0000 0.0000 0.0000 0.0000 18.0095
#
#
#
# Elastic Compliance Matrix: (Units=1/GPa)
#
#
# Indices 1 2 3 4 5 6 
#
# 1 0.020586 -0.006936 -0.004424 0.000000 0.000000 0.000000
# 2 -0.006936 0.012249 -0.002597 0.000000 0.000000 0.000000
# 3 -0.004424 -0.002597 0.012484 0.000000 0.000000 0.000000
# 4 0.000000 0.000000 0.000000 0.032684 0.000000 0.000000
# 5 0.000000 0.000000 0.000000 0.000000 0.048865 0.000000
# 6 0.000000 0.000000 0.000000 0.000000 0.000000 0.055526
#
#
# Mechanical properties :
#
#
# Convention : Reuss Voigt Hill
#
# Bulk Modulus (GPa) = 57.45570 60.63209 59.04390
# Shear Modulus (GPa) = 23.13636 24.86928 24.00282
#
# Velocity S-wave (km/s) = 3.42317 3.54905 3.48668
# Velocity P-wave (km/s) = 6.68762 6.89226 6.79071
#
# Compressibility (1/GPa) = 0.01740471
#
# Stress axis : x y z
#
# Youngs Moduli (GPa) = 48.57630 81.63802 80.10504
#
# Poissons Ratio (x) = 0.56624 0.35441
# Poissons Ratio (y) = 0.33692 0.20803
# Poissons Ratio (z) = 0.21491 0.21201
#
# Static dielectric constant tensor:
#      x y z
#    x 3.378470 0.000000 0.000000 
#    y 0.000000 3.560210 0.000000 
#    z 0.000000 0.000000 4.014700 
# 
# 
# High freq. dielectric constant tensor:
#      x y z
#    x 1.751950 0.000000 0.000000 
#    y 0.000000 1.760230 0.000000 
#    z 0.000000 0.000000 1.780600 
# 
# From -- ./inp_files/15704.got.cif
#   From: 2010.03.12/outbox.cif.g09.slc.cpg/sg35_8_cif.got.tgz:15704.got - 2010.04.14 02:02:04.
