data_PCOD8172600
_publ_section_title
;
Structure prediction by ZEFSAII (Michael W. Deem and Ramdas Pophale) SiO2 
 PCOD8172600
Probable space group: C M M 2
;
_chemical_formula_sum "Si O2"
_cell_formula_units_Z 56
_cell_length_a 9.215437
_cell_length_b 23.367417
_cell_length_c 15.483358
_cell_angle_alpha 90.000000
_cell_angle_beta 90.000000
_cell_angle_gamma 90.000000
_cell_volume 3334.201164
_symmetry_space_group_name_H-M "C M M 2"
_symmetry_group_IT_number 35
_symmetry_cell_setting 'orthorhombic'
loop_
_space_group_symop_operation_xyz
x,y,z
-x,-y,z
-x,y,z
x,-y,z
1/2+x,1/2+y,z
1/2-x,1/2-y,z
1/2-x,1/2+y,z
1/2+x,1/2-y,z
loop_
_atom_site_type_symbol
_atom_site_label
_atom_site_fract_x
_atom_site_fract_y
_atom_site_fract_z
Si Si1 0.170261 0.189273 0.381270
Si Si2 0.834112 0.192249 0.568695
Si Si3 0.169534 0.877429 0.921818
Si Si4 0.831051 0.500000 0.166855
Si Si5 0.668965 0.690094 0.755365
Si Si6 0.666174 0.879810 0.240267
Si Si7 0.168385 0.308714 0.067973
Si Si8 0.831956 0.000000 0.986757
O O1 0.250000 0.250000 0.369650
O O2 0.198996 0.160975 0.477126
O O3 0.229639 0.143691 0.313957
O O4 0.000000 0.199356 0.364270
O O5 0.750000 0.250000 0.566476
O O6 0.795136 0.161648 0.660318
O O7 0.000000 0.210031 0.570186
O O8 0.214321 0.856985 0.825952
O O9 0.209037 0.944378 0.930174
O O10 0.000000 0.866500 0.940925
O O11 0.264201 0.841235 0.987530
O O12 0.788601 0.554758 0.223833
O O13 0.000000 0.500000 0.143398
O O14 0.751034 0.500000 0.076290
O O15 0.500000 0.704556 0.763837
O O16 0.750000 0.750000 0.770838
O O17 0.500000 0.874504 0.271148
O O18 0.691886 0.846197 0.152325
O O19 0.250000 0.250000 0.084069
O O20 0.000000 0.296845 0.048954
O O21 0.000000 0.000000 0.011000
#
# Coordination Sequence:
#
# PCOD8172600 Si02
#       8
#     8   8   8   4   8   8   8   4
#     4  10  19  31  50  75 103 131 163 201 245 293
#     4   8  15  28  46  69  97 129 160 195 238 288
#     4  10  20  33  50  72  98 129 165 204 243 287
#     4  10  20  38  56  71  92 126 170 207 244 289
#     4   9  17  30  48  71 100 129 160 197 241 292
#     4  10  21  35  52  72  96 127 164 203 244 291
#     4  11  22  34  49  70  99 130 159 196 243 295
#     4  10  20  34  52  73  96 126 168 211 246 281
#
# _framework density 16.795627
#
# number of rings (size 3 to 8) (size 9 to 14) (size 15 to 20)
#    0.000    2.286    1.429    1.714    0.000    5.143 
#    0.000    0.000    0.000    0.857    0.000    3.000 
#    0.000    0.000    0.000    0.000    0.000    0.000 
#
# Total GULP energy -346987.692636 kJ/mol
# GULP energy per Si atom -12392.417594 kJ/mol
# Density = 1.675740 g / cm^3
# Si number density = 16.795627 Si / 1000 Ang^3
#
#
#
# Elastic Constant Matrix: (Units=GPa)
#
#
# Indices 1 2 3 4 5 6 
#
# 1 60.9449 35.1701 50.6137 0.0000 0.0000 0.0000
# 2 35.1701 93.5959 47.5622 0.0000 0.0000 0.0000
# 3 50.6137 47.5622 134.3431 0.0000 0.0000 0.0000
# 4 0.0000 0.0000 0.0000 77.1596 0.0000 0.0000
# 5 0.0000 0.0000 0.0000 0.0000 12.9046 0.0000
# 6 0.0000 0.0000 0.0000 0.0000 0.0000 27.0935
#
#
#
# Elastic Compliance Matrix: (Units=1/GPa)
#
#
# Indices 1 2 3 4 5 6 
#
# 1 0.026316 -0.005915 -0.007821 0.000000 0.000000 0.000000
# 2 -0.005915 0.014357 -0.002855 0.000000 0.000000 0.000000
# 3 -0.007821 -0.002855 0.011401 0.000000 0.000000 0.000000
# 4 0.000000 0.000000 0.000000 0.012960 0.000000 0.000000
# 5 0.000000 0.000000 0.000000 0.000000 0.077492 0.000000
# 6 0.000000 0.000000 0.000000 0.000000 0.000000 0.036909
#
#
# Mechanical properties :
#
#
# Convention : Reuss Voigt Hill
#
# Bulk Modulus (GPa) = 52.92536 61.73065 57.32801
# Shear Modulus (GPa) = 22.84001 33.80072 28.32036
#
# Velocity S-wave (km/s) = 3.69165 4.49092 4.11076
# Velocity P-wave (km/s) = 7.05343 7.98279 7.53246
#
# Compressibility (1/GPa) = 0.01889453
#
# Stress axis : x y z
#
# Youngs Moduli (GPa) = 37.99915 69.65058 87.71353
#
# Poissons Ratio (x) = 0.41195 0.68598
# Poissons Ratio (y) = 0.22475 0.25040
# Poissons Ratio (z) = 0.29718 0.19883
#
# Static dielectric constant tensor:
#      x y z
#    x 3.235760 0.000000 0.000000 
#    y 0.000000 3.056480 0.000000 
#    z 0.000000 0.000000 3.808530 
# 
# 
# High freq. dielectric constant tensor:
#      x y z
#    x 1.654130 0.000000 0.000000 
#    y 0.000000 1.621770 0.000000 
#    z 0.000000 0.000000 1.660700 
# 
# From -- ./inp_files/15669.got.cif
#   From: 2010.03.12/outbox.cif.g09.slc.cpg/sg35_8_cif.got.tgz:15669.got - 2010.04.14 02:02:04.
