data_PCOD8172225
_publ_section_title
;
Structure prediction by ZEFSAII (Michael W. Deem and Ramdas Pophale) SiO2 
 PCOD8172225
Probable space group: C M M 2
;
_chemical_formula_sum "Si O2"
_cell_formula_units_Z 64
_cell_length_a 18.426424
_cell_length_b 15.279300
_cell_length_c 12.180566
_cell_angle_alpha 90.000000
_cell_angle_beta 90.000000
_cell_angle_gamma 90.000000
_cell_volume 3429.351391
_symmetry_space_group_name_H-M "C M M 2"
_symmetry_group_IT_number 35
_symmetry_cell_setting 'orthorhombic'
loop_
_space_group_symop_operation_xyz
x,y,z
-x,-y,z
-x,y,z
x,-y,z
1/2+x,1/2+y,z
1/2-x,1/2-y,z
1/2-x,1/2+y,z
1/2+x,1/2-y,z
loop_
_atom_site_type_symbol
_atom_site_label
_atom_site_fract_x
_atom_site_fract_y
_atom_site_fract_z
Si Si1 0.296668 0.335561 0.264200
Si Si2 0.584598 0.741494 0.415373
Si Si3 0.415935 0.735122 0.891746
Si Si4 0.687605 0.096106 0.433249
Si Si5 0.813562 0.401609 0.887665
Si Si6 0.920374 0.745346 0.653614
Si Si7 0.324357 0.599812 0.027056
Si Si8 0.716932 0.846387 0.660010
O O1 0.250000 0.250000 0.234191
O O2 0.370877 0.316755 0.330461
O O3 0.245253 0.397336 0.335504
O O4 0.322323 0.385350 0.156556
O O5 0.500000 0.747767 0.379369
O O6 0.621074 0.837326 0.419107
O O7 0.591566 0.700437 0.539712
O O8 0.500000 0.748770 0.923274
O O9 0.376561 0.829587 0.900045
O O10 0.407419 0.698461 0.765697
O O11 0.382612 0.664532 0.973339
O O12 0.736511 0.108136 0.544877
O O13 0.652942 0.000000 0.431638
O O14 0.845623 0.500000 0.900949
O O15 0.767387 0.397835 0.772655
O O16 0.755775 0.380756 0.982083
O O17 0.870196 0.660416 0.656230
O O18 0.000000 0.704536 0.654638
O O19 0.347973 0.500000 0.002439
O O20 0.750000 0.750000 0.665525
#
# Coordination Sequence:
#
# PCOD8172225 Si02
#       8
#     8   8   8   8   8   8   8   8
#     4  10  20  35  54  75 101 137 178 221 269 319
#     4   9  18  33  54  78 102 134 173 211 259 315
#     4  10  20  35  56  80 109 143 175 215 265 316
#     4  10  19  31  50  78 110 140 172 213 261 315
#     4  10  20  34  55  82 110 141 177 218 266 321
#     4   8  15  29  49  73 102 135 167 201 250 310
#     4  11  23  38  56  77 103 139 182 226 271 320
#     4  10  17  29  50  77 109 141 176 215 254 303
#
# _framework density 18.662420999999998
#
# number of rings (size 3 to 8) (size 9 to 14) (size 15 to 20)
#    0.000    2.250    0.000    5.250    0.000    1.250 
#    0.000    0.000    0.000    9.375    0.000    7.000 
#    0.000    0.000    0.000    0.000    0.000    0.000 
#
# Total GULP energy -396424.420501 kJ/mol
# GULP energy per Si atom -12388.263141 kJ/mol
# Density = 1.861994 g / cm^3
# Si number density = 18.662421 Si / 1000 Ang^3
#
#
#
# Elastic Constant Matrix: (Units=GPa)
#
#
# Indices 1 2 3 4 5 6 
#
# 1 107.1323 45.1039 49.4777 0.0000 0.0000 0.0000
# 2 45.1039 80.1896 37.8124 0.0000 0.0000 0.0000
# 3 49.4777 37.8124 132.3757 0.0000 0.0000 0.0000
# 4 0.0000 0.0000 0.0000 22.0584 0.0000 0.0000
# 5 0.0000 0.0000 0.0000 0.0000 25.9460 0.0000
# 6 0.0000 0.0000 0.0000 0.0000 0.0000 16.8369
#
#
#
# Elastic Compliance Matrix: (Units=1/GPa)
#
#
# Indices 1 2 3 4 5 6 
#
# 1 0.013366 -0.005966 -0.003292 0.000000 0.000000 0.000000
# 2 -0.005966 0.017074 -0.002647 0.000000 0.000000 0.000000
# 3 -0.003292 -0.002647 0.009541 0.000000 0.000000 0.000000
# 4 0.000000 0.000000 0.000000 0.045334 0.000000 0.000000
# 5 0.000000 0.000000 0.000000 0.000000 0.038542 0.000000
# 6 0.000000 0.000000 0.000000 0.000000 0.000000 0.059393
#
#
# Mechanical properties :
#
#
# Convention : Reuss Voigt Hill
#
# Bulk Modulus (GPa) = 61.83729 64.94285 63.39007
# Shear Modulus (GPa) = 23.53486 25.45517 24.49501
#
# Velocity S-wave (km/s) = 3.55503 3.69722 3.62682
# Velocity P-wave (km/s) = 7.07513 7.28699 7.18184
#
# Compressibility (1/GPa) = 0.01617147
#
# Stress axis : x y z
#
# Youngs Moduli (GPa) = 74.81572 58.56732 104.81294
#
# Poissons Ratio (x) = 0.34940 0.34502
# Poissons Ratio (y) = 0.44634 0.27748
# Poissons Ratio (z) = 0.24627 0.15505
#
# Static dielectric constant tensor:
#      x y z
#    x 3.488310 0.000000 0.000000 
#    y 0.000000 3.142560 0.000000 
#    z 0.000000 0.000000 3.749700 
# 
# 
# High freq. dielectric constant tensor:
#      x y z
#    x 1.718650 0.000000 0.000000 
#    y 0.000000 1.692570 0.000000 
#    z 0.000000 0.000000 1.741740 
# 
# From -- ./inp_files/13174.got.cif
#   From: 2010.03.12/outbox.cif.g09.slc.cpg/sg35_7_cif.got.tgz:13174.got - 2010.04.14 02:02:04.
