data_PCOD8172356
_publ_section_title
;
Structure prediction by ZEFSAII (Michael W. Deem and Ramdas Pophale) SiO2 
 PCOD8172356
Probable space group: C M M 2
;
_chemical_formula_sum "Si O2"
_cell_formula_units_Z 56
_cell_length_a 8.926223
_cell_length_b 21.510481
_cell_length_c 14.481303
_cell_angle_alpha 90.000000
_cell_angle_beta 90.000000
_cell_angle_gamma 90.000000
_cell_volume 2780.516617
_symmetry_space_group_name_H-M "C M M 2"
_symmetry_group_IT_number 35
_symmetry_cell_setting 'orthorhombic'
loop_
_space_group_symop_operation_xyz
x,y,z
-x,-y,z
-x,y,z
x,-y,z
1/2+x,1/2+y,z
1/2-x,1/2-y,z
1/2-x,1/2+y,z
1/2+x,1/2-y,z
loop_
_atom_site_type_symbol
_atom_site_label
_atom_site_fract_x
_atom_site_fract_y
_atom_site_fract_z
Si Si1 0.176535 0.500000 0.079131
Si Si2 0.823679 0.071539 0.587193
Si Si3 0.829802 0.428618 0.776605
Si Si4 0.823036 0.314929 0.477322
Si Si5 0.169550 0.000000 0.269613
Si Si6 0.171806 0.189751 0.120464
Si Si7 0.676709 0.882117 0.971459
Si Si8 0.669704 0.633476 0.310607
O O1 0.215337 0.500000 0.186144
O O2 0.000000 0.500000 0.067970
O O3 0.243717 0.440632 0.026898
O O4 0.782455 0.085243 0.693364
O O5 0.740576 0.123647 0.527266
O O6 0.000000 0.079795 0.573147
O O7 0.775104 0.000000 0.562257
O O8 0.820949 0.500000 0.809399
O O9 0.780190 0.386190 0.863411
O O10 0.000000 0.412831 0.745726
O O11 0.750000 0.250000 0.513403
O O12 0.782976 0.324029 0.369244
O O13 0.000000 0.310823 0.492110
O O14 0.194772 0.939504 0.334166
O O15 0.000000 0.000000 0.229771
O O16 0.250000 0.250000 0.162582
O O17 0.197785 0.138466 0.200433
O O18 0.000000 0.202824 0.101272
O O19 0.246294 0.175904 0.021260
O O20 0.500000 0.876755 0.982672
O O21 0.500000 0.654342 0.335531
#
# Coordination Sequence:
#
# PCOD8172356 Si02
#       8
#     4   8   8   8   4   8   8   8
#     4  10  18  30  52  83 116 151 188 229 280 334
#     4  10  22  41  65  94 127 160 197 247 305 363
#     4   9  17  33  58  88 121 155 193 239 294 353
#     4  12  26  44  67  92 120 157 203 251 304 367
#     4  10  20  36  56  85 122 157 192 241 298 348
#     4  11  23  38  56  78 111 155 202 247 292 345
#     4  10  19  33  55  84 118 154 192 236 285 339
#     4  10  22  39  60  87 120 157 196 242 299 355
#
# _framework density 20.140142000000001
#
# number of rings (size 3 to 8) (size 9 to 14) (size 15 to 20)
#    0.000    1.714    2.143    2.571    1.000    4.286 
#    0.000    0.714    0.000    3.429    0.000    0.000 
#    0.000    0.000    0.000    0.000    0.000    0.000 
#
# Total GULP energy -347124.871415 kJ/mol
# GULP energy per Si atom -12397.316836 kJ/mol
# Density = 2.009430 g / cm^3
# Si number density = 20.140142 Si / 1000 Ang^3
#
#
#
# Elastic Constant Matrix: (Units=GPa)
#
#
# Indices 1 2 3 4 5 6 
#
# 1 95.2343 50.2007 44.7259 0.0000 0.0000 0.0000
# 2 50.2007 108.4590 39.1658 0.0000 0.0000 0.0000
# 3 44.7259 39.1658 86.0962 0.0000 0.0000 0.0000
# 4 0.0000 0.0000 0.0000 25.8672 0.0000 0.0000
# 5 0.0000 0.0000 0.0000 0.0000 34.4426 0.0000
# 6 0.0000 0.0000 0.0000 0.0000 0.0000 29.5715
#
#
#
# Elastic Compliance Matrix: (Units=1/GPa)
#
#
# Indices 1 2 3 4 5 6 
#
# 1 0.016086 -0.005298 -0.005946 0.000000 0.000000 0.000000
# 2 -0.005298 0.012777 -0.003060 0.000000 0.000000 0.000000
# 3 -0.005946 -0.003060 0.016096 0.000000 0.000000 0.000000
# 4 0.000000 0.000000 0.000000 0.038659 0.000000 0.000000
# 5 0.000000 0.000000 0.000000 0.000000 0.029034 0.000000
# 6 0.000000 0.000000 0.000000 0.000000 0.000000 0.033816
#
#
# Mechanical properties :
#
#
# Convention : Reuss Voigt Hill
#
# Bulk Modulus (GPa) = 61.16175 61.99714 61.57945
# Shear Modulus (GPa) = 27.69660 28.35607 28.02633
#
# Velocity S-wave (km/s) = 3.71238 3.75632 3.73442
# Velocity P-wave (km/s) = 6.98640 7.04720 7.01686
#
# Compressibility (1/GPa) = 0.01635009
#
# Stress axis : x y z
#
# Youngs Moduli (GPa) = 62.16664 78.26308 62.12709
#
# Poissons Ratio (x) = 0.41465 0.36942
# Poissons Ratio (y) = 0.32937 0.19012
# Poissons Ratio (z) = 0.36966 0.23950
#
# Static dielectric constant tensor:
#      x y z
#    x 3.535040 0.000000 0.000000 
#    y 0.000000 3.745270 0.000000 
#    z 0.000000 0.000000 3.522880 
# 
# 
# High freq. dielectric constant tensor:
#      x y z
#    x 1.778060 0.000000 0.000000 
#    y 0.000000 1.784780 0.000000 
#    z 0.000000 0.000000 1.779670 
# 
# From -- ./inp_files/15787.got.cif
#   From: 2010.03.12/outbox.cif.g09.slc.cpg/sg35_8_cif.got.tgz:15787.got - 2010.04.14 02:02:04.
