data_PCOD8172226
_publ_section_title
;
Structure prediction by ZEFSAII (Michael W. Deem and Ramdas Pophale) SiO2 
 PCOD8172226
Probable space group: C M M 2
;
_chemical_formula_sum "Si O2"
_cell_formula_units_Z 56
_cell_length_a 18.331440
_cell_length_b 19.314807
_cell_length_c 9.547429
_cell_angle_alpha 90.000000
_cell_angle_beta 90.000000
_cell_angle_gamma 90.000000
_cell_volume 3380.441245
_symmetry_space_group_name_H-M "C M M 2"
_symmetry_group_IT_number 35
_symmetry_cell_setting 'orthorhombic'
loop_
_space_group_symop_operation_xyz
x,y,z
-x,-y,z
-x,y,z
x,-y,z
1/2+x,1/2+y,z
1/2-x,1/2-y,z
1/2-x,1/2+y,z
1/2+x,1/2-y,z
loop_
_atom_site_type_symbol
_atom_site_label
_atom_site_fract_x
_atom_site_fract_y
_atom_site_fract_z
Si Si1 0.177770 0.777483 0.354920
Si Si2 0.192994 0.078653 0.700581
Si Si3 0.675106 0.078092 0.507546
Si Si4 0.084190 0.657509 0.716150
Si Si5 0.687719 0.919717 0.924775
Si Si6 0.915580 0.191688 0.616219
Si Si7 0.705574 0.141965 0.229383
O O1 0.250000 0.750000 0.443314
O O2 0.113112 0.799178 0.457092
O O3 0.207946 0.840892 0.257825
O O4 0.157043 0.712421 0.252412
O O5 0.246988 0.099308 0.573802
O O6 0.234884 0.088193 0.847424
O O7 0.124003 0.129150 0.695894
O O8 0.164983 0.000000 0.684032
O O9 0.611789 0.126356 0.569175
O O10 0.678327 0.084991 0.340823
O O11 0.656548 0.000000 0.552088
O O12 0.126494 0.624673 0.846284
O O13 0.096841 0.739902 0.709028
O O14 0.000000 0.639040 0.734740
O O15 0.663692 0.000000 0.928900
O O16 0.695157 0.889369 0.078261
O O17 0.000000 0.172657 0.603133
#
# Coordination Sequence:
#
# PCOD8172226 Si02
#       7
#     8   8   8   8   8   8   8
#     4   8  17  31  53  76 104 137 167 226 267 296
#     4   9  19  34  53  80 105 135 174 218 267 318
#     4  10  17  29  53  76 101 136 177 219 258 309
#     4  10  21  35  51  75 106 142 180 221 265 312
#     4  10  21  34  52  79 111 144 179 220 261 311
#     4  11  20  33  56  82 107 137 175 225 273 312
#     4   9  17  31  53  75 104 132 176 216 260 307
#
# _framework density 16.565885000000002
#
# number of rings (size 3 to 8) (size 9 to 14) (size 15 to 20)
#    0.857    1.429    2.857    1.714    2.000    3.714 
#    0.000    1.429    0.000    2.571    0.000    0.000 
#    0.000    0.000    0.000    0.000    0.000    0.000 
#
# Total GULP energy -346959.780880 kJ/mol
# GULP energy per Si atom -12391.420746 kJ/mol
# Density = 1.652818 g / cm^3
# Si number density = 16.565885 Si / 1000 Ang^3
#
#
#
# Elastic Constant Matrix: (Units=GPa)
#
#
# Indices 1 2 3 4 5 6 
#
# 1 102.5855 65.4917 47.2816 0.0000 0.0000 0.0000
# 2 65.4917 104.4773 48.3973 0.0000 0.0000 0.0000
# 3 47.2816 48.3973 127.3134 0.0000 0.0000 0.0000
# 4 0.0000 0.0000 0.0000 26.5780 0.0000 0.0000
# 5 0.0000 0.0000 0.0000 0.0000 14.6646 0.0000
# 6 0.0000 0.0000 0.0000 0.0000 0.0000 23.7781
#
#
#
# Elastic Compliance Matrix: (Units=1/GPa)
#
#
# Indices 1 2 3 4 5 6 
#
# 1 0.017008 -0.009389 -0.002747 0.000000 0.000000 0.000000
# 2 -0.009389 0.016800 -0.002900 0.000000 0.000000 0.000000
# 3 -0.002747 -0.002900 0.009977 0.000000 0.000000 0.000000
# 4 0.000000 0.000000 0.000000 0.037625 0.000000 0.000000
# 5 0.000000 0.000000 0.000000 0.000000 0.068191 0.000000
# 6 0.000000 0.000000 0.000000 0.000000 0.000000 0.042055
#
#
# Mechanical properties :
#
#
# Convention : Reuss Voigt Hill
#
# Bulk Modulus (GPa) = 72.91952 72.96860 72.94406
# Shear Modulus (GPa) = 22.09452 24.55119 23.32285
#
# Velocity S-wave (km/s) = 3.65600 3.85389 3.75625
# Velocity P-wave (km/s) = 7.86989 7.99665 7.93353
#
# Compressibility (1/GPa) = 0.01371375
#
# Stress axis : x y z
#
# Youngs Moduli (GPa) = 58.79505 59.52346 100.22848
#
# Poissons Ratio (x) = 0.55886 0.27537
# Poissons Ratio (y) = 0.55202 0.29062
# Poissons Ratio (z) = 0.16153 0.17259
#
# Static dielectric constant tensor:
#      x y z
#    x 2.876180 0.000000 0.000000 
#    y 0.000000 3.293980 0.000000 
#    z 0.000000 0.000000 2.872550 
# 
# 
# High freq. dielectric constant tensor:
#      x y z
#    x 1.608550 0.000000 0.000000 
#    y 0.000000 1.651860 0.000000 
#    z 0.000000 0.000000 1.622270 
# 
# From -- ./inp_files/8675.got.cif
#   From: 2010.03.12/outbox.cif.g09.slc.cpg/sg35_5_cif.got.tgz:8675.got - 2010.04.14 02:02:04.
