data_PCOD8172875
_publ_section_title
;
Structure prediction by ZEFSAII (Michael W. Deem and Ramdas Pophale) SiO2 
 PCOD8172875
Probable space group: C M M 2
;
_chemical_formula_sum "Si O2"
_cell_formula_units_Z 64
_cell_length_a 17.135059
_cell_length_b 17.257887
_cell_length_c 11.838469
_cell_angle_alpha 90.000000
_cell_angle_beta 90.000000
_cell_angle_gamma 90.000000
_cell_volume 3500.811818
_symmetry_space_group_name_H-M "C M M 2"
_symmetry_group_IT_number 35
_symmetry_cell_setting 'orthorhombic'
loop_
_space_group_symop_operation_xyz
x,y,z
-x,-y,z
-x,y,z
x,-y,z
1/2+x,1/2+y,z
1/2-x,1/2-y,z
1/2-x,1/2+y,z
1/2+x,1/2-y,z
loop_
_atom_site_type_symbol
_atom_site_label
_atom_site_fract_x
_atom_site_fract_y
_atom_site_fract_z
Si Si1 0.678748 0.303504 0.501710
Si Si2 0.628738 0.912556 0.711442
Si Si3 0.913177 0.656969 0.480553
Si Si4 0.272404 0.911334 0.347761
Si Si5 0.410397 0.825753 0.942403
Si Si6 0.818151 0.813382 0.906314
Si Si7 0.688963 0.413318 0.695710
Si Si8 0.726935 0.836168 0.112804
O O1 0.750000 0.250000 0.546284
O O2 0.608573 0.247530 0.464600
O O3 0.705441 0.355815 0.396624
O O4 0.649445 0.359297 0.601481
O O5 0.586125 0.864383 0.613423
O O6 0.614833 0.875969 0.833950
O O7 0.718847 0.912910 0.677375
O O8 0.595897 0.000000 0.714098
O O9 0.855301 0.603656 0.407796
O O10 0.000000 0.644911 0.432217
O O11 0.276546 0.896302 0.214518
O O12 0.248887 0.000000 0.369657
O O13 0.500000 0.842396 0.973263
O O14 0.398580 0.734566 0.915189
O O15 0.356964 0.844148 0.051134
O O16 0.750000 0.750000 0.876202
O O17 0.831966 0.880035 0.816966
O O18 0.794311 0.857444 0.021949
O O19 0.655088 0.500000 0.685936
O O20 0.750000 0.750000 0.157304
#
# Coordination Sequence:
#
# PCOD8172875 Si02
#       8
#     8   8   8   8   8   8   8   8
#     4  10  19  34  55  75 101 135 181 216 250 300
#     4  11  20  31  49  78 112 139 168 209 258 310
#     4  11  23  36  54  78 107 142 175 208 255 313
#     4  11  22  36  56  80 105 133 170 219 266 310
#     4  10  20  33  52  75 103 141 174 203 248 304
#     4   9  17  33  52  73 101 132 174 216 247 295
#     4  11  18  29  53  80 102 133 171 216 262 298
#     4   9  19  35  52  73 101 134 174 218 251 296
#
# _framework density 18.281472999999998
#
# number of rings (size 3 to 8) (size 9 to 14) (size 15 to 20)
#    0.000    2.000    5.000    3.375    0.000    3.250 
#    0.000    0.000    0.000    2.625    0.000    0.000 
#    0.000    0.000    0.000    0.000    0.000    0.000 
#
# Total GULP energy -396665.604700 kJ/mol
# GULP energy per Si atom -12395.800147 kJ/mol
# Density = 1.823986 g / cm^3
# Si number density = 18.281473 Si / 1000 Ang^3
#
#
#
# Elastic Constant Matrix: (Units=GPa)
#
#
# Indices 1 2 3 4 5 6 
#
# 1 49.3668 21.0513 16.1716 0.0000 0.0000 0.0000
# 2 21.0513 113.5609 54.5906 0.0000 0.0000 0.0000
# 3 16.1716 54.5906 100.8200 0.0000 0.0000 0.0000
# 4 0.0000 0.0000 0.0000 23.3577 0.0000 0.0000
# 5 0.0000 0.0000 0.0000 0.0000 8.7785 0.0000
# 6 0.0000 0.0000 0.0000 0.0000 0.0000 11.7820
#
#
#
# Elastic Compliance Matrix: (Units=1/GPa)
#
#
# Indices 1 2 3 4 5 6 
#
# 1 0.022235 -0.003254 -0.001804 0.000000 0.000000 0.000000
# 2 -0.003254 0.012381 -0.006182 0.000000 0.000000 0.000000
# 3 -0.001804 -0.006182 0.013555 0.000000 0.000000 0.000000
# 4 0.000000 0.000000 0.000000 0.042812 0.000000 0.000000
# 5 0.000000 0.000000 0.000000 0.000000 0.113915 0.000000
# 6 0.000000 0.000000 0.000000 0.000000 0.000000 0.084875
#
#
# Mechanical properties :
#
#
# Convention : Reuss Voigt Hill
#
# Bulk Modulus (GPa) = 38.92524 49.70831 44.31678
# Shear Modulus (GPa) = 15.58514 20.24592 17.91553
#
# Velocity S-wave (km/s) = 2.92294 3.33146 3.13386
# Velocity P-wave (km/s) = 5.72100 6.48442 6.11464
#
# Compressibility (1/GPa) = 0.02569027
#
# Stress axis : x y z
#
# Youngs Moduli (GPa) = 44.97327 80.76998 73.77181
#
# Poissons Ratio (x) = 0.26287 0.13311
# Poissons Ratio (y) = 0.14637 0.45604
# Poissons Ratio (z) = 0.08115 0.49930
#
# Static dielectric constant tensor:
#      x y z
#    x 3.151920 0.000000 0.000000 
#    y 0.000000 3.489410 0.000000 
#    z 0.000000 0.000000 3.317800 
# 
# 
# High freq. dielectric constant tensor:
#      x y z
#    x 1.669420 0.000000 0.000000 
#    y 0.000000 1.708670 0.000000 
#    z 0.000000 0.000000 1.709190 
# 
# From -- ./inp_files/13703.got.cif
#   From: 2010.03.12/outbox.cif.g09.slc.cpg/sg35_7_cif.got.tgz:13703.got - 2010.04.14 02:02:04.
