data_PCOD8172343
_publ_section_title
;
Structure prediction by ZEFSAII (Michael W. Deem and Ramdas Pophale) SiO2 
 PCOD8172343
Probable space group: C M M 2
;
_chemical_formula_sum "Si O2"
_cell_formula_units_Z 64
_cell_length_a 26.765323
_cell_length_b 9.019818
_cell_length_c 14.580302
_cell_angle_alpha 90.000000
_cell_angle_beta 90.000000
_cell_angle_gamma 90.000000
_cell_volume 3519.952337
_symmetry_space_group_name_H-M "C M M 2"
_symmetry_group_IT_number 35
_symmetry_cell_setting 'orthorhombic'
loop_
_space_group_symop_operation_xyz
x,y,z
-x,-y,z
-x,y,z
x,-y,z
1/2+x,1/2+y,z
1/2-x,1/2-y,z
1/2-x,1/2+y,z
1/2+x,1/2-y,z
loop_
_atom_site_type_symbol
_atom_site_label
_atom_site_fract_x
_atom_site_fract_y
_atom_site_fract_z
Si Si1 0.888455 0.824212 0.577320
Si Si2 0.557434 0.837945 0.434593
Si Si3 0.802172 0.324885 0.458179
Si Si4 0.055251 0.324935 0.943366
Si Si5 0.442651 0.661784 0.268301
Si Si6 0.892591 0.325561 0.121745
Si Si7 0.058030 0.325526 0.737321
Si Si8 0.301396 0.826652 0.247421
O O1 0.936759 0.773747 0.519293
O O2 0.841912 0.743118 0.529143
O O3 0.901223 0.766412 0.678987
O O4 0.880489 0.000000 0.577558
O O5 0.500000 0.866008 0.415985
O O6 0.583463 0.763695 0.345939
O O7 0.583276 0.000000 0.451377
O O8 0.797733 0.500000 0.473843
O O9 0.750000 0.250000 0.483485
O O10 0.816744 0.286981 0.352351
O O11 0.050380 0.500000 0.943103
O O12 0.070037 0.274145 0.841237
O O13 0.000000 0.260308 0.969423
O O14 0.099262 0.277718 0.015177
O O15 0.500000 0.640483 0.293706
O O16 0.416527 0.500000 0.266140
O O17 0.438254 0.744828 0.172077
O O18 0.898341 0.500000 0.134078
O O19 0.841921 0.269984 0.171867
O O20 0.067254 0.500000 0.721768
O O21 0.000000 0.288046 0.713279
O O22 0.250000 0.750000 0.219569
O O23 0.293199 0.000000 0.236815
#
# Coordination Sequence:
#
# PCOD8172343 Si02
#       8
#     8   8   8   8   8   8   8   8
#     4  12  23  33  50  76 103 132 167 209 261 317
#     4  10  20  33  48  67  95 133 172 207 246 297
#     4  10  20  36  55  76 104 137 174 214 257 306
#     4   8  15  29  51  77 102 131 172 219 259 298
#     4  10  20  31  43  66 101 135 164 197 243 301
#     4  10  18  30  51  76  99 129 172 213 251 301
#     4   9  18  34  54  75 101 136 178 220 261 306
#     4   9  19  33  51  75 102 132 166 205 249 299
#
# _framework density 18.182065000000001
#
# number of rings (size 3 to 8) (size 9 to 14) (size 15 to 20)
#    0.000    2.250    0.000    4.500    0.000    5.750 
#    0.000    0.625    0.000    1.500    0.000    1.750 
#    0.000    0.000    0.000    0.000    0.000    0.000 
#
# Total GULP energy -396466.650262 kJ/mol
# GULP energy per Si atom -12389.582821 kJ/mol
# Density = 1.814068 g / cm^3
# Si number density = 18.182065 Si / 1000 Ang^3
#
#
#
# Elastic Constant Matrix: (Units=GPa)
#
#
# Indices 1 2 3 4 5 6 
#
# 1 89.8380 40.9871 62.6576 0.0000 0.0000 0.0000
# 2 40.9871 83.4302 48.9720 0.0000 0.0000 0.0000
# 3 62.6576 48.9720 143.5965 0.0000 0.0000 0.0000
# 4 0.0000 0.0000 0.0000 14.5512 0.0000 0.0000
# 5 0.0000 0.0000 0.0000 0.0000 29.0362 0.0000
# 6 0.0000 0.0000 0.0000 0.0000 0.0000 23.8791
#
#
#
# Elastic Compliance Matrix: (Units=1/GPa)
#
#
# Indices 1 2 3 4 5 6 
#
# 1 0.017627 -0.005183 -0.005924 0.000000 0.000000 0.000000
# 2 -0.005183 0.016510 -0.003369 0.000000 0.000000 0.000000
# 3 -0.005924 -0.003369 0.010698 0.000000 0.000000 0.000000
# 4 0.000000 0.000000 0.000000 0.068723 0.000000 0.000000
# 5 0.000000 0.000000 0.000000 0.000000 0.034440 0.000000
# 6 0.000000 0.000000 0.000000 0.000000 0.000000 0.041878
#
#
# Mechanical properties :
#
#
# Convention : Reuss Voigt Hill
#
# Bulk Modulus (GPa) = 62.95855 69.12204 66.04029
# Shear Modulus (GPa) = 22.30934 24.44316 23.37625
#
# Velocity S-wave (km/s) = 3.50665 3.67052 3.58952
# Velocity P-wave (km/s) = 7.14824 7.48751 7.31984
#
# Compressibility (1/GPa) = 0.01588347
#
# Stress axis : x y z
#
# Youngs Moduli (GPa) = 56.72979 60.57047 93.47585
#
# Poissons Ratio (x) = 0.31391 0.55377
# Poissons Ratio (y) = 0.29400 0.31493
# Poissons Ratio (z) = 0.33608 0.20407
#
# Static dielectric constant tensor:
#      x y z
#    x 3.249650 0.000000 0.000000 
#    y 0.000000 3.475260 0.000000 
#    z 0.000000 0.000000 3.581380 
# 
# 
# High freq. dielectric constant tensor:
#      x y z
#    x 1.685750 0.000000 0.000000 
#    y 0.000000 1.699540 0.000000 
#    z 0.000000 0.000000 1.696390 
# 
# From -- ./inp_files/17776.got.cif
#   From: 2010.03.12/outbox.cif.g09.slc.cpg/sg35_9_cif.got.tgz:17776.got - 2010.04.14 02:02:04.
