data_PCOD8172888
_publ_section_title
;
Structure prediction by ZEFSAII (Michael W. Deem and Ramdas Pophale) SiO2 
 PCOD8172888
Probable space group: C M M 2
;
_chemical_formula_sum "Si O2"
_cell_formula_units_Z 48
_cell_length_a 8.680613
_cell_length_b 15.601139
_cell_length_c 17.400313
_cell_angle_alpha 90.000000
_cell_angle_beta 90.000000
_cell_angle_gamma 90.000000
_cell_volume 2356.480019
_symmetry_space_group_name_H-M "C M M 2"
_symmetry_group_IT_number 35
_symmetry_cell_setting 'orthorhombic'
loop_
_space_group_symop_operation_xyz
x,y,z
-x,-y,z
-x,y,z
x,-y,z
1/2+x,1/2+y,z
1/2-x,1/2-y,z
1/2-x,1/2+y,z
1/2+x,1/2-y,z
loop_
_atom_site_type_symbol
_atom_site_label
_atom_site_fract_x
_atom_site_fract_y
_atom_site_fract_z
Si Si1 0.317019 0.902734 0.841290
Si Si2 0.822394 0.602288 0.511337
Si Si3 0.817080 0.661940 0.001291
Si Si4 0.319449 0.339670 0.359361
Si Si5 0.817020 0.500000 0.096566
Si Si6 0.817354 0.595384 0.677057
Si Si7 0.682693 0.000000 0.270904
O O1 0.500000 0.904506 0.845940
O O2 0.264657 0.860685 0.758330
O O3 0.255496 0.000000 0.847633
O O4 0.253266 0.849561 0.913844
O O5 0.802341 0.500000 0.507142
O O6 0.715090 0.648357 0.449565
O O7 0.765764 0.637616 0.595802
O O8 0.000000 0.626924 0.494838
O O9 0.750000 0.750000 0.034942
O O10 0.753909 0.584418 0.053569
O O11 0.000000 0.664993 0.003826
O O12 0.500000 0.340141 0.344872
O O13 0.250000 0.250000 0.329957
O O14 0.243161 0.415551 0.311887
O O15 0.756591 0.500000 0.183625
O O16 0.000000 0.500000 0.093872
O O17 0.748754 0.500000 0.679708
O O18 0.000000 0.589808 0.674211
O O19 0.500000 0.000000 0.275900
#
# Coordination Sequence:
#
# PCOD8172888 Si02
#       7
#     8   8   8   8   4   8   4
#     4   8  12  23  47  75 106 146 192 233 268 321
#     4   9  16  30  54  82 116 153 192 239 289 338
#     4  10  19  34  56  84 114 148 187 230 276 329
#     4  12  25  41  62  89 119 154 195 238 289 350
#     4   9  20  39  63  86 111 146 184 223 277 343
#     4   7  11  20  41  76 108 142 190 236 274 320
#     4  11  23  43  67  90 117 148 186 239 297 355
#
# _framework density 20.369364000000001
#
# number of rings (size 3 to 8) (size 9 to 14) (size 15 to 20)
#    0.000    2.667    1.667    3.750    0.000    0.667 
#    0.000    4.583    0.000    3.000    0.000    2.333 
#    0.000    0.000    0.000    0.000    0.000    0.000 
#
# Total GULP energy -297327.444763 kJ/mol
# GULP energy per Si atom -12388.643532 kJ/mol
# Density = 2.032300 g / cm^3
# Si number density = 20.369364 Si / 1000 Ang^3
#
#
#
# Elastic Constant Matrix: (Units=GPa)
#
#
# Indices 1 2 3 4 5 6 
#
# 1 54.1657 28.6733 31.1608 0.0000 0.0000 0.0000
# 2 28.6733 127.2980 68.6900 0.0000 0.0000 0.0000
# 3 31.1608 68.6900 170.2281 0.0000 0.0000 0.0000
# 4 0.0000 0.0000 0.0000 0.5717 0.0000 0.0000
# 5 0.0000 0.0000 0.0000 0.0000 11.3042 0.0000
# 6 0.0000 0.0000 0.0000 0.0000 0.0000 24.2709
#
#
#
# Elastic Compliance Matrix: (Units=1/GPa)
#
#
# Indices 1 2 3 4 5 6 
#
# 1 0.021806 -0.003525 -0.002569 0.000000 0.000000 0.000000
# 2 -0.003525 0.010612 -0.003637 0.000000 0.000000 0.000000
# 3 -0.002569 -0.003637 0.007812 0.000000 0.000000 0.000000
# 4 0.000000 0.000000 0.000000 1.749170 0.000000 0.000000
# 5 0.000000 0.000000 0.000000 0.000000 0.088463 0.000000
# 6 0.000000 0.000000 0.000000 0.000000 0.000000 0.041202
#
#
# Mechanical properties :
#
#
# Convention : Reuss Voigt Hill
#
# Bulk Modulus (GPa) = 48.15160 67.63777 57.89468
# Shear Modulus (GPa) = 2.57010 22.10722 12.33866
#
# Velocity S-wave (km/s) = 1.12449 3.29799 2.46386
# Velocity P-wave (km/s) = 5.03751 6.91231 6.04800
#
# Compressibility (1/GPa) = 0.02076774
#
# Stress axis : x y z
#
# Youngs Moduli (GPa) = 45.85877 94.23204 128.00369
#
# Poissons Ratio (x) = 0.33221 0.32886
# Poissons Ratio (y) = 0.16167 0.46553
# Poissons Ratio (z) = 0.11782 0.34271
#
# Static dielectric constant tensor:
#      x y z
#    x 3.130770 0.000000 0.000000 
#    y 0.000000 3.543870 0.000000 
#    z 0.000000 0.000000 4.314830 
# 
# 
# High freq. dielectric constant tensor:
#      x y z
#    x 1.743960 0.000000 0.000000 
#    y 0.000000 1.777900 0.000000 
#    z 0.000000 0.000000 1.814680 
# 
# From -- ./inp_files/17929.got.cif
#   From: 2010.03.12/outbox.cif.g09.slc.cpg/sg35_9_cif.got.tgz:17929.got - 2010.04.14 02:02:04.
