data_PCOD8172834
_publ_section_title
;
Structure prediction by ZEFSAII (Michael W. Deem and Ramdas Pophale) SiO2 
 PCOD8172834
Probable space group: C M M 2
;
_chemical_formula_sum "Si O2"
_cell_formula_units_Z 48
_cell_length_a 17.870821
_cell_length_b 7.742300
_cell_length_c 17.222556
_cell_angle_alpha 90.000000
_cell_angle_beta 90.000000
_cell_angle_gamma 90.000000
_cell_volume 2382.934504
_symmetry_space_group_name_H-M "C M M 2"
_symmetry_group_IT_number 35
_symmetry_cell_setting 'orthorhombic'
loop_
_space_group_symop_operation_xyz
x,y,z
-x,-y,z
-x,y,z
x,-y,z
1/2+x,1/2+y,z
1/2-x,1/2-y,z
1/2-x,1/2+y,z
1/2+x,1/2-y,z
loop_
_atom_site_type_symbol
_atom_site_label
_atom_site_fract_x
_atom_site_fract_y
_atom_site_fract_z
Si Si1 0.416993 0.697039 0.853720
Si Si2 0.083461 0.295698 0.550202
Si Si3 0.910815 0.000000 0.119307
Si Si4 0.911338 0.689126 0.017150
Si Si5 0.911081 0.000000 0.295874
Si Si6 0.834938 0.702369 0.702003
Si Si7 0.836486 0.704149 0.393155
O O1 0.500000 0.770092 0.832481
O O2 0.423792 0.500000 0.878931
O O3 0.362558 0.712485 0.781002
O O4 0.381664 0.792632 0.928637
O O5 0.080139 0.500000 0.555643
O O6 0.118663 0.220607 0.629390
O O7 0.134537 0.240296 0.477982
O O8 0.000000 0.219064 0.539565
O O9 0.877706 0.831191 0.075687
O O10 0.882564 0.000000 0.207333
O O11 0.000000 0.000000 0.117517
O O12 0.888496 0.500000 0.048691
O O13 0.000000 0.712945 0.013264
O O14 0.880748 0.822256 0.332334
O O15 0.000000 0.000000 0.303017
O O16 0.846646 0.500000 0.709055
O O17 0.750000 0.750000 0.687032
O O18 0.850612 0.500000 0.376032
O O19 0.750000 0.750000 0.388018
#
# Coordination Sequence:
#
# PCOD8172834 Si02
#       7
#     8   8   4   8   4   8   8
#     4  10  19  33  54  82 114 148 194 251 301 350
#     4   9  19  36  59  86 119 154 199 256 306 356
#     4   9  18  34  54  85 125 152 187 251 303 356
#     4   9  16  29  53  83 115 152 192 239 302 362
#     4  11  24  40  64  99 130 162 209 263 320 376
#     4  11  22  36  53  77 113 159 201 246 296 358
#     4  11  22  41  66  92 126 171 210 256 313 382
#
# _framework density 20.143231
#
# number of rings (size 3 to 8) (size 9 to 14) (size 15 to 20)
#    0.000    2.000    1.667    2.500    0.000    3.333 
#    3.000    1.667    0.000    1.000    0.000    0.000 
#    0.000    0.000    0.000    0.000    0.000    0.000 
#
# Total GULP energy -297569.355087 kJ/mol
# GULP energy per Si atom -12398.723129 kJ/mol
# Density = 2.009738 g / cm^3
# Si number density = 20.143231 Si / 1000 Ang^3
#
#
#
# Elastic Constant Matrix: (Units=GPa)
#
#
# Indices 1 2 3 4 5 6 
#
# 1 92.6462 21.9646 44.5856 0.0000 0.0000 0.0000
# 2 21.9646 118.4224 64.0307 0.0000 0.0000 0.0000
# 3 44.5856 64.0307 164.4337 0.0000 0.0000 0.0000
# 4 0.0000 0.0000 0.0000 25.8111 0.0000 0.0000
# 5 0.0000 0.0000 0.0000 0.0000 7.7830 0.0000
# 6 0.0000 0.0000 0.0000 0.0000 0.0000 16.3571
#
#
#
# Elastic Compliance Matrix: (Units=1/GPa)
#
#
# Indices 1 2 3 4 5 6 
#
# 1 0.012449 -0.000613 -0.003137 0.000000 0.000000 0.000000
# 2 -0.000613 0.010727 -0.004011 0.000000 0.000000 0.000000
# 3 -0.003137 -0.004011 0.008494 0.000000 0.000000 0.000000
# 4 0.000000 0.000000 0.000000 0.038743 0.000000 0.000000
# 5 0.000000 0.000000 0.000000 0.000000 0.128485 0.000000
# 6 0.000000 0.000000 0.000000 0.000000 0.000000 0.061136
#
#
# Mechanical properties :
#
#
# Convention : Reuss Voigt Hill
#
# Bulk Modulus (GPa) = 61.92637 70.74045 66.33341
# Shear Modulus (GPa) = 17.79764 26.31833 22.05798
#
# Velocity S-wave (km/s) = 2.97569 3.61856 3.31275
# Velocity P-wave (km/s) = 6.52810 7.25628 6.90180
#
# Compressibility (1/GPa) = 0.01614821
#
# Stress axis : x y z
#
# Youngs Moduli (GPa) = 80.33036 93.22579 117.73305
#
# Poissons Ratio (x) = 0.05714 0.36930
# Poissons Ratio (y) = 0.04923 0.47220
# Poissons Ratio (z) = 0.25197 0.37391
#
# Static dielectric constant tensor:
#      x y z
#    x 3.428270 0.000000 0.000000 
#    y 0.000000 3.737620 0.000000 
#    z 0.000000 0.000000 3.758850 
# 
# 
# High freq. dielectric constant tensor:
#      x y z
#    x 1.759420 0.000000 0.000000 
#    y 0.000000 1.791680 0.000000 
#    z 0.000000 0.000000 1.789450 
# 
# From -- ./inp_files/15214.got.cif
#   From: 2010.03.12/outbox.cif.g09.slc.cpg/sg35_8_cif.got.tgz:15214.got - 2010.04.14 02:02:04.
