data_PCOD8172126
_publ_section_title
;
Structure prediction by ZEFSAII (Michael W. Deem and Ramdas Pophale) SiO2 
 PCOD8172126
Probable space group: P N N 2
;
_chemical_formula_sum "Si O2"
_cell_formula_units_Z 14
_cell_length_a 5.302204
_cell_length_b 5.425548
_cell_length_c 18.680487
_cell_angle_alpha 90.000000
_cell_angle_beta 90.000000
_cell_angle_gamma 90.000000
_cell_volume 537.388338
_symmetry_space_group_name_H-M "P N N 2"
_symmetry_group_IT_number 34
_symmetry_cell_setting 'orthorhombic'
loop_
_space_group_symop_operation_xyz
x,y,z
-x,-y,z
1/2-x,1/2+y,1/2+z
1/2+x,1/2-y,1/2+z
loop_
_atom_site_type_symbol
_atom_site_label
_atom_site_fract_x
_atom_site_fract_y
_atom_site_fract_z
Si Si1 0.152258 0.244011 0.279360
Si Si2 0.752662 0.362665 0.471114
Si Si3 0.500000 0.000000 0.380116
Si Si4 0.749308 0.156891 0.620880
O O1 0.397936 0.226264 0.330297
O O2 0.236769 0.210122 0.197209
O O3 0.000000 0.500000 0.290911
O O4 0.000000 0.000000 0.300402
O O5 0.500000 0.500000 0.448411
O O6 0.726804 0.098146 0.431699
O O7 0.770820 0.352454 0.557066
O O8 0.000000 0.500000 0.440575
O O9 0.500000 0.000000 0.606528
O O10 0.000000 0.000000 0.618682
#
# Coordination Sequence:
#
# PCOD8172126 Si02
#       4
#     4   4   2   4
#     4  11  30  52  85 120 169 219 283 347 430 506
#     4  12  29  50  84 118 165 220 282 345 429 504
#     4  12  32  50  78 126 176 224 276 364 418 524
#     4  11  25  51  83 119 159 215 283 350 417 508
#
# _framework density 26.051926000000002
#
# number of rings (size 3 to 8) (size 9 to 14) (size 15 to 20)
#    0.000    0.571    1.429    2.571   18.000    0.000 
#    0.000    0.000    0.000    0.000    0.000    0.000 
#    0.000    0.000    0.000    0.000    0.000    0.000 
#
# Total GULP energy -173598.061455 kJ/mol
# GULP energy per Si atom -12399.861532 kJ/mol
# Density = 2.599263 g / cm^3
# Si number density = 26.051926 Si / 1000 Ang^3
#
#
#
# Elastic Constant Matrix: (Units=GPa)
#
#
# Indices 1 2 3 4 5 6 
#
# 1 174.3108 61.4927 40.6901 0.0000 0.0000 0.0000
# 2 61.4927 128.3914 50.6566 0.0000 0.0000 0.0000
# 3 40.6901 50.6566 179.0285 0.0000 0.0000 0.0000
# 4 0.0000 0.0000 0.0000 32.4404 0.0000 0.0000
# 5 0.0000 0.0000 0.0000 0.0000 30.3863 0.0000
# 6 0.0000 0.0000 0.0000 0.0000 0.0000 48.3906
#
#
#
# Elastic Compliance Matrix: (Units=1/GPa)
#
#
# Indices 1 2 3 4 5 6 
#
# 1 0.006985 -0.003061 -0.000722 0.000000 0.000000 0.000000
# 2 -0.003061 0.010109 -0.002165 0.000000 0.000000 0.000000
# 3 -0.000722 -0.002165 0.006362 0.000000 0.000000 0.000000
# 4 0.000000 0.000000 0.000000 0.030826 0.000000 0.000000
# 5 0.000000 0.000000 0.000000 0.000000 0.032910 0.000000
# 6 0.000000 0.000000 0.000000 0.000000 0.000000 0.020665
#
#
# Mechanical properties :
#
#
# Convention : Reuss Voigt Hill
#
# Bulk Modulus (GPa) = 86.48978 87.48994 86.98986
# Shear Modulus (GPa) = 40.45162 44.16954 42.31058
#
# Velocity S-wave (km/s) = 3.94475 4.12204 4.03437
# Velocity P-wave (km/s) = 7.34977 7.50405 7.42731
#
# Compressibility (1/GPa) = 0.01156206
#
# Stress axis : x y z
#
# Youngs Moduli (GPa) = 143.16208 98.92470 157.17893
#
# Poissons Ratio (x) = 0.30279 0.11341
# Poissons Ratio (y) = 0.43819 0.34023
# Poissons Ratio (z) = 0.10329 0.21413
#
# Static dielectric constant tensor:
#      x y z
#    x 5.034790 0.000000 0.000000 
#    y 0.000000 4.561600 0.000000 
#    z 0.000000 0.000000 5.689090 
# 
# 
# High freq. dielectric constant tensor:
#      x y z
#    x 2.053730 0.000000 0.000000 
#    y 0.000000 2.027930 0.000000 
#    z 0.000000 0.000000 2.075430 
# 
# From -- ./inp_files/7012.got.cif
#   From: 2010.03.12/outbox.cif.g09.slc.cpg/sg34_4_cif.got.tgz:7012.got - 2010.04.14 01:56:33.
