data_PCOD8172739
_publ_section_title
;
Structure prediction by ZEFSAII (Michael W. Deem and Ramdas Pophale) SiO2 
 PCOD8172739
Probable space group: C M M 2
;
_chemical_formula_sum "Si O2"
_cell_formula_units_Z 56
_cell_length_a 18.311252
_cell_length_b 8.949399
_cell_length_c 18.089450
_cell_angle_alpha 90.000000
_cell_angle_beta 90.000000
_cell_angle_gamma 90.000000
_cell_volume 2964.403198
_symmetry_space_group_name_H-M "C M M 2"
_symmetry_group_IT_number 35
_symmetry_cell_setting 'orthorhombic'
loop_
_space_group_symop_operation_xyz
x,y,z
-x,-y,z
-x,y,z
x,-y,z
1/2+x,1/2+y,z
1/2-x,1/2-y,z
1/2-x,1/2+y,z
1/2+x,1/2-y,z
loop_
_atom_site_type_symbol
_atom_site_label
_atom_site_fract_x
_atom_site_fract_y
_atom_site_fract_z
Si Si1 0.328076 0.825817 0.872420
Si Si2 0.328446 0.823776 0.454685
Si Si3 0.171954 0.326124 0.035499
Si Si4 0.914963 0.827407 0.583510
Si Si5 0.328685 0.675460 0.730349
Si Si6 0.413631 0.669198 0.162387
Si Si7 0.583900 0.824959 0.310811
O O1 0.250000 0.750000 0.875519
O O2 0.368666 0.744383 0.803808
O O3 0.320922 0.000000 0.854355
O O4 0.363276 0.799969 0.953544
O O5 0.250000 0.750000 0.460997
O O6 0.378458 0.775767 0.522472
O O7 0.367512 0.771354 0.379455
O O8 0.318640 0.000000 0.457002
O O9 0.183350 0.500000 0.050877
O O10 0.250000 0.250000 0.044614
O O11 0.115622 0.260588 0.093368
O O12 0.880794 0.786629 0.662320
O O13 0.000000 0.789462 0.586934
O O14 0.900788 0.000000 0.563325
O O15 0.317868 0.500000 0.741143
O O16 0.250000 0.750000 0.716371
O O17 0.500000 0.678728 0.159101
O O18 0.385082 0.500000 0.158223
O O19 0.385516 0.740190 0.238914
O O20 0.500000 0.781380 0.327513
O O21 0.591529 0.000000 0.296027
#
# Coordination Sequence:
#
# PCOD8172739 Si02
#       7
#     8   8   8   8   8   8   8
#     4   9  17  30  50  76 104 136 175 218 266 317
#     4  11  23  38  58  84 111 141 178 219 265 315
#     4  10  20  34  54  79 108 142 180 224 271 318
#     4  10  22  39  57  79 109 144 180 219 266 318
#     4  10  19  32  53  78 105 138 176 219 266 316
#     4  10  21  36  55  80 109 143 182 220 263 318
#     4   9  19  37  58  78 104 140 180 221 267 318
#
# _framework density 18.890817999999999
#
# number of rings (size 3 to 8) (size 9 to 14) (size 15 to 20)
#    0.000    2.143    0.000    3.857    0.000    7.429 
#    0.000    3.571    0.000    2.571    0.000    0.000 
#    0.000    0.000    0.000    0.000    0.000    0.000 
#
# Total GULP energy -347162.383148 kJ/mol
# GULP energy per Si atom -12398.656541 kJ/mol
# Density = 1.884782 g / cm^3
# Si number density = 18.890818 Si / 1000 Ang^3
#
#
#
# Elastic Constant Matrix: (Units=GPa)
#
#
# Indices 1 2 3 4 5 6 
#
# 1 70.2650 37.2963 58.6108 0.0000 0.0000 0.0000
# 2 37.2963 107.7845 78.9965 0.0000 0.0000 0.0000
# 3 58.6108 78.9965 176.4819 0.0000 0.0000 0.0000
# 4 0.0000 0.0000 0.0000 57.2410 0.0000 0.0000
# 5 0.0000 0.0000 0.0000 0.0000 -108.6765 0.0000
# 6 0.0000 0.0000 0.0000 0.0000 0.0000 18.2245
#
#
#
# Elastic Compliance Matrix: (Units=1/GPa)
#
#
# Indices 1 2 3 4 5 6 
#
# 1 0.020362 -0.003110 -0.005370 0.000000 0.000000 0.000000
# 2 -0.003110 0.014282 -0.005360 0.000000 0.000000 0.000000
# 3 -0.005370 -0.005360 0.009849 0.000000 0.000000 0.000000
# 4 0.000000 0.000000 0.000000 0.017470 0.000000 0.000000
# 5 0.000000 0.000000 0.000000 0.000000 -0.009202 0.000000
# 6 0.000000 0.000000 0.000000 0.000000 0.000000 0.054871
#
#
# Mechanical properties :
#
#
# Convention : Reuss Voigt Hill
#
# Bulk Modulus (GPa) = 59.47843 78.25985 68.86914
# Shear Modulus (GPa) = 35.48142 5.33299 20.40721
#
# Velocity S-wave (km/s) = 4.33856 1.68202 3.29031
# Velocity P-wave (km/s) = 7.52670 6.72976 7.13936
#
# Compressibility (1/GPa) = 0.01681282
#
# Stress axis : x y z
#
# Youngs Moduli (GPa) = 49.11063 70.01579 101.53095
#
# Poissons Ratio (x) = 0.21774 0.54526
# Poissons Ratio (y) = 0.15273 0.54424
# Poissons Ratio (z) = 0.26374 0.37531
#
# Static dielectric constant tensor:
#      x y z
#    x 3.635690 0.000000 0.000000 
#    y 0.000000 3.593330 0.000000 
#    z 0.000000 0.000000 4.009030 
# 
# 
# High freq. dielectric constant tensor:
#      x y z
#    x 1.707740 0.000000 0.000000 
#    y 0.000000 1.745810 0.000000 
#    z 0.000000 0.000000 1.756340 
# 
# From -- ./inp_files/17415.got.cif
#   From: 2010.03.12/outbox.cif.g09.slc.cpg/sg35_9_cif.got.tgz:17415.got - 2010.04.14 02:02:04.
