data_PCOD8172537
_publ_section_title
;
Structure prediction by ZEFSAII (Michael W. Deem and Ramdas Pophale) SiO2 
 PCOD8172537
Probable space group: C M M 2
;
_chemical_formula_sum "Si O2"
_cell_formula_units_Z 64
_cell_length_a 28.387806
_cell_length_b 9.038253
_cell_length_c 15.545305
_cell_angle_alpha 90.000000
_cell_angle_beta 90.000000
_cell_angle_gamma 90.000000
_cell_volume 3988.554861
_symmetry_space_group_name_H-M "C M M 2"
_symmetry_group_IT_number 35
_symmetry_cell_setting 'orthorhombic'
loop_
_space_group_symop_operation_xyz
x,y,z
-x,-y,z
-x,y,z
x,-y,z
1/2+x,1/2+y,z
1/2-x,1/2-y,z
1/2-x,1/2+y,z
1/2+x,1/2-y,z
loop_
_atom_site_type_symbol
_atom_site_label
_atom_site_fract_x
_atom_site_fract_y
_atom_site_fract_z
Si Si1 0.139695 0.673592 0.658170
Si Si2 0.946769 0.173283 0.724276
Si Si3 0.200041 0.827491 0.328060
Si Si4 0.199999 0.171488 0.137634
Si Si5 0.799946 0.673774 0.820397
Si Si6 0.447246 0.830580 0.901338
Si Si7 0.145318 0.671075 0.992300
Si Si8 0.800868 0.324516 0.492292
O O1 0.131183 0.500000 0.663157
O O2 0.088820 0.751687 0.657102
O O3 0.169336 0.730454 0.740053
O O4 0.166804 0.719942 0.572202
O O5 0.936134 0.229191 0.820130
O O6 0.000000 0.215289 0.696982
O O7 0.938521 0.000000 0.722991
O O8 0.250000 0.750000 0.323285
O O9 0.177715 0.804889 0.233293
O O10 0.173503 0.743215 0.406458
O O11 0.205050 0.000000 0.350796
O O12 0.250000 0.250000 0.124224
O O13 0.209114 0.000000 0.119275
O O14 0.161326 0.232238 0.072532
O O15 0.792043 0.500000 0.813844
O O16 0.750000 0.750000 0.817329
O O17 0.825929 0.718990 0.907936
O O18 0.500000 0.802437 0.937178
O O19 0.410034 0.795383 0.976716
O O20 0.440601 0.000000 0.870488
O O21 0.154106 0.500000 0.014149
O O22 0.794986 0.500000 0.483507
O O23 0.750000 0.250000 0.505727
#
# Coordination Sequence:
#
# PCOD8172537 Si02
#       8
#     8   8   8   8   8   8   8   8
#     4  10  20  34  48  66  93 126 161 192 228 277
#     4  10  20  32  48  71  94 118 154 198 239 276
#     4   9  17  30  47  66  91 121 155 194 236 278
#     4  10  20  32  47  68  94 126 159 194 234 276
#     4  10  20  32  43  61  91 126 160 187 220 266
#     4   9  17  32  52  69  90 122 156 192 236 280
#     4  10  19  31  47  68  93 123 158 194 230 275
#     4  10  19  30  48  71  96 125 158 194 232 275
#
# _framework density 16.045912000000001
#
# number of rings (size 3 to 8) (size 9 to 14) (size 15 to 20)
#    0.000    2.250    1.250    3.000    0.000    5.750 
#    0.000    0.000    0.000    0.000    0.000    0.875 
#    0.000    3.000    0.000    0.000    0.000    0.000 
#
# Total GULP energy -396707.859710 kJ/mol
# GULP energy per Si atom -12397.120616 kJ/mol
# Density = 1.600939 g / cm^3
# Si number density = 16.045912 Si / 1000 Ang^3
#
#
#
# Elastic Constant Matrix: (Units=GPa)
#
#
# Indices 1 2 3 4 5 6 
#
# 1 102.5978 45.6742 60.0202 0.0000 0.0000 0.0000
# 2 45.6742 72.9104 56.0941 0.0000 0.0000 0.0000
# 3 60.0202 56.0941 129.6621 0.0000 0.0000 0.0000
# 4 0.0000 0.0000 0.0000 27.1256 0.0000 0.0000
# 5 0.0000 0.0000 0.0000 0.0000 11.4323 0.0000
# 6 0.0000 0.0000 0.0000 0.0000 0.0000 25.0086
#
#
#
# Elastic Compliance Matrix: (Units=1/GPa)
#
#
# Indices 1 2 3 4 5 6 
#
# 1 0.014963 -0.006063 -0.004304 0.000000 0.000000 0.000000
# 2 -0.006063 0.023014 -0.007150 0.000000 0.000000 0.000000
# 3 -0.004304 -0.007150 0.012798 0.000000 0.000000 0.000000
# 4 0.000000 0.000000 0.000000 0.036866 0.000000 0.000000
# 5 0.000000 0.000000 0.000000 0.000000 0.087471 0.000000
# 6 0.000000 0.000000 0.000000 0.000000 0.000000 0.039986
#
#
# Mechanical properties :
#
#
# Convention : Reuss Voigt Hill
#
# Bulk Modulus (GPa) = 63.52139 69.86080 66.69110
# Shear Modulus (GPa) = 19.57875 22.27208 20.92541
#
# Velocity S-wave (km/s) = 3.49688 3.72966 3.61515
# Velocity P-wave (km/s) = 7.48181 7.88541 7.68626
#
# Compressibility (1/GPa) = 0.01574273
#
# Stress axis : x y z
#
# Youngs Moduli (GPa) = 66.82954 43.45130 78.13866
#
# Poissons Ratio (x) = 0.26343 0.33629
# Poissons Ratio (y) = 0.40516 0.55869
# Poissons Ratio (z) = 0.28762 0.31068
#
# Static dielectric constant tensor:
#      x y z
#    x 2.993790 0.000000 0.000000 
#    y 0.000000 3.099650 0.000000 
#    z 0.000000 0.000000 3.411170 
# 
# 
# High freq. dielectric constant tensor:
#      x y z
#    x 1.595520 0.000000 0.000000 
#    y 0.000000 1.625580 0.000000 
#    z 0.000000 0.000000 1.609440 
# 
# From -- ./inp_files/16239.got.cif
#   From: 2010.03.12/outbox.cif.g09.slc.cpg/sg35_9_cif.got.tgz:16239.got - 2010.04.14 02:02:04.
