data_PCOD8172562
_publ_section_title
;
Structure prediction by ZEFSAII (Michael W. Deem and Ramdas Pophale) SiO2 
 PCOD8172562
Probable space group: C M M 2
;
_chemical_formula_sum "Si O2"
_cell_formula_units_Z 64
_cell_length_a 30.889673
_cell_length_b 21.038901
_cell_length_c 5.231136
_cell_angle_alpha 90.000000
_cell_angle_beta 90.000000
_cell_angle_gamma 90.000000
_cell_volume 3399.635628
_symmetry_space_group_name_H-M "C M M 2"
_symmetry_group_IT_number 35
_symmetry_cell_setting 'orthorhombic'
loop_
_space_group_symop_operation_xyz
x,y,z
-x,-y,z
-x,y,z
x,-y,z
1/2+x,1/2+y,z
1/2-x,1/2-y,z
1/2-x,1/2+y,z
1/2+x,1/2-y,z
loop_
_atom_site_type_symbol
_atom_site_label
_atom_site_fract_x
_atom_site_fract_y
_atom_site_fract_z
Si Si1 0.865000 0.223981 0.881620
Si Si2 0.408304 0.073017 0.933738
Si Si3 0.815213 0.200449 0.386786
Si Si4 0.050688 0.929366 0.393582
Si Si5 0.048647 0.575873 0.433215
Si Si6 0.551192 0.350089 0.895741
Si Si7 0.223221 0.339583 0.372701
Si Si8 0.175335 0.637629 0.868304
O O1 0.845385 0.189198 0.632484
O O2 0.917070 0.211762 0.889205
O O3 0.854415 0.298853 0.869858
O O4 0.843126 0.192578 0.130623
O O5 0.431374 0.105609 0.690451
O O6 0.356956 0.079185 0.910551
O O7 0.421950 0.000000 0.941419
O O8 0.425091 0.105319 0.194774
O O9 0.792189 0.267941 0.402497
O O10 0.775072 0.151109 0.390670
O O11 0.063231 0.892499 0.650979
O O12 0.000000 0.938673 0.382717
O O13 0.072281 0.000000 0.392609
O O14 0.064961 0.889975 0.144913
O O15 0.052017 0.500000 0.439212
O O16 0.000000 0.599809 0.407213
O O17 0.500000 0.329950 0.898473
O O18 0.200364 0.376581 0.605289
O O19 0.209691 0.364827 0.095965
#
# Coordination Sequence:
#
# PCOD8172562 Si02
#       8
#     8   8   8   8   8   8   8   8
#     4  10  19  31  48  71 100 130 159 194 236 282
#     4  10  19  31  48  70  94 123 164 207 247 288
#     4   9  17  30  49  72  95 119 155 195 237 284
#     4   9  17  30  49  71  92 119 160 203 232 257
#     4   9  17  30  47  65  87 117 157 207 251 281
#     4  10  19  31  47  70 102 133 159 190 232 281
#     4   9  17  30  49  72  94 117 147 196 250 289
#     4  10  19  31  48  71 100 125 154 200 248 292
#
# _framework density 18.825545999999999
#
# number of rings (size 3 to 8) (size 9 to 14) (size 15 to 20)
#    0.000    2.500    0.000    3.000    0.000    6.000 
#    0.000    1.250    0.000    1.500    0.000   17.500 
#    0.000    0.000    0.000    0.000    0.000    0.000 
#
# Total GULP energy -396624.408129 kJ/mol
# GULP energy per Si atom -12394.512754 kJ/mol
# Density = 1.878270 g / cm^3
# Si number density = 18.825546 Si / 1000 Ang^3
#
#
#
# Elastic Constant Matrix: (Units=GPa)
#
#
# Indices 1 2 3 4 5 6 
#
# 1 92.8867 10.2340 24.7168 0.0000 0.0000 0.0000
# 2 10.2340 9.2445 21.3160 0.0000 0.0000 0.0000
# 3 24.7168 21.3160 127.9021 0.0000 0.0000 0.0000
# 4 0.0000 0.0000 0.0000 19.9570 0.0000 0.0000
# 5 0.0000 0.0000 0.0000 0.0000 15.4110 0.0000
# 6 0.0000 0.0000 0.0000 0.0000 0.0000 19.6733
#
#
#
# Elastic Compliance Matrix: (Units=1/GPa)
#
#
# Indices 1 2 3 4 5 6 
#
# 1 0.012264 -0.013174 -0.000174 0.000000 0.000000 0.000000
# 2 -0.013174 0.189837 -0.029092 0.000000 0.000000 0.000000
# 3 -0.000174 -0.029092 0.012701 0.000000 0.000000 0.000000
# 4 0.000000 0.000000 0.000000 0.050108 0.000000 0.000000
# 5 0.000000 0.000000 0.000000 0.000000 0.064889 0.000000
# 6 0.000000 0.000000 0.000000 0.000000 0.000000 0.050830
#
#
# Mechanical properties :
#
#
# Convention : Reuss Voigt Hill
#
# Bulk Modulus (GPa) = 7.69705 38.06301 22.88003
# Shear Modulus (GPa) = 9.82672 22.59270 16.20971
#
# Velocity S-wave (km/s) = 2.28719 3.46802 2.93755
# Velocity P-wave (km/s) = 3.32753 6.02486 4.86679
#
# Compressibility (1/GPa) = 0.12991997
#
# Stress axis : x y z
#
# Youngs Moduli (GPa) = 81.54145 5.26766 78.73615
#
# Poissons Ratio (x) = 0.06940 0.01372
# Poissons Ratio (y) = 1.07426 2.29061
# Poissons Ratio (z) = 0.01421 0.15325
#
# Static dielectric constant tensor:
#      x y z
#    x 3.451050 0.000000 0.000000 
#    y 0.000000 3.012980 0.000000 
#    z 0.000000 0.000000 3.881570 
# 
# 
# High freq. dielectric constant tensor:
#      x y z
#    x 1.726160 0.000000 0.000000 
#    y 0.000000 1.669140 0.000000 
#    z 0.000000 0.000000 1.759000 
# 
# From -- ./inp_files/3494.got.cif
#   From: 2010.03.12/outbox.cif.g09.slc.cpg/sg35_2_cif.got.tgz:3494.got - 2010.04.14 02:02:04.
