data_PCOD8172068
_publ_section_title
;
Structure prediction by ZEFSAII (Michael W. Deem and Ramdas Pophale) SiO2 
 PCOD8172068
Probable space group: P N N 2
;
_chemical_formula_sum "Si O2"
_cell_formula_units_Z 20
_cell_length_a 4.899215
_cell_length_b 9.045267
_cell_length_c 19.443619
_cell_angle_alpha 90.000000
_cell_angle_beta 90.000000
_cell_angle_gamma 90.000000
_cell_volume 861.638294
_symmetry_space_group_name_H-M "P N N 2"
_symmetry_group_IT_number 34
_symmetry_cell_setting 'orthorhombic'
loop_
_space_group_symop_operation_xyz
x,y,z
-x,-y,z
1/2-x,1/2+y,1/2+z
1/2+x,1/2-y,1/2+z
loop_
_atom_site_type_symbol
_atom_site_label
_atom_site_fract_x
_atom_site_fract_y
_atom_site_fract_z
Si Si1 0.500000 0.000000 0.080521
Si Si2 0.381551 0.835792 0.404665
Si Si3 0.500000 0.500000 0.086475
Si Si4 0.358388 0.735863 0.989766
Si Si5 0.358388 0.235863 0.177230
Si Si6 0.381551 0.335792 0.762331
O O1 0.287196 0.097658 0.126554
O O2 0.661668 0.112433 0.031495
O O3 0.647053 0.742676 0.427082
O O4 0.250000 0.780123 0.333498
O O5 0.158373 0.810205 0.463370
O O6 0.500000 0.000000 0.395915
O O7 0.338332 0.387567 0.135501
O O8 0.287196 0.597658 0.040441
O O9 0.658373 0.189795 0.203626
O O10 0.147053 0.257324 0.239914
O O11 0.500000 0.500000 0.771081
#
# Coordination Sequence:
#
# PCOD8172068 Si02
#       6
#     2   4   2   4   4   4
#     4  10  24  44  68 102 142 174 220 274 344 402
#     4  12  23  42  68  98 131 176 230 276 325 395
#     4  10  24  44  68 102 142 174 220 274 344 402
#     4  11  24  42  69 102 133 177 219 278 333 401
#     4  11  24  42  69 102 133 177 219 278 333 401
#     4  12  23  42  68  98 131 176 230 276 325 395
#
# _framework density 23.211594999999999
#
# number of rings (size 3 to 8) (size 9 to 14) (size 15 to 20)
#    0.000    0.800    4.000    3.600    0.000   11.200 
#    0.000    4.000    0.000    2.400    0.000    0.000 
#    0.000    0.000    0.000    0.000    0.000    0.000 
#
# Total GULP energy -247813.608013 kJ/mol
# GULP energy per Si atom -12390.680401 kJ/mol
# Density = 2.315876 g / cm^3
# Si number density = 23.211595 Si / 1000 Ang^3
#
#
#
# Elastic Constant Matrix: (Units=GPa)
#
#
# Indices 1 2 3 4 5 6 
#
# 1 116.7200 31.2667 39.7004 0.0000 0.0000 0.0000
# 2 31.2667 135.0183 62.9067 0.0000 0.0000 0.0000
# 3 39.7004 62.9067 120.5868 0.0000 0.0000 0.0000
# 4 0.0000 0.0000 0.0000 -3.8975 0.0000 0.0000
# 5 0.0000 0.0000 0.0000 0.0000 30.5933 0.0000
# 6 0.0000 0.0000 0.0000 0.0000 0.0000 20.3366
#
#
#
# Elastic Compliance Matrix: (Units=1/GPa)
#
#
# Indices 1 2 3 4 5 6 
#
# 1 0.009750 -0.001007 -0.002685 0.000000 0.000000 0.000000
# 2 -0.001007 0.009889 -0.004827 0.000000 0.000000 0.000000
# 3 -0.002685 -0.004827 0.011695 0.000000 0.000000 0.000000
# 4 0.000000 0.000000 0.000000 -0.256573 0.000000 0.000000
# 5 0.000000 0.000000 0.000000 0.000000 0.032687 0.000000
# 6 0.000000 0.000000 0.000000 0.000000 0.000000 0.049172
#
#
# Mechanical properties :
#
#
# Convention : Reuss Voigt Hill
#
# Bulk Modulus (GPa) = 69.94910 71.11918 70.53414
# Shear Modulus (GPa) = -41.12625 25.30322 -7.91152
#
# Velocity S-wave (km/s) = -4.21384 3.30526 -1.84820
# Velocity P-wave (km/s) = 2.55452 6.72848 5.08910
#
# Compressibility (1/GPa) = 0.01429611
#
# Stress axis : x y z
#
# Youngs Moduli (GPa) = 102.55930 101.12656 85.50811
#
# Poissons Ratio (x) = 0.10184 0.22957
# Poissons Ratio (y) = 0.10329 0.41275
# Poissons Ratio (z) = 0.27534 0.48814
#
# Static dielectric constant tensor:
#      x y z
#    x 4.164360 0.000000 0.000000 
#    y 0.000000 4.033700 0.000000 
#    z 0.000000 0.000000 4.501350 
# 
# 
# High freq. dielectric constant tensor:
#      x y z
#    x 1.908710 0.000000 0.000000 
#    y 0.000000 1.894040 0.000000 
#    z 0.000000 0.000000 1.935540 
# 
# From -- ./inp_files/7120.got.cif
#   From: 2010.03.12/outbox.cif.g09.slc.cpg/sg34_4_cif.got.tgz:7120.got - 2010.04.14 01:56:33.
