data_PCOD8172811
_publ_section_title
;
Structure prediction by ZEFSAII (Michael W. Deem and Ramdas Pophale) SiO2 
 PCOD8172811
Probable space group: C M M 2
;
_chemical_formula_sum "Si O2"
_cell_formula_units_Z 64
_cell_length_a 15.266418
_cell_length_b 17.124524
_cell_length_c 14.056151
_cell_angle_alpha 90.000000
_cell_angle_beta 90.000000
_cell_angle_gamma 90.000000
_cell_volume 3674.701544
_symmetry_space_group_name_H-M "C M M 2"
_symmetry_group_IT_number 35
_symmetry_cell_setting 'orthorhombic'
loop_
_space_group_symop_operation_xyz
x,y,z
-x,-y,z
-x,y,z
x,-y,z
1/2+x,1/2+y,z
1/2-x,1/2-y,z
1/2-x,1/2+y,z
1/2+x,1/2-y,z
loop_
_atom_site_type_symbol
_atom_site_label
_atom_site_fract_x
_atom_site_fract_y
_atom_site_fract_z
Si Si1 0.165479 0.295316 0.604560
Si Si2 0.660135 0.796722 0.908458
Si Si3 0.839761 0.294445 0.118986
Si Si4 0.904633 0.816372 0.760865
Si Si5 0.099015 0.330687 0.404426
Si Si6 0.772088 0.408901 0.267853
Si Si7 0.096997 0.187090 0.274649
Si Si8 0.731619 0.091986 0.762530
O O1 0.250000 0.250000 0.564184
O O2 0.110560 0.234050 0.666210
O O3 0.108618 0.327365 0.517707
O O4 0.192866 0.369264 0.667891
O O5 0.750000 0.750000 0.911087
O O6 0.593284 0.742728 0.850379
O O7 0.676984 0.878569 0.854294
O O8 0.622104 0.813760 0.014206
O O9 0.750000 0.250000 0.105080
O O10 0.822437 0.373945 0.176740
O O11 0.904144 0.238058 0.177683
O O12 0.833417 0.884383 0.773106
O O13 0.000000 0.856417 0.754348
O O14 0.170588 0.390149 0.361468
O O15 0.116011 0.244582 0.362502
O O16 0.000000 0.358825 0.380151
O O17 0.764560 0.500000 0.252703
O O18 0.672870 0.377286 0.276645
O O19 0.000000 0.148325 0.283746
O O20 0.722398 0.000000 0.754636
#
# Coordination Sequence:
#
# PCOD8172811 Si02
#       8
#     8   8   8   8   8   8   8   8
#     4   9  17  31  50  69  91 122 160 199 236 279
#     4   8  15  29  48  66  88 123 161 193 225 266
#     4   8  15  30  49  67  89 121 161 198 230 268
#     4   9  17  29  47  71  94 118 155 199 238 280
#     4  10  19  33  54  73  91 122 164 206 241 277
#     4  10  20  32  47  72 104 130 155 192 240 296
#     4   9  18  32  51  74  96 123 162 201 237 283
#     4   9  18  30  45  69  98 126 155 188 234 292
#
# _framework density 17.41638
#
# number of rings (size 3 to 8) (size 9 to 14) (size 15 to 20)
#    0.000    3.000    0.000    3.750    0.000    2.250 
#    0.000    0.000    0.000    9.000    0.000   15.750 
#    0.000    0.000    0.000    0.000    0.000    0.000 
#
# Total GULP energy -396629.680934 kJ/mol
# GULP energy per Si atom -12394.677529 kJ/mol
# Density = 1.737674 g / cm^3
# Si number density = 17.416380 Si / 1000 Ang^3
#
#
#
# Elastic Constant Matrix: (Units=GPa)
#
#
# Indices 1 2 3 4 5 6 
#
# 1 64.6513 17.0539 18.0199 0.0000 0.0000 0.0000
# 2 17.0539 97.0654 25.5754 0.0000 0.0000 0.0000
# 3 18.0199 25.5754 112.4623 0.0000 0.0000 0.0000
# 4 0.0000 0.0000 0.0000 11.5120 0.0000 0.0000
# 5 0.0000 0.0000 0.0000 0.0000 11.0963 0.0000
# 6 0.0000 0.0000 0.0000 0.0000 0.0000 13.9733
#
#
#
# Elastic Compliance Matrix: (Units=1/GPa)
#
#
# Indices 1 2 3 4 5 6 
#
# 1 0.016688 -0.002369 -0.002135 0.000000 0.000000 0.000000
# 2 -0.002369 0.011295 -0.002189 0.000000 0.000000 0.000000
# 3 -0.002135 -0.002189 0.009732 0.000000 0.000000 0.000000
# 4 0.000000 0.000000 0.000000 0.086866 0.000000 0.000000
# 5 0.000000 0.000000 0.000000 0.000000 0.090120 0.000000
# 6 0.000000 0.000000 0.000000 0.000000 0.000000 0.071565
#
#
# Mechanical properties :
#
#
# Convention : Reuss Voigt Hill
#
# Bulk Modulus (GPa) = 41.10515 43.94196 42.52355
# Shear Modulus (GPa) = 16.24630 21.55163 18.89897
#
# Velocity S-wave (km/s) = 3.05752 3.52154 3.29770
# Velocity P-wave (km/s) = 6.00976 6.46684 6.24248
#
# Compressibility (1/GPa) = 0.02432785
#
# Stress axis : x y z
#
# Youngs Moduli (GPa) = 59.92445 88.53153 102.75592
#
# Poissons Ratio (x) = 0.20977 0.21939
# Poissons Ratio (y) = 0.14198 0.22494
# Poissons Ratio (z) = 0.12794 0.19380
#
# Static dielectric constant tensor:
#      x y z
#    x 3.149880 0.000000 0.000000 
#    y 0.000000 2.869730 0.000000 
#    z 0.000000 0.000000 3.545710 
# 
# 
# High freq. dielectric constant tensor:
#      x y z
#    x 1.672110 0.000000 0.000000 
#    y 0.000000 1.637390 0.000000 
#    z 0.000000 0.000000 1.678780 
# 
# From -- ./inp_files/16892.got.cif
#   From: 2010.03.12/outbox.cif.g09.slc.cpg/sg35_9_cif.got.tgz:16892.got - 2010.04.14 02:02:04.
