data_PCOD8172914
_publ_section_title
;
Structure prediction by ZEFSAII (Michael W. Deem and Ramdas Pophale) SiO2 
 PCOD8172914
Probable space group: C M M 2
;
_chemical_formula_sum "Si O2"
_cell_formula_units_Z 56
_cell_length_a 21.019192
_cell_length_b 13.546378
_cell_length_c 9.502505
_cell_angle_alpha 90.000000
_cell_angle_beta 90.000000
_cell_angle_gamma 90.000000
_cell_volume 2705.685499
_symmetry_space_group_name_H-M "C M M 2"
_symmetry_group_IT_number 35
_symmetry_cell_setting 'orthorhombic'
loop_
_space_group_symop_operation_xyz
x,y,z
-x,-y,z
-x,y,z
x,-y,z
1/2+x,1/2+y,z
1/2-x,1/2-y,z
1/2-x,1/2+y,z
1/2+x,1/2-y,z
loop_
_atom_site_type_symbol
_atom_site_label
_atom_site_fract_x
_atom_site_fract_y
_atom_site_fract_z
Si Si1 0.572533 0.113661 0.111980
Si Si2 0.930997 0.809825 0.544459
Si Si3 0.323410 0.268895 0.035186
Si Si4 0.823323 0.884412 0.746967
Si Si5 0.399641 0.113060 0.438974
Si Si6 0.741799 0.114661 0.491010
Si Si7 0.146799 0.883383 0.301721
O O1 0.500000 0.146873 0.069340
O O2 0.629382 0.173623 0.033947
O O3 0.578278 0.124688 0.279453
O O4 0.583124 0.000000 0.068530
O O5 0.885216 0.857169 0.658643
O O6 0.935515 0.689410 0.541387
O O7 0.914470 0.845667 0.386602
O O8 0.000000 0.850584 0.584850
O O9 0.250000 0.250000 0.078989
O O10 0.355120 0.344423 0.143621
O O11 0.321897 0.317664 0.883293
O O12 0.761027 0.859479 0.652000
O O13 0.824668 0.000000 0.787157
O O14 0.327565 0.152133 0.452431
O O15 0.409395 0.000000 0.491534
O O16 0.791851 0.162075 0.382680
O O17 0.745485 0.000000 0.465807
O O18 0.147033 0.000000 0.296616
#
# Coordination Sequence:
#
# PCOD8172914 Si02
#       7
#     8   8   8   8   8   8   8
#     4  10  22  42  65  94 134 173 212 266 332 391
#     4  11  23  39  63  92 122 164 215 260 316 383
#     4  12  25  39  65  98 128 172 214 269 320 384
#     4  10  24  43  62  88 128 171 209 259 319 379
#     4  10  19  34  64  96 123 157 204 264 319 377
#     4   8  17  35  60  88 120 157 198 251 317 377
#     4  10  21  37  60  91 124 157 204 262 314 374
#
# _framework density 20.697157000000001
#
# number of rings (size 3 to 8) (size 9 to 14) (size 15 to 20)
#    0.000    1.857    1.429    3.000    2.000    6.000 
#    0.000    0.714    0.000    2.571    0.000    0.000 
#    0.000    0.000    0.000    0.000    0.000    0.000 
#
# Total GULP energy -347014.995209 kJ/mol
# GULP energy per Si atom -12393.392686 kJ/mol
# Density = 2.065005 g / cm^3
# Si number density = 20.697157 Si / 1000 Ang^3
#
#
#
# Elastic Constant Matrix: (Units=GPa)
#
#
# Indices 1 2 3 4 5 6 
#
# 1 116.8717 34.3796 21.1615 0.0000 0.0000 0.0000
# 2 34.3796 101.7417 25.6892 0.0000 0.0000 0.0000
# 3 21.1615 25.6892 59.8970 0.0000 0.0000 0.0000
# 4 0.0000 0.0000 0.0000 27.7205 0.0000 0.0000
# 5 0.0000 0.0000 0.0000 0.0000 16.3418 0.0000
# 6 0.0000 0.0000 0.0000 0.0000 0.0000 26.2209
#
#
#
# Elastic Compliance Matrix: (Units=1/GPa)
#
#
# Indices 1 2 3 4 5 6 
#
# 1 0.009772 -0.002725 -0.002283 0.000000 0.000000 0.000000
# 2 -0.002725 0.011783 -0.004091 0.000000 0.000000 0.000000
# 3 -0.002283 -0.004091 0.019256 0.000000 0.000000 0.000000
# 4 0.000000 0.000000 0.000000 0.036074 0.000000 0.000000
# 5 0.000000 0.000000 0.000000 0.000000 0.061193 0.000000
# 6 0.000000 0.000000 0.000000 0.000000 0.000000 0.038138
#
#
# Mechanical properties :
#
#
# Convention : Reuss Voigt Hill
#
# Bulk Modulus (GPa) = 44.22442 48.99679 46.61061
# Shear Modulus (GPa) = 24.75843 27.20862 25.98352
#
# Velocity S-wave (km/s) = 3.46240 3.62968 3.54703
# Velocity P-wave (km/s) = 6.11539 6.42579 6.27251
#
# Compressibility (1/GPa) = 0.02261194
#
# Stress axis : x y z
#
# Youngs Moduli (GPa) = 102.33793 84.87097 51.93062
#
# Poissons Ratio (x) = 0.23130 0.11858
# Poissons Ratio (y) = 0.27891 0.21243
# Poissons Ratio (z) = 0.23368 0.34717
#
# Static dielectric constant tensor:
#      x y z
#    x 4.423070 0.000000 0.000000 
#    y 0.000000 3.954480 0.000000 
#    z 0.000000 0.000000 3.574300 
# 
# 
# High freq. dielectric constant tensor:
#      x y z
#    x 1.813790 0.000000 0.000000 
#    y 0.000000 1.828060 0.000000 
#    z 0.000000 0.000000 1.782630 
# 
# From -- ./inp_files/7608.got.cif
#   From: 2010.03.12/outbox.cif.g09.slc.cpg/sg35_4_cif.got.tgz:7608.got - 2010.04.14 02:02:04.
