data_PCOD8172506
_publ_section_title
;
Structure prediction by ZEFSAII (Michael W. Deem and Ramdas Pophale) SiO2 
 PCOD8172506
Probable space group: C M M 2
;
_chemical_formula_sum "Si O2"
_cell_formula_units_Z 64
_cell_length_a 9.147836
_cell_length_b 27.137073
_cell_length_c 14.317435
_cell_angle_alpha 90.000000
_cell_angle_beta 90.000000
_cell_angle_gamma 90.000000
_cell_volume 3554.238715
_symmetry_space_group_name_H-M "C M M 2"
_symmetry_group_IT_number 35
_symmetry_cell_setting 'orthorhombic'
loop_
_space_group_symop_operation_xyz
x,y,z
-x,-y,z
-x,y,z
x,-y,z
1/2+x,1/2+y,z
1/2-x,1/2-y,z
1/2-x,1/2+y,z
1/2+x,1/2-y,z
loop_
_atom_site_type_symbol
_atom_site_label
_atom_site_fract_x
_atom_site_fract_y
_atom_site_fract_z
Si Si1 0.832331 0.141277 0.182410
Si Si2 0.838744 0.202405 0.871726
Si Si3 0.330590 0.444328 0.047120
Si Si4 0.827952 0.301854 0.035576
Si Si5 0.160670 0.876258 0.717262
Si Si6 0.668933 0.701133 0.356242
Si Si7 0.673446 0.300741 0.567800
Si Si8 0.669029 0.057838 0.858063
O O1 0.794151 0.087088 0.141439
O O2 0.722251 0.178857 0.134402
O O3 0.802916 0.151903 0.292205
O O4 0.000000 0.154097 0.157494
O O5 0.750000 0.250000 0.837511
O O6 0.862589 0.169760 0.782939
O O7 0.000000 0.217001 0.911917
O O8 0.744497 0.169316 0.947535
O O9 0.500000 0.439930 0.020322
O O10 0.286382 0.500000 0.073221
O O11 0.243111 0.425810 0.956054
O O12 0.750000 0.250000 0.016318
O O13 0.000000 0.300326 0.031101
O O14 0.225784 0.850174 0.623540
O O15 0.265262 0.916349 0.765494
O O16 0.000000 0.900339 0.697918
O O17 0.500000 0.715305 0.354034
O O18 0.750000 0.750000 0.317500
O O19 0.720298 0.688477 0.460727
O O20 0.500000 0.293889 0.579498
O O21 0.750000 0.250000 0.602054
O O22 0.500000 0.072214 0.865547
O O23 0.693164 0.000000 0.842964
#
# Coordination Sequence:
#
# PCOD8172506 Si02
#       8
#     8   8   8   8   8   8   8   8
#     4  10  19  31  48  70  95 124 159 198 239 283
#     4  10  19  30  43  63  92 124 156 189 228 278
#     4   9  18  33  52  72  96 128 163 198 240 290
#     4  11  21  31  43  62  91 125 157 190 230 279
#     4  10  20  32  49  71  95 125 160 197 238 287
#     4   9  18  32  50  71  98 129 160 199 241 283
#     4   9  18  33  51  73 100 129 163 200 240 285
#     4  10  21  35  51  73  99 126 160 202 244 287
#
# _framework density 18.006668000000001
#
# number of rings (size 3 to 8) (size 9 to 14) (size 15 to 20)
#    0.000    2.250    0.000    4.125    0.000    7.250 
#    0.000    0.000    0.000    0.750    0.000    3.500 
#    0.000    2.000    0.000    0.000    0.000    0.000 
#
# Total GULP energy -396419.466144 kJ/mol
# GULP energy per Si atom -12388.108317 kJ/mol
# Density = 1.796568 g / cm^3
# Si number density = 18.006668 Si / 1000 Ang^3
#
#
#
# Elastic Constant Matrix: (Units=GPa)
#
#
# Indices 1 2 3 4 5 6 
#
# 1 92.7528 36.1753 35.6281 0.0000 0.0000 0.0000
# 2 36.1753 78.8439 51.3286 0.0000 0.0000 0.0000
# 3 35.6281 51.3286 102.8809 0.0000 0.0000 0.0000
# 4 0.0000 0.0000 0.0000 43.6615 0.0000 0.0000
# 5 0.0000 0.0000 0.0000 0.0000 18.9847 0.0000
# 6 0.0000 0.0000 0.0000 0.0000 0.0000 22.3535
#
#
#
# Elastic Compliance Matrix: (Units=1/GPa)
#
#
# Indices 1 2 3 4 5 6 
#
# 1 0.013503 -0.004667 -0.002348 0.000000 0.000000 0.000000
# 2 -0.004667 0.020398 -0.008560 0.000000 0.000000 0.000000
# 3 -0.002348 -0.008560 0.014804 0.000000 0.000000 0.000000
# 4 0.000000 0.000000 0.000000 0.022903 0.000000 0.000000
# 5 0.000000 0.000000 0.000000 0.000000 0.052674 0.000000
# 6 0.000000 0.000000 0.000000 0.000000 0.000000 0.044736
#
#
# Mechanical properties :
#
#
# Convention : Reuss Voigt Hill
#
# Bulk Modulus (GPa) = 56.96620 57.86018 57.41319
# Shear Modulus (GPa) = 24.26944 27.08965 25.67955
#
# Velocity S-wave (km/s) = 3.67523 3.88290 3.78049
# Velocity P-wave (km/s) = 7.05086 7.23221 7.14211
#
# Compressibility (1/GPa) = 0.01755427
#
# Stress axis : x y z
#
# Youngs Moduli (GPa) = 74.05497 49.02521 67.54977
#
# Poissons Ratio (x) = 0.22881 0.15859
# Poissons Ratio (y) = 0.34563 0.57825
# Poissons Ratio (z) = 0.17386 0.41967
#
# Static dielectric constant tensor:
#      x y z
#    x 3.536200 0.000000 0.000000 
#    y 0.000000 3.094820 0.000000 
#    z 0.000000 0.000000 3.497130 
# 
# 
# High freq. dielectric constant tensor:
#      x y z
#    x 1.699790 0.000000 0.000000 
#    y 0.000000 1.678990 0.000000 
#    z 0.000000 0.000000 1.688840 
# 
# From -- ./inp_files/16154.got.cif
#   From: 2010.03.12/outbox.cif.g09.slc.cpg/sg35_9_cif.got.tgz:16154.got - 2010.04.14 02:02:04.
