data_PCOD8172047
_publ_section_title
;
Structure prediction by ZEFSAII (Michael W. Deem and Ramdas Pophale) SiO2 
 PCOD8172047
Probable space group: P N N 2
;
_chemical_formula_sum "Si O2"
_cell_formula_units_Z 30
_cell_length_a 18.508549
_cell_length_b 9.662959
_cell_length_c 8.411063
_cell_angle_alpha 90.000000
_cell_angle_beta 90.000000
_cell_angle_gamma 90.000000
_cell_volume 1504.296329
_symmetry_space_group_name_H-M "P N N 2"
_symmetry_group_IT_number 34
_symmetry_cell_setting 'orthorhombic'
loop_
_space_group_symop_operation_xyz
x,y,z
-x,-y,z
1/2-x,1/2+y,1/2+z
1/2+x,1/2-y,1/2+z
loop_
_atom_site_type_symbol
_atom_site_label
_atom_site_fract_x
_atom_site_fract_y
_atom_site_fract_z
Si Si1 0.754836 0.562791 0.697470
Si Si2 0.586201 0.754995 0.355901
Si Si3 0.178749 0.516392 0.999958
Si Si4 0.448321 0.809381 0.541816
Si Si5 0.500000 0.000000 0.819469
Si Si6 0.869941 0.964673 0.984320
Si Si7 0.257269 0.144814 0.784615
Si Si8 0.627890 0.884445 0.034572
O O1 0.680501 0.504230 0.631153
O O2 0.756345 0.726471 0.669239
O O3 0.828214 0.507656 0.618197
O O4 0.755794 0.525317 0.884229
O O5 0.648770 0.833244 0.452180
O O6 0.510131 0.821447 0.408106
O O7 0.588070 0.594120 0.406531
O O8 0.596769 0.777064 0.165925
O O9 0.118681 0.398718 0.981892
O O10 0.208306 0.520838 0.179948
O O11 0.476947 0.869251 0.709933
O O12 0.425832 0.648128 0.553916
O O13 0.564483 0.950086 0.930842
O O14 0.819853 0.902004 0.847731
O O15 0.314028 0.191317 0.921062
#
# Coordination Sequence:
#
# PCOD8172047 Si02
#       8
#     4   4   4   4   2   4   4   4
#     4  10  23  40  63  98 128 168 211 273 328 395
#     4  11  23  42  64  92 131 175 213 276 327 397
#     4  11  21  39  69  89 124 172 217 266 329 389
#     4  12  23  42  65  95 124 179 222 264 332 403
#     4  12  24  42  70  96 130 174 230 284 312 408
#     4  11  25  40  66  95 134 168 215 274 336 392
#     4  11  21  41  62  95 133 163 218 270 333 393
#     4  10  25  39  65  96 127 169 224 270 328 389
#
# _framework density 19.942879000000001
#
# number of rings (size 3 to 8) (size 9 to 14) (size 15 to 20)
#    0.000    1.067    5.333    0.400    5.600    2.133 
#    0.000    0.000    2.933    0.000    0.000    0.000 
#    0.000    0.000    0.000    0.000    0.000    0.000 
#
# Total GULP energy -371969.141325 kJ/mol
# GULP energy per Si atom -12398.971377 kJ/mol
# Density = 1.989749 g / cm^3
# Si number density = 19.942879 Si / 1000 Ang^3
#
#
#
# Elastic Constant Matrix: (Units=GPa)
#
#
# Indices 1 2 3 4 5 6 
#
# 1 77.5072 36.4758 49.7479 0.0000 0.0000 0.0000
# 2 36.4758 118.8848 44.9677 0.0000 0.0000 0.0000
# 3 49.7479 44.9677 122.7341 0.0000 0.0000 0.0000
# 4 0.0000 0.0000 0.0000 27.7603 0.0000 0.0000
# 5 0.0000 0.0000 0.0000 0.0000 22.9062 0.0000
# 6 0.0000 0.0000 0.0000 0.0000 0.0000 27.7424
#
#
#
# Elastic Compliance Matrix: (Units=1/GPa)
#
#
# Indices 1 2 3 4 5 6 
#
# 1 0.018487 -0.003294 -0.006286 0.000000 0.000000 0.000000
# 2 -0.003294 0.010352 -0.002457 0.000000 0.000000 0.000000
# 3 -0.006286 -0.002457 0.011596 0.000000 0.000000 0.000000
# 4 0.000000 0.000000 0.000000 0.036023 0.000000 0.000000
# 5 0.000000 0.000000 0.000000 0.000000 0.043656 0.000000
# 6 0.000000 0.000000 0.000000 0.000000 0.000000 0.036046
#
#
# Mechanical properties :
#
#
# Convention : Reuss Voigt Hill
#
# Bulk Modulus (GPa) = 61.12939 64.61211 62.87075
# Shear Modulus (GPa) = 26.92665 28.21076 27.56871
#
# Velocity S-wave (km/s) = 3.67848 3.76517 3.72208
# Velocity P-wave (km/s) = 6.98286 7.16735 7.07571
#
# Compressibility (1/GPa) = 0.01635874
#
# Stress axis : x y z
#
# Youngs Moduli (GPa) = 54.09092 96.60174 86.23553
#
# Poissons Ratio (x) = 0.31824 0.54212
# Poissons Ratio (y) = 0.17820 0.21191
# Poissons Ratio (z) = 0.34004 0.23739
#
# Static dielectric constant tensor:
#      x y z
#    x 3.651310 0.000000 0.000000 
#    y 0.000000 3.667470 0.000000 
#    z 0.000000 0.000000 3.744560 
# 
# 
# High freq. dielectric constant tensor:
#      x y z
#    x 1.782660 0.000000 0.000000 
#    y 0.000000 1.775980 0.000000 
#    z 0.000000 0.000000 1.778970 
# 
# From -- ./inp_files/3997.got.cif
#   From: 2010.03.12/outbox.cif.g09.slc.cpg/sg34_2_cif.got.tgz:3997.got - 2010.04.14 01:56:33.
