data_PCOD8172328
_publ_section_title
;
Structure prediction by ZEFSAII (Michael W. Deem and Ramdas Pophale) SiO2 
 PCOD8172328
Probable space group: C M M 2
;
_chemical_formula_sum "Si O2"
_cell_formula_units_Z 56
_cell_length_a 28.697139
_cell_length_b 9.256280
_cell_length_c 12.793878
_cell_angle_alpha 90.000000
_cell_angle_beta 90.000000
_cell_angle_gamma 90.000000
_cell_volume 3398.421869
_symmetry_space_group_name_H-M "C M M 2"
_symmetry_group_IT_number 35
_symmetry_cell_setting 'orthorhombic'
loop_
_space_group_symop_operation_xyz
x,y,z
-x,-y,z
-x,y,z
x,-y,z
1/2+x,1/2+y,z
1/2-x,1/2-y,z
1/2-x,1/2+y,z
1/2+x,1/2-y,z
loop_
_atom_site_type_symbol
_atom_site_label
_atom_site_fract_x
_atom_site_fract_y
_atom_site_fract_z
Si Si1 0.053605 0.669763 0.739730
Si Si2 0.894087 0.169811 0.558738
Si Si3 0.393428 0.328583 0.154294
Si Si4 0.446236 0.666820 0.950498
Si Si5 0.947638 0.827952 0.353665
Si Si6 0.205054 0.167146 0.473575
Si Si7 0.795453 0.169082 0.233554
O O1 0.062870 0.500000 0.743666
O O2 0.087599 0.741636 0.656640
O O3 0.066339 0.736245 0.851529
O O4 0.000000 0.705002 0.710701
O O5 0.921075 0.225884 0.456578
O O6 0.839500 0.204644 0.544388
O O7 0.902752 0.000000 0.577214
O O8 0.397440 0.500000 0.159801
O O9 0.422610 0.263210 0.251159
O O10 0.339625 0.280284 0.164683
O O11 0.414748 0.273218 0.045447
O O12 0.500000 0.684104 0.983549
O O13 0.434910 0.500000 0.924322
O O14 0.000000 0.767681 0.357260
O O15 0.946732 0.000000 0.349901
O O16 0.250000 0.250000 0.518193
O O17 0.194474 0.211615 0.353861
O O18 0.217120 0.000000 0.479751
O O19 0.750000 0.250000 0.190094
O O20 0.786617 0.000000 0.221979
#
# Coordination Sequence:
#
# PCOD8172328 Si02
#       7
#     8   8   8   8   8   8   8
#     4  10  21  35  49  67  95 130 164 199 240 285
#     4  10  18  30  49  73  97 124 160 200 237 280
#     4   9  15  26  45  70  98 123 150 191 237 278
#     4   9  17  30  50  73  93 119 160 202 236 277
#     4   9  15  23  40  69 100 124 147 183 234 283
#     4   9  17  29  46  69  98 128 159 194 234 283
#     4   9  16  28  45  67  97 127 156 189 228 278
#
# _framework density 16.478237
#
# number of rings (size 3 to 8) (size 9 to 14) (size 15 to 20)
#    0.000    2.714    1.429    1.286    0.000    3.714 
#    0.000    0.714    0.000    1.714    0.000    4.000 
#    0.000    0.000    0.000    0.000    0.000    0.000 
#
# Total GULP energy -347178.338332 kJ/mol
# GULP energy per Si atom -12399.226369 kJ/mol
# Density = 1.644073 g / cm^3
# Si number density = 16.478237 Si / 1000 Ang^3
#
#
#
# Elastic Constant Matrix: (Units=GPa)
#
#
# Indices 1 2 3 4 5 6 
#
# 1 137.5612 48.3469 80.3344 0.0000 0.0000 0.0000
# 2 48.3469 45.7782 45.1162 0.0000 0.0000 0.0000
# 3 80.3344 45.1162 118.9727 0.0000 0.0000 0.0000
# 4 0.0000 0.0000 0.0000 11.5304 0.0000 0.0000
# 5 0.0000 0.0000 0.0000 0.0000 23.5503 0.0000
# 6 0.0000 0.0000 0.0000 0.0000 0.0000 24.6712
#
#
#
# Elastic Compliance Matrix: (Units=1/GPa)
#
#
# Indices 1 2 3 4 5 6 
#
# 1 0.013858 -0.008644 -0.006079 0.000000 0.000000 0.000000
# 2 -0.008644 0.040272 -0.009435 0.000000 0.000000 0.000000
# 3 -0.006079 -0.009435 0.016088 0.000000 0.000000 0.000000
# 4 0.000000 0.000000 0.000000 0.086727 0.000000 0.000000
# 5 0.000000 0.000000 0.000000 0.000000 0.042462 0.000000
# 6 0.000000 0.000000 0.000000 0.000000 0.000000 0.040533
#
#
# Mechanical properties :
#
#
# Convention : Reuss Voigt Hill
#
# Bulk Modulus (GPa) = 45.65931 72.21190 58.93560
# Shear Modulus (GPa) = 16.91717 20.51800 18.71759
#
# Velocity S-wave (km/s) = 3.20759 3.53251 3.37396
# Velocity P-wave (km/s) = 6.44106 7.78176 7.14294
#
# Compressibility (1/GPa) = 0.02190134
#
# Stress axis : x y z
#
# Youngs Moduli (GPa) = 72.16186 24.83109 62.15746
#
# Poissons Ratio (x) = 0.21464 0.37787
# Poissons Ratio (y) = 0.62376 0.58646
# Poissons Ratio (z) = 0.43869 0.23428
#
# Static dielectric constant tensor:
#      x y z
#    x 3.225400 0.000000 0.000000 
#    y 0.000000 2.802830 0.000000 
#    z 0.000000 0.000000 3.034160 
# 
# 
# High freq. dielectric constant tensor:
#      x y z
#    x 1.638750 0.000000 0.000000 
#    y 0.000000 1.602510 0.000000 
#    z 0.000000 0.000000 1.620610 
# 
# From -- ./inp_files/14137.got.cif
#   From: 2010.03.12/outbox.cif.g09.slc.cpg/sg35_8_cif.got.tgz:14137.got - 2010.04.14 02:02:04.
