data_PCOD8172398
_publ_section_title
;
Structure prediction by ZEFSAII (Michael W. Deem and Ramdas Pophale) SiO2 
 PCOD8172398
Probable space group: C M M 2
;
_chemical_formula_sum "Si O2"
_cell_formula_units_Z 56
_cell_length_a 13.348318
_cell_length_b 23.354443
_cell_length_c 10.131282
_cell_angle_alpha 90.000000
_cell_angle_beta 90.000000
_cell_angle_gamma 90.000000
_cell_volume 3158.351502
_symmetry_space_group_name_H-M "C M M 2"
_symmetry_group_IT_number 35
_symmetry_cell_setting 'orthorhombic'
loop_
_space_group_symop_operation_xyz
x,y,z
-x,-y,z
-x,y,z
x,-y,z
1/2+x,1/2+y,z
1/2-x,1/2-y,z
1/2-x,1/2+y,z
1/2+x,1/2-y,z
loop_
_atom_site_type_symbol
_atom_site_label
_atom_site_fract_x
_atom_site_fract_y
_atom_site_fract_z
Si Si1 0.308314 0.663132 0.396800
Si Si2 0.380376 0.379708 0.127947
Si Si3 0.385239 0.299459 0.900056
Si Si4 0.612565 0.500000 0.732934
Si Si5 0.110365 0.717029 0.443824
Si Si6 0.384977 0.808153 0.740689
Si Si7 0.109942 0.000000 0.040506
Si Si8 0.303487 0.378859 0.686128
O O1 0.344396 0.624080 0.277713
O O2 0.188377 0.671180 0.386629
O O3 0.367812 0.722115 0.379142
O O4 0.333047 0.635897 0.536961
O O5 0.500000 0.379697 0.115495
O O6 0.334723 0.441086 0.082337
O O7 0.337642 0.327856 0.033683
O O8 0.500000 0.287260 0.928514
O O9 0.343309 0.236787 0.852277
O O10 0.378334 0.345376 0.782385
O O11 0.500000 0.500000 0.668155
O O12 0.679807 0.553808 0.692681
O O13 0.597325 0.500000 0.886456
O O14 0.121678 0.724875 0.601317
O O15 0.000000 0.695646 0.403822
O O16 0.500000 0.828301 0.767572
O O17 0.310529 0.862554 0.731440
O O18 0.000000 0.000000 0.107730
#
# Coordination Sequence:
#
# PCOD8172398 Si02
#       8
#     8   8   8   4   8   8   4   8
#     4  10  20  32  50  78 105 134 172 214 265 314
#     4  10  20  33  50  74 107 142 175 214 262 316
#     4  10  18  31  54  79 104 138 173 210 257 314
#     4  11  22  35  54  80 103 134 181 221 258 310
#     4   9  17  32  52  74 105 138 166 208 266 320
#     4   9  18  33  55  79 104 138 176 216 263 311
#     4   9  18  35  51  68 101 142 174 207 263 318
#     4  11  20  34  54  79 106 136 177 221 259 310
#
# _framework density 17.730768000000001
#
# number of rings (size 3 to 8) (size 9 to 14) (size 15 to 20)
#    0.000    2.143    2.857    1.286    0.000    2.286 
#    5.143    1.071    0.000    0.000    0.000    1.500 
#    0.000    0.000    0.000    0.000    0.000    0.000 
#
# Total GULP energy -346937.327875 kJ/mol
# GULP energy per Si atom -12390.618853 kJ/mol
# Density = 1.769041 g / cm^3
# Si number density = 17.730768 Si / 1000 Ang^3
#
#
#
# Elastic Constant Matrix: (Units=GPa)
#
#
# Indices 1 2 3 4 5 6 
#
# 1 57.0920 23.1773 12.4579 0.0000 0.0000 0.0000
# 2 23.1773 93.7423 27.5665 0.0000 0.0000 0.0000
# 3 12.4579 27.5665 85.4786 0.0000 0.0000 0.0000
# 4 0.0000 0.0000 0.0000 -40.4913 0.0000 0.0000
# 5 0.0000 0.0000 0.0000 0.0000 21.1041 0.0000
# 6 0.0000 0.0000 0.0000 0.0000 0.0000 21.7567
#
#
#
# Elastic Compliance Matrix: (Units=1/GPa)
#
#
# Indices 1 2 3 4 5 6 
#
# 1 0.019627 -0.004432 -0.001431 0.000000 0.000000 0.000000
# 2 -0.004432 0.012786 -0.003478 0.000000 0.000000 0.000000
# 3 -0.001431 -0.003478 0.013029 0.000000 0.000000 0.000000
# 4 0.000000 0.000000 0.000000 -0.024697 0.000000 0.000000
# 5 0.000000 0.000000 0.000000 0.000000 0.047384 0.000000
# 6 0.000000 0.000000 0.000000 0.000000 0.000000 0.045963
#
#
# Mechanical properties :
#
#
# Convention : Reuss Voigt Hill
#
# Bulk Modulus (GPa) = 37.36816 40.30179 38.83498
# Shear Modulus (GPa) = 35.28740 12.01464 23.65102
#
# Velocity S-wave (km/s) = 4.46598 2.60593 3.65622
# Velocity P-wave (km/s) = 6.90756 5.64214 6.30667
#
# Compressibility (1/GPa) = 0.02676075
#
# Stress axis : x y z
#
# Youngs Moduli (GPa) = 50.95008 78.21114 76.75238
#
# Poissons Ratio (x) = 0.34662 0.10985
# Poissons Ratio (y) = 0.22580 0.26691
# Poissons Ratio (z) = 0.07292 0.27198
#
# Static dielectric constant tensor:
#      x y z
#    x 3.303730 0.000000 0.000000 
#    y 0.000000 3.799810 0.000000 
#    z 0.000000 0.000000 3.233640 
# 
# 
# High freq. dielectric constant tensor:
#      x y z
#    x 1.672170 0.000000 0.000000 
#    y 0.000000 1.665940 0.000000 
#    z 0.000000 0.000000 1.678030 
# 
# From -- ./inp_files/7698.got.cif
#   From: 2010.03.12/outbox.cif.g09.slc.cpg/sg35_4_cif.got.tgz:7698.got - 2010.04.14 02:02:04.
