data_PCOD8172159
_publ_section_title
;
Structure prediction by ZEFSAII (Michael W. Deem and Ramdas Pophale) SiO2 
 PCOD8172159
Probable space group: C M M 2
;
_chemical_formula_sum "Si O2"
_cell_formula_units_Z 52
_cell_length_a 26.611610
_cell_length_b 12.954345
_cell_length_c 9.942793
_cell_angle_alpha 90.000000
_cell_angle_beta 90.000000
_cell_angle_gamma 90.000000
_cell_volume 3427.638458
_symmetry_space_group_name_H-M "C M M 2"
_symmetry_group_IT_number 35
_symmetry_cell_setting 'orthorhombic'
loop_
_space_group_symop_operation_xyz
x,y,z
-x,-y,z
-x,y,z
x,-y,z
1/2+x,1/2+y,z
1/2-x,1/2-y,z
1/2-x,1/2+y,z
1/2+x,1/2-y,z
loop_
_atom_site_type_symbol
_atom_site_label
_atom_site_fract_x
_atom_site_fract_y
_atom_site_fract_z
Si Si1 0.750000 0.250000 0.443100
Si Si2 0.165238 0.381436 0.301727
Si Si3 0.103727 0.617391 0.557619
Si Si4 0.500000 0.122317 0.661981
Si Si5 0.389913 0.121960 0.031048
Si Si6 0.726698 0.616627 0.693197
Si Si7 0.000000 0.622305 0.965115
Si Si8 0.671143 0.198222 0.778892
O O1 0.791012 0.302855 0.345543
O O2 0.727826 0.338519 0.540978
O O3 0.185698 0.500000 0.294821
O O4 0.118147 0.376045 0.402189
O O5 0.141858 0.344387 0.160798
O O6 0.107537 0.500000 0.611945
O O7 0.047968 0.661932 0.578809
O O8 0.141271 0.687557 0.640760
O O9 0.500000 0.000000 0.668218
O O10 0.500000 0.167242 0.813298
O O11 0.448478 0.159434 0.039381
O O12 0.388390 0.000000 0.010406
O O13 0.363416 0.174345 0.904733
O O14 0.707717 0.500000 0.687440
O O15 0.688493 0.682481 0.784984
O O16 0.780873 0.622705 0.766044
O O17 0.000000 0.500000 0.960140
#
# Coordination Sequence:
#
# PCOD8172159 Si02
#       8
#     4   8   8   4   8   8   4   8
#     4  10  18  30  48  66  92 126 160 186 234 278
#     4  10  20  31  45  67  99 129 154 187 227 276
#     4  10  16  27  44  67  93 120 155 186 222 268
#     4   9  16  23  43  69  93 120 154 191 216 269
#     4  10  19  30  46  69 100 129 151 184 231 279
#     4  10  19  30  48  71  92 118 158 201 231 268
#     4   9  16  27  43  67  95 124 154 185 226 281
#     4  10  18  29  48  68  90 124 153 188 230 275
#
# _framework density 15.170795
#
# number of rings (size 3 to 8) (size 9 to 14) (size 15 to 20)
#    0.000    2.308    4.615    1.846    0.000    1.846 
#    0.000    3.077    0.000    0.923    0.000    2.154 
#    0.000    0.000    0.000    0.000    0.000    0.000 
#
# Total GULP energy -322228.323389 kJ/mol
# GULP energy per Si atom -12393.397053 kJ/mol
# Density = 1.513627 g / cm^3
# Si number density = 15.170795 Si / 1000 Ang^3
#
#
#
# Elastic Constant Matrix: (Units=GPa)
#
#
# Indices 1 2 3 4 5 6 
#
# 1 96.3093 29.9614 28.3517 0.0000 0.0000 0.0000
# 2 29.9614 62.9608 20.6014 0.0000 0.0000 0.0000
# 3 28.3517 20.6014 70.9107 0.0000 0.0000 0.0000
# 4 0.0000 0.0000 0.0000 15.3865 0.0000 0.0000
# 5 0.0000 0.0000 0.0000 0.0000 27.1202 0.0000
# 6 0.0000 0.0000 0.0000 0.0000 0.0000 16.4227
#
#
#
# Elastic Compliance Matrix: (Units=1/GPa)
#
#
# Indices 1 2 3 4 5 6 
#
# 1 0.013039 -0.004972 -0.003769 0.000000 0.000000 0.000000
# 2 -0.004972 0.019447 -0.003662 0.000000 0.000000 0.000000
# 3 -0.003769 -0.003662 0.016673 0.000000 0.000000 0.000000
# 4 0.000000 0.000000 0.000000 0.064992 0.000000 0.000000
# 5 0.000000 0.000000 0.000000 0.000000 0.036873 0.000000
# 6 0.000000 0.000000 0.000000 0.000000 0.000000 0.060891
#
#
# Mechanical properties :
#
#
# Convention : Reuss Voigt Hill
#
# Bulk Modulus (GPa) = 41.06126 43.11220 42.08673
# Shear Modulus (GPa) = 20.42153 21.87031 21.14592
#
# Velocity S-wave (km/s) = 3.67292 3.80097 3.73749
# Velocity P-wave (km/s) = 6.71653 6.90961 6.81376
#
# Compressibility (1/GPa) = 0.02435386
#
# Stress axis : x y z
#
# Youngs Moduli (GPa) = 76.69030 51.42142 59.97685
#
# Poissons Ratio (x) = 0.25566 0.22605
# Poissons Ratio (y) = 0.38129 0.21964
# Poissons Ratio (z) = 0.28905 0.18831
#
# Static dielectric constant tensor:
#      x y z
#    x 3.287410 0.000000 0.000000 
#    y 0.000000 2.654750 0.000000 
#    z 0.000000 0.000000 2.887320 
# 
# 
# High freq. dielectric constant tensor:
#      x y z
#    x 1.587270 0.000000 0.000000 
#    y 0.000000 1.536680 0.000000 
#    z 0.000000 0.000000 1.578850 
# 
# From -- ./inp_files/10266.got.cif
#   From: 2010.03.12/outbox.cif.g09.slc.cpg/sg35_6_cif.got.tgz:10266.got - 2010.04.14 02:02:04.
