data_PCOD8172308
_publ_section_title
;
Structure prediction by ZEFSAII (Michael W. Deem and Ramdas Pophale) SiO2 
 PCOD8172308
Probable space group: C M M 2
;
_chemical_formula_sum "Si O2"
_cell_formula_units_Z 64
_cell_length_a 8.555687
_cell_length_b 28.699787
_cell_length_c 15.624805
_cell_angle_alpha 90.000000
_cell_angle_beta 90.000000
_cell_angle_gamma 90.000000
_cell_volume 3836.614533
_symmetry_space_group_name_H-M "C M M 2"
_symmetry_group_IT_number 35
_symmetry_cell_setting 'orthorhombic'
loop_
_space_group_symop_operation_xyz
x,y,z
-x,-y,z
-x,y,z
x,-y,z
1/2+x,1/2+y,z
1/2-x,1/2-y,z
1/2-x,1/2+y,z
1/2+x,1/2-y,z
loop_
_atom_site_type_symbol
_atom_site_label
_atom_site_fract_x
_atom_site_fract_y
_atom_site_fract_z
Si Si1 0.683515 0.949185 0.844040
Si Si2 0.181055 0.854199 0.104678
Si Si3 0.814450 0.354474 0.773760
Si Si4 0.315436 0.698181 0.433626
Si Si5 0.178871 0.051697 0.025030
Si Si6 0.185762 0.698448 0.943557
Si Si7 0.314711 0.198165 0.607840
Si Si8 0.182569 0.698953 0.260147
O O1 0.500000 0.951093 0.830643
O O2 0.752695 0.907147 0.786120
O O3 0.756476 0.000000 0.818937
O O4 0.714337 0.937938 0.943149
O O5 0.212100 0.909835 0.097982
O O6 0.285082 0.835002 0.181472
O O7 0.000000 0.842850 0.122862
O O8 0.232068 0.831531 0.016160
O O9 0.760985 0.322204 0.852404
O O10 0.748753 0.333205 0.685539
O O11 0.000000 0.356016 0.770976
O O12 0.500000 0.697535 0.440078
O O13 0.250000 0.750000 0.429780
O O14 0.244615 0.674515 0.519160
O O15 0.258900 0.674912 0.344834
O O16 0.000000 0.055426 0.993998
O O17 0.214481 0.000000 0.062549
O O18 0.250000 0.750000 0.950377
O O19 0.000000 0.697436 0.956174
O O20 0.500000 0.200444 0.607952
O O21 0.250000 0.250000 0.618786
O O22 0.250000 0.750000 0.239573
O O23 0.000000 0.704318 0.275644
#
# Coordination Sequence:
#
# PCOD8172308 Si02
#       8
#     8   8   8   8   8   8   8   8
#     4   9  16  29  49  69  90 119 157 199 242 282
#     4  11  21  33  48  69  95 126 160 194 235 281
#     4   9  18  30  45  67  94 124 158 196 234 276
#     4  10  18  31  49  70  94 120 154 194 236 280
#     4   9  18  32  49  69  93 121 155 197 241 282
#     4  11  21  33  45  62  93 129 166 197 230 273
#     4  10  18  30  46  66  94 125 158 194 232 277
#     4  11  21  34  51  71  96 126 159 195 235 280
#
# _framework density 16.681374000000002
#
# number of rings (size 3 to 8) (size 9 to 14) (size 15 to 20)
#    0.000    2.000    1.250    5.625    0.000    0.500 
#    0.000    3.125    0.000    0.000    0.000    0.875 
#    0.000    3.000    0.000    0.000    0.000    0.000 
#
# Total GULP energy -396666.356323 kJ/mol
# GULP energy per Si atom -12395.823635 kJ/mol
# Density = 1.664341 g / cm^3
# Si number density = 16.681374 Si / 1000 Ang^3
#
#
#
# Elastic Constant Matrix: (Units=GPa)
#
#
# Indices 1 2 3 4 5 6 
#
# 1 58.9422 17.6837 17.0351 0.0000 0.0000 0.0000
# 2 17.6837 97.6170 44.9508 0.0000 0.0000 0.0000
# 3 17.0351 44.9508 113.3196 0.0000 0.0000 0.0000
# 4 0.0000 0.0000 0.0000 10.6993 0.0000 0.0000
# 5 0.0000 0.0000 0.0000 0.0000 22.3920 0.0000
# 6 0.0000 0.0000 0.0000 0.0000 0.0000 11.5112
#
#
#
# Elastic Compliance Matrix: (Units=1/GPa)
#
#
# Indices 1 2 3 4 5 6 
#
# 1 0.018220 -0.002495 -0.001749 0.000000 0.000000 0.000000
# 2 -0.002495 0.012875 -0.004732 0.000000 0.000000 0.000000
# 3 -0.001749 -0.004732 0.010965 0.000000 0.000000 0.000000
# 4 0.000000 0.000000 0.000000 0.093464 0.000000 0.000000
# 5 0.000000 0.000000 0.000000 0.000000 0.044659 0.000000
# 6 0.000000 0.000000 0.000000 0.000000 0.000000 0.086872
#
#
# Mechanical properties :
#
#
# Convention : Reuss Voigt Hill
#
# Bulk Modulus (GPa) = 41.48211 47.69089 44.58650
# Shear Modulus (GPa) = 17.06234 21.60111 19.33173
#
# Velocity S-wave (km/s) = 3.20165 3.60241 3.40793
# Velocity P-wave (km/s) = 6.21198 6.77898 6.50166
#
# Compressibility (1/GPa) = 0.02410678
#
# Stress axis : x y z
#
# Youngs Moduli (GPa) = 54.88504 77.66884 91.20207
#
# Poissons Ratio (x) = 0.19379 0.15953
# Poissons Ratio (y) = 0.13695 0.43158
# Poissons Ratio (z) = 0.09601 0.36754
#
# Static dielectric constant tensor:
#      x y z
#    x 3.126950 0.000000 0.000000 
#    y 0.000000 3.313730 0.000000 
#    z 0.000000 0.000000 3.508090 
# 
# 
# High freq. dielectric constant tensor:
#      x y z
#    x 1.645580 0.000000 0.000000 
#    y 0.000000 1.624210 0.000000 
#    z 0.000000 0.000000 1.634000 
# 
# From -- ./inp_files/16190.got.cif
#   From: 2010.03.12/outbox.cif.g09.slc.cpg/sg35_9_cif.got.tgz:16190.got - 2010.04.14 02:02:04.
