data_PCOD8172611
_publ_section_title
;
Structure prediction by ZEFSAII (Michael W. Deem and Ramdas Pophale) SiO2 
 PCOD8172611
Probable space group: C M M 2
;
_chemical_formula_sum "Si O2"
_cell_formula_units_Z 64
_cell_length_a 9.124987
_cell_length_b 26.311196
_cell_length_c 14.681191
_cell_angle_alpha 90.000000
_cell_angle_beta 90.000000
_cell_angle_gamma 90.000000
_cell_volume 3524.797185
_symmetry_space_group_name_H-M "C M M 2"
_symmetry_group_IT_number 35
_symmetry_cell_setting 'orthorhombic'
loop_
_space_group_symop_operation_xyz
x,y,z
-x,-y,z
-x,y,z
x,-y,z
1/2+x,1/2+y,z
1/2-x,1/2-y,z
1/2-x,1/2+y,z
1/2+x,1/2-y,z
loop_
_atom_site_type_symbol
_atom_site_label
_atom_site_fract_x
_atom_site_fract_y
_atom_site_fract_z
Si Si1 0.672284 0.059014 0.592690
Si Si2 0.329830 0.893488 0.209863
Si Si3 0.325560 0.802412 0.077618
Si Si4 0.659091 0.058114 0.902062
Si Si5 0.341026 0.558298 0.063643
Si Si6 0.671331 0.606217 0.753906
Si Si7 0.174449 0.197388 0.889369
Si Si8 0.172920 0.556269 0.389648
O O1 0.500000 0.068476 0.604982
O O2 0.757263 0.100385 0.654430
O O3 0.728073 0.071542 0.490256
O O4 0.709419 0.000000 0.616455
O O5 0.500000 0.905819 0.197998
O O6 0.290739 0.839846 0.162695
O O7 0.239699 0.937296 0.159475
O O8 0.282690 0.899887 0.316115
O O9 0.500000 0.795992 0.062988
O O10 0.250000 0.750000 0.107169
O O11 0.249879 0.821422 0.983661
O O12 0.500000 0.084750 0.889605
O O13 0.756213 0.061136 0.811905
O O14 0.633152 0.000000 0.926750
O O15 0.743619 0.085399 0.985532
O O16 0.500000 0.585447 0.065627
O O17 0.363663 0.500000 0.038853
O O18 0.500000 0.597176 0.745513
O O19 0.707991 0.658737 0.806318
O O20 0.250000 0.250000 0.859712
O O21 0.000000 0.204048 0.904000
O O22 0.234643 0.500000 0.362706
O O23 0.000000 0.551773 0.395363
#
# Coordination Sequence:
#
# PCOD8172611 Si02
#       8
#     8   8   8   8   8   8   8   8
#     4   9  18  33  53  76 101 133 173 210 244 289
#     4  10  19  31  51  75  96 126 169 209 245 291
#     4  10  20  33  51  75 101 130 165 204 248 297
#     4  10  20  32  46  66  94 130 169 201 231 280
#     4  10  20  31  43  65  99 133 161 193 239 293
#     4  11  22  33  49  74 101 128 159 201 254 304
#     4  10  21  36  53  73  98 129 165 204 248 298
#     4   8  15  30  52  76 101 129 166 212 251 284
#
# _framework density 18.157074000000001
#
# number of rings (size 3 to 8) (size 9 to 14) (size 15 to 20)
#    0.000    2.250    0.000    4.875    0.000    8.750 
#    0.000    0.625    0.000    1.500    0.000    3.500 
#    0.000    0.000    0.000    0.000    0.000    0.000 
#
# Total GULP energy -396479.788394 kJ/mol
# GULP energy per Si atom -12389.993387 kJ/mol
# Density = 1.811575 g / cm^3
# Si number density = 18.157074 Si / 1000 Ang^3
#
#
#
# Elastic Constant Matrix: (Units=GPa)
#
#
# Indices 1 2 3 4 5 6 
#
# 1 104.3765 46.4916 62.0006 0.0000 0.0000 0.0000
# 2 46.4916 77.7747 60.6712 0.0000 0.0000 0.0000
# 3 62.0006 60.6712 157.1548 0.0000 0.0000 0.0000
# 4 0.0000 0.0000 0.0000 30.8835 0.0000 0.0000
# 5 0.0000 0.0000 0.0000 0.0000 12.0569 0.0000
# 6 0.0000 0.0000 0.0000 0.0000 0.0000 20.5134
#
#
#
# Elastic Compliance Matrix: (Units=1/GPa)
#
#
# Indices 1 2 3 4 5 6 
#
# 1 0.014173 -0.005882 -0.003321 0.000000 0.000000 0.000000
# 2 -0.005882 0.020839 -0.005725 0.000000 0.000000 0.000000
# 3 -0.003321 -0.005725 0.009883 0.000000 0.000000 0.000000
# 4 0.000000 0.000000 0.000000 0.032380 0.000000 0.000000
# 5 0.000000 0.000000 0.000000 0.000000 0.082940 0.000000
# 6 0.000000 0.000000 0.000000 0.000000 0.000000 0.048749
#
#
# Mechanical properties :
#
#
# Convention : Reuss Voigt Hill
#
# Bulk Modulus (GPa) = 66.48418 75.29252 70.88835
# Shear Modulus (GPa) = 20.50581 24.03360 22.26970
#
# Velocity S-wave (km/s) = 3.36424 3.64215 3.50595
# Velocity P-wave (km/s) = 7.19628 7.69703 7.45086
#
# Compressibility (1/GPa) = 0.01504117
#
# Stress axis : x y z
#
# Youngs Moduli (GPa) = 70.55567 47.98582 101.17941
#
# Poissons Ratio (x) = 0.28224 0.33601
# Poissons Ratio (y) = 0.41499 0.57924
# Poissons Ratio (z) = 0.23431 0.27471
#
# Static dielectric constant tensor:
#      x y z
#    x 3.555820 0.000000 0.000000 
#    y 0.000000 3.173060 0.000000 
#    z 0.000000 0.000000 3.545430 
# 
# 
# High freq. dielectric constant tensor:
#      x y z
#    x 1.705920 0.000000 0.000000 
#    y 0.000000 1.682320 0.000000 
#    z 0.000000 0.000000 1.694620 
# 
# From -- ./inp_files/16250.got.cif
#   From: 2010.03.12/outbox.cif.g09.slc.cpg/sg35_9_cif.got.tgz:16250.got - 2010.04.14 02:02:04.
