data_PCOD8172757
_publ_section_title
;
Structure prediction by ZEFSAII (Michael W. Deem and Ramdas Pophale) SiO2 
 PCOD8172757
Probable space group: C M M 2
;
_chemical_formula_sum "Si O2"
_cell_formula_units_Z 48
_cell_length_a 17.992366
_cell_length_b 8.779136
_cell_length_c 15.487173
_cell_angle_alpha 90.000000
_cell_angle_beta 90.000000
_cell_angle_gamma 90.000000
_cell_volume 2446.314015
_symmetry_space_group_name_H-M "C M M 2"
_symmetry_group_IT_number 35
_symmetry_cell_setting 'orthorhombic'
loop_
_space_group_symop_operation_xyz
x,y,z
-x,-y,z
-x,y,z
x,-y,z
1/2+x,1/2+y,z
1/2-x,1/2-y,z
1/2-x,1/2+y,z
1/2+x,1/2-y,z
loop_
_atom_site_type_symbol
_atom_site_label
_atom_site_fract_x
_atom_site_fract_y
_atom_site_fract_z
Si Si1 0.087245 0.174604 0.444320
Si Si2 0.669996 0.823645 0.103576
Si Si3 0.831337 0.677971 0.912315
Si Si4 0.670191 0.820956 0.598747
Si Si5 0.668788 0.679324 0.271600
Si Si6 0.914331 0.179354 0.757803
O O1 0.117217 0.282334 0.519153
O O2 0.120114 0.229010 0.353229
O O3 0.000000 0.194872 0.439336
O O4 0.109448 0.000000 0.464790
O O5 0.750000 0.750000 0.098869
O O6 0.628165 0.742472 0.184117
O O7 0.677119 0.000000 0.125871
O O8 0.634416 0.798211 0.008873
O O9 0.824574 0.500000 0.889948
O O10 0.750000 0.750000 0.901201
O O11 0.890058 0.759093 0.850684
O O12 0.750000 0.750000 0.580500
O O13 0.636475 0.756277 0.686303
O O14 0.678468 0.000000 0.608340
O O15 0.675588 0.500000 0.264327
O O16 0.750000 0.750000 0.282835
O O17 0.000000 0.222746 0.741508
O O18 0.902043 0.000000 0.753914
#
# Coordination Sequence:
#
# PCOD8172757 Si02
#       6
#     8   8   8   8   8   8
#     4  10  22  40  59  82 115 151 186 228 279 332
#     4   9  17  30  51  79 110 144 183 231 280 324
#     4  10  20  35  57  84 114 148 189 235 280 329
#     4  12  25  41  63  88 113 144 184 229 276 329
#     4  10  19  32  54  81 110 146 187 232 278 327
#     4  11  24  41  60  83 114 150 185 226 278 333
#
# _framework density 19.621357
#
# number of rings (size 3 to 8) (size 9 to 14) (size 15 to 20)
#    0.000    1.667    0.000    6.000    0.000    8.333 
#    0.000    0.833    0.000    3.000    0.000    0.000 
#    0.000    0.000    0.000    0.000    0.000    0.000 
#
# Total GULP energy -297585.283081 kJ/mol
# GULP energy per Si atom -12399.386795 kJ/mol
# Density = 1.957670 g / cm^3
# Si number density = 19.621357 Si / 1000 Ang^3
#
#
#
# Elastic Constant Matrix: (Units=GPa)
#
#
# Indices 1 2 3 4 5 6 
#
# 1 57.2118 25.9509 30.6055 0.0000 0.0000 0.0000
# 2 25.9509 104.1263 46.5994 0.0000 0.0000 0.0000
# 3 30.6055 46.5994 139.3826 0.0000 0.0000 0.0000
# 4 0.0000 0.0000 0.0000 38.8744 0.0000 0.0000
# 5 0.0000 0.0000 0.0000 0.0000 -6.8462 0.0000
# 6 0.0000 0.0000 0.0000 0.0000 0.0000 26.9496
#
#
#
# Elastic Compliance Matrix: (Units=1/GPa)
#
#
# Indices 1 2 3 4 5 6 
#
# 1 0.020964 -0.003721 -0.003359 0.000000 0.000000 0.000000
# 2 -0.003721 0.011954 -0.003179 0.000000 0.000000 0.000000
# 3 -0.003359 -0.003179 0.008975 0.000000 0.000000 0.000000
# 4 0.000000 0.000000 0.000000 0.025724 0.000000 0.000000
# 5 0.000000 0.000000 0.000000 0.000000 -0.146066 0.000000
# 6 0.000000 0.000000 0.000000 0.000000 0.000000 0.037106
#
#
# Mechanical properties :
#
#
# Convention : Reuss Voigt Hill
#
# Bulk Modulus (GPa) = 46.78766 56.33691 51.56229
# Shear Modulus (GPa) = -364.99849 24.96656 -170.01596
#
# Velocity S-wave (km/s) = -13.65375 3.57097 -9.31861
# Velocity P-wave (km/s) = 14.98898 6.76585 9.45761
#
# Compressibility (1/GPa) = 0.02137316
#
# Stress axis : x y z
#
# Youngs Moduli (GPa) = 47.70110 83.65348 111.42016
#
# Poissons Ratio (x) = 0.31131 0.37426
# Poissons Ratio (y) = 0.17752 0.35425
# Poissons Ratio (z) = 0.16023 0.26597
#
# Static dielectric constant tensor:
#      x y z
#    x 3.368540 0.000000 0.000000 
#    y 0.000000 3.745590 0.000000 
#    z 0.000000 0.000000 4.271510 
# 
# 
# High freq. dielectric constant tensor:
#      x y z
#    x 1.738660 0.000000 0.000000 
#    y 0.000000 1.777960 0.000000 
#    z 0.000000 0.000000 1.790900 
# 
# From -- ./inp_files/15165.got.cif
#   From: 2010.03.12/outbox.cif.g09.slc.cpg/sg35_8_cif.got.tgz:15165.got - 2010.04.14 02:02:04.
