data_PCOD8172529
_publ_section_title
;
Structure prediction by ZEFSAII (Michael W. Deem and Ramdas Pophale) SiO2 
 PCOD8172529
Probable space group: C M M 2
;
_chemical_formula_sum "Si O2"
_cell_formula_units_Z 64
_cell_length_a 8.831702
_cell_length_b 18.837856
_cell_length_c 20.991357
_cell_angle_alpha 90.000000
_cell_angle_beta 90.000000
_cell_angle_gamma 90.000000
_cell_volume 3492.339002
_symmetry_space_group_name_H-M "C M M 2"
_symmetry_group_IT_number 35
_symmetry_cell_setting 'orthorhombic'
loop_
_space_group_symop_operation_xyz
x,y,z
-x,-y,z
-x,y,z
x,-y,z
1/2+x,1/2+y,z
1/2-x,1/2-y,z
1/2-x,1/2+y,z
1/2+x,1/2-y,z
loop_
_atom_site_type_symbol
_atom_site_label
_atom_site_fract_x
_atom_site_fract_y
_atom_site_fract_z
Si Si1 0.177192 0.173039 0.982570
Si Si2 0.829311 0.084601 0.355303
Si Si3 0.669787 0.915624 0.481250
Si Si4 0.179437 0.672441 0.107226
Si Si5 0.677908 0.918959 0.227015
Si Si6 0.821182 0.327690 0.719397
Si Si7 0.174328 0.916346 0.609941
Si Si8 0.677293 0.673126 0.844490
O O1 0.250000 0.250000 0.978576
O O2 0.203768 0.134605 0.913513
O O3 0.000000 0.180144 0.996943
O O4 0.257962 0.134225 0.042389
O O5 0.739725 0.115643 0.416097
O O6 0.755268 0.113067 0.290173
O O7 0.000000 0.112712 0.359047
O O8 0.822446 0.000000 0.356288
O O9 0.500000 0.885873 0.489489
O O10 0.771766 0.890486 0.540441
O O11 0.668201 0.000000 0.477692
O O12 0.250000 0.750000 0.115178
O O13 0.233986 0.625523 0.166501
O O14 0.000000 0.677639 0.103525
O O15 0.500000 0.912890 0.237083
O O16 0.727928 0.000000 0.215509
O O17 0.750000 0.250000 0.709961
O O18 0.777075 0.377765 0.661463
O O19 0.758240 0.365163 0.784608
O O20 0.000000 0.320535 0.723263
O O21 0.000000 0.894656 0.618806
O O22 0.198432 0.000000 0.618003
O O23 0.500000 0.679666 0.829843
O O24 0.750000 0.750000 0.848835
#
# Coordination Sequence:
#
# PCOD8172529 Si02
#       8
#     8   8   8   8   8   8   8   8
#     4   9  16  26  43  66  92 120 153 194 235 277
#     4   9  16  26  43  68  94 120 153 194 237 277
#     4   9  16  27  45  69  96 125 158 196 236 280
#     4  10  19  30  47  69  94 123 154 191 234 280
#     4   9  18  32  48  67  92 123 157 191 230 277
#     4  11  21  33  51  74 101 131 164 201 242 290
#     4  10  20  34  52  74 101 131 163 201 244 289
#     4   9  16  27  44  67  93 121 156 197 240 281
#
# _framework density 18.325827
#
# number of rings (size 3 to 8) (size 9 to 14) (size 15 to 20)
#    0.000    2.500    0.000    4.875    0.000    6.250 
#    0.000    0.000    0.000    1.500    0.000    7.000 
#    0.000    0.000    0.000    0.000    0.000    0.000 
#
# Total GULP energy -396590.128254 kJ/mol
# GULP energy per Si atom -12393.441508 kJ/mol
# Density = 1.828412 g / cm^3
# Si number density = 18.325827 Si / 1000 Ang^3
#
#
#
# Elastic Constant Matrix: (Units=GPa)
#
#
# Indices 1 2 3 4 5 6 
#
# 1 122.1543 23.0345 71.5571 0.0000 0.0000 0.0000
# 2 23.0345 24.6247 36.3275 0.0000 0.0000 0.0000
# 3 71.5571 36.3275 190.5360 0.0000 0.0000 0.0000
# 4 0.0000 0.0000 0.0000 24.7128 0.0000 0.0000
# 5 0.0000 0.0000 0.0000 0.0000 38.6761 0.0000
# 6 0.0000 0.0000 0.0000 0.0000 0.0000 16.3279
#
#
#
# Elastic Compliance Matrix: (Units=1/GPa)
#
#
# Indices 1 2 3 4 5 6 
#
# 1 0.011075 -0.005877 -0.003039 0.000000 0.000000 0.000000
# 2 -0.005877 0.059620 -0.009160 0.000000 0.000000 0.000000
# 3 -0.003039 -0.009160 0.008136 0.000000 0.000000 0.000000
# 4 0.000000 0.000000 0.000000 0.040465 0.000000 0.000000
# 5 0.000000 0.000000 0.000000 0.000000 0.025856 0.000000
# 6 0.000000 0.000000 0.000000 0.000000 0.000000 0.061245
#
#
# Mechanical properties :
#
#
# Convention : Reuss Voigt Hill
#
# Bulk Modulus (GPa) = 23.43020 66.57258 45.00139
# Shear Modulus (GPa) = 19.47240 29.70309 24.58774
#
# Velocity S-wave (km/s) = 3.26324 4.03032 3.66689
# Velocity P-wave (km/s) = 5.19725 7.61998 6.52210
#
# Compressibility (1/GPa) = 0.04267996
#
# Stress axis : x y z
#
# Youngs Moduli (GPa) = 90.29712 16.77283 122.90986
#
# Poissons Ratio (x) = 0.09857 0.37349
# Poissons Ratio (y) = 0.53063 1.12588
# Poissons Ratio (z) = 0.27439 0.15364
#
# Static dielectric constant tensor:
#      x y z
#    x 3.530710 0.000000 0.000000 
#    y 0.000000 2.760220 0.000000 
#    z 0.000000 0.000000 4.187280 
# 
# 
# High freq. dielectric constant tensor:
#      x y z
#    x 1.727380 0.000000 0.000000 
#    y 0.000000 1.633220 0.000000 
#    z 0.000000 0.000000 1.740630 
# 
# From -- ./inp_files/18499.got.cif
#   From: 2010.03.12/outbox.cif.g09.slc.cpg/sg35_10_cif.got.tgz:18499.got - 2010.04.14 02:02:04.
