data_PCOD8172850
_publ_section_title
;
Structure prediction by ZEFSAII (Michael W. Deem and Ramdas Pophale) SiO2 
 PCOD8172850
Probable space group: C M M 2
;
_chemical_formula_sum "Si O2"
_cell_formula_units_Z 48
_cell_length_a 15.555320
_cell_length_b 8.766267
_cell_length_c 17.092290
_cell_angle_alpha 90.000000
_cell_angle_beta 90.000000
_cell_angle_gamma 90.000000
_cell_volume 2330.740360
_symmetry_space_group_name_H-M "C M M 2"
_symmetry_group_IT_number 35
_symmetry_cell_setting 'orthorhombic'
loop_
_space_group_symop_operation_xyz
x,y,z
-x,-y,z
-x,y,z
x,-y,z
1/2+x,1/2+y,z
1/2-x,1/2-y,z
1/2-x,1/2+y,z
1/2+x,1/2-y,z
loop_
_atom_site_type_symbol
_atom_site_label
_atom_site_fract_x
_atom_site_fract_y
_atom_site_fract_z
Si Si1 0.660595 0.820025 0.139000
Si Si2 0.897547 0.670354 0.448257
Si Si3 0.500000 0.179964 0.881651
Si Si4 0.601557 0.325601 0.292439
Si Si5 0.000000 0.180178 0.049929
Si Si6 0.163175 0.320407 0.779571
Si Si7 0.404312 0.181751 0.617585
O O1 0.750000 0.750000 0.108243
O O2 0.648965 0.781358 0.230381
O O3 0.584338 0.748162 0.089380
O O4 0.661218 0.000000 0.126629
O O5 0.862943 0.500000 0.431202
O O6 0.865488 0.780825 0.379094
O O7 0.864206 0.731518 0.533173
O O8 0.000000 0.667192 0.452507
O O9 0.416612 0.229312 0.832715
O O10 0.500000 0.000000 0.900847
O O11 0.500000 0.278315 0.959513
O O12 0.500000 0.299016 0.284928
O O13 0.626514 0.500000 0.275720
O O14 0.000000 0.000000 0.062675
O O15 0.171917 0.500000 0.779554
O O16 0.250000 0.250000 0.815137
O O17 0.151252 0.257470 0.690720
O O18 0.500000 0.249706 0.627258
O O19 0.409918 0.000000 0.619878
#
# Coordination Sequence:
#
# PCOD8172850 Si02
#       7
#     8   8   4   8   4   8   8
#     4  12  25  43  68  96 127 163 206 252 306 367
#     4   8  14  25  47  78 110 150 206 257 299 350
#     4  10  22  42  66  89 118 159 200 239 296 369
#     4  10  19  33  55  84 123 164 206 253 305 360
#     4  12  26  46  70  97 128 159 198 249 306 371
#     4  10  20  36  60  88 119 155 199 247 300 359
#     4   8  13  27  52  79 108 151 204 252 295 351
#
# _framework density 20.594315000000002
#
# number of rings (size 3 to 8) (size 9 to 14) (size 15 to 20)
#    0.000    2.167    1.667    3.750    0.000    2.000 
#    0.000    3.333    0.000    3.000    0.000    0.000 
#    0.000    0.000    0.000    0.000    0.000    0.000 
#
# Total GULP energy -297548.238432 kJ/mol
# GULP energy per Si atom -12397.843268 kJ/mol
# Density = 2.054744 g / cm^3
# Si number density = 20.594315 Si / 1000 Ang^3
#
#
#
# Elastic Constant Matrix: (Units=GPa)
#
#
# Indices 1 2 3 4 5 6 
#
# 1 127.9549 49.8655 61.9256 0.0000 0.0000 0.0000
# 2 49.8655 101.7303 52.3932 0.0000 0.0000 0.0000
# 3 61.9256 52.3932 141.3230 0.0000 0.0000 0.0000
# 4 0.0000 0.0000 0.0000 26.0899 0.0000 0.0000
# 5 0.0000 0.0000 0.0000 0.0000 -1.0104 0.0000
# 6 0.0000 0.0000 0.0000 0.0000 0.0000 27.4571
#
#
#
# Elastic Compliance Matrix: (Units=1/GPa)
#
#
# Indices 1 2 3 4 5 6 
#
# 1 0.010867 -0.003553 -0.003445 0.000000 0.000000 0.000000
# 2 -0.003553 0.013311 -0.003378 0.000000 0.000000 0.000000
# 3 -0.003445 -0.003378 0.009838 0.000000 0.000000 0.000000
# 4 0.000000 0.000000 0.000000 0.038329 0.000000 0.000000
# 5 0.000000 0.000000 0.000000 0.000000 -0.989718 0.000000
# 6 0.000000 0.000000 0.000000 0.000000 0.000000 0.036420
#
#
# Mechanical properties :
#
#
# Convention : Reuss Voigt Hill
#
# Bulk Modulus (GPa) = 75.38671 77.70856 76.54763
# Shear Modulus (GPa) = -5.84262 24.29558 9.22648
#
# Velocity S-wave (km/s) = -1.68617 3.43844 2.11892
# Velocity P-wave (km/s) = 5.73534 7.31975 6.57544
#
# Compressibility (1/GPa) = 0.01326494
#
# Stress axis : x y z
#
# Youngs Moduli (GPa) = 92.02347 75.12508 101.64899
#
# Poissons Ratio (x) = 0.26689 0.35014
# Poissons Ratio (y) = 0.32692 0.34339
# Poissons Ratio (z) = 0.31698 0.25379
#
# Static dielectric constant tensor:
#      x y z
#    x 3.808630 0.000000 0.000000 
#    y 0.000000 3.488690 0.000000 
#    z 0.000000 0.000000 4.043960 
# 
# 
# High freq. dielectric constant tensor:
#      x y z
#    x 1.793430 0.000000 0.000000 
#    y 0.000000 1.782640 0.000000 
#    z 0.000000 0.000000 1.814440 
# 
# From -- ./inp_files/17908.got.cif
#   From: 2010.03.12/outbox.cif.g09.slc.cpg/sg35_9_cif.got.tgz:17908.got - 2010.04.14 02:02:04.
