data_PCOD8172793
_publ_section_title
;
Structure prediction by ZEFSAII (Michael W. Deem and Ramdas Pophale) SiO2 
 PCOD8172793
Probable space group: C M M 2
;
_chemical_formula_sum "Si O2"
_cell_formula_units_Z 48
_cell_length_a 15.499566
_cell_length_b 8.748150
_cell_length_c 18.744808
_cell_angle_alpha 90.000000
_cell_angle_beta 90.000000
_cell_angle_gamma 90.000000
_cell_volume 2541.655909
_symmetry_space_group_name_H-M "C M M 2"
_symmetry_group_IT_number 35
_symmetry_cell_setting 'orthorhombic'
loop_
_space_group_symop_operation_xyz
x,y,z
-x,-y,z
-x,y,z
x,-y,z
1/2+x,1/2+y,z
1/2-x,1/2-y,z
1/2-x,1/2+y,z
1/2+x,1/2-y,z
loop_
_atom_site_type_symbol
_atom_site_label
_atom_site_fract_x
_atom_site_fract_y
_atom_site_fract_z
Si Si1 0.839493 0.180670 0.053170
Si Si2 0.000000 0.319258 0.801623
Si Si3 0.000000 0.682406 0.460623
Si Si4 0.339033 0.819223 0.712924
Si Si5 0.500000 0.818607 0.300220
Si Si6 0.160996 0.680687 0.550516
Si Si7 0.000000 0.177946 0.955019
Si Si8 0.659696 0.818055 0.206551
O O1 0.750000 0.250000 0.023253
O O2 0.862939 0.255228 0.128605
O O3 0.829778 0.000000 0.063292
O O4 0.915107 0.223837 0.998873
O O5 0.084469 0.253257 0.762054
O O6 0.000000 0.273345 0.883314
O O7 0.000000 0.500000 0.794911
O O8 0.000000 0.747698 0.380313
O O9 0.915739 0.744818 0.501357
O O10 0.000000 0.500000 0.461174
O O11 0.250000 0.750000 0.742077
O O12 0.356375 0.766289 0.631704
O O13 0.333052 0.000000 0.718022
O O14 0.585356 0.760167 0.259842
O O15 0.500000 0.000000 0.301902
O O16 0.166972 0.500000 0.545554
O O17 0.250000 0.750000 0.521370
O O18 0.000000 0.000000 0.936252
O O19 0.750000 0.750000 0.234455
O O20 0.665810 0.000000 0.203276
#
# Coordination Sequence:
#
# PCOD8172793 Si02
#       8
#     8   4   4   8   4   8   4   8
#     4  10  20  36  56  77 100 129 165 206 247 293
#     4  10  21  35  52  73 101 134 168 202 242 296
#     4   9  17  31  50  72 100 137 170 200 244 299
#     4   9  18  33  52  76 100 128 167 209 248 290
#     4   9  19  32  48  73 104 135 168 202 244 297
#     4   9  17  31  53  75  98 129 168 209 248 290
#     4  10  23  38  52  74 105 134 162 200 250 298
#     4  10  19  33  53  76 100 129 166 208 247 291
#
# _framework density 18.885325000000002
#
# number of rings (size 3 to 8) (size 9 to 14) (size 15 to 20)
#    0.000    2.500    0.000    3.000    0.000    5.333 
#    0.000    5.000    0.000    7.000    0.000    0.000 
#    0.000    0.000    0.000    0.000    0.000    0.000 
#
# Total GULP energy -297624.087226 kJ/mol
# GULP energy per Si atom -12401.003634 kJ/mol
# Density = 1.884234 g / cm^3
# Si number density = 18.885325 Si / 1000 Ang^3
#
#
#
# Elastic Constant Matrix: (Units=GPa)
#
#
# Indices 1 2 3 4 5 6 
#
# 1 198.8425 38.0131 106.6925 0.0000 0.0000 0.0000
# 2 38.0131 42.1827 28.4429 0.0000 0.0000 0.0000
# 3 106.6925 28.4429 122.8371 0.0000 0.0000 0.0000
# 4 0.0000 0.0000 0.0000 20.6998 0.0000 0.0000
# 5 0.0000 0.0000 0.0000 0.0000 19.5798 0.0000
# 6 0.0000 0.0000 0.0000 0.0000 0.0000 27.8159
#
#
#
# Elastic Compliance Matrix: (Units=1/GPa)
#
#
# Indices 1 2 3 4 5 6 
#
# 1 0.009882 -0.003694 -0.007727 0.000000 0.000000 0.000000
# 2 -0.003694 0.029474 -0.003616 0.000000 0.000000 0.000000
# 3 -0.007727 -0.003616 0.015690 0.000000 0.000000 0.000000
# 4 0.000000 0.000000 0.000000 0.048310 0.000000 0.000000
# 5 0.000000 0.000000 0.000000 0.000000 0.051073 0.000000
# 6 0.000000 0.000000 0.000000 0.000000 0.000000 0.035951
#
#
# Mechanical properties :
#
#
# Convention : Reuss Voigt Hill
#
# Bulk Modulus (GPa) = 40.04809 78.90658 59.47734
# Shear Modulus (GPa) = 21.85530 26.33335 24.09433
#
# Velocity S-wave (km/s) = 3.40555 3.73819 3.57574
# Velocity P-wave (km/s) = 6.05934 7.77848 6.97210
#
# Compressibility (1/GPa) = 0.02496998
#
# Stress axis : x y z
#
# Youngs Moduli (GPa) = 101.19708 33.92855 63.73504
#
# Poissons Ratio (x) = 0.12535 0.49251
# Poissons Ratio (y) = 0.37387 0.23045
# Poissons Ratio (z) = 0.78200 0.12268
#
# Static dielectric constant tensor:
#      x y z
#    x 3.732300 0.000000 0.000000 
#    y 0.000000 3.220120 0.000000 
#    z 0.000000 0.000000 3.480030 
# 
# 
# High freq. dielectric constant tensor:
#      x y z
#    x 1.751760 0.000000 0.000000 
#    y 0.000000 1.713440 0.000000 
#    z 0.000000 0.000000 1.727950 
# 
# From -- ./inp_files/17143.got.cif
#   From: 2010.03.12/outbox.cif.g09.slc.cpg/sg35_9_cif.got.tgz:17143.got - 2010.04.14 02:02:04.
