data_PCOD8172643
_publ_section_title
;
Structure prediction by ZEFSAII (Michael W. Deem and Ramdas Pophale) SiO2 
 PCOD8172643
Probable space group: C M M 2
;
_chemical_formula_sum "Si O2"
_cell_formula_units_Z 64
_cell_length_a 8.789466
_cell_length_b 28.299986
_cell_length_c 15.740408
_cell_angle_alpha 90.000000
_cell_angle_beta 90.000000
_cell_angle_gamma 90.000000
_cell_volume 3915.296864
_symmetry_space_group_name_H-M "C M M 2"
_symmetry_group_IT_number 35
_symmetry_cell_setting 'orthorhombic'
loop_
_space_group_symop_operation_xyz
x,y,z
-x,-y,z
-x,y,z
x,-y,z
1/2+x,1/2+y,z
1/2-x,1/2-y,z
1/2-x,1/2+y,z
1/2+x,1/2-y,z
loop_
_atom_site_type_symbol
_atom_site_label
_atom_site_fract_x
_atom_site_fract_y
_atom_site_fract_z
Si Si1 0.678740 0.698773 0.688630
Si Si2 0.674782 0.946647 0.775711
Si Si3 0.179867 0.802056 0.378595
Si Si4 0.179383 0.801489 0.010988
Si Si5 0.175938 0.199957 0.194177
Si Si6 0.677336 0.446311 0.596213
Si Si7 0.679567 0.856558 0.531703
Si Si8 0.321651 0.638160 0.854074
O O1 0.500000 0.703640 0.674336
O O2 0.750000 0.750000 0.697361
O O3 0.748354 0.672122 0.608756
O O4 0.719000 0.670334 0.773474
O O5 0.500000 0.936412 0.751754
O O6 0.777088 0.937560 0.693324
O O7 0.732412 0.911377 0.848581
O O8 0.695372 0.000000 0.809539
O O9 0.250000 0.750000 0.388486
O O10 0.214789 0.824967 0.284415
O O11 0.259374 0.837072 0.443287
O O12 0.000000 0.798965 0.396534
O O13 0.250000 0.750000 0.998966
O O14 0.223339 0.824386 0.104126
O O15 0.000000 0.795687 0.999705
O O16 0.241646 0.836309 0.938485
O O17 0.250000 0.250000 0.197311
O O18 0.000000 0.210176 0.190350
O O19 0.500000 0.434565 0.587325
O O20 0.714337 0.500000 0.568635
O O21 0.772447 0.411499 0.536078
O O22 0.500000 0.851409 0.535541
O O23 0.500000 0.627610 0.860019
#
# Coordination Sequence:
#
# PCOD8172643 Si02
#       8
#     8   8   8   8   8   8   8   8
#     4  11  22  34  46  64  94 132 168 197 230 275
#     4  10  20  33  50  71  94 122 159 201 241 282
#     4  10  19  32  49  70  97 129 163 201 242 286
#     4   9  17  30  47  71  98 127 162 197 236 282
#     4   8  15  28  47  68  93 123 157 199 241 280
#     4  10  20  35  54  73  94 121 155 197 243 288
#     4  12  23  34  49  70  96 128 162 199 237 282
#     4  10  20  32  48  69  96 129 162 196 236 283
#
# _framework density 16.346143999999999
#
# number of rings (size 3 to 8) (size 9 to 14) (size 15 to 20)
#    0.000    2.000    1.250    3.375    0.000    3.000 
#    0.000    0.000    0.000    0.000    0.000    0.875 
#    0.000    3.000    0.000    0.000    0.000    0.000 
#
# Total GULP energy -396624.101668 kJ/mol
# GULP energy per Si atom -12394.503177 kJ/mol
# Density = 1.630894 g / cm^3
# Si number density = 16.346144 Si / 1000 Ang^3
#
#
#
# Elastic Constant Matrix: (Units=GPa)
#
#
# Indices 1 2 3 4 5 6 
#
# 1 66.7294 41.2516 46.2394 0.0000 0.0000 0.0000
# 2 41.2516 100.2751 60.0515 0.0000 0.0000 0.0000
# 3 46.2394 60.0515 134.2422 0.0000 0.0000 0.0000
# 4 0.0000 0.0000 0.0000 10.3199 0.0000 0.0000
# 5 0.0000 0.0000 0.0000 0.0000 4.9650 0.0000
# 6 0.0000 0.0000 0.0000 0.0000 0.0000 28.1298
#
#
#
# Elastic Compliance Matrix: (Units=1/GPa)
#
#
# Indices 1 2 3 4 5 6 
#
# 1 0.022202 -0.006220 -0.004865 0.000000 0.000000 0.000000
# 2 -0.006220 0.015364 -0.004731 0.000000 0.000000 0.000000
# 3 -0.004865 -0.004731 0.011241 0.000000 0.000000 0.000000
# 4 0.000000 0.000000 0.000000 0.096900 0.000000 0.000000
# 5 0.000000 0.000000 0.000000 0.000000 0.201410 0.000000
# 6 0.000000 0.000000 0.000000 0.000000 0.000000 0.035550
#
#
# Mechanical properties :
#
#
# Convention : Reuss Voigt Hill
#
# Bulk Modulus (GPa) = 58.21952 66.25906 62.23929
# Shear Modulus (GPa) = 11.90409 18.92990 15.41699
#
# Velocity S-wave (km/s) = 2.70154 3.40673 3.07442
# Velocity P-wave (km/s) = 6.73981 7.48982 7.12469
#
# Compressibility (1/GPa) = 0.01717637
#
# Stress axis : x y z
#
# Youngs Moduli (GPa) = 45.04033 65.08547 88.95921
#
# Poissons Ratio (x) = 0.40484 0.43279
# Poissons Ratio (y) = 0.28016 0.42083
# Poissons Ratio (z) = 0.21912 0.30789
#
# Static dielectric constant tensor:
#      x y z
#    x 4.672220 0.000000 0.000000 
#    y 0.000000 3.070940 0.000000 
#    z 0.000000 0.000000 3.539300 
# 
# 
# High freq. dielectric constant tensor:
#      x y z
#    x 1.641820 0.000000 0.000000 
#    y 0.000000 1.607490 0.000000 
#    z 0.000000 0.000000 1.625330 
# 
# From -- ./inp_files/16220.got.cif
#   From: 2010.03.12/outbox.cif.g09.slc.cpg/sg35_9_cif.got.tgz:16220.got - 2010.04.14 02:02:04.
