data_PCOD8172414
_publ_section_title
;
Structure prediction by ZEFSAII (Michael W. Deem and Ramdas Pophale) SiO2 
 PCOD8172414
Probable space group: C M M 2
;
_chemical_formula_sum "Si O2"
_cell_formula_units_Z 56
_cell_length_a 9.061669
_cell_length_b 21.923657
_cell_length_c 14.751355
_cell_angle_alpha 90.000000
_cell_angle_beta 90.000000
_cell_angle_gamma 90.000000
_cell_volume 2930.576805
_symmetry_space_group_name_H-M "C M M 2"
_symmetry_group_IT_number 35
_symmetry_cell_setting 'orthorhombic'
loop_
_space_group_symop_operation_xyz
x,y,z
-x,-y,z
-x,y,z
x,-y,z
1/2+x,1/2+y,z
1/2-x,1/2-y,z
1/2-x,1/2+y,z
1/2+x,1/2-y,z
loop_
_atom_site_type_symbol
_atom_site_label
_atom_site_fract_x
_atom_site_fract_y
_atom_site_fract_z
Si Si1 0.169981 0.119379 0.381290
Si Si2 0.325591 0.811380 0.229920
Si Si3 0.325095 0.068238 0.752361
Si Si4 0.165634 0.000000 0.265850
Si Si5 0.325760 0.870768 0.045725
Si Si6 0.325218 0.000000 0.080191
Si Si7 0.330014 0.929827 0.546493
Si Si8 0.823992 0.313357 0.864717
O O1 0.260944 0.169974 0.326905
O O2 0.195177 0.057065 0.329123
O O3 0.232397 0.113551 0.482736
O O4 0.000000 0.139210 0.386455
O O5 0.500000 0.804448 0.238169
O O6 0.250000 0.750000 0.198729
O O7 0.277052 0.855892 0.148118
O O8 0.500000 0.065959 0.758693
O O9 0.275276 0.080092 0.649109
O O10 0.267346 0.126377 0.810125
O O11 0.267099 0.000000 0.783589
O O12 0.278975 0.000000 0.184468
O O13 0.000000 0.000000 0.226441
O O14 0.500000 0.868925 0.037694
O O15 0.267523 0.939823 0.027680
O O16 0.267216 0.825047 0.968119
O O17 0.500000 0.000000 0.082816
O O18 0.500000 0.910643 0.535635
O O19 0.307857 0.000000 0.518157
O O20 0.750000 0.250000 0.830290
O O21 0.000000 0.306238 0.855896
#
# Coordination Sequence:
#
# PCOD8172414 Si02
#       8
#     8   8   8   4   8   4   8   8
#     4  11  21  34  52  78 109 142 177 217 264 319
#     4  11  22  37  53  74 104 144 187 227 269 316
#     4   8  16  32  56  84 109 137 180 232 279 322
#     4  10  20  32  48  75 108 138 170 211 264 311
#     4   9  19  32  53  81 108 139 178 221 266 317
#     4  10  18  32  52  79 108 138 180 223 266 315
#     4   9  17  31  53  80 107 137 175 221 273 324
#     4  10  20  36  57  82 110 143 181 223 272 328
#
# _framework density 19.108867
#
# number of rings (size 3 to 8) (size 9 to 14) (size 15 to 20)
#    0.000    2.286    2.143    2.143    1.000    0.571 
#    0.000    2.857    0.000    3.000    0.000    0.000 
#    0.000    0.000    0.000    0.000    0.000    0.000 
#
# Total GULP energy -346981.503462 kJ/mol
# GULP energy per Si atom -12392.196552 kJ/mol
# Density = 1.906537 g / cm^3
# Si number density = 19.108867 Si / 1000 Ang^3
#
#
#
# Elastic Constant Matrix: (Units=GPa)
#
#
# Indices 1 2 3 4 5 6 
#
# 1 56.0190 34.8646 29.1841 0.0000 0.0000 0.0000
# 2 34.8646 128.7515 49.0515 0.0000 0.0000 0.0000
# 3 29.1841 49.0515 96.3099 0.0000 0.0000 0.0000
# 4 0.0000 0.0000 0.0000 24.7536 0.0000 0.0000
# 5 0.0000 0.0000 0.0000 0.0000 16.3970 0.0000
# 6 0.0000 0.0000 0.0000 0.0000 0.0000 27.3058
#
#
#
# Elastic Compliance Matrix: (Units=1/GPa)
#
#
# Indices 1 2 3 4 5 6 
#
# 1 0.023084 -0.004449 -0.004729 0.000000 0.000000 0.000000
# 2 -0.004449 0.010494 -0.003997 0.000000 0.000000 0.000000
# 3 -0.004729 -0.003997 0.013852 0.000000 0.000000 0.000000
# 4 0.000000 0.000000 0.000000 0.040398 0.000000 0.000000
# 5 0.000000 0.000000 0.000000 0.000000 0.060987 0.000000
# 6 0.000000 0.000000 0.000000 0.000000 0.000000 0.036622
#
#
# Mechanical properties :
#
#
# Convention : Reuss Voigt Hill
#
# Bulk Modulus (GPa) = 47.43785 56.36454 51.90120
# Shear Modulus (GPa) = 22.85056 24.88997 23.87027
#
# Velocity S-wave (km/s) = 3.46180 3.61298 3.53820
# Velocity P-wave (km/s) = 6.39200 6.85313 6.62658
#
# Compressibility (1/GPa) = 0.02108021
#
# Stress axis : x y z
#
# Youngs Moduli (GPa) = 43.32051 95.28935 72.19371
#
# Poissons Ratio (x) = 0.42397 0.34139
# Poissons Ratio (y) = 0.19274 0.28853
# Poissons Ratio (z) = 0.20486 0.38084
#
# Static dielectric constant tensor:
#      x y z
#    x 3.155910 0.000000 0.000000 
#    y 0.000000 3.601990 0.000000 
#    z 0.000000 0.000000 3.577910 
# 
# 
# High freq. dielectric constant tensor:
#      x y z
#    x 1.707860 0.000000 0.000000 
#    y 0.000000 1.744800 0.000000 
#    z 0.000000 0.000000 1.741790 
# 
# From -- ./inp_files/15665.got.cif
#   From: 2010.03.12/outbox.cif.g09.slc.cpg/sg35_8_cif.got.tgz:15665.got - 2010.04.14 02:02:04.
