data_PCOD8172732
_publ_section_title
;
Structure prediction by ZEFSAII (Michael W. Deem and Ramdas Pophale) SiO2 
 PCOD8172732
Probable space group: C M M 2
;
_chemical_formula_sum "Si O2"
_cell_formula_units_Z 48
_cell_length_a 8.797268
_cell_length_b 19.102224
_cell_length_c 15.145110
_cell_angle_alpha 90.000000
_cell_angle_beta 90.000000
_cell_angle_gamma 90.000000
_cell_volume 2545.096115
_symmetry_space_group_name_H-M "C M M 2"
_symmetry_group_IT_number 35
_symmetry_cell_setting 'orthorhombic'
loop_
_space_group_symop_operation_xyz
x,y,z
-x,-y,z
-x,y,z
x,-y,z
1/2+x,1/2+y,z
1/2-x,1/2-y,z
1/2-x,1/2+y,z
1/2+x,1/2-y,z
loop_
_atom_site_type_symbol
_atom_site_label
_atom_site_fract_x
_atom_site_fract_y
_atom_site_fract_z
Si Si1 0.677202 0.419595 0.625000
Si Si2 0.820510 0.176112 0.788363
Si Si3 0.319083 0.824655 0.973084
Si Si4 0.819450 0.578015 0.131995
Si Si5 0.820643 0.677617 0.284513
Si Si6 0.321351 0.822719 0.484683
O O1 0.500000 0.411378 0.604816
O O2 0.726046 0.500000 0.634784
O O3 0.721673 0.381048 0.715311
O O4 0.767643 0.387049 0.543604
O O5 0.750000 0.250000 0.758545
O O6 0.746153 0.149934 0.879360
O O7 0.000000 0.185117 0.801123
O O8 0.500000 0.818395 0.967842
O O9 0.250000 0.750000 0.999524
O O10 0.264299 0.880393 0.045657
O O11 0.749645 0.500000 0.129667
O O12 0.760364 0.616203 0.220693
O O13 0.000000 0.574512 0.133191
O O14 0.750000 0.750000 0.250968
O O15 0.768864 0.661055 0.384505
O O16 0.000000 0.685222 0.277699
O O17 0.500000 0.814635 0.492015
O O18 0.250000 0.750000 0.518777
#
# Coordination Sequence:
#
# PCOD8172732 Si02
#       6
#     8   8   8   8   8   8
#     4  10  22  38  54  75 106 141 172 209 261 313
#     4  10  20  35  55  76 100 132 170 211 255 304
#     4  10  19  32  53  77 100 130 168 210 253 297
#     4   9  18  32  50  74 104 136 168 204 249 299
#     4   9  18  33  54  77 102 133 169 210 252 297
#     4  10  20  34  55  81 105 135 175 217 259 304
#
# _framework density 18.859798000000001
#
# number of rings (size 3 to 8) (size 9 to 14) (size 15 to 20)
#    0.000    2.333    0.000    3.500    0.000    5.000 
#    0.000    2.500    0.000    4.000    0.000    0.000 
#    0.000    0.000    0.000    0.000    0.000    0.000 
#
# Total GULP energy -297645.238179 kJ/mol
# GULP energy per Si atom -12401.884924 kJ/mol
# Density = 1.881687 g / cm^3
# Si number density = 18.859798 Si / 1000 Ang^3
#
#
#
# Elastic Constant Matrix: (Units=GPa)
#
#
# Indices 1 2 3 4 5 6 
#
# 1 54.7410 39.7385 41.3859 0.0000 0.0000 0.0000
# 2 39.7385 164.0609 102.6140 0.0000 0.0000 0.0000
# 3 41.3859 102.6140 136.4797 0.0000 0.0000 0.0000
# 4 0.0000 0.0000 0.0000 20.0968 0.0000 0.0000
# 5 0.0000 0.0000 0.0000 0.0000 16.1552 0.0000
# 6 0.0000 0.0000 0.0000 0.0000 0.0000 25.0498
#
#
#
# Elastic Compliance Matrix: (Units=1/GPa)
#
#
# Indices 1 2 3 4 5 6 
#
# 1 0.024192 -0.002400 -0.005531 0.000000 0.000000 0.000000
# 2 -0.002400 0.011744 -0.008102 0.000000 0.000000 0.000000
# 3 -0.005531 -0.008102 0.015096 0.000000 0.000000 0.000000
# 4 0.000000 0.000000 0.000000 0.049759 0.000000 0.000000
# 5 0.000000 0.000000 0.000000 0.000000 0.061900 0.000000
# 6 0.000000 0.000000 0.000000 0.000000 0.000000 0.039920
#
#
# Mechanical properties :
#
#
# Convention : Reuss Voigt Hill
#
# Bulk Modulus (GPa) = 52.72869 80.30650 66.51759
# Shear Modulus (GPa) = 20.74677 23.69658 22.22167
#
# Velocity S-wave (km/s) = 3.32030 3.54850 3.43630
# Velocity P-wave (km/s) = 6.53591 7.71119 7.14775
#
# Compressibility (1/GPa) = 0.01896501
#
# Stress axis : x y z
#
# Youngs Moduli (GPa) = 41.33591 85.14724 66.24131
#
# Poissons Ratio (x) = 0.20436 0.36641
# Poissons Ratio (y) = 0.09921 0.53671
# Poissons Ratio (z) = 0.22865 0.68989
#
# Static dielectric constant tensor:
#      x y z
#    x 3.309450 0.000000 0.000000 
#    y 0.000000 3.585900 0.000000 
#    z 0.000000 0.000000 3.659330 
# 
# 
# High freq. dielectric constant tensor:
#      x y z
#    x 1.720710 0.000000 0.000000 
#    y 0.000000 1.729770 0.000000 
#    z 0.000000 0.000000 1.745670 
# 
# From -- ./inp_files/15124.got.cif
#   From: 2010.03.12/outbox.cif.g09.slc.cpg/sg35_8_cif.got.tgz:15124.got - 2010.04.14 02:02:04.
