data_PCOD8172300
_publ_section_title
;
Structure prediction by ZEFSAII (Michael W. Deem and Ramdas Pophale) SiO2 
 PCOD8172300
Probable space group: C M M 2
;
_chemical_formula_sum "Si O2"
_cell_formula_units_Z 48
_cell_length_a 8.890119
_cell_length_b 18.287561
_cell_length_c 15.605000
_cell_angle_alpha 90.000000
_cell_angle_beta 90.000000
_cell_angle_gamma 90.000000
_cell_volume 2537.038952
_symmetry_space_group_name_H-M "C M M 2"
_symmetry_group_IT_number 35
_symmetry_cell_setting 'orthorhombic'
loop_
_space_group_symop_operation_xyz
x,y,z
-x,-y,z
-x,y,z
x,-y,z
1/2+x,1/2+y,z
1/2-x,1/2-y,z
1/2-x,1/2+y,z
1/2+x,1/2-y,z
loop_
_atom_site_type_symbol
_atom_site_label
_atom_site_fract_x
_atom_site_fract_y
_atom_site_fract_z
Si Si1 0.178694 0.829937 0.369170
Si Si2 0.675129 0.828299 0.535374
Si Si3 0.321743 0.670984 0.040237
Si Si4 0.821295 0.918036 0.203627
Si Si5 0.675746 0.584164 0.872591
Si Si6 0.825476 0.671405 0.724794
O O1 0.250000 0.750000 0.358466
O O2 0.240799 0.869189 0.456526
O O3 0.233912 0.878899 0.290080
O O4 0.000000 0.823542 0.373058
O O5 0.500000 0.821522 0.512931
O O6 0.750000 0.750000 0.540768
O O7 0.700218 0.863236 0.629474
O O8 0.500000 0.678747 0.044146
O O9 0.250000 0.750000 0.039837
O O10 0.259842 0.626606 0.122096
O O11 0.269343 0.628568 0.955425
O O12 0.000000 0.921057 0.200391
O O13 0.754716 0.000000 0.201125
O O14 0.500000 0.595217 0.856805
O O15 0.716820 0.500000 0.888043
O O16 0.761527 0.612187 0.789456
O O17 0.750000 0.750000 0.737780
O O18 0.000000 0.683867 0.742862
#
# Coordination Sequence:
#
# PCOD8172300 Si02
#       6
#     8   8   8   8   8   8
#     4  10  18  29  50  76 101 131 168 210 252 296
#     4   9  17  30  49  73 101 132 168 210 254 299
#     4  10  20  35  56  79 103 132 168 210 253 301
#     4   9  18  33  52  74 101 134 170 206 247 298
#     4  10  21  36  54  77 105 138 174 212 257 308
#     4  10  20  34  54  78 104 137 175 216 261 308
#
# _framework density 18.919694
#
# number of rings (size 3 to 8) (size 9 to 14) (size 15 to 20)
#    0.000    2.333    0.000    4.000    0.000    6.333 
#    0.000    1.667    0.000    8.500    0.000    0.000 
#    0.000    0.000    0.000    0.000    0.000    0.000 
#
# Total GULP energy -297518.308347 kJ/mol
# GULP energy per Si atom -12396.596181 kJ/mol
# Density = 1.887663 g / cm^3
# Si number density = 18.919694 Si / 1000 Ang^3
#
#
#
# Elastic Constant Matrix: (Units=GPa)
#
#
# Indices 1 2 3 4 5 6 
#
# 1 64.7682 39.5139 56.0977 0.0000 0.0000 0.0000
# 2 39.5139 122.6670 84.5909 0.0000 0.0000 0.0000
# 3 56.0977 84.5909 193.8305 0.0000 0.0000 0.0000
# 4 0.0000 0.0000 0.0000 11.8566 0.0000 0.0000
# 5 0.0000 0.0000 0.0000 0.0000 9.7246 0.0000
# 6 0.0000 0.0000 0.0000 0.0000 0.0000 23.6807
#
#
#
# Elastic Compliance Matrix: (Units=1/GPa)
#
#
# Indices 1 2 3 4 5 6 
#
# 1 0.021788 -0.003819 -0.004639 0.000000 0.000000 0.000000
# 2 -0.003819 0.012331 -0.004276 0.000000 0.000000 0.000000
# 3 -0.004639 -0.004276 0.008368 0.000000 0.000000 0.000000
# 4 0.000000 0.000000 0.000000 0.084341 0.000000 0.000000
# 5 0.000000 0.000000 0.000000 0.000000 0.102832 0.000000
# 6 0.000000 0.000000 0.000000 0.000000 0.000000 0.042229
#
#
# Mechanical properties :
#
#
# Convention : Reuss Voigt Hill
#
# Bulk Modulus (GPa) = 58.76123 82.40786 70.58455
# Shear Modulus (GPa) = 16.50001 22.45659 19.47830
#
# Velocity S-wave (km/s) = 2.95635 3.44894 3.21210
# Velocity P-wave (km/s) = 6.54057 7.71437 7.15159
#
# Compressibility (1/GPa) = 0.01701802
#
# Stress axis : x y z
#
# Youngs Moduli (GPa) = 45.89750 81.09432 119.50394
#
# Poissons Ratio (x) = 0.30973 0.55436
# Poissons Ratio (y) = 0.17530 0.51102
# Poissons Ratio (z) = 0.21291 0.34678
#
# Static dielectric constant tensor:
#      x y z
#    x 3.466440 0.000000 0.000000 
#    y 0.000000 3.281140 0.000000 
#    z 0.000000 0.000000 4.233510 
# 
# 
# High freq. dielectric constant tensor:
#      x y z
#    x 1.722340 0.000000 0.000000 
#    y 0.000000 1.711940 0.000000 
#    z 0.000000 0.000000 1.761870 
# 
# From -- ./inp_files/15102.got.cif
#   From: 2010.03.12/outbox.cif.g09.slc.cpg/sg35_8_cif.got.tgz:15102.got - 2010.04.14 02:02:04.
