data_PCOD8172179
_publ_section_title
;
Structure prediction by ZEFSAII (Michael W. Deem and Ramdas Pophale) SiO2 
 PCOD8172179
Probable space group: C M M 2
;
_chemical_formula_sum "Si O2"
_cell_formula_units_Z 56
_cell_length_a 8.813044
_cell_length_b 19.379458
_cell_length_c 18.331939
_cell_angle_alpha 90.000000
_cell_angle_beta 90.000000
_cell_angle_gamma 90.000000
_cell_volume 3130.948820
_symmetry_space_group_name_H-M "C M M 2"
_symmetry_group_IT_number 35
_symmetry_cell_setting 'orthorhombic'
loop_
_space_group_symop_operation_xyz
x,y,z
-x,-y,z
-x,y,z
x,-y,z
1/2+x,1/2+y,z
1/2-x,1/2-y,z
1/2-x,1/2+y,z
1/2+x,1/2-y,z
loop_
_atom_site_type_symbol
_atom_site_label
_atom_site_fract_x
_atom_site_fract_y
_atom_site_fract_z
Si Si1 0.180562 0.923140 0.824870
Si Si2 0.175552 0.175669 0.402477
Si Si3 0.819304 0.673547 0.100574
Si Si4 0.323393 0.324324 0.241542
Si Si5 0.331467 0.581993 0.665807
Si Si6 0.318813 0.674589 0.954094
Si Si7 0.175612 0.419642 0.520842
O O1 0.233478 0.894757 0.745149
O O2 0.239333 0.871899 0.887198
O O3 0.000000 0.926518 0.824849
O O4 0.246064 0.000000 0.839818
O O5 0.250000 0.250000 0.413384
O O6 0.202322 0.142457 0.321512
O O7 0.236219 0.120399 0.458838
O O8 0.000000 0.187648 0.416886
O O9 0.750000 0.750000 0.104163
O O10 0.761975 0.635028 0.175032
O O11 0.000000 0.674140 0.096249
O O12 0.748945 0.639300 0.027728
O O13 0.500000 0.318380 0.221689
O O14 0.250000 0.250000 0.248233
O O15 0.500000 0.612403 0.652467
O O16 0.339544 0.500000 0.667122
O O17 0.223781 0.608253 0.600753
O O18 0.500000 0.678828 0.959436
O O19 0.250000 0.750000 0.942373
O O20 0.216545 0.500000 0.513106
O O21 0.000000 0.405089 0.510539
#
# Coordination Sequence:
#
# PCOD8172179 Si02
#       7
#     8   8   8   8   8   8   8
#     4   8  15  29  50  72  90 116 157 199 235 273
#     4  10  20  33  51  74 100 128 159 198 243 289
#     4  10  17  26  42  64  91 122 156 190 226 271
#     4   9  16  27  44  67  92 119 154 193 232 274
#     4   8  14  28  50  71  90 117 158 201 236 276
#     4  10  18  29  46  68  96 123 151 190 233 278
#     4  10  20  33  50  73 100 129 162 199 239 284
#
# _framework density 17.885952
#
# number of rings (size 3 to 8) (size 9 to 14) (size 15 to 20)
#    0.000    2.714    0.000    5.571    0.000    2.571 
#    0.000    2.143    0.000    6.000    0.000    2.000 
#    0.000    0.000    0.000    0.000    0.000    0.000 
#
# Total GULP energy -346935.213881 kJ/mol
# GULP energy per Si atom -12390.543353 kJ/mol
# Density = 1.784524 g / cm^3
# Si number density = 17.885952 Si / 1000 Ang^3
#
#
#
# Elastic Constant Matrix: (Units=GPa)
#
#
# Indices 1 2 3 4 5 6 
#
# 1 103.8498 29.2262 70.3398 0.0000 0.0000 0.0000
# 2 29.2262 39.9092 51.8173 0.0000 0.0000 0.0000
# 3 70.3398 51.8173 193.6368 0.0000 0.0000 0.0000
# 4 0.0000 0.0000 0.0000 -5.7991 0.0000 0.0000
# 5 0.0000 0.0000 0.0000 0.0000 27.1844 0.0000
# 6 0.0000 0.0000 0.0000 0.0000 0.0000 17.2345
#
#
#
# Elastic Compliance Matrix: (Units=1/GPa)
#
#
# Indices 1 2 3 4 5 6 
#
# 1 0.013488 -0.005388 -0.003458 0.000000 0.000000 0.000000
# 2 -0.005388 0.040551 -0.008894 0.000000 0.000000 0.000000
# 3 -0.003458 -0.008894 0.008800 0.000000 0.000000 0.000000
# 4 0.000000 0.000000 0.000000 -0.172441 0.000000 0.000000
# 5 0.000000 0.000000 0.000000 0.000000 0.036786 0.000000
# 6 0.000000 0.000000 0.000000 0.000000 0.000000 0.058023
#
#
# Mechanical properties :
#
#
# Convention : Reuss Voigt Hill
#
# Bulk Modulus (GPa) = 36.55078 71.12916 53.83997
# Shear Modulus (GPa) = 167.75321 20.12479 93.93900
#
# Velocity S-wave (km/s) = 9.69506 3.35800 7.25501
# Velocity P-wave (km/s) = 12.07499 7.40874 10.01735
#
# Compressibility (1/GPa) = 0.02735920
#
# Stress axis : x y z
#
# Youngs Moduli (GPa) = 74.14265 24.66059 113.63100
#
# Poissons Ratio (x) = 0.13287 0.39290
# Poissons Ratio (y) = 0.39946 1.01066
# Poissons Ratio (z) = 0.25636 0.21934
#
# Static dielectric constant tensor:
#      x y z
#    x 3.292380 0.000000 0.000000 
#    y 0.000000 2.878160 0.000000 
#    z 0.000000 0.000000 4.450570 
# 
# 
# High freq. dielectric constant tensor:
#      x y z
#    x 1.692290 0.000000 0.000000 
#    y 0.000000 1.627580 0.000000 
#    z 0.000000 0.000000 1.723140 
# 
# From -- ./inp_files/18204.got.cif
#   From: 2010.03.12/outbox.cif.g09.slc.cpg/sg35_10_cif.got.tgz:18204.got - 2010.04.14 02:02:04.
