data_PCOD8172636
_publ_section_title
;
Structure prediction by ZEFSAII (Michael W. Deem and Ramdas Pophale) SiO2 
 PCOD8172636
Probable space group: C M M 2
;
_chemical_formula_sum "Si O2"
_cell_formula_units_Z 64
_cell_length_a 28.712396
_cell_length_b 8.724171
_cell_length_c 15.754449
_cell_angle_alpha 90.000000
_cell_angle_beta 90.000000
_cell_angle_gamma 90.000000
_cell_volume 3946.361116
_symmetry_space_group_name_H-M "C M M 2"
_symmetry_group_IT_number 35
_symmetry_cell_setting 'orthorhombic'
loop_
_space_group_symop_operation_xyz
x,y,z
-x,-y,z
-x,y,z
x,-y,z
1/2+x,1/2+y,z
1/2-x,1/2-y,z
1/2-x,1/2+y,z
1/2+x,1/2-y,z
loop_
_atom_site_type_symbol
_atom_site_label
_atom_site_fract_x
_atom_site_fract_y
_atom_site_fract_z
Si Si1 0.947368 0.821618 0.081470
Si Si2 0.449497 0.682169 0.887711
Si Si3 0.301106 0.681422 0.655491
Si Si4 0.645578 0.317510 0.817604
Si Si5 0.198405 0.181494 0.288404
Si Si6 0.857467 0.320206 0.136544
Si Si7 0.700296 0.322243 0.472826
Si Si8 0.800565 0.818646 0.983423
O O1 0.912175 0.722096 0.138402
O O2 0.000000 0.791785 0.113545
O O3 0.934392 0.000000 0.090000
O O4 0.941994 0.765871 0.984498
O O5 0.500000 0.743384 0.854577
O O6 0.449843 0.500000 0.885366
O O7 0.407027 0.747175 0.830806
O O8 0.296765 0.500000 0.665963
O O9 0.250000 0.750000 0.667198
O O10 0.334788 0.747992 0.728774
O O11 0.323655 0.727230 0.562756
O O12 0.644112 0.500000 0.817360
O O13 0.678611 0.260372 0.893990
O O14 0.250000 0.250000 0.278705
O O15 0.164287 0.263627 0.224020
O O16 0.176111 0.218039 0.382616
O O17 0.200668 0.000000 0.270736
O O18 0.849888 0.500000 0.127131
O O19 0.833982 0.234532 0.058215
O O20 0.709233 0.500000 0.477086
O O21 0.750000 0.250000 0.470694
O O22 0.750000 0.750000 0.997706
O O23 0.796964 0.000000 0.986097
#
# Coordination Sequence:
#
# PCOD8172636 Si02
#       8
#     8   8   8   8   8   8   8   8
#     4   9  17  32  53  71  89 117 153 191 231 274
#     4   8  13  24  44  67  87 111 147 186 222 261
#     4   9  16  27  43  65  91 118 148 183 223 266
#     4   9  16  26  43  65  90 119 150 185 222 265
#     4  10  19  32  48  66  90 120 155 193 233 279
#     4  12  23  33  46  67  93 122 154 191 230 270
#     4   8  15  27  44  64  86 114 147 186 230 269
#     4  11  21  33  45  61  90 126 161 189 221 267
#
# _framework density 16.217472000000001
#
# number of rings (size 3 to 8) (size 9 to 14) (size 15 to 20)
#    0.000    2.500    1.250    3.375    0.000    0.750 
#    0.000    0.625    0.000    0.000    0.000    0.875 
#    0.000    5.000    0.000    0.000    0.000    0.000 
#
# Total GULP energy -396464.308548 kJ/mol
# GULP energy per Si atom -12389.509642 kJ/mol
# Density = 1.618056 g / cm^3
# Si number density = 16.217472 Si / 1000 Ang^3
#
#
#
# Elastic Constant Matrix: (Units=GPa)
#
#
# Indices 1 2 3 4 5 6 
#
# 1 102.6062 22.7823 53.3794 0.0000 0.0000 0.0000
# 2 22.7823 36.7305 25.6292 0.0000 0.0000 0.0000
# 3 53.3794 25.6292 122.8232 0.0000 0.0000 0.0000
# 4 0.0000 0.0000 0.0000 9.5673 0.0000 0.0000
# 5 0.0000 0.0000 0.0000 0.0000 11.7930 0.0000
# 6 0.0000 0.0000 0.0000 0.0000 0.0000 19.1550
#
#
#
# Elastic Compliance Matrix: (Units=1/GPa)
#
#
# Indices 1 2 3 4 5 6 
#
# 1 0.013318 -0.004941 -0.004757 0.000000 0.000000 0.000000
# 2 -0.004941 0.033698 -0.004884 0.000000 0.000000 0.000000
# 3 -0.004757 -0.004884 0.011228 0.000000 0.000000 0.000000
# 4 0.000000 0.000000 0.000000 0.104523 0.000000 0.000000
# 5 0.000000 0.000000 0.000000 0.000000 0.084796 0.000000
# 6 0.000000 0.000000 0.000000 0.000000 0.000000 0.052206
#
#
# Mechanical properties :
#
#
# Convention : Reuss Voigt Hill
#
# Bulk Modulus (GPa) = 34.38837 51.74908 43.06873
# Shear Modulus (GPa) = 14.76550 18.79431 16.77991
#
# Velocity S-wave (km/s) = 3.02067 3.40794 3.22014
# Velocity P-wave (km/s) = 5.78070 6.88943 6.35927
#
# Compressibility (1/GPa) = 0.02907960
#
# Stress axis : x y z
#
# Youngs Moduli (GPa) = 75.08715 29.67514 89.06032
#
# Poissons Ratio (x) = 0.14663 0.42365
# Poissons Ratio (y) = 0.37103 0.43499
# Poissons Ratio (z) = 0.35718 0.14494
#
# Static dielectric constant tensor:
#      x y z
#    x 3.186520 0.000000 0.000000 
#    y 0.000000 3.241090 0.000000 
#    z 0.000000 0.000000 3.567650 
# 
# 
# High freq. dielectric constant tensor:
#      x y z
#    x 1.605190 0.000000 0.000000 
#    y 0.000000 1.607980 0.000000 
#    z 0.000000 0.000000 1.620970 
# 
# From -- ./inp_files/16254.got.cif
#   From: 2010.03.12/outbox.cif.g09.slc.cpg/sg35_9_cif.got.tgz:16254.got - 2010.04.14 02:02:04.
