data_PCOD8172327
_publ_section_title
;
Structure prediction by ZEFSAII (Michael W. Deem and Ramdas Pophale) SiO2 
 PCOD8172327
Probable space group: C M M 2
;
_chemical_formula_sum "Si O2"
_cell_formula_units_Z 48
_cell_length_a 8.631617
_cell_length_b 19.220001
_cell_length_c 15.635207
_cell_angle_alpha 90.000000
_cell_angle_beta 90.000000
_cell_angle_gamma 90.000000
_cell_volume 2593.875953
_symmetry_space_group_name_H-M "C M M 2"
_symmetry_group_IT_number 35
_symmetry_cell_setting 'orthorhombic'
loop_
_space_group_symop_operation_xyz
x,y,z
-x,-y,z
-x,y,z
x,-y,z
1/2+x,1/2+y,z
1/2-x,1/2-y,z
1/2-x,1/2+y,z
1/2+x,1/2-y,z
loop_
_atom_site_type_symbol
_atom_site_label
_atom_site_fract_x
_atom_site_fract_y
_atom_site_fract_z
Si Si1 0.816335 0.672788 0.060720
Si Si2 0.815455 0.922452 0.386800
Si Si3 0.677672 0.918503 0.745710
Si Si4 0.181349 0.825950 0.888075
Si Si5 0.828139 0.917476 0.573062
Si Si6 0.315928 0.326872 0.234045
O O1 0.750000 0.750000 0.057438
O O2 0.746603 0.637393 0.146241
O O3 0.000000 0.671900 0.065520
O O4 0.758056 0.637919 0.972420
O O5 0.763500 0.892738 0.480176
O O6 0.751734 0.872268 0.312815
O O7 0.000000 0.925204 0.384834
O O8 0.748378 0.000000 0.371043
O O9 0.500000 0.901199 0.765912
O O10 0.787252 0.876685 0.809325
O O11 0.714579 0.893545 0.648991
O O12 0.713954 0.000000 0.756359
O O13 0.250000 0.750000 0.868221
O O14 0.000000 0.817918 0.903465
O O15 0.000000 0.886761 0.590571
O O16 0.839150 0.000000 0.568632
O O17 0.500000 0.324095 0.231218
O O18 0.250000 0.250000 0.245088
#
# Coordination Sequence:
#
# PCOD8172327 Si02
#       6
#     8   8   8   8   8   8
#     4  10  18  31  50  71  97 129 165 201 241 292
#     4   8  15  29  50  73  95 124 165 208 244 282
#     4  10  20  34  52  76 105 134 166 206 250 295
#     4  11  21  35  55  77 101 130 167 207 250 299
#     4   8  14  28  50  72  94 126 168 206 242 290
#     4  10  18  30  49  72  98 127 161 201 244 291
#
# _framework density 18.505125
#
# number of rings (size 3 to 8) (size 9 to 14) (size 15 to 20)
#    0.000    2.500    0.000    7.000    0.000    1.000 
#    0.000    3.333    0.000    9.000    0.000    0.000 
#    0.000    0.000    0.000    0.000    0.000    0.000 
#
# Total GULP energy -297470.055214 kJ/mol
# GULP energy per Si atom -12394.585634 kJ/mol
# Density = 1.846301 g / cm^3
# Si number density = 18.505125 Si / 1000 Ang^3
#
#
#
# Elastic Constant Matrix: (Units=GPa)
#
#
# Indices 1 2 3 4 5 6 
#
# 1 94.9063 21.4231 39.4998 0.0000 0.0000 0.0000
# 2 21.4231 46.5268 49.5613 0.0000 0.0000 0.0000
# 3 39.4998 49.5613 171.1661 0.0000 0.0000 0.0000
# 4 0.0000 0.0000 0.0000 30.7434 0.0000 0.0000
# 5 0.0000 0.0000 0.0000 0.0000 29.3256 0.0000
# 6 0.0000 0.0000 0.0000 0.0000 0.0000 18.1656
#
#
#
# Elastic Compliance Matrix: (Units=1/GPa)
#
#
# Indices 1 2 3 4 5 6 
#
# 1 0.012093 -0.003753 -0.001704 0.000000 0.000000 0.000000
# 2 -0.003753 0.032244 -0.008470 0.000000 0.000000 0.000000
# 3 -0.001704 -0.008470 0.008688 0.000000 0.000000 0.000000
# 4 0.000000 0.000000 0.000000 0.032527 0.000000 0.000000
# 5 0.000000 0.000000 0.000000 0.000000 0.034100 0.000000
# 6 0.000000 0.000000 0.000000 0.000000 0.000000 0.055049
#
#
# Mechanical properties :
#
#
# Convention : Reuss Voigt Hill
#
# Bulk Modulus (GPa) = 39.72921 59.28528 49.50725
# Shear Modulus (GPa) = 23.70282 29.12125 26.41203
#
# Velocity S-wave (km/s) = 3.58282 3.97127 3.78204
# Velocity P-wave (km/s) = 6.21541 7.28936 6.77371
#
# Compressibility (1/GPa) = 0.02517040
#
# Stress axis : x y z
#
# Youngs Moduli (GPa) = 82.69182 31.01391 115.10108
#
# Poissons Ratio (x) = 0.11640 0.19613
# Poissons Ratio (y) = 0.31035 0.97491
# Poissons Ratio (z) = 0.14091 0.26269
#
# Static dielectric constant tensor:
#      x y z
#    x 3.293680 0.000000 0.000000 
#    y 0.000000 3.076790 0.000000 
#    z 0.000000 0.000000 4.234980 
# 
# 
# High freq. dielectric constant tensor:
#      x y z
#    x 1.713150 0.000000 0.000000 
#    y 0.000000 1.667380 0.000000 
#    z 0.000000 0.000000 1.743790 
# 
# From -- ./inp_files/15395.got.cif
#   From: 2010.03.12/outbox.cif.g09.slc.cpg/sg35_8_cif.got.tgz:15395.got - 2010.04.14 02:02:04.
