data_PCOD8172055
_publ_section_title
;
Structure prediction by ZEFSAII (Michael W. Deem and Ramdas Pophale) SiO2 
 PCOD8172055
Probable space group: P N N 2
;
_chemical_formula_sum "Si O2"
_cell_formula_units_Z 30
_cell_length_a 18.507068
_cell_length_b 11.584504
_cell_length_c 6.759872
_cell_angle_alpha 90.000000
_cell_angle_beta 90.000000
_cell_angle_gamma 90.000000
_cell_volume 1449.284132
_symmetry_space_group_name_H-M "P N N 2"
_symmetry_group_IT_number 34
_symmetry_cell_setting 'orthorhombic'
loop_
_space_group_symop_operation_xyz
x,y,z
-x,-y,z
1/2-x,1/2+y,1/2+z
1/2+x,1/2-y,1/2+z
loop_
_atom_site_type_symbol
_atom_site_label
_atom_site_fract_x
_atom_site_fract_y
_atom_site_fract_z
Si Si1 0.939608 0.838834 0.662880
Si Si2 0.398657 0.405327 0.082499
Si Si3 0.000000 0.500000 0.819385
Si Si4 0.689513 0.753735 0.345945
Si Si5 0.347139 0.823418 0.897084
Si Si6 0.632042 0.934748 0.053780
Si Si7 0.450156 0.780656 0.553740
Si Si8 0.903706 0.247160 0.237270
O O1 0.905573 0.734290 0.541277
O O2 0.025736 0.842688 0.634286
O O3 0.902315 0.957455 0.596291
O O4 0.924212 0.813924 0.893625
O O5 0.338400 0.361358 0.235790
O O6 0.377119 0.366229 0.859587
O O7 0.066737 0.519298 0.680036
O O8 0.012344 0.390215 0.955513
O O9 0.772924 0.746230 0.402990
O O10 0.684037 0.863055 0.199146
O O11 0.644060 0.769771 0.544901
O O12 0.380417 0.820430 0.677171
O O13 0.328226 0.953629 0.963200
O O14 0.602635 0.859111 0.874022
O O15 0.512253 0.723176 0.688267
#
# Coordination Sequence:
#
# PCOD8172055 Si02
#       8
#     4   4   2   4   4   4   4   4
#     4  11  23  43  66  97 133 175 229 279 324 401
#     4  10  23  44  66  93 135 177 229 277 321 404
#     4  12  20  42  74 100 136 164 230 296 328 400
#     4  11  26  45  66  99 138 181 218 276 348 405
#     4  12  27  42  66 105 138 171 226 282 344 404
#     4  11  24  43  69 102 136 171 227 287 338 401
#     4  12  22  40  70 101 127 176 225 277 344 398
#     4  11  21  43  71  95 128 179 225 268 343 399
#
# _framework density 20.699874000000001
#
# number of rings (size 3 to 8) (size 9 to 14) (size 15 to 20)
#    0.000    0.800    5.333    2.400    0.000    6.400 
#    0.000    0.000    0.000    0.000    0.000    0.000 
#    0.000    0.000    0.000    0.000    0.000    0.000 
#
# Total GULP energy -372097.151701 kJ/mol
# GULP energy per Si atom -12403.238390 kJ/mol
# Density = 2.065276 g / cm^3
# Si number density = 20.699874 Si / 1000 Ang^3
#
#
#
# Elastic Constant Matrix: (Units=GPa)
#
#
# Indices 1 2 3 4 5 6 
#
# 1 89.0418 49.9855 51.4339 0.0000 0.0000 0.0000
# 2 49.9855 232.0332 142.2252 0.0000 0.0000 0.0000
# 3 51.4339 142.2252 206.1691 0.0000 0.0000 0.0000
# 4 0.0000 0.0000 0.0000 31.3330 0.0000 0.0000
# 5 0.0000 0.0000 0.0000 0.0000 22.2194 0.0000
# 6 0.0000 0.0000 0.0000 0.0000 0.0000 29.4084
#
#
#
# Elastic Compliance Matrix: (Units=1/GPa)
#
#
# Indices 1 2 3 4 5 6 
#
# 1 0.013398 -0.001451 -0.002341 0.000000 0.000000 0.000000
# 2 -0.001451 0.007624 -0.004898 0.000000 0.000000 0.000000
# 3 -0.002341 -0.004898 0.008813 0.000000 0.000000 0.000000
# 4 0.000000 0.000000 0.000000 0.031915 0.000000 0.000000
# 5 0.000000 0.000000 0.000000 0.000000 0.045006 0.000000
# 6 0.000000 0.000000 0.000000 0.000000 0.000000 0.034004
#
#
# Mechanical properties :
#
#
# Convention : Reuss Voigt Hill
#
# Bulk Modulus (GPa) = 80.28862 112.72593 96.50727
# Shear Modulus (GPa) = 30.80868 35.49878 33.15373
#
# Velocity S-wave (km/s) = 3.86210 4.14566 4.00639
# Velocity P-wave (km/s) = 7.66544 8.80289 8.25378
#
# Compressibility (1/GPa) = 0.01245507
#
# Stress axis : x y z
#
# Youngs Moduli (GPa) = 74.63951 131.15916 113.46710
#
# Poissons Ratio (x) = 0.19031 0.26567
# Poissons Ratio (y) = 0.10830 0.55572
# Poissons Ratio (z) = 0.17476 0.64237
#
# Static dielectric constant tensor:
#      x y z
#    x 3.530150 0.000000 0.000000 
#    y 0.000000 3.824190 0.000000 
#    z 0.000000 0.000000 4.041100 
# 
# 
# High freq. dielectric constant tensor:
#      x y z
#    x 1.793320 0.000000 0.000000 
#    y 0.000000 1.813300 0.000000 
#    z 0.000000 0.000000 1.829500 
# 
# From -- ./inp_files/1609.got.cif
#   From: 2010.03.12/outbox.cif.g09.slc.cpg/sg34_1_cif.got.tgz:1609.got - 2010.04.14 01:56:33.
