data_PCOD8172591
_publ_section_title
;
Structure prediction by ZEFSAII (Michael W. Deem and Ramdas Pophale) SiO2 
 PCOD8172591
Probable space group: C M M 2
;
_chemical_formula_sum "Si O2"
_cell_formula_units_Z 48
_cell_length_a 15.596441
_cell_length_b 9.066014
_cell_length_c 17.197210
_cell_angle_alpha 90.000000
_cell_angle_beta 90.000000
_cell_angle_gamma 90.000000
_cell_volume 2431.643403
_symmetry_space_group_name_H-M "C M M 2"
_symmetry_group_IT_number 35
_symmetry_cell_setting 'orthorhombic'
loop_
_space_group_symop_operation_xyz
x,y,z
-x,-y,z
-x,y,z
x,-y,z
1/2+x,1/2+y,z
1/2-x,1/2-y,z
1/2-x,1/2+y,z
1/2+x,1/2-y,z
loop_
_atom_site_type_symbol
_atom_site_label
_atom_site_fract_x
_atom_site_fract_y
_atom_site_fract_z
Si Si1 0.595956 0.163782 0.954460
Si Si2 0.000000 0.824738 0.712243
Si Si3 0.159171 0.828196 0.096700
Si Si4 0.161986 0.830482 0.263482
Si Si5 0.842014 0.825940 0.433067
Si Si6 0.500000 0.673069 0.531677
Si Si7 0.662651 0.824731 0.790703
O O1 0.500000 0.168004 0.920673
O O2 0.656532 0.209419 0.882854
O O3 0.620052 0.000000 0.983709
O O4 0.599699 0.272882 0.027275
O O5 0.084568 0.751883 0.746874
O O6 0.000000 0.786654 0.621387
O O7 0.000000 0.000000 0.728088
O O8 0.250000 0.750000 0.089311
O O9 0.113017 0.795857 0.181472
O O10 0.174267 0.000000 0.084962
O O11 0.250000 0.750000 0.256620
O O12 0.118884 0.788679 0.346217
O O13 0.185603 0.000000 0.265988
O O14 0.750000 0.750000 0.447508
O O15 0.913052 0.762245 0.492557
O O16 0.827910 0.000000 0.444357
O O17 0.500000 0.500000 0.515589
O O18 0.750000 0.750000 0.759812
O O19 0.662347 0.000000 0.774162
#
# Coordination Sequence:
#
# PCOD8172591 Si02
#       7
#     8   4   8   8   8   4   8
#     4  10  21  38  56  77 110 149 188 234 285 335
#     4  11  23  41  63  90 121 152 190 239 291 351
#     4  10  19  31  49  78 109 144 189 234 277 328
#     4   8  15  28  48  74 104 142 185 228 273 320
#     4   9  17  34  57  81 111 150 188 230 278 331
#     4   9  20  37  59  86 115 146 184 227 283 343
#     4  11  23  42  65  90 117 153 195 238 290 350
#
# _framework density 19.739736000000001
#
# number of rings (size 3 to 8) (size 9 to 14) (size 15 to 20)
#    0.000    2.333    0.833    1.750    0.000    4.333 
#    1.500    3.750    0.000    0.000    0.000    0.000 
#    0.000    0.000    0.000    0.000    0.000    0.000 
#
# Total GULP energy -297321.075790 kJ/mol
# GULP energy per Si atom -12388.378158 kJ/mol
# Density = 1.969481 g / cm^3
# Si number density = 19.739736 Si / 1000 Ang^3
#
#
#
# Elastic Constant Matrix: (Units=GPa)
#
#
# Indices 1 2 3 4 5 6 
#
# 1 118.5943 46.2665 65.4440 0.0000 0.0000 0.0000
# 2 46.2665 79.7282 62.9395 0.0000 0.0000 0.0000
# 3 65.4440 62.9395 139.2090 0.0000 0.0000 0.0000
# 4 0.0000 0.0000 0.0000 27.9758 0.0000 0.0000
# 5 0.0000 0.0000 0.0000 0.0000 15.0834 0.0000
# 6 0.0000 0.0000 0.0000 0.0000 0.0000 28.6533
#
#
#
# Elastic Compliance Matrix: (Units=1/GPa)
#
#
# Indices 1 2 3 4 5 6 
#
# 1 0.012135 -0.003947 -0.003920 0.000000 0.000000 0.000000
# 2 -0.003947 0.020788 -0.007543 0.000000 0.000000 0.000000
# 3 -0.003920 -0.007543 0.012437 0.000000 0.000000 0.000000
# 4 0.000000 0.000000 0.000000 0.035745 0.000000 0.000000
# 5 0.000000 0.000000 0.000000 0.000000 0.066298 0.000000
# 6 0.000000 0.000000 0.000000 0.000000 0.000000 0.034900
#
#
# Mechanical properties :
#
#
# Convention : Reuss Voigt Hill
#
# Bulk Modulus (GPa) = 68.78172 76.31460 72.54816
# Shear Modulus (GPa) = 22.93884 25.20126 24.07005
#
# Velocity S-wave (km/s) = 3.41260 3.57694 3.49574
# Velocity P-wave (km/s) = 7.10266 7.47018 7.28874
#
# Compressibility (1/GPa) = 0.01453875
#
# Stress axis : x y z
#
# Youngs Moduli (GPa) = 82.40319 48.10491 80.40683
#
# Poissons Ratio (x) = 0.18989 0.31522
# Poissons Ratio (y) = 0.32528 0.60650
# Poissons Ratio (z) = 0.32305 0.36285
#
# Static dielectric constant tensor:
#      x y z
#    x 3.398740 0.000000 0.000000 
#    y 0.000000 3.445480 0.000000 
#    z 0.000000 0.000000 4.053570 
# 
# 
# High freq. dielectric constant tensor:
#      x y z
#    x 1.752430 0.000000 0.000000 
#    y 0.000000 1.762100 0.000000 
#    z 0.000000 0.000000 1.782430 
# 
# From -- ./inp_files/17872.got.cif
#   From: 2010.03.12/outbox.cif.g09.slc.cpg/sg35_9_cif.got.tgz:17872.got - 2010.04.14 02:02:04.
