data_PCOD8172453
_publ_section_title
;
Structure prediction by ZEFSAII (Michael W. Deem and Ramdas Pophale) SiO2 
 PCOD8172453
Probable space group: C M M 2
;
_chemical_formula_sum "Si O2"
_cell_formula_units_Z 64
_cell_length_a 22.233606
_cell_length_b 18.022138
_cell_length_c 8.291852
_cell_angle_alpha 90.000000
_cell_angle_beta 90.000000
_cell_angle_gamma 90.000000
_cell_volume 3322.521179
_symmetry_space_group_name_H-M "C M M 2"
_symmetry_group_IT_number 35
_symmetry_cell_setting 'orthorhombic'
loop_
_space_group_symop_operation_xyz
x,y,z
-x,-y,z
-x,y,z
x,-y,z
1/2+x,1/2+y,z
1/2-x,1/2-y,z
1/2-x,1/2+y,z
1/2+x,1/2-y,z
loop_
_atom_site_type_symbol
_atom_site_label
_atom_site_fract_x
_atom_site_fract_y
_atom_site_fract_z
Si Si1 0.814181 0.082573 0.932800
Si Si2 0.190046 0.222737 0.760936
Si Si3 0.931183 0.587125 0.685138
Si Si4 0.726904 0.833907 0.161165
Si Si5 0.565780 0.267290 0.262814
Si Si6 0.567266 0.581150 0.112221
Si Si7 0.658534 0.181439 0.471091
Si Si8 0.609790 0.814613 0.966444
O O1 0.805501 0.133000 0.771521
O O2 0.790616 0.000000 0.893440
O O3 0.779623 0.113642 0.091953
O O4 0.885091 0.083181 0.967792
O O5 0.250000 0.250000 0.857991
O O6 0.194422 0.263243 0.589114
O O7 0.129337 0.247471 0.849356
O O8 0.919238 0.500000 0.698572
O O9 0.881596 0.619537 0.561489
O O10 0.923034 0.621807 0.863305
O O11 0.000000 0.602680 0.626471
O O12 0.750000 0.750000 0.166205
O O13 0.705783 0.855541 0.344927
O O14 0.668944 0.848013 0.049572
O O15 0.500000 0.258495 0.340911
O O16 0.581309 0.353933 0.239096
O O17 0.614828 0.237150 0.381289
O O18 0.565085 0.221241 0.095665
O O19 0.500000 0.593165 0.040054
O O20 0.571515 0.500000 0.198385
#
# Coordination Sequence:
#
# PCOD8172453 Si02
#       8
#     8   8   8   8   8   8   8   8
#     4  11  20  33  57  85 116 146 186 240 288 339
#     4  11  19  37  53  80 113 149 186 227 288 344
#     4  10  22  40  57  80 119 160 196 243 303 352
#     4  11  19  37  59  84 114 147 192 245 294 339
#     4  10  18  33  56  84 109 141 196 241 275 333
#     4   9  18  32  52  80 112 144 179 229 285 328
#     4  10  23  35  59  81 113 155 193 238 283 358
#     4  10  18  33  59  81 106 145 193 242 282 342
#
# _framework density 19.262478999999999
#
# number of rings (size 3 to 8) (size 9 to 14) (size 15 to 20)
#    0.000    1.750    3.750    1.875    0.000    1.000 
#    0.000    3.125    0.000    9.000    0.000    0.000 
#    0.000    0.000    0.000    0.000    0.000    0.000 
#
# Total GULP energy -396481.831165 kJ/mol
# GULP energy per Si atom -12390.057224 kJ/mol
# Density = 1.921864 g / cm^3
# Si number density = 19.262479 Si / 1000 Ang^3
#
#
#
# Elastic Constant Matrix: (Units=GPa)
#
#
# Indices 1 2 3 4 5 6 
#
# 1 77.2710 39.5980 16.4549 0.0000 0.0000 0.0000
# 2 39.5980 147.0503 39.5374 0.0000 0.0000 0.0000
# 3 16.4549 39.5374 68.2887 0.0000 0.0000 0.0000
# 4 0.0000 0.0000 0.0000 19.8021 0.0000 0.0000
# 5 0.0000 0.0000 0.0000 0.0000 19.7184 0.0000
# 6 0.0000 0.0000 0.0000 0.0000 0.0000 25.5663
#
#
#
# Elastic Compliance Matrix: (Units=1/GPa)
#
#
# Indices 1 2 3 4 5 6 
#
# 1 0.015146 -0.003668 -0.001526 0.000000 0.000000 0.000000
# 2 -0.003668 0.008943 -0.004294 0.000000 0.000000 0.000000
# 3 -0.001526 -0.004294 0.017497 0.000000 0.000000 0.000000
# 4 0.000000 0.000000 0.000000 0.050500 0.000000 0.000000
# 5 0.000000 0.000000 0.000000 0.000000 0.050714 0.000000
# 6 0.000000 0.000000 0.000000 0.000000 0.000000 0.039114
#
#
# Mechanical properties :
#
#
# Convention : Reuss Voigt Hill
#
# Bulk Modulus (GPa) = 44.22696 53.75451 48.99073
# Shear Modulus (GPa) = 23.98929 26.15201 25.07065
#
# Velocity S-wave (km/s) = 3.53284 3.68865 3.61158
# Velocity P-wave (km/s) = 6.29692 6.79032 6.54827
#
# Compressibility (1/GPa) = 0.02261064
#
# Stress axis : x y z
#
# Youngs Moduli (GPa) = 66.02293 111.82371 57.15180
#
# Poissons Ratio (x) = 0.41021 0.08720
# Poissons Ratio (y) = 0.24220 0.24539
# Poissons Ratio (z) = 0.10073 0.48013
#
# Static dielectric constant tensor:
#      x y z
#    x 3.802470 0.000000 0.000000 
#    y 0.000000 3.552050 0.000000 
#    z 0.000000 0.000000 3.513600 
# 
# 
# High freq. dielectric constant tensor:
#      x y z
#    x 1.769260 0.000000 0.000000 
#    y 0.000000 1.742870 0.000000 
#    z 0.000000 0.000000 1.720900 
# 
# From -- ./inp_files/9445.got.cif
#   From: 2010.03.12/outbox.cif.g09.slc.cpg/sg35_5_cif.got.tgz:9445.got - 2010.04.14 02:02:04.
