data_PCOD8172910
_publ_section_title
;
Structure prediction by ZEFSAII (Michael W. Deem and Ramdas Pophale) SiO2 
 PCOD8172910
Probable space group: C M M 2
;
_chemical_formula_sum "Si O2"
_cell_formula_units_Z 64
_cell_length_a 28.605419
_cell_length_b 9.516912
_cell_length_c 11.855515
_cell_angle_alpha 90.000000
_cell_angle_beta 90.000000
_cell_angle_gamma 90.000000
_cell_volume 3227.489153
_symmetry_space_group_name_H-M "C M M 2"
_symmetry_group_IT_number 35
_symmetry_cell_setting 'orthorhombic'
loop_
_space_group_symop_operation_xyz
x,y,z
-x,-y,z
-x,y,z
x,-y,z
1/2+x,1/2+y,z
1/2-x,1/2-y,z
1/2-x,1/2+y,z
1/2+x,1/2-y,z
loop_
_atom_site_type_symbol
_atom_site_label
_atom_site_fract_x
_atom_site_fract_y
_atom_site_fract_z
Si Si1 0.795936 0.160415 0.153900
Si Si2 0.051935 0.240933 0.351947
Si Si3 0.151528 0.845118 0.378208
Si Si4 0.050117 0.339964 0.596794
Si Si5 0.626427 0.336475 0.973180
Si Si6 0.053273 0.656407 0.105278
Si Si7 0.133212 0.662659 0.747956
Si Si8 0.202476 0.663347 0.555281
O O1 0.750000 0.250000 0.141231
O O2 0.825077 0.208054 0.262853
O O3 0.780465 0.000000 0.165536
O O4 0.826755 0.185136 0.043803
O O5 0.095693 0.135085 0.358533
O O6 0.057209 0.336907 0.462470
O O7 0.057839 0.333737 0.240238
O O8 0.000000 0.167009 0.350696
O O9 0.164178 0.729834 0.471520
O O10 0.170214 0.000000 0.412983
O O11 0.048778 0.500000 0.634095
O O12 0.092226 0.272101 0.668212
O O13 0.000000 0.268150 0.628626
O O14 0.615649 0.500000 0.951759
O O15 0.635472 0.258341 0.856828
O O16 0.582898 0.272509 0.040291
O O17 0.070008 0.500000 0.070576
O O18 0.000000 0.680656 0.067593
O O19 0.124351 0.500000 0.781011
O O20 0.182221 0.675394 0.681430
O O21 0.210705 0.500000 0.522792
O O22 0.250000 0.750000 0.544932
#
# Coordination Sequence:
#
# PCOD8172910 Si02
#       8
#     8   8   8   8   8   8   8   8
#     4  10  23  42  61  87 118 154 197 247 304 359
#     4  10  19  34  60  95 130 160 193 238 297 360
#     4  11  22  39  62  92 129 162 198 243 298 364
#     4   9  17  33  58  87 121 156 191 239 295 352
#     4  11  24  42  61  85 120 160 204 254 307 358
#     4  10  21  37  61  93 125 160 203 247 296 362
#     4  10  22  40  61  88 118 155 205 252 300 357
#     4  11  24  42  64  92 123 158 202 251 308 365
#
# _framework density 19.829656
#
# number of rings (size 3 to 8) (size 9 to 14) (size 15 to 20)
#    0.000    1.750    2.500    1.500    0.000    7.000 
#    0.000    5.000    0.000    0.000    0.000    0.000 
#    0.000    0.000    0.000    0.000    0.000    0.000 
#
# Total GULP energy -396627.557646 kJ/mol
# GULP energy per Si atom -12394.611176 kJ/mol
# Density = 1.978452 g / cm^3
# Si number density = 19.829656 Si / 1000 Ang^3
#
#
#
# Elastic Constant Matrix: (Units=GPa)
#
#
# Indices 1 2 3 4 5 6 
#
# 1 125.6798 62.5174 44.6830 0.0000 0.0000 0.0000
# 2 62.5174 114.9977 62.4488 0.0000 0.0000 0.0000
# 3 44.6830 62.4488 119.6392 0.0000 0.0000 0.0000
# 4 0.0000 0.0000 0.0000 27.8787 0.0000 0.0000
# 5 0.0000 0.0000 0.0000 0.0000 19.8859 0.0000
# 6 0.0000 0.0000 0.0000 0.0000 0.0000 27.5055
#
#
#
# Elastic Compliance Matrix: (Units=1/GPa)
#
#
# Indices 1 2 3 4 5 6 
#
# 1 0.011068 -0.005265 -0.001386 0.000000 0.000000 0.000000
# 2 -0.005265 0.014640 -0.005675 0.000000 0.000000 0.000000
# 3 -0.001386 -0.005675 0.011838 0.000000 0.000000 0.000000
# 4 0.000000 0.000000 0.000000 0.035870 0.000000 0.000000
# 5 0.000000 0.000000 0.000000 0.000000 0.050287 0.000000
# 6 0.000000 0.000000 0.000000 0.000000 0.000000 0.036356
#
#
# Mechanical properties :
#
#
# Convention : Reuss Voigt Hill
#
# Bulk Modulus (GPa) = 77.54982 77.73504 77.64243
# Shear Modulus (GPa) = 26.45371 27.76519 27.10945
#
# Velocity S-wave (km/s) = 3.65642 3.74596 3.70147
# Velocity P-wave (km/s) = 7.55108 7.61552 7.58337
#
# Compressibility (1/GPa) = 0.01289494
#
# Stress axis : x y z
#
# Youngs Moduli (GPa) = 90.34897 68.30657 84.47034
#
# Poissons Ratio (x) = 0.35961 0.11706
# Poissons Ratio (y) = 0.47565 0.47941
# Poissons Ratio (z) = 0.12520 0.38767
#
# Static dielectric constant tensor:
#      x y z
#    x 3.848270 0.000000 0.000000 
#    y 0.000000 3.412380 0.000000 
#    z 0.000000 0.000000 3.551890 
# 
# 
# High freq. dielectric constant tensor:
#      x y z
#    x 1.786970 0.000000 0.000000 
#    y 0.000000 1.756880 0.000000 
#    z 0.000000 0.000000 1.771110 
# 
# From -- ./inp_files/14557.got.cif
#   From: 2010.03.12/outbox.cif.g09.slc.cpg/sg35_8_cif.got.tgz:14557.got - 2010.04.14 02:02:04.
