data_PCOD8172567
_publ_section_title
;
Structure prediction by ZEFSAII (Michael W. Deem and Ramdas Pophale) SiO2 
 PCOD8172567
Probable space group: C M M 2
;
_chemical_formula_sum "Si O2"
_cell_formula_units_Z 64
_cell_length_a 8.721339
_cell_length_b 20.206943
_cell_length_c 20.151605
_cell_angle_alpha 90.000000
_cell_angle_beta 90.000000
_cell_angle_gamma 90.000000
_cell_volume 3551.349593
_symmetry_space_group_name_H-M "C M M 2"
_symmetry_group_IT_number 35
_symmetry_cell_setting 'orthorhombic'
loop_
_space_group_symop_operation_xyz
x,y,z
-x,-y,z
-x,y,z
x,-y,z
1/2+x,1/2+y,z
1/2-x,1/2-y,z
1/2-x,1/2+y,z
1/2+x,1/2-y,z
loop_
_atom_site_type_symbol
_atom_site_label
_atom_site_fract_x
_atom_site_fract_y
_atom_site_fract_z
Si Si1 0.316981 0.179729 0.019090
Si Si2 0.681621 0.074256 0.628957
Si Si3 0.179857 0.075195 0.767297
Si Si4 0.817762 0.820061 0.877209
Si Si5 0.817623 0.573685 0.272442
Si Si6 0.318604 0.180758 0.524805
Si Si7 0.681699 0.819140 0.374601
Si Si8 0.682089 0.073747 0.124526
O O1 0.500000 0.183303 0.016686
O O2 0.250000 0.250000 0.041722
O O3 0.253911 0.125844 0.071319
O O4 0.253287 0.159304 0.947472
O O5 0.500000 0.075223 0.629376
O O6 0.739674 0.099430 0.700065
O O7 0.745727 0.122569 0.571809
O O8 0.743081 0.000000 0.614726
O O9 0.233724 0.123407 0.825944
O O10 0.000000 0.080323 0.755897
O O11 0.228857 0.000000 0.785325
O O12 0.750000 0.750000 0.852952
O O13 0.000000 0.814118 0.883709
O O14 0.758335 0.500000 0.289931
O O15 0.749909 0.624352 0.326513
O O16 0.761655 0.593722 0.198483
O O17 0.000000 0.574774 0.275049
O O18 0.500000 0.185760 0.529412
O O19 0.250000 0.250000 0.549697
O O20 0.265139 0.165093 0.449712
O O21 0.500000 0.815319 0.369751
O O22 0.750000 0.750000 0.350020
O O23 0.500000 0.073987 0.122752
O O24 0.742211 0.000000 0.106704
#
# Coordination Sequence:
#
# PCOD8172567 Si02
#       8
#     8   8   8   8   8   8   8   8
#     4  10  19  31  48  69  94 122 152 188 228 271
#     4   9  18  32  49  69  93 120 151 190 231 268
#     4   9  19  35  52  70  93 121 152 186 226 273
#     4  10  20  34  51  70  94 122 152 188 227 269
#     4   8  14  26  45  68  92 119 154 193 229 267
#     4   9  18  31  46  67  95 123 153 189 228 271
#     4   9  17  29  46  68  93 122 154 189 229 271
#     4   8  15  28  45  67  94 121 152 191 230 268
#
# _framework density 18.021317
#
# number of rings (size 3 to 8) (size 9 to 14) (size 15 to 20)
#    0.000    3.000    0.000    2.250    0.000    3.500 
#    0.000    5.000    0.000    2.250    0.000    7.000 
#    0.000    0.000    0.000    0.000    0.000    0.000 
#
# Total GULP energy -396717.705500 kJ/mol
# GULP energy per Si atom -12397.428297 kJ/mol
# Density = 1.798030 g / cm^3
# Si number density = 18.021317 Si / 1000 Ang^3
#
#
#
# Elastic Constant Matrix: (Units=GPa)
#
#
# Indices 1 2 3 4 5 6 
#
# 1 27.1993 25.2367 24.7655 0.0000 0.0000 0.0000
# 2 25.2367 153.5803 119.2350 0.0000 0.0000 0.0000
# 3 24.7655 119.2350 143.4043 0.0000 0.0000 0.0000
# 4 0.0000 0.0000 0.0000 45.1668 0.0000 0.0000
# 5 0.0000 0.0000 0.0000 0.0000 18.2888 0.0000
# 6 0.0000 0.0000 0.0000 0.0000 0.0000 23.4380
#
#
#
# Elastic Compliance Matrix: (Units=1/GPa)
#
#
# Indices 1 2 3 4 5 6 
#
# 1 0.044393 -0.003788 -0.004517 0.000000 0.000000 0.000000
# 2 -0.003788 0.018692 -0.014887 0.000000 0.000000 0.000000
# 3 -0.004517 -0.014887 0.020132 0.000000 0.000000 0.000000
# 4 0.000000 0.000000 0.000000 0.022140 0.000000 0.000000
# 5 0.000000 0.000000 0.000000 0.000000 0.054678 0.000000
# 6 0.000000 0.000000 0.000000 0.000000 0.000000 0.042666
#
#
# Mechanical properties :
#
#
# Convention : Reuss Voigt Hill
#
# Bulk Modulus (GPa) = 27.15038 73.62872 50.38955
# Shear Modulus (GPa) = 19.13055 27.70851 23.41953
#
# Velocity S-wave (km/s) = 3.26168 3.92540 3.60883
# Velocity P-wave (km/s) = 5.41139 7.84157 6.73696
#
# Compressibility (1/GPa) = 0.03683190
#
# Stress axis : x y z
#
# Youngs Moduli (GPa) = 22.52603 53.49979 49.67325
#
# Poissons Ratio (x) = 0.20264 0.22438
# Poissons Ratio (y) = 0.08532 0.73950
# Poissons Ratio (z) = 0.10175 0.79646
#
# Static dielectric constant tensor:
#      x y z
#    x 3.023700 0.000000 0.000000 
#    y 0.000000 3.619610 0.000000 
#    z 0.000000 0.000000 3.550210 
# 
# 
# High freq. dielectric constant tensor:
#      x y z
#    x 1.670180 0.000000 0.000000 
#    y 0.000000 1.702970 0.000000 
#    z 0.000000 0.000000 1.701640 
# 
# From -- ./inp_files/18423.got.cif
#   From: 2010.03.12/outbox.cif.g09.slc.cpg/sg35_10_cif.got.tgz:18423.got - 2010.04.14 02:02:04.
