data_PCOD8172605
_publ_section_title
;
Structure prediction by ZEFSAII (Michael W. Deem and Ramdas Pophale) SiO2 
 PCOD8172605
Probable space group: C M M 2
;
_chemical_formula_sum "Si O2"
_cell_formula_units_Z 48
_cell_length_a 8.792558
_cell_length_b 15.563910
_cell_length_c 17.126630
_cell_angle_alpha 90.000000
_cell_angle_beta 90.000000
_cell_angle_gamma 90.000000
_cell_volume 2343.720766
_symmetry_space_group_name_H-M "C M M 2"
_symmetry_group_IT_number 35
_symmetry_cell_setting 'orthorhombic'
loop_
_space_group_symop_operation_xyz
x,y,z
-x,-y,z
-x,y,z
x,-y,z
1/2+x,1/2+y,z
1/2-x,1/2-y,z
1/2-x,1/2+y,z
1/2+x,1/2-y,z
loop_
_atom_site_type_symbol
_atom_site_label
_atom_site_fract_x
_atom_site_fract_y
_atom_site_fract_z
Si Si1 0.827744 0.597954 0.683540
Si Si2 0.321832 0.342638 0.192423
Si Si3 0.680136 0.000000 0.916530
Si Si4 0.319182 0.500000 0.085157
Si Si5 0.178637 0.843208 0.364940
Si Si6 0.821456 0.343246 0.515793
Si Si7 0.178907 0.838278 0.830208
O O1 0.816409 0.500000 0.711146
O O2 0.778636 0.603679 0.593250
O O3 0.716365 0.653254 0.738063
O O4 0.000000 0.632476 0.694625
O O5 0.500000 0.327686 0.187004
O O6 0.250000 0.250000 0.173625
O O7 0.267690 0.414653 0.131725
O O8 0.279853 0.379577 0.279078
O O9 0.746952 0.084552 0.877391
O O10 0.500000 0.000000 0.906663
O O11 0.725642 0.000000 0.006409
O O12 0.500000 0.500000 0.070224
O O13 0.250000 0.750000 0.369475
O O14 0.252605 0.892910 0.439199
O O15 0.000000 0.840189 0.377642
O O16 0.750000 0.250000 0.526387
O O17 0.000000 0.335465 0.504104
O O18 0.250000 0.750000 0.862640
O O19 0.000000 0.838251 0.844049
#
# Coordination Sequence:
#
# PCOD8172605 Si02
#       7
#     8   8   4   4   8   8   8
#     4  10  21  38  58  82 120 163 203 253 308 359
#     4   9  19  36  60  86 118 157 199 246 301 358
#     4  12  26  46  68  95 130 161 198 253 306 367
#     4  10  22  42  64  89 122 159 196 241 302 371
#     4   9  16  29  50  77 108 149 195 245 297 348
#     4  10  19  31  50  77 110 153 200 248 299 352
#     4  12  25  43  69  98 125 163 207 250 306 369
#
# _framework density 20.480257000000002
#
# number of rings (size 3 to 8) (size 9 to 14) (size 15 to 20)
#    0.000    1.833    0.833    4.750    0.000    4.667 
#    1.500    1.667    0.000    0.000    0.000    0.000 
#    0.000    0.000    0.000    0.000    0.000    0.000 
#
# Total GULP energy -297496.402833 kJ/mol
# GULP energy per Si atom -12395.683451 kJ/mol
# Density = 2.043364 g / cm^3
# Si number density = 20.480257 Si / 1000 Ang^3
#
#
#
# Elastic Constant Matrix: (Units=GPa)
#
#
# Indices 1 2 3 4 5 6 
#
# 1 125.1025 54.6465 65.7662 0.0000 0.0000 0.0000
# 2 54.6465 117.3967 61.7997 0.0000 0.0000 0.0000
# 3 65.7662 61.7997 145.3299 0.0000 0.0000 0.0000
# 4 0.0000 0.0000 0.0000 20.7463 0.0000 0.0000
# 5 0.0000 0.0000 0.0000 0.0000 34.7455 0.0000
# 6 0.0000 0.0000 0.0000 0.0000 0.0000 24.5983
#
#
#
# Elastic Compliance Matrix: (Units=1/GPa)
#
#
# Indices 1 2 3 4 5 6 
#
# 1 0.011425 -0.003345 -0.003748 0.000000 0.000000 0.000000
# 2 -0.003345 0.011954 -0.003570 0.000000 0.000000 0.000000
# 3 -0.003748 -0.003570 0.010095 0.000000 0.000000 0.000000
# 4 0.000000 0.000000 0.000000 0.048201 0.000000 0.000000
# 5 0.000000 0.000000 0.000000 0.000000 0.028781 0.000000
# 6 0.000000 0.000000 0.000000 0.000000 0.000000 0.040653
#
#
# Mechanical properties :
#
#
# Convention : Reuss Voigt Hill
#
# Bulk Modulus (GPa) = 82.31109 83.58376 82.94743
# Shear Modulus (GPa) = 28.33122 29.72580 29.02851
#
# Velocity S-wave (km/s) = 3.72337 3.81391 3.76891
# Velocity P-wave (km/s) = 7.66566 7.76498 7.71548
#
# Compressibility (1/GPa) = 0.01214903
#
# Stress axis : x y z
#
# Youngs Moduli (GPa) = 87.52895 83.65094 99.06192
#
# Poissons Ratio (x) = 0.27984 0.37124
# Poissons Ratio (y) = 0.29281 0.35361
# Poissons Ratio (z) = 0.32802 0.29860
#
# Static dielectric constant tensor:
#      x y z
#    x 3.740590 0.000000 0.000000 
#    y 0.000000 3.586420 0.000000 
#    z 0.000000 0.000000 4.494300 
# 
# 
# High freq. dielectric constant tensor:
#      x y z
#    x 1.800110 0.000000 0.000000 
#    y 0.000000 1.785990 0.000000 
#    z 0.000000 0.000000 1.815550 
# 
# From -- ./inp_files/17879.got.cif
#   From: 2010.03.12/outbox.cif.g09.slc.cpg/sg35_9_cif.got.tgz:17879.got - 2010.04.14 02:02:04.
