data_PCOD8172524
_publ_section_title
;
Structure prediction by ZEFSAII (Michael W. Deem and Ramdas Pophale) SiO2 
 PCOD8172524
Probable space group: C M M 2
;
_chemical_formula_sum "Si O2"
_cell_formula_units_Z 64
_cell_length_a 8.973627
_cell_length_b 19.235345
_cell_length_c 21.082400
_cell_angle_alpha 90.000000
_cell_angle_beta 90.000000
_cell_angle_gamma 90.000000
_cell_volume 3639.050167
_symmetry_space_group_name_H-M "C M M 2"
_symmetry_group_IT_number 35
_symmetry_cell_setting 'orthorhombic'
loop_
_space_group_symop_operation_xyz
x,y,z
-x,-y,z
-x,y,z
x,-y,z
1/2+x,1/2+y,z
1/2-x,1/2-y,z
1/2-x,1/2+y,z
1/2+x,1/2-y,z
loop_
_atom_site_type_symbol
_atom_site_label
_atom_site_fract_x
_atom_site_fract_y
_atom_site_fract_z
Si Si1 0.674691 0.324626 0.900560
Si Si2 0.176870 0.674649 0.777719
Si Si3 0.825989 0.324682 0.157027
Si Si4 0.326125 0.176183 0.296455
Si Si5 0.331876 0.417343 0.534694
Si Si6 0.175931 0.420725 0.408826
Si Si7 0.826149 0.175070 0.038272
Si Si8 0.325505 0.920544 0.660600
O O1 0.500000 0.316982 0.885671
O O2 0.750000 0.250000 0.904584
O O3 0.756711 0.362482 0.841570
O O4 0.698770 0.362233 0.969383
O O5 0.250000 0.750000 0.767264
O O6 0.224428 0.625577 0.719955
O O7 0.000000 0.681970 0.783623
O O8 0.750000 0.250000 0.158901
O O9 0.795774 0.357751 0.226561
O O10 0.749604 0.366676 0.097754
O O11 0.000000 0.318086 0.143098
O O12 0.500000 0.189296 0.305587
O O13 0.250000 0.250000 0.305854
O O14 0.264888 0.122613 0.348639
O O15 0.500000 0.389701 0.533433
O O16 0.322606 0.500000 0.534680
O O17 0.248574 0.388774 0.472338
O O18 0.254048 0.389307 0.598363
O O19 0.226994 0.500000 0.397997
O O20 0.000000 0.415485 0.416562
O O21 0.750000 0.250000 0.035144
O O22 0.000000 0.183849 0.052098
O O23 0.500000 0.915814 0.648117
O O24 0.276543 0.000000 0.673901
#
# Coordination Sequence:
#
# PCOD8172524 Si02
#       8
#     8   8   8   8   8   8   8   8
#     4   9  16  25  38  57  84 115 146 180 217 259
#     4  10  19  30  46  67  92 120 147 179 219 263
#     4   9  15  23  36  55  81 110 141 177 215 256
#     4   9  18  30  44  65  91 119 148 178 219 265
#     4   9  17  29  47  71  93 112 141 183 224 258
#     4   9  17  31  50  68  88 116 148 181 217 260
#     4   9  15  22  34  54  79 109 144 178 213 253
#     4   9  18  33  51  69  89 116 149 181 216 260
#
# _framework density 17.587008000000001
#
# number of rings (size 3 to 8) (size 9 to 14) (size 15 to 20)
#    0.000    2.875    0.000    3.375    0.000    5.000 
#    0.000    0.625    0.000    0.000    0.000    0.875 
#    0.000    5.000    0.000    0.000    0.000    0.000 
#
# Total GULP energy -396442.260282 kJ/mol
# GULP energy per Si atom -12388.820634 kJ/mol
# Density = 1.754698 g / cm^3
# Si number density = 17.587008 Si / 1000 Ang^3
#
#
#
# Elastic Constant Matrix: (Units=GPa)
#
#
# Indices 1 2 3 4 5 6 
#
# 1 85.0959 22.3168 73.6125 0.0000 0.0000 0.0000
# 2 22.3168 35.5829 49.4340 0.0000 0.0000 0.0000
# 3 73.6125 49.4340 215.6625 0.0000 0.0000 0.0000
# 4 0.0000 0.0000 0.0000 2.8170 0.0000 0.0000
# 5 0.0000 0.0000 0.0000 0.0000 31.2776 0.0000
# 6 0.0000 0.0000 0.0000 0.0000 0.0000 13.2556
#
#
#
# Elastic Compliance Matrix: (Units=1/GPa)
#
#
# Indices 1 2 3 4 5 6 
#
# 1 0.017022 -0.003821 -0.004934 0.000000 0.000000 0.000000
# 2 -0.003821 0.042092 -0.008344 0.000000 0.000000 0.000000
# 3 -0.004934 -0.008344 0.008234 0.000000 0.000000 0.000000
# 4 0.000000 0.000000 0.000000 0.354984 0.000000 0.000000
# 5 0.000000 0.000000 0.000000 0.000000 0.031972 0.000000
# 6 0.000000 0.000000 0.000000 0.000000 0.000000 0.075440
#
#
# Mechanical properties :
#
#
# Convention : Reuss Voigt Hill
#
# Bulk Modulus (GPa) = 30.16662 69.67423 49.92042
# Shear Modulus (GPa) = 8.69578 22.20191 15.44885
#
# Velocity S-wave (km/s) = 2.22602 3.55689 2.96704
# Velocity P-wave (km/s) = 4.87821 7.52140 6.33910
#
# Compressibility (1/GPa) = 0.03314922
#
# Stress axis : x y z
#
# Youngs Moduli (GPa) = 58.74783 23.75754 121.45110
#
# Poissons Ratio (x) = 0.09077 0.59928
# Poissons Ratio (y) = 0.22446 1.01341
# Poissons Ratio (z) = 0.28988 0.19824
#
# Static dielectric constant tensor:
#      x y z
#    x 3.345520 0.000000 0.000000 
#    y 0.000000 2.702350 0.000000 
#    z 0.000000 0.000000 4.422860 
# 
# 
# High freq. dielectric constant tensor:
#      x y z
#    x 1.689210 0.000000 0.000000 
#    y 0.000000 1.600590 0.000000 
#    z 0.000000 0.000000 1.713410 
# 
# From -- ./inp_files/18476.got.cif
#   From: 2010.03.12/outbox.cif.g09.slc.cpg/sg35_10_cif.got.tgz:18476.got - 2010.04.14 02:02:04.
