data_PCOD8172442
_publ_section_title
;
Structure prediction by ZEFSAII (Michael W. Deem and Ramdas Pophale) SiO2 
 PCOD8172442
Probable space group: C M M 2
;
_chemical_formula_sum "Si O2"
_cell_formula_units_Z 56
_cell_length_a 14.445344
_cell_length_b 22.794275
_cell_length_c 9.089953
_cell_angle_alpha 90.000000
_cell_angle_beta 90.000000
_cell_angle_gamma 90.000000
_cell_volume 2993.059220
_symmetry_space_group_name_H-M "C M M 2"
_symmetry_group_IT_number 35
_symmetry_cell_setting 'orthorhombic'
loop_
_space_group_symop_operation_xyz
x,y,z
-x,-y,z
-x,y,z
x,-y,z
1/2+x,1/2+y,z
1/2-x,1/2-y,z
1/2-x,1/2+y,z
1/2+x,1/2-y,z
loop_
_atom_site_type_symbol
_atom_site_label
_atom_site_fract_x
_atom_site_fract_y
_atom_site_fract_z
Si Si1 0.602046 0.783235 0.513790
Si Si2 0.603673 0.336388 0.665955
Si Si3 0.791565 0.614931 0.665920
Si Si4 0.399652 0.663319 0.002157
Si Si5 0.894165 0.500000 0.012509
Si Si6 0.350728 0.772052 0.188410
Si Si7 0.203851 0.382580 0.009253
Si Si8 0.105285 0.500000 0.662605
O O1 0.500000 0.797870 0.576129
O O2 0.630822 0.718092 0.563198
O O3 0.673537 0.829403 0.576868
O O4 0.596631 0.786670 0.337880
O O5 0.500000 0.360176 0.629671
O O6 0.679940 0.387783 0.640601
O O7 0.611120 0.315122 0.834410
O O8 0.839768 0.556615 0.602346
O O9 0.816236 0.623146 0.836519
O O10 0.500000 0.631215 0.023182
O O11 0.402645 0.721283 0.100470
O O12 0.314646 0.619947 0.043352
O O13 0.838583 0.556815 0.071093
O O14 0.000000 0.500000 0.071949
O O15 0.894356 0.500000 0.837409
O O16 0.250000 0.750000 0.232468
O O17 0.348858 0.829625 0.087468
O O18 0.000000 0.500000 0.601985
#
# Coordination Sequence:
#
# PCOD8172442 Si02
#       8
#     8   8   8   8   4   8   8   4
#     4  11  21  31  47  73 101 129 160 197 242 289
#     4   9  18  31  49  73  99 127 159 195 240 289
#     4  10  18  33  52  70  96 129 163 201 237 281
#     4   9  17  31  50  73 100 127 156 195 241 289
#     4   9  18  32  50  70  94 125 163 203 238 277
#     4  10  19  31  48  72 101 130 158 194 240 288
#     4   9  19  33  51  72  95 127 166 199 236 284
#     4   9  18  32  50  72  94 123 163 201 238 281
#
# _framework density 18.709954
#
# number of rings (size 3 to 8) (size 9 to 14) (size 15 to 20)
#    0.000    2.429    0.000    3.000    0.000    4.000 
#    0.000    1.429    0.000    5.143    0.000    0.000 
#    0.000    4.571    0.000    0.000    0.000    0.000 
#
# Total GULP energy -347089.400249 kJ/mol
# GULP energy per Si atom -12396.050009 kJ/mol
# Density = 1.866737 g / cm^3
# Si number density = 18.709954 Si / 1000 Ang^3
#
#
#
# Elastic Constant Matrix: (Units=GPa)
#
#
# Indices 1 2 3 4 5 6 
#
# 1 146.3205 75.4154 28.8898 0.0000 0.0000 0.0000
# 2 75.4154 104.7211 24.8773 0.0000 0.0000 0.0000
# 3 28.8898 24.8773 51.9405 0.0000 0.0000 0.0000
# 4 0.0000 0.0000 0.0000 1.9197 0.0000 0.0000
# 5 0.0000 0.0000 0.0000 0.0000 19.0190 0.0000
# 6 0.0000 0.0000 0.0000 0.0000 0.0000 29.0968
#
#
#
# Elastic Compliance Matrix: (Units=1/GPa)
#
#
# Indices 1 2 3 4 5 6 
#
# 1 0.011187 -0.007422 -0.002667 0.000000 0.000000 0.000000
# 2 -0.007422 0.015700 -0.003391 0.000000 0.000000 0.000000
# 3 -0.002667 -0.003391 0.022360 0.000000 0.000000 0.000000
# 4 0.000000 0.000000 0.000000 0.520906 0.000000 0.000000
# 5 0.000000 0.000000 0.000000 0.000000 0.052579 0.000000
# 6 0.000000 0.000000 0.000000 0.000000 0.000000 0.034368
#
#
# Mechanical properties :
#
#
# Convention : Reuss Voigt Hill
#
# Bulk Modulus (GPa) = 44.87183 62.37188 53.62186
# Shear Modulus (GPa) = 7.23076 21.59375 14.41226
#
# Velocity S-wave (km/s) = 1.96801 3.40094 2.77844
# Velocity P-wave (km/s) = 5.40361 6.98788 6.24617
#
# Compressibility (1/GPa) = 0.02228569
#
# Stress axis : x y z
#
# Youngs Moduli (GPa) = 89.39330 63.69381 44.72178
#
# Poissons Ratio (x) = 0.47276 0.11927
# Poissons Ratio (y) = 0.66352 0.15166
# Poissons Ratio (z) = 0.23841 0.21600
#
# Static dielectric constant tensor:
#      x y z
#    x 3.723390 0.000000 0.000000 
#    y 0.000000 3.278430 0.000000 
#    z 0.000000 0.000000 3.190000 
# 
# 
# High freq. dielectric constant tensor:
#      x y z
#    x 1.748090 0.000000 0.000000 
#    y 0.000000 1.695170 0.000000 
#    z 0.000000 0.000000 1.704970 
# 
# From -- ./inp_files/7673.got.cif
#   From: 2010.03.12/outbox.cif.g09.slc.cpg/sg35_4_cif.got.tgz:7673.got - 2010.04.14 02:02:04.
