data_PCOD8172410
_publ_section_title
;
Structure prediction by ZEFSAII (Michael W. Deem and Ramdas Pophale) SiO2 
 PCOD8172410
Probable space group: C M M 2
;
_chemical_formula_sum "Si O2"
_cell_formula_units_Z 64
_cell_length_a 28.238999
_cell_length_b 8.624901
_cell_length_c 15.562566
_cell_angle_alpha 90.000000
_cell_angle_beta 90.000000
_cell_angle_gamma 90.000000
_cell_volume 3790.396332
_symmetry_space_group_name_H-M "C M M 2"
_symmetry_group_IT_number 35
_symmetry_cell_setting 'orthorhombic'
loop_
_space_group_symop_operation_xyz
x,y,z
-x,-y,z
-x,y,z
x,-y,z
1/2+x,1/2+y,z
1/2-x,1/2-y,z
1/2-x,1/2+y,z
1/2+x,1/2-y,z
loop_
_atom_site_type_symbol
_atom_site_label
_atom_site_fract_x
_atom_site_fract_y
_atom_site_fract_z
Si Si1 0.946405 0.819832 0.101250
Si Si2 0.856399 0.681338 0.031034
Si Si3 0.801917 0.682857 0.200123
Si Si4 0.302002 0.682256 0.874361
Si Si5 0.643601 0.818662 0.369213
Si Si6 0.697998 0.317744 0.525885
Si Si7 0.302501 0.183731 0.700123
Si Si8 0.446405 0.319832 0.298996
O O1 0.911954 0.717544 0.042105
O O2 0.940314 0.769289 0.200123
O O3 0.000000 0.786804 0.070924
O O4 0.933918 0.000000 0.090228
O O5 0.848549 0.500000 0.014480
O O6 0.829394 0.741397 0.115941
O O7 0.836741 0.777579 0.951571
O O8 0.798876 0.500000 0.200123
O O9 0.750000 0.750000 0.200123
O O10 0.829394 0.741397 0.284305
O O11 0.296906 0.500000 0.863729
O O12 0.250000 0.750000 0.892936
O O13 0.326073 0.752681 0.787745
O O14 0.663258 0.722421 0.448675
O O15 0.588046 0.782456 0.358142
O O16 0.651451 0.000000 0.385766
O O17 0.703094 0.500000 0.536518
O O18 0.750000 0.250000 0.507311
O O19 0.673927 0.247319 0.612501
O O20 0.250000 0.250000 0.700123
O O21 0.303262 0.000000 0.700123
O O22 0.500000 0.286803 0.329323
O O23 0.433918 0.500000 0.310018
#
# Coordination Sequence:
#
# PCOD8172410 Si02
#       8
#     8   8   8   8   8   8   8   8
#     4   9  18  33  52  73  97 128 167 210 256 302
#     4  11  21  34  49  72 100 133 172 209 251 299
#     4  10  22  34  45  64  95 133 170 205 241 288
#     4  11  21  34  51  74 102 135 170 209 251 298
#     4  11  21  34  49  72 100 133 172 209 251 299
#     4  11  21  34  51  74 102 135 170 209 251 298
#     4  10  18  32  52  74  99 130 165 208 252 296
#     4   9  18  33  52  73  97 128 167 210 256 302
#
# _framework density 16.884778000000001
#
# number of rings (size 3 to 8) (size 9 to 14) (size 15 to 20)
#    0.000    1.750    1.250    7.125    0.000    4.500 
#    0.000    1.250    0.000    0.000    0.000    0.875 
#    0.000    7.000    0.000    0.000    0.000    0.000 
#
# Total GULP energy -396837.978096 kJ/mol
# GULP energy per Si atom -12401.186815 kJ/mol
# Density = 1.684635 g / cm^3
# Si number density = 16.884778 Si / 1000 Ang^3
#
#
#
# Elastic Constant Matrix: (Units=GPa)
#
#
# Indices 1 2 3 4 5 6 
#
# 1 87.3394 28.8527 44.2995 0.0000 0.0000 0.0000
# 2 28.8527 100.7100 44.9151 0.0000 0.0000 0.0000
# 3 44.2995 44.9151 124.4674 0.0000 0.0000 0.0000
# 4 0.0000 0.0000 0.0000 21.6264 0.0000 0.0000
# 5 0.0000 0.0000 0.0000 0.0000 9.5674 0.0000
# 6 0.0000 0.0000 0.0000 0.0000 0.0000 28.4489
#
#
#
# Elastic Compliance Matrix: (Units=1/GPa)
#
#
# Indices 1 2 3 4 5 6 
#
# 1 0.014365 -0.002187 -0.004323 0.000000 0.000000 0.000000
# 2 -0.002187 0.012167 -0.003612 0.000000 0.000000 0.000000
# 3 -0.004323 -0.003612 0.010876 0.000000 0.000000 0.000000
# 4 0.000000 0.000000 0.000000 0.046240 0.000000 0.000000
# 5 0.000000 0.000000 0.000000 0.000000 0.104522 0.000000
# 6 0.000000 0.000000 0.000000 0.000000 0.000000 0.035151
#
#
# Mechanical properties :
#
#
# Convention : Reuss Voigt Hill
#
# Bulk Modulus (GPa) = 58.26502 60.96127 59.61315
# Shear Modulus (GPa) = 20.05714 24.89182 22.47448
#
# Velocity S-wave (km/s) = 3.45031 3.84372 3.65231
# Velocity P-wave (km/s) = 7.10318 7.47540 7.29166
#
# Compressibility (1/GPa) = 0.01716296
#
# Stress axis : x y z
#
# Youngs Moduli (GPa) = 69.61341 82.18884 91.94183
#
# Poissons Ratio (x) = 0.17977 0.39750
# Poissons Ratio (y) = 0.15227 0.33210
# Poissons Ratio (z) = 0.30097 0.29688
#
# Static dielectric constant tensor:
#      x y z
#    x 2.965820 0.000000 0.000000 
#    y 0.000000 3.194490 0.000000 
#    z 0.000000 0.000000 3.548900 
# 
# 
# High freq. dielectric constant tensor:
#      x y z
#    x 1.626200 0.000000 0.000000 
#    y 0.000000 1.662530 0.000000 
#    z 0.000000 0.000000 1.646440 
# 
# From -- ./inp_files/17617.got.cif
#   From: 2010.03.12/outbox.cif.g09.slc.cpg/sg35_9_cif.got.tgz:17617.got - 2010.04.14 02:02:04.
