data_PCOD8172824
_publ_section_title
;
Structure prediction by ZEFSAII (Michael W. Deem and Ramdas Pophale) SiO2 
 PCOD8172824
Probable space group: C M M 2
;
_chemical_formula_sum "Si O2"
_cell_formula_units_Z 56
_cell_length_a 19.247328
_cell_length_b 8.664851
_cell_length_c 17.764011
_cell_angle_alpha 90.000000
_cell_angle_beta 90.000000
_cell_angle_gamma 90.000000
_cell_volume 2962.597007
_symmetry_space_group_name_H-M "C M M 2"
_symmetry_group_IT_number 35
_symmetry_cell_setting 'orthorhombic'
loop_
_space_group_symop_operation_xyz
x,y,z
-x,-y,z
-x,y,z
x,-y,z
1/2+x,1/2+y,z
1/2-x,1/2-y,z
1/2-x,1/2+y,z
1/2+x,1/2-y,z
loop_
_atom_site_type_symbol
_atom_site_label
_atom_site_fract_x
_atom_site_fract_y
_atom_site_fract_z
Si Si1 0.419270 0.820015 0.177350
Si Si2 0.423368 0.183181 0.762535
Si Si3 0.176530 0.680932 0.315356
Si Si4 0.323039 0.319917 0.474379
Si Si5 0.324671 0.318195 0.052263
Si Si6 0.582021 0.176288 0.595257
Si Si7 0.675463 0.816230 0.893366
O O1 0.500000 0.774362 0.182488
O O2 0.383379 0.776833 0.256180
O O3 0.383296 0.720577 0.112687
O O4 0.409557 0.000000 0.158563
O O5 0.500000 0.253045 0.775845
O O6 0.395981 0.229572 0.679482
O O7 0.374293 0.248411 0.827895
O O8 0.427365 0.000000 0.766629
O O9 0.186526 0.500000 0.323884
O O10 0.250000 0.750000 0.288007
O O11 0.152830 0.748401 0.395234
O O12 0.313565 0.500000 0.463014
O O13 0.250000 0.250000 0.501330
O O14 0.380840 0.287513 0.536596
O O15 0.316037 0.500000 0.043679
O O16 0.250000 0.250000 0.076798
O O17 0.350377 0.247012 0.973466
O O18 0.500000 0.193624 0.585171
O O19 0.605000 0.000000 0.580398
O O20 0.750000 0.750000 0.873297
O O21 0.677395 0.000000 0.896343
#
# Coordination Sequence:
#
# PCOD8172824 Si02
#       7
#     8   8   8   8   8   8   8
#     4  10  22  39  58  82 111 142 177 217 263 316
#     4   8  16  32  54  78 103 137 179 218 261 316
#     4  10  20  36  58  81 106 140 180 220 266 318
#     4  11  22  36  55  80 110 142 180 223 267 316
#     4  11  22  37  57  80 108 143 182 221 266 318
#     4   9  18  35  57  79 107 143 181 220 266 321
#     4  10  19  33  54  79 107 138 176 221 267 316
#
# _framework density 18.902334
#
# number of rings (size 3 to 8) (size 9 to 14) (size 15 to 20)
#    0.000    2.143    0.000    6.429    0.000    4.571 
#    0.000    5.714    0.000    3.000    0.000    0.000 
#    0.000    0.000    0.000    0.000    0.000    0.000 
#
# Total GULP energy -347232.961619 kJ/mol
# GULP energy per Si atom -12401.177201 kJ/mol
# Density = 1.885931 g / cm^3
# Si number density = 18.902334 Si / 1000 Ang^3
#
#
#
# Elastic Constant Matrix: (Units=GPa)
#
#
# Indices 1 2 3 4 5 6 
#
# 1 101.9608 42.5847 85.4571 0.0000 0.0000 0.0000
# 2 42.5847 94.3751 52.8031 0.0000 0.0000 0.0000
# 3 85.4571 52.8031 142.3813 0.0000 0.0000 0.0000
# 4 0.0000 0.0000 0.0000 19.3760 0.0000 0.0000
# 5 0.0000 0.0000 0.0000 0.0000 26.9379 0.0000
# 6 0.0000 0.0000 0.0000 0.0000 0.0000 27.6328
#
#
#
# Elastic Compliance Matrix: (Units=1/GPa)
#
#
# Indices 1 2 3 4 5 6 
#
# 1 0.020374 -0.002967 -0.011128 0.000000 0.000000 0.000000
# 2 -0.002967 0.013802 -0.003338 0.000000 0.000000 0.000000
# 3 -0.011128 -0.003338 0.014940 0.000000 0.000000 0.000000
# 4 0.000000 0.000000 0.000000 0.051610 0.000000 0.000000
# 5 0.000000 0.000000 0.000000 0.000000 0.037122 0.000000
# 6 0.000000 0.000000 0.000000 0.000000 0.000000 0.036189
#
#
# Mechanical properties :
#
#
# Convention : Reuss Voigt Hill
#
# Bulk Modulus (GPa) = 70.17266 77.82302 73.99784
# Shear Modulus (GPa) = 23.40240 25.31417 24.35828
#
# Velocity S-wave (km/s) = 3.52244 3.66349 3.59366
# Velocity P-wave (km/s) = 7.33129 7.69125 7.51343
#
# Compressibility (1/GPa) = 0.01425057
#
# Stress axis : x y z
#
# Youngs Moduli (GPa) = 49.08326 72.45114 66.93366
#
# Poissons Ratio (x) = 0.21497 0.74483
# Poissons Ratio (y) = 0.14563 0.22342
# Poissons Ratio (z) = 0.54619 0.24183
#
# Static dielectric constant tensor:
#      x y z
#    x 3.512310 0.000000 0.000000 
#    y 0.000000 3.355980 0.000000 
#    z 0.000000 0.000000 3.648820 
# 
# 
# High freq. dielectric constant tensor:
#      x y z
#    x 1.729980 0.000000 0.000000 
#    y 0.000000 1.727480 0.000000 
#    z 0.000000 0.000000 1.746100 
# 
# From -- ./inp_files/15654.got.cif
#   From: 2010.03.12/outbox.cif.g09.slc.cpg/sg35_8_cif.got.tgz:15654.got - 2010.04.14 02:02:04.
