data_PCOD8172951
_publ_section_title
;
Structure prediction by ZEFSAII (Michael W. Deem and Ramdas Pophale) SiO2 
 PCOD8172951
Probable space group: C M M 2
;
_chemical_formula_sum "Si O2"
_cell_formula_units_Z 48
_cell_length_a 7.740957
_cell_length_b 15.732004
_cell_length_c 18.798572
_cell_angle_alpha 90.000000
_cell_angle_beta 90.000000
_cell_angle_gamma 90.000000
_cell_volume 2289.304507
_symmetry_space_group_name_H-M "C M M 2"
_symmetry_group_IT_number 35
_symmetry_cell_setting 'orthorhombic'
loop_
_space_group_symop_operation_xyz
x,y,z
-x,-y,z
-x,y,z
x,-y,z
1/2+x,1/2+y,z
1/2-x,1/2-y,z
1/2-x,1/2+y,z
1/2+x,1/2-y,z
loop_
_atom_site_type_symbol
_atom_site_label
_atom_site_fract_x
_atom_site_fract_y
_atom_site_fract_z
Si Si1 0.500000 0.601404 0.598940
Si Si2 0.695718 0.845847 0.847033
Si Si3 0.000000 0.093582 0.753529
Si Si4 0.705063 0.500000 0.100352
Si Si5 0.693105 0.901849 0.500833
Si Si6 0.202593 0.157715 0.351899
Si Si7 0.796996 0.154863 0.004091
Si Si8 0.205490 0.000000 0.259570
O O1 0.500000 0.500000 0.598890
O O2 0.500000 0.644607 0.678297
O O3 0.671441 0.634439 0.558334
O O4 0.500000 0.861831 0.820609
O O5 0.750000 0.750000 0.835323
O O6 0.827529 0.898657 0.799905
O O7 0.705927 0.869041 0.930029
O O8 0.000000 0.000000 0.723535
O O9 0.500000 0.500000 0.101838
O O10 0.769664 0.414223 0.061019
O O11 0.782331 0.500000 0.179704
O O12 0.500000 0.890613 0.532075
O O13 0.705939 0.849713 0.427930
O O14 0.734021 0.000000 0.483042
O O15 0.250000 0.250000 0.319299
O O16 0.000000 0.146144 0.362429
O O17 0.273565 0.084661 0.299089
O O18 0.750000 0.250000 0.030254
O O19 0.000000 0.148747 0.991241
O O20 0.000000 0.000000 0.256156
#
# Coordination Sequence:
#
# PCOD8172951 Si02
#       8
#     4   8   4   4   8   8   8   4
#     4   9  20  38  60  88 126 166 199 250 322 372
#     4  11  21  39  65  88 122 168 215 256 312 374
#     4  11  24  40  62  96 129 161 208 261 318 376
#     4   9  20  36  59  87 123 163 207 248 313 380
#     4  10  19  35  63  90 119 160 208 257 304 365
#     4  11  21  36  61  89 122 158 212 259 303 367
#     4  10  19  35  59  87 120 160 209 261 309 367
#     4   9  20  38  59  87 121 169 203 246 319 378
#
# _framework density 20.967065999999999
#
# number of rings (size 3 to 8) (size 9 to 14) (size 15 to 20)
#    0.000    1.833    3.333    2.000    1.167    1.667 
#    0.000    3.750    0.000    7.000    0.000    0.000 
#    0.000    0.000    0.000    0.000    0.000    0.000 
#
# Total GULP energy -297559.386306 kJ/mol
# GULP energy per Si atom -12398.307763 kJ/mol
# Density = 2.091934 g / cm^3
# Si number density = 20.967066 Si / 1000 Ang^3
#
#
#
# Elastic Constant Matrix: (Units=GPa)
#
#
# Indices 1 2 3 4 5 6 
#
# 1 130.1553 24.3465 44.1719 0.0000 0.0000 0.0000
# 2 24.3465 111.3339 68.9212 0.0000 0.0000 0.0000
# 3 44.1719 68.9212 137.5472 0.0000 0.0000 0.0000
# 4 0.0000 0.0000 0.0000 13.2408 0.0000 0.0000
# 5 0.0000 0.0000 0.0000 0.0000 20.1538 0.0000
# 6 0.0000 0.0000 0.0000 0.0000 0.0000 20.4211
#
#
#
# Elastic Compliance Matrix: (Units=1/GPa)
#
#
# Indices 1 2 3 4 5 6 
#
# 1 0.008628 -0.000249 -0.002646 0.000000 0.000000 0.000000
# 2 -0.000249 0.013028 -0.006448 0.000000 0.000000 0.000000
# 3 -0.002646 -0.006448 0.011351 0.000000 0.000000 0.000000
# 4 0.000000 0.000000 0.000000 0.075524 0.000000 0.000000
# 5 0.000000 0.000000 0.000000 0.000000 0.049619 0.000000
# 6 0.000000 0.000000 0.000000 0.000000 0.000000 0.048969
#
#
# Mechanical properties :
#
#
# Convention : Reuss Voigt Hill
#
# Bulk Modulus (GPa) = 69.82780 72.65728 71.24254
# Shear Modulus (GPa) = 21.68467 26.86960 24.27713
#
# Velocity S-wave (km/s) = 3.21943 3.58371 3.40644
# Velocity P-wave (km/s) = 6.86990 7.20085 7.03732
#
# Compressibility (1/GPa) = 0.01432094
#
# Stress axis : x y z
#
# Youngs Moduli (GPa) = 115.90614 76.75713 88.09781
#
# Poissons Ratio (x) = 0.01908 0.23312
# Poissons Ratio (y) = 0.02882 0.56807
# Poissons Ratio (z) = 0.30670 0.49494
#
# Static dielectric constant tensor:
#      x y z
#    x 3.691510 0.000000 0.000000 
#    y 0.000000 3.604980 0.000000 
#    z 0.000000 0.000000 3.832290 
# 
# 
# High freq. dielectric constant tensor:
#      x y z
#    x 1.821060 0.000000 0.000000 
#    y 0.000000 1.812300 0.000000 
#    z 0.000000 0.000000 1.810420 
# 
# From -- ./inp_files/15348.got.cif
#   From: 2010.03.12/outbox.cif.g09.slc.cpg/sg35_8_cif.got.tgz:15348.got - 2010.04.14 02:02:04.
