data_PCOD8172962
_publ_section_title
;
Structure prediction by ZEFSAII (Michael W. Deem and Ramdas Pophale) SiO2 
 PCOD8172962
Probable space group: C M M 2
;
_chemical_formula_sum "Si O2"
_cell_formula_units_Z 48
_cell_length_a 10.091590
_cell_length_b 17.632307
_cell_length_c 14.163286
_cell_angle_alpha 90.000000
_cell_angle_beta 90.000000
_cell_angle_gamma 90.000000
_cell_volume 2520.186968
_symmetry_space_group_name_H-M "C M M 2"
_symmetry_group_IT_number 35
_symmetry_cell_setting 'orthorhombic'
loop_
_space_group_symop_operation_xyz
x,y,z
-x,-y,z
-x,y,z
x,-y,z
1/2+x,1/2+y,z
1/2-x,1/2-y,z
1/2-x,1/2+y,z
1/2+x,1/2-y,z
loop_
_atom_site_type_symbol
_atom_site_label
_atom_site_fract_x
_atom_site_fract_y
_atom_site_fract_z
Si Si1 0.847604 0.819807 0.781040
Si Si2 0.500000 0.414258 0.071494
Si Si3 0.242992 0.840839 0.975865
Si Si4 0.844582 0.177119 0.573092
Si Si5 0.000000 0.409591 0.069428
Si Si6 0.247267 0.910049 0.397711
Si Si7 0.000000 0.590408 0.286896
Si Si8 0.500000 0.414869 0.292617
O O1 0.750000 0.750000 0.773518
O O2 0.793802 0.869733 0.869265
O O3 0.840319 0.860175 0.678548
O O4 0.000000 0.794601 0.802216
O O5 0.500000 0.500000 0.030208
O O6 0.500000 0.416294 0.182333
O O7 0.628822 0.368401 0.044107
O O8 0.250000 0.750000 0.977953
O O9 0.376132 0.878424 0.011900
O O10 0.750000 0.250000 0.566514
O O11 0.777347 0.116321 0.504328
O O12 0.000000 0.195451 0.548062
O O13 0.000000 0.500000 0.066954
O O14 0.000000 0.379916 0.178134
O O15 0.376966 0.877008 0.346528
O O16 0.130265 0.875125 0.333569
O O17 0.256620 0.000000 0.397954
O O18 0.000000 0.500000 0.282775
O O19 0.500000 0.500000 0.333666
#
# Coordination Sequence:
#
# PCOD8172962 Si02
#       8
#     8   4   8   8   4   8   4   4
#     4   9  19  36  59  84 113 153 193 228 283 356
#     4  11  21  37  60  85 114 150 197 245 286 341
#     4  11  22  38  60  88 117 153 195 241 293 345
#     4  10  21  37  58  86 115 148 188 235 287 342
#     4  11  23  41  62  85 118 160 199 241 292 349
#     4  10  19  36  59  82 108 148 194 233 278 338
#     4   9  20  37  58  81 112 156 197 227 278 353
#     4   9  18  33  56  79 106 148 193 227 274 349
#
# _framework density 19.046206999999999
#
# number of rings (size 3 to 8) (size 9 to 14) (size 15 to 20)
#    0.000    2.000    1.667    2.000    4.667    2.667 
#    0.000    6.667    0.000    1.000    0.000    0.000 
#    0.000    0.000    0.000    0.000    0.000    0.000 
#
# Total GULP energy -297341.559857 kJ/mol
# GULP energy per Si atom -12389.231661 kJ/mol
# Density = 1.900286 g / cm^3
# Si number density = 19.046207 Si / 1000 Ang^3
#
#
#
# Elastic Constant Matrix: (Units=GPa)
#
#
# Indices 1 2 3 4 5 6 
#
# 1 184.3447 32.1286 82.6731 0.0000 0.0000 0.0000
# 2 32.1286 47.9853 30.2551 0.0000 0.0000 0.0000
# 3 82.6731 30.2551 142.6090 0.0000 0.0000 0.0000
# 4 0.0000 0.0000 0.0000 27.5918 0.0000 0.0000
# 5 0.0000 0.0000 0.0000 0.0000 37.5268 0.0000
# 6 0.0000 0.0000 0.0000 0.0000 0.0000 17.4112
#
#
#
# Elastic Compliance Matrix: (Units=1/GPa)
#
#
# Indices 1 2 3 4 5 6 
#
# 1 0.007616 -0.002673 -0.003848 0.000000 0.000000 0.000000
# 2 -0.002673 0.024996 -0.003753 0.000000 0.000000 0.000000
# 3 -0.003848 -0.003753 0.010039 0.000000 0.000000 0.000000
# 4 0.000000 0.000000 0.000000 0.036243 0.000000 0.000000
# 5 0.000000 0.000000 0.000000 0.000000 0.026648 0.000000
# 6 0.000000 0.000000 0.000000 0.000000 0.000000 0.057434
#
#
# Mechanical properties :
#
#
# Convention : Reuss Voigt Hill
#
# Bulk Modulus (GPa) = 45.24415 73.89474 59.56945
# Shear Modulus (GPa) = 26.19267 31.83144 29.01205
#
# Velocity S-wave (km/s) = 3.71242 4.09256 3.90711
# Velocity P-wave (km/s) = 6.49481 7.82393 7.19015
#
# Compressibility (1/GPa) = 0.02210230
#
# Stress axis : x y z
#
# Youngs Moduli (GPa) = 131.29694 40.00627 99.60820
#
# Poissons Ratio (x) = 0.10695 0.38331
# Poissons Ratio (y) = 0.35098 0.37386
# Poissons Ratio (z) = 0.50526 0.15016
#
# Static dielectric constant tensor:
#      x y z
#    x 3.836070 0.000000 0.000000 
#    y 0.000000 3.165830 0.000000 
#    z 0.000000 0.000000 4.033020 
# 
# 
# High freq. dielectric constant tensor:
#      x y z
#    x 1.766400 0.000000 0.000000 
#    y 0.000000 1.692300 0.000000 
#    z 0.000000 0.000000 1.762760 
# 
# From -- ./inp_files/15303.got.cif
#   From: 2010.03.12/outbox.cif.g09.slc.cpg/sg35_8_cif.got.tgz:15303.got - 2010.04.14 02:02:04.
