data_PCOD8172310
_publ_section_title
;
Structure prediction by ZEFSAII (Michael W. Deem and Ramdas Pophale) SiO2 
 PCOD8172310
Probable space group: C M M 2
;
_chemical_formula_sum "Si O2"
_cell_formula_units_Z 64
_cell_length_a 8.992949
_cell_length_b 28.589070
_cell_length_c 15.730563
_cell_angle_alpha 90.000000
_cell_angle_beta 90.000000
_cell_angle_gamma 90.000000
_cell_volume 4044.328510
_symmetry_space_group_name_H-M "C M M 2"
_symmetry_group_IT_number 35
_symmetry_cell_setting 'orthorhombic'
loop_
_space_group_symop_operation_xyz
x,y,z
-x,-y,z
-x,y,z
x,-y,z
1/2+x,1/2+y,z
1/2-x,1/2-y,z
1/2-x,1/2+y,z
1/2+x,1/2-y,z
loop_
_atom_site_type_symbol
_atom_site_label
_atom_site_fract_x
_atom_site_fract_y
_atom_site_fract_z
Si Si1 0.677015 0.947705 0.453070
Si Si2 0.172916 0.605202 0.617539
Si Si3 0.675818 0.703297 0.868326
Si Si4 0.674874 0.394655 0.937376
Si Si5 0.665111 0.944349 0.268325
Si Si6 0.174230 0.703737 0.687981
Si Si7 0.824628 0.946405 0.101852
Si Si8 0.323774 0.446581 0.771676
O O1 0.500000 0.949598 0.448705
O O2 0.732340 0.912189 0.525916
O O3 0.733467 0.929480 0.360387
O O4 0.738215 0.000000 0.472955
O O5 0.201307 0.660743 0.623972
O O6 0.260643 0.578003 0.689157
O O7 0.000000 0.593162 0.628863
O O8 0.500000 0.710270 0.856835
O O9 0.750000 0.750000 0.907543
O O10 0.712263 0.660425 0.931375
O O11 0.747331 0.692131 0.777155
O O12 0.500000 0.403501 0.937858
O O13 0.741696 0.421578 0.855795
O O14 0.742523 0.415840 0.024207
O O15 0.500000 0.923539 0.256416
O O16 0.764153 0.925526 0.190550
O O17 0.659706 0.000000 0.267055
O O18 0.250000 0.750000 0.647599
O O19 0.000000 0.712662 0.703826
O O20 0.000000 0.942383 0.105525
O O21 0.773998 0.000000 0.088012
O O22 0.500000 0.442055 0.768456
O O23 0.270920 0.500000 0.773419
#
# Coordination Sequence:
#
# PCOD8172310 Si02
#       8
#     8   8   8   8   8   8   8   8
#     4   8  14  26  44  63  86 116 144 171 209 259
#     4  10  19  30  45  65  87 114 149 183 216 255
#     4  10  18  30  47  63  83 111 144 183 221 257
#     4   9  17  29  44  62  85 117 148 173 210 258
#     4   8  14  26  43  62  84 111 142 176 215 253
#     4  10  19  30  45  64  85 111 144 184 224 260
#     4   9  16  27  44  64  86 113 145 177 208 250
#     4  10  19  30  43  60  87 122 153 176 204 250
#
# _framework density 15.824630000000001
#
# number of rings (size 3 to 8) (size 9 to 14) (size 15 to 20)
#    0.000    2.750    1.250    3.000    0.000    2.750 
#    0.000    2.500    0.000    3.750    0.000    0.875 
#    0.000    6.000    0.000    0.000    0.000    0.000 
#
# Total GULP energy -396626.484339 kJ/mol
# GULP energy per Si atom -12394.577636 kJ/mol
# Density = 1.578861 g / cm^3
# Si number density = 15.824630 Si / 1000 Ang^3
#
#
#
# Elastic Constant Matrix: (Units=GPa)
#
#
# Indices 1 2 3 4 5 6 
#
# 1 35.5987 32.3121 24.3590 0.0000 0.0000 0.0000
# 2 32.3121 105.7752 69.4507 0.0000 0.0000 0.0000
# 3 24.3590 69.4507 139.3676 0.0000 0.0000 0.0000
# 4 0.0000 0.0000 0.0000 12.6724 0.0000 0.0000
# 5 0.0000 0.0000 0.0000 0.0000 20.0021 0.0000
# 6 0.0000 0.0000 0.0000 0.0000 0.0000 16.6648
#
#
#
# Elastic Compliance Matrix: (Units=1/GPa)
#
#
# Indices 1 2 3 4 5 6 
#
# 1 0.039028 -0.011063 -0.001308 0.000000 0.000000 0.000000
# 2 -0.011063 0.017188 -0.006631 0.000000 0.000000 0.000000
# 3 -0.001308 -0.006631 0.010709 0.000000 0.000000 0.000000
# 4 0.000000 0.000000 0.000000 0.078912 0.000000 0.000000
# 5 0.000000 0.000000 0.000000 0.000000 0.049995 0.000000
# 6 0.000000 0.000000 0.000000 0.000000 0.000000 0.060007
#
#
# Mechanical properties :
#
#
# Convention : Reuss Voigt Hill
#
# Bulk Modulus (GPa) = 34.58014 59.22056 46.90035
# Shear Modulus (GPa) = 16.47538 20.17583 18.32561
#
# Velocity S-wave (km/s) = 3.23014 3.57454 3.40670
# Velocity P-wave (km/s) = 5.98426 7.38517 6.72131
#
# Compressibility (1/GPa) = 0.02891833
#
# Stress axis : x y z
#
# Youngs Moduli (GPa) = 25.62261 58.18100 93.38317
#
# Poissons Ratio (x) = 0.64367 0.12217
# Poissons Ratio (y) = 0.28347 0.61927
# Poissons Ratio (z) = 0.03352 0.38582
#
# Static dielectric constant tensor:
#      x y z
#    x 2.879340 0.000000 0.000000 
#    y 0.000000 3.077180 0.000000 
#    z 0.000000 0.000000 3.238760 
# 
# 
# High freq. dielectric constant tensor:
#      x y z
#    x 1.589420 0.000000 0.000000 
#    y 0.000000 1.591780 0.000000 
#    z 0.000000 0.000000 1.599320 
# 
# From -- ./inp_files/16131.got.cif
#   From: 2010.03.12/outbox.cif.g09.slc.cpg/sg35_9_cif.got.tgz:16131.got - 2010.04.14 02:02:04.
