data_PCOD8172930
_publ_section_title
;
Structure prediction by ZEFSAII (Michael W. Deem and Ramdas Pophale) SiO2 
 PCOD8172930
Probable space group: C M M 2
;
_chemical_formula_sum "Si O2"
_cell_formula_units_Z 40
_cell_length_a 25.777801
_cell_length_b 8.346496
_cell_length_c 9.670182
_cell_angle_alpha 90.000000
_cell_angle_beta 90.000000
_cell_angle_gamma 90.000000
_cell_volume 2080.581364
_symmetry_space_group_name_H-M "C M M 2"
_symmetry_group_IT_number 35
_symmetry_cell_setting 'orthorhombic'
loop_
_space_group_symop_operation_xyz
x,y,z
-x,-y,z
-x,y,z
x,-y,z
1/2+x,1/2+y,z
1/2-x,1/2-y,z
1/2-x,1/2+y,z
1/2+x,1/2-y,z
loop_
_atom_site_type_symbol
_atom_site_label
_atom_site_fract_x
_atom_site_fract_y
_atom_site_fract_z
Si Si1 0.500000 0.676390 0.068890
Si Si2 0.192928 0.186969 0.573440
Si Si3 0.500000 0.677401 0.396560
Si Si4 0.388246 0.688709 0.073376
Si Si5 0.892579 0.315301 0.373402
Si Si6 0.695445 0.814014 0.870959
O O1 0.500000 0.500000 0.003612
O O2 0.500000 0.664591 0.232943
O O3 0.445341 0.757970 0.025768
O O4 0.250000 0.250000 0.536385
O O5 0.152067 0.284416 0.483658
O O6 0.179961 0.216869 0.734004
O O7 0.188614 0.000000 0.539767
O O8 0.500000 0.500000 0.463326
O O9 0.447750 0.768696 0.443316
O O10 0.383256 0.500000 0.042070
O O11 0.380200 0.713216 0.236525
O O12 0.346567 0.789103 0.989576
O O13 0.893825 0.500000 0.331186
O O14 0.750000 0.750000 0.929752
O O15 0.700323 0.000000 0.832671
#
# Coordination Sequence:
#
# PCOD8172930 Si02
#       6
#     4   8   4   8   8   8
#     4   7  14  29  52  77 106 139 174 212 260 314
#     4  11  22  39  59  80 107 144 183 225 275 331
#     4   9  17  33  54  79 110 147 182 220 270 324
#     4  10  19  35  57  83 111 144 182 223 268 322
#     4  11  21  35  56  85 114 144 182 228 272 320
#     4  11  22  38  57  80 108 143 182 225 274 327
#
# _framework density 19.225394999999999
#
# number of rings (size 3 to 8) (size 9 to 14) (size 15 to 20)
#    0.000    1.800    0.000    8.700    0.000    0.800 
#    0.000    6.500    0.000    1.200    0.000    0.000 
#    0.000    0.000    0.000    0.000    0.000    0.000 
#
# Total GULP energy -247955.070491 kJ/mol
# GULP energy per Si atom -12397.753525 kJ/mol
# Density = 1.918164 g / cm^3
# Si number density = 19.225395 Si / 1000 Ang^3
#
#
#
# Elastic Constant Matrix: (Units=GPa)
#
#
# Indices 1 2 3 4 5 6 
#
# 1 151.2326 17.9556 60.1348 0.0000 0.0000 0.0000
# 2 17.9556 90.4647 0.3216 0.0000 0.0000 0.0000
# 3 60.1348 0.3216 50.9136 0.0000 0.0000 0.0000
# 4 0.0000 0.0000 0.0000 27.8659 0.0000 0.0000
# 5 0.0000 0.0000 0.0000 0.0000 -36.3463 0.0000
# 6 0.0000 0.0000 0.0000 0.0000 0.0000 31.8435
#
#
#
# Elastic Compliance Matrix: (Units=1/GPa)
#
#
# Indices 1 2 3 4 5 6 
#
# 1 0.013022 -0.002530 -0.015365 0.000000 0.000000 0.000000
# 2 -0.002530 0.011546 0.002915 0.000000 0.000000 0.000000
# 3 -0.015365 0.002915 0.037770 0.000000 0.000000 0.000000
# 4 0.000000 0.000000 0.000000 0.035886 0.000000 0.000000
# 5 0.000000 0.000000 0.000000 0.000000 -0.027513 0.000000
# 6 0.000000 0.000000 0.000000 0.000000 0.000000 0.031404
#
#
# Mechanical properties :
#
#
# Convention : Reuss Voigt Hill
#
# Bulk Modulus (GPa) = 30.88386 49.93722 40.41054
# Shear Modulus (GPa) = 34.99759 18.95255 26.97507
#
# Velocity S-wave (km/s) = 4.27122 3.14316 3.74986
# Velocity P-wave (km/s) = 6.35794 6.26128 6.30980
#
# Compressibility (1/GPa) = 0.03237937
#
# Stress axis : x y z
#
# Youngs Moduli (GPa) = 76.79177 86.61128 26.47587
#
# Poissons Ratio (x) = 0.21913 0.40680
# Poissons Ratio (y) = 0.19429 -0.07719
# Poissons Ratio (z) = 1.17989 -0.25250
#
# Static dielectric constant tensor:
#      x y z
#    x 3.925020 0.000000 0.000000 
#    y 0.000000 3.502800 0.000000 
#    z 0.000000 0.000000 3.116480 
# 
# 
# High freq. dielectric constant tensor:
#      x y z
#    x 1.766690 0.000000 0.000000 
#    y 0.000000 1.754850 0.000000 
#    z 0.000000 0.000000 1.712730 
# 
# From -- ./inp_files/10074.got.cif
#   From: 2010.03.12/outbox.cif.g09.slc.cpg/sg35_6_cif.got.tgz:10074.got - 2010.04.14 02:02:04.
