data_PCOD8172173
_publ_section_title
;
Structure prediction by ZEFSAII (Michael W. Deem and Ramdas Pophale) SiO2 
 PCOD8172173
Probable space group: C M M 2
;
_chemical_formula_sum "Si O2"
_cell_formula_units_Z 48
_cell_length_a 8.669710
_cell_length_b 19.926632
_cell_length_c 15.673486
_cell_angle_alpha 90.000000
_cell_angle_beta 90.000000
_cell_angle_gamma 90.000000
_cell_volume 2707.721986
_symmetry_space_group_name_H-M "C M M 2"
_symmetry_group_IT_number 35
_symmetry_cell_setting 'orthorhombic'
loop_
_space_group_symop_operation_xyz
x,y,z
-x,-y,z
-x,y,z
x,-y,z
1/2+x,1/2+y,z
1/2-x,1/2-y,z
1/2-x,1/2+y,z
1/2+x,1/2-y,z
loop_
_atom_site_type_symbol
_atom_site_label
_atom_site_fract_x
_atom_site_fract_y
_atom_site_fract_z
Si Si1 0.679869 0.176828 0.809040
Si Si2 0.316454 0.074861 0.482944
Si Si3 0.683120 0.074902 0.292669
Si Si4 0.317511 0.675475 0.975958
Si Si5 0.816463 0.675937 0.149560
Si Si6 0.680396 0.176849 0.621616
O O1 0.500000 0.181039 0.830259
O O2 0.750000 0.250000 0.801480
O O3 0.711216 0.144310 0.715859
O O4 0.763369 0.137841 0.888243
O O5 0.500000 0.075298 0.488031
O O6 0.262182 0.095895 0.387745
O O7 0.246062 0.126649 0.551719
O O8 0.255680 0.000000 0.503874
O O9 0.500000 0.074290 0.288809
O O10 0.747589 0.128615 0.225078
O O11 0.744674 0.000000 0.270733
O O12 0.500000 0.675740 0.983532
O O13 0.250000 0.750000 0.969879
O O14 0.245057 0.642904 0.061140
O O15 0.750000 0.750000 0.164004
O O16 0.000000 0.679774 0.147283
O O17 0.500000 0.185083 0.606714
O O18 0.750000 0.250000 0.609465
#
# Coordination Sequence:
#
# PCOD8172173 Si02
#       6
#     8   8   8   8   8   8
#     4   9  15  24  38  59  87 115 144 177 215 258
#     4   8  14  27  46  66  88 115 149 184 216 255
#     4   8  15  28  46  66  87 115 150 184 217 255
#     4  10  17  26  41  61  86 116 148 179 216 259
#     4  10  18  28  44  67  93 116 143 181 222 261
#     4   9  17  27  43  68  93 117 144 179 221 258
#
# _framework density 17.727079
#
# number of rings (size 3 to 8) (size 9 to 14) (size 15 to 20)
#    0.000    3.000    0.000    5.500    0.000    1.333 
#    0.000    0.000    0.000    4.500    0.000    9.333 
#    0.000    0.000    0.000    0.000    0.000    0.000 
#
# Total GULP energy -297322.020801 kJ/mol
# GULP energy per Si atom -12388.417533 kJ/mol
# Density = 1.768673 g / cm^3
# Si number density = 17.727079 Si / 1000 Ang^3
#
#
#
# Elastic Constant Matrix: (Units=GPa)
#
#
# Indices 1 2 3 4 5 6 
#
# 1 63.2873 19.9986 40.8691 0.0000 0.0000 0.0000
# 2 19.9986 71.8558 81.3405 0.0000 0.0000 0.0000
# 3 40.8691 81.3405 193.1735 0.0000 0.0000 0.0000
# 4 0.0000 0.0000 0.0000 9.4497 0.0000 0.0000
# 5 0.0000 0.0000 0.0000 0.0000 18.2145 0.0000
# 6 0.0000 0.0000 0.0000 0.0000 0.0000 12.1461
#
#
#
# Elastic Compliance Matrix: (Units=1/GPa)
#
#
# Indices 1 2 3 4 5 6 
#
# 1 0.018371 -0.001363 -0.003313 0.000000 0.000000 0.000000
# 2 -0.001363 0.026693 -0.010951 0.000000 0.000000 0.000000
# 3 -0.003313 -0.010951 0.010489 0.000000 0.000000 0.000000
# 4 0.000000 0.000000 0.000000 0.105824 0.000000 0.000000
# 5 0.000000 0.000000 0.000000 0.000000 0.054901 0.000000
# 6 0.000000 0.000000 0.000000 0.000000 0.000000 0.082331
#
#
# Mechanical properties :
#
#
# Convention : Reuss Voigt Hill
#
# Bulk Modulus (GPa) = 41.15440 68.08144 54.61792
# Shear Modulus (GPa) = 14.79451 20.36927 17.58189
#
# Velocity S-wave (km/s) = 2.89203 3.39344 3.15272
# Velocity P-wave (km/s) = 5.86666 7.33775 6.64305
#
# Compressibility (1/GPa) = 0.02429874
#
# Stress axis : x y z
#
# Youngs Moduli (GPa) = 54.43384 37.46300 95.33848
#
# Poissons Ratio (x) = 0.05106 0.31584
# Poissons Ratio (y) = 0.07418 1.04409
# Poissons Ratio (z) = 0.18033 0.41027
#
# Static dielectric constant tensor:
#      x y z
#    x 3.046580 0.000000 0.000000 
#    y 0.000000 3.095830 0.000000 
#    z 0.000000 0.000000 4.469900 
# 
# 
# High freq. dielectric constant tensor:
#      x y z
#    x 1.663260 0.000000 0.000000 
#    y 0.000000 1.633460 0.000000 
#    z 0.000000 0.000000 1.714130 
# 
# From -- ./inp_files/15808.got.cif
#   From: 2010.03.12/outbox.cif.g09.slc.cpg/sg35_8_cif.got.tgz:15808.got - 2010.04.14 02:02:04.
