data_PCOD8172963
_publ_section_title
;
Structure prediction by ZEFSAII (Michael W. Deem and Ramdas Pophale) SiO2 
 PCOD8172963
Probable space group: C M M 2
;
_chemical_formula_sum "Si O2"
_cell_formula_units_Z 48
_cell_length_a 8.568567
_cell_length_b 15.410842
_cell_length_c 18.748120
_cell_angle_alpha 90.000000
_cell_angle_beta 90.000000
_cell_angle_gamma 90.000000
_cell_volume 2475.667352
_symmetry_space_group_name_H-M "C M M 2"
_symmetry_group_IT_number 35
_symmetry_cell_setting 'orthorhombic'
loop_
_space_group_symop_operation_xyz
x,y,z
-x,-y,z
-x,y,z
x,-y,z
1/2+x,1/2+y,z
1/2-x,1/2-y,z
1/2-x,1/2+y,z
1/2+x,1/2-y,z
loop_
_atom_site_type_symbol
_atom_site_label
_atom_site_fract_x
_atom_site_fract_y
_atom_site_fract_z
Si Si1 0.316671 0.000000 0.203560
Si Si2 0.183683 0.159802 0.454804
Si Si3 0.814561 0.657591 0.960865
Si Si4 0.184937 0.158473 0.616169
Si Si5 0.314924 0.342927 0.115564
Si Si6 0.814634 0.000000 0.358753
Si Si7 0.684810 0.000000 0.703869
Si Si8 0.814931 0.500000 0.864771
O O1 0.239845 0.085631 0.171289
O O2 0.282963 0.000000 0.287008
O O3 0.500000 0.000000 0.188259
O O4 0.250000 0.250000 0.424749
O O5 0.243758 0.141977 0.535221
O O6 0.239956 0.083406 0.403508
O O7 0.000000 0.166095 0.455572
O O8 0.750000 0.750000 0.934710
O O9 0.754331 0.585804 0.905177
O O10 0.000000 0.661576 0.965991
O O11 0.748666 0.632097 0.037942
O O12 0.250000 0.250000 0.644202
O O13 0.253503 0.085040 0.665853
O O14 0.000000 0.157316 0.621270
O O15 0.500000 0.338838 0.113234
O O16 0.250000 0.250000 0.140770
O O17 0.000000 0.000000 0.343861
O O18 0.750187 0.000000 0.784572
O O19 0.500000 0.000000 0.702639
O O20 0.000000 0.500000 0.865042
#
# Coordination Sequence:
#
# PCOD8172963 Si02
#       8
#     4   8   8   8   8   4   4   4
#     4  12  25  40  57  83 117 154 189 228 276 332
#     4   9  19  36  59  82 109 142 183 230 279 330
#     4  10  19  36  59  83 110 144 184 231 279 330
#     4  10  20  37  59  85 112 146 188 234 282 333
#     4  11  22  39  62  88 114 146 187 233 279 331
#     4  10  21  38  56  79 112 150 183 224 278 334
#     4  11  22  37  55  81 115 153 190 231 280 334
#     4   9  21  37  54  77 112 151 186 225 278 334
#
# _framework density 19.388712000000002
#
# number of rings (size 3 to 8) (size 9 to 14) (size 15 to 20)
#    0.000    1.833    0.000    5.500    0.000    4.667 
#    0.000    8.750    0.000    0.000    0.000    0.000 
#    0.000    0.000    0.000    0.000    0.000    0.000 
#
# Total GULP energy -297679.868262 kJ/mol
# GULP energy per Si atom -12403.327844 kJ/mol
# Density = 1.934458 g / cm^3
# Si number density = 19.388712 Si / 1000 Ang^3
#
#
#
# Elastic Constant Matrix: (Units=GPa)
#
#
# Indices 1 2 3 4 5 6 
#
# 1 92.0023 47.0265 38.6678 0.0000 0.0000 0.0000
# 2 47.0265 183.7211 105.1369 0.0000 0.0000 0.0000
# 3 38.6678 105.1369 130.4416 0.0000 0.0000 0.0000
# 4 0.0000 0.0000 0.0000 444.6227 0.0000 0.0000
# 5 0.0000 0.0000 0.0000 0.0000 28.3216 0.0000
# 6 0.0000 0.0000 0.0000 0.0000 0.0000 32.4226
#
#
#
# Elastic Compliance Matrix: (Units=1/GPa)
#
#
# Indices 1 2 3 4 5 6 
#
# 1 0.012821 -0.002054 -0.002145 0.000000 0.000000 0.000000
# 2 -0.002054 0.010432 -0.007799 0.000000 0.000000 0.000000
# 3 -0.002145 -0.007799 0.014588 0.000000 0.000000 0.000000
# 4 0.000000 0.000000 0.000000 0.002249 0.000000 0.000000
# 5 0.000000 0.000000 0.000000 0.000000 0.035309 0.000000
# 6 0.000000 0.000000 0.000000 0.000000 0.000000 0.030843
#
#
# Mechanical properties :
#
#
# Convention : Reuss Voigt Hill
#
# Bulk Modulus (GPa) = 72.23150 87.53639 79.88395
# Shear Modulus (GPa) = 37.07715 115.42896 76.25305
#
# Velocity S-wave (km/s) = 4.37774 7.72421 6.27805
# Velocity P-wave (km/s) = 7.93020 11.17127 9.68724
#
# Compressibility (1/GPa) = 0.01384437
#
# Stress axis : x y z
#
# Youngs Moduli (GPa) = 77.99839 95.85675 68.54718
#
# Poissons Ratio (x) = 0.19692 0.14702
# Poissons Ratio (y) = 0.16023 0.53463
# Poissons Ratio (z) = 0.16729 0.74763
#
# Static dielectric constant tensor:
#      x y z
#    x 3.516380 0.000000 0.000000 
#    y 0.000000 2.611500 0.000000 
#    z 0.000000 0.000000 3.655830 
# 
# 
# High freq. dielectric constant tensor:
#      x y z
#    x 1.756210 0.000000 0.000000 
#    y 0.000000 1.772140 0.000000 
#    z 0.000000 0.000000 1.751460 
# 
# From -- ./inp_files/17959.got.cif
#   From: 2010.03.12/outbox.cif.g09.slc.cpg/sg35_9_cif.got.tgz:17959.got - 2010.04.14 02:02:04.
