data_PCOD8172939
_publ_section_title
;
Structure prediction by ZEFSAII (Michael W. Deem and Ramdas Pophale) SiO2 
 PCOD8172939
Probable space group: C M M 2
;
_chemical_formula_sum "Si O2"
_cell_formula_units_Z 64
_cell_length_a 28.802633
_cell_length_b 9.174236
_cell_length_c 12.367328
_cell_angle_alpha 90.000000
_cell_angle_beta 90.000000
_cell_angle_gamma 90.000000
_cell_volume 3267.969372
_symmetry_space_group_name_H-M "C M M 2"
_symmetry_group_IT_number 35
_symmetry_cell_setting 'orthorhombic'
loop_
_space_group_symop_operation_xyz
x,y,z
-x,-y,z
-x,y,z
x,-y,z
1/2+x,1/2+y,z
1/2-x,1/2-y,z
1/2-x,1/2+y,z
1/2+x,1/2-y,z
loop_
_atom_site_type_symbol
_atom_site_label
_atom_site_fract_x
_atom_site_fract_y
_atom_site_fract_z
Si Si1 0.184353 0.335835 0.070630
Si Si2 0.894431 0.331932 0.760076
Si Si3 0.293950 0.670717 0.281348
Si Si4 0.294542 0.168638 0.828299
Si Si5 0.896710 0.172247 0.344045
Si Si6 0.420789 0.164396 0.133148
Si Si7 0.948889 0.163759 0.937882
Si Si8 0.554526 0.830684 0.538425
O O1 0.203148 0.500000 0.092127
O O2 0.205332 0.224516 0.157269
O O3 0.129340 0.335850 0.079200
O O4 0.196961 0.278278 0.951428
O O5 0.903055 0.500000 0.791372
O O6 0.839293 0.299193 0.752730
O O7 0.913631 0.234864 0.855549
O O8 0.920466 0.291510 0.650304
O O9 0.285198 0.500000 0.283212
O O10 0.250000 0.750000 0.339423
O O11 0.341759 0.712139 0.342565
O O12 0.250000 0.250000 0.778438
O O13 0.282696 0.000000 0.828047
O O14 0.922607 0.251121 0.246124
O O15 0.920197 0.229126 0.452401
O O16 0.903918 0.000000 0.333351
O O17 0.438871 0.000000 0.152613
O O18 0.453443 0.248104 0.049608
O O19 0.000000 0.163247 0.884929
O O20 0.931633 0.000000 0.962734
O O21 0.500000 0.792585 0.546289
O O22 0.561829 0.000000 0.508456
#
# Coordination Sequence:
#
# PCOD8172939 Si02
#       8
#     8   8   8   8   8   8   8   8
#     4   9  17  31  51  78 112 151 193 234 276 330
#     4  10  21  41  63  84 114 151 196 245 288 341
#     4  10  20  33  52  81 115 154 195 233 280 337
#     4  10  20  34  53  82 116 152 192 233 283 338
#     4  10  22  39  59  86 119 152 189 239 296 350
#     4  10  19  35  58  83 115 155 195 237 283 339
#     4  11  23  36  54  85 121 154 189 233 293 356
#     4  10  22  41  66  90 109 143 197 248 295 349
#
# _framework density 19.584028
#
# number of rings (size 3 to 8) (size 9 to 14) (size 15 to 20)
#    0.000    2.000    1.250    2.250    0.000    6.750 
#    0.000    0.625    0.000    3.000    0.000    0.000 
#    0.000    0.000    0.000    0.000    0.000    0.000 
#
# Total GULP energy -396796.650795 kJ/mol
# GULP energy per Si atom -12399.895337 kJ/mol
# Density = 1.953945 g / cm^3
# Si number density = 19.584028 Si / 1000 Ang^3
#
#
#
# Elastic Constant Matrix: (Units=GPa)
#
#
# Indices 1 2 3 4 5 6 
#
# 1 118.1511 55.2524 55.3233 0.0000 0.0000 0.0000
# 2 55.2524 110.9796 60.8678 0.0000 0.0000 0.0000
# 3 55.3233 60.8678 92.2219 0.0000 0.0000 0.0000
# 4 0.0000 0.0000 0.0000 -648.4090 0.0000 0.0000
# 5 0.0000 0.0000 0.0000 0.0000 21.3664 0.0000
# 6 0.0000 0.0000 0.0000 0.0000 0.0000 31.2410
#
#
#
# Elastic Compliance Matrix: (Units=1/GPa)
#
#
# Indices 1 2 3 4 5 6 
#
# 1 0.012499 -0.003308 -0.005315 0.000000 0.000000 0.000000
# 2 -0.003308 0.014998 -0.007915 0.000000 0.000000 0.000000
# 3 -0.005315 -0.007915 0.019256 0.000000 0.000000 0.000000
# 4 0.000000 0.000000 0.000000 -0.001542 0.000000 0.000000
# 5 0.000000 0.000000 0.000000 0.000000 0.046802 0.000000
# 6 0.000000 0.000000 0.000000 0.000000 0.000000 0.032009
#
#
# Mechanical properties :
#
#
# Convention : Reuss Voigt Hill
#
# Bulk Modulus (GPa) = 73.10948 73.80441 73.45695
# Shear Modulus (GPa) = 30.92950 -109.16638 -39.11844
#
# Velocity S-wave (km/s) = 3.97838 -7.47419 -4.47415
# Velocity P-wave (km/s) = 7.64955 6.05945 3.30141
#
# Compressibility (1/GPa) = 0.01367812
#
# Stress axis : x y z
#
# Youngs Moduli (GPa) = 80.00403 66.67337 51.93239
#
# Poissons Ratio (x) = 0.22055 0.27602
# Poissons Ratio (y) = 0.26464 0.41104
# Poissons Ratio (z) = 0.42523 0.52771
#
# Static dielectric constant tensor:
#      x y z
#    x 3.760700 0.000000 0.000000 
#    y 0.000000 5.348920 0.000000 
#    z 0.000000 0.000000 3.363440 
# 
# 
# High freq. dielectric constant tensor:
#      x y z
#    x 1.774830 0.000000 0.000000 
#    y 0.000000 1.766540 0.000000 
#    z 0.000000 0.000000 1.736210 
# 
# From -- ./inp_files/11964.got.cif
#   From: 2010.03.12/outbox.cif.g09.slc.cpg/sg35_6_cif.got.tgz:11964.got - 2010.04.14 02:02:04.
