data_PCOD8172190
_publ_section_title
;
Structure prediction by ZEFSAII (Michael W. Deem and Ramdas Pophale) SiO2 
 PCOD8172190
Probable space group: C M M 2
;
_chemical_formula_sum "Si O2"
_cell_formula_units_Z 56
_cell_length_a 8.759328
_cell_length_b 30.764004
_cell_length_c 12.704935
_cell_angle_alpha 90.000000
_cell_angle_beta 90.000000
_cell_angle_gamma 90.000000
_cell_volume 3423.624265
_symmetry_space_group_name_H-M "C M M 2"
_symmetry_group_IT_number 35
_symmetry_cell_setting 'orthorhombic'
loop_
_space_group_symop_operation_xyz
x,y,z
-x,-y,z
-x,y,z
x,-y,z
1/2+x,1/2+y,z
1/2-x,1/2-y,z
1/2-x,1/2+y,z
1/2+x,1/2-y,z
loop_
_atom_site_type_symbol
_atom_site_label
_atom_site_fract_x
_atom_site_fract_y
_atom_site_fract_z
Si Si1 0.322987 0.113986 0.411340
Si Si2 0.819738 0.381960 0.174320
Si Si3 0.322477 0.209093 0.400373
Si Si4 0.824040 0.949121 0.022306
Si Si5 0.679926 0.293486 0.172018
Si Si6 0.830841 0.551524 0.811697
Si Si7 0.182614 0.548643 0.581717
O O1 0.500000 0.102368 0.404720
O O2 0.255683 0.110141 0.293168
O O3 0.299318 0.162850 0.458185
O O4 0.245472 0.080059 0.492179
O O5 0.745640 0.338439 0.123367
O O6 0.000000 0.374939 0.176903
O O7 0.777560 0.423830 0.106414
O O8 0.500000 0.217228 0.375523
O O9 0.250000 0.250000 0.465812
O O10 0.227636 0.206957 0.293286
O O11 0.780961 0.933130 0.904764
O O12 0.000000 0.938513 0.042288
O O13 0.787949 0.000000 0.036309
O O14 0.500000 0.292784 0.157318
O O15 0.750000 0.250000 0.116692
O O16 0.843313 0.500000 0.808917
O O17 0.765533 0.566038 0.697301
O O18 0.000000 0.571179 0.832183
O O19 0.244373 0.500000 0.559859
O O20 0.000000 0.548795 0.580102
#
# Coordination Sequence:
#
# PCOD8172190 Si02
#       7
#     8   8   8   8   8   8   8
#     4   8  15  25  38  61  90 114 138 172 212 256
#     4  10  19  30  44  65  92 120 151 182 216 262
#     4   9  15  24  38  57  82 112 146 181 214 249
#     4  10  20  32  45  62  87 118 149 183 224 265
#     4  10  17  27  43  62  86 115 147 182 220 259
#     4   8  14  26  45  65  81 102 139 184 221 255
#     4   8  13  23  41  64  87 109 136 173 216 258
#
# _framework density 16.356936999999999
#
# number of rings (size 3 to 8) (size 9 to 14) (size 15 to 20)
#    0.000    3.000    0.000    5.143    0.000    1.429 
#    0.000    1.429    0.000    5.143    0.000    3.000 
#    0.000    4.571    0.000    0.000    0.000    0.000 
#
# Total GULP energy -346902.082995 kJ/mol
# GULP energy per Si atom -12389.360107 kJ/mol
# Density = 1.631971 g / cm^3
# Si number density = 16.356937 Si / 1000 Ang^3
#
#
#
# Elastic Constant Matrix: (Units=GPa)
#
#
# Indices 1 2 3 4 5 6 
#
# 1 67.8311 31.9980 21.5410 0.0000 0.0000 0.0000
# 2 31.9980 99.2042 52.1036 0.0000 0.0000 0.0000
# 3 21.5410 52.1036 79.1581 0.0000 0.0000 0.0000
# 4 0.0000 0.0000 0.0000 2.8999 0.0000 0.0000
# 5 0.0000 0.0000 0.0000 0.0000 9.8542 0.0000
# 6 0.0000 0.0000 0.0000 0.0000 0.0000 22.8907
#
#
#
# Elastic Compliance Matrix: (Units=1/GPa)
#
#
# Indices 1 2 3 4 5 6 
#
# 1 0.017520 -0.004810 -0.001602 0.000000 0.000000 0.000000
# 2 -0.004810 0.016727 -0.009701 0.000000 0.000000 0.000000
# 3 -0.001602 -0.009701 0.019454 0.000000 0.000000 0.000000
# 4 0.000000 0.000000 0.000000 0.344844 0.000000 0.000000
# 5 0.000000 0.000000 0.000000 0.000000 0.101480 0.000000
# 6 0.000000 0.000000 0.000000 0.000000 0.000000 0.043686
#
#
# Mechanical properties :
#
#
# Convention : Reuss Voigt Hill
#
# Bulk Modulus (GPa) = 46.56378 50.83096 48.69737
# Shear Modulus (GPa) = 8.57494 16.49900 12.53697
#
# Velocity S-wave (km/s) = 2.29211 3.17943 2.77151
# Velocity P-wave (km/s) = 5.96105 6.67996 6.33072
#
# Compressibility (1/GPa) = 0.02147592
#
# Stress axis : x y z
#
# Youngs Moduli (GPa) = 57.07733 59.78445 51.40252
#
# Poissons Ratio (x) = 0.28755 0.08233
# Poissons Ratio (y) = 0.27453 0.49866
# Poissons Ratio (z) = 0.09142 0.57997
#
# Static dielectric constant tensor:
#      x y z
#    x 2.947320 0.000000 0.000000 
#    y 0.000000 3.584240 0.000000 
#    z 0.000000 0.000000 3.055230 
# 
# 
# High freq. dielectric constant tensor:
#      x y z
#    x 1.614390 0.000000 0.000000 
#    y 0.000000 1.628160 0.000000 
#    z 0.000000 0.000000 1.589040 
# 
# From -- ./inp_files/16075.got.cif
#   From: 2010.03.12/outbox.cif.g09.slc.cpg/sg35_9_cif.got.tgz:16075.got - 2010.04.14 02:02:04.
