data_PCOD8172948
_publ_section_title
;
Structure prediction by ZEFSAII (Michael W. Deem and Ramdas Pophale) SiO2 
 PCOD8172948
Probable space group: C M M 2
;
_chemical_formula_sum "Si O2"
_cell_formula_units_Z 64
_cell_length_a 9.172312
_cell_length_b 30.690144
_cell_length_c 11.778011
_cell_angle_alpha 90.000000
_cell_angle_beta 90.000000
_cell_angle_gamma 90.000000
_cell_volume 3315.505104
_symmetry_space_group_name_H-M "C M M 2"
_symmetry_group_IT_number 35
_symmetry_cell_setting 'orthorhombic'
loop_
_space_group_symop_operation_xyz
x,y,z
-x,-y,z
-x,y,z
x,-y,z
1/2+x,1/2+y,z
1/2-x,1/2-y,z
1/2-x,1/2+y,z
1/2+x,1/2-y,z
loop_
_atom_site_type_symbol
_atom_site_label
_atom_site_fract_x
_atom_site_fract_y
_atom_site_fract_z
Si Si1 0.829522 0.370164 0.022180
Si Si2 0.667086 0.048558 0.168629
Si Si3 0.327259 0.792827 0.616512
Si Si4 0.170538 0.950261 0.630317
Si Si5 0.329237 0.123675 0.761682
Si Si6 0.167996 0.792785 0.145156
Si Si7 0.832971 0.820664 0.397496
Si Si8 0.171007 0.079571 0.385117
O O1 0.785685 0.417402 0.071610
O O2 0.737154 0.334840 0.088632
O O3 0.000000 0.360057 0.038554
O O4 0.784285 0.368553 0.891213
O O5 0.500000 0.056119 0.201817
O O6 0.756939 0.053644 0.283249
O O7 0.693630 0.000000 0.119691
O O8 0.500000 0.786150 0.617702
O O9 0.250000 0.750000 0.669067
O O10 0.278132 0.834364 0.690160
O O11 0.273205 0.798442 0.487796
O O12 0.250643 0.919590 0.719342
O O13 0.227072 0.940531 0.503357
O O14 0.000000 0.940162 0.637743
O O15 0.206430 0.000000 0.662141
O O16 0.500000 0.115851 0.748303
O O17 0.250000 0.750000 0.099886
O O18 0.185136 0.795202 0.280339
O O19 0.000000 0.789959 0.108822
O O20 0.782536 0.870173 0.379312
O O21 0.000000 0.818712 0.441519
O O22 0.000000 0.073458 0.371303
#
# Coordination Sequence:
#
# PCOD8172948 Si02
#       8
#     8   8   8   8   8   8   8   8
#     4  10  22  41  61  82 114 153 196 242 287 335
#     4  10  21  36  57  86 117 151 191 236 287 341
#     4  11  23  38  59  86 116 149 190 235 287 344
#     4  10  21  37  59  87 118 153 191 234 287 342
#     4  10  23  41  60  84 113 152 197 241 287 336
#     4  11  23  39  60  88 118 150 190 234 286 344
#     4  10  20  36  60  88 117 150 187 230 286 345
#     4  10  19  35  59  86 118 152 186 230 287 345
#
# _framework density 19.303242000000001
#
# number of rings (size 3 to 8) (size 9 to 14) (size 15 to 20)
#    0.000    1.750    2.500    1.500    0.000    6.000 
#    0.000    2.500    0.000    0.000    0.000    0.000 
#    0.000    0.000    0.000    0.000    0.000    0.000 
#
# Total GULP energy -396942.271132 kJ/mol
# GULP energy per Si atom -12404.445973 kJ/mol
# Density = 1.925931 g / cm^3
# Si number density = 19.303242 Si / 1000 Ang^3
#
#
#
# Elastic Constant Matrix: (Units=GPa)
#
#
# Indices 1 2 3 4 5 6 
#
# 1 67.3076 52.9040 41.1374 0.0000 0.0000 0.0000
# 2 52.9040 135.1515 39.1009 0.0000 0.0000 0.0000
# 3 41.1374 39.1009 91.6018 0.0000 0.0000 0.0000
# 4 0.0000 0.0000 0.0000 9.8747 0.0000 0.0000
# 5 0.0000 0.0000 0.0000 0.0000 24.0479 0.0000
# 6 0.0000 0.0000 0.0000 0.0000 0.0000 35.2510
#
#
#
# Elastic Compliance Matrix: (Units=1/GPa)
#
#
# Indices 1 2 3 4 5 6 
#
# 1 0.026118 -0.007793 -0.008403 0.000000 0.000000 0.000000
# 2 -0.007793 0.010767 -0.001096 0.000000 0.000000 0.000000
# 3 -0.008403 -0.001096 0.015158 0.000000 0.000000 0.000000
# 4 0.000000 0.000000 0.000000 0.101269 0.000000 0.000000
# 5 0.000000 0.000000 0.000000 0.000000 0.041584 0.000000
# 6 0.000000 0.000000 0.000000 0.000000 0.000000 0.028368
#
#
# Mechanical properties :
#
#
# Convention : Reuss Voigt Hill
#
# Bulk Modulus (GPa) = 57.27574 62.26062 59.76818
# Shear Modulus (GPa) = 18.96330 24.56261 21.76295
#
# Velocity S-wave (km/s) = 3.13771 3.57103 3.36136
# Velocity P-wave (km/s) = 6.54698 7.02332 6.78933
#
# Compressibility (1/GPa) = 0.01745940
#
# Stress axis : x y z
#
# Youngs Moduli (GPa) = 38.28785 92.87969 65.96986
#
# Poissons Ratio (x) = 0.72377 0.55434
# Poissons Ratio (y) = 0.29836 0.07232
# Poissons Ratio (z) = 0.32173 0.10182
#
# Static dielectric constant tensor:
#      x y z
#    x 3.467110 0.000000 0.000000 
#    y 0.000000 3.823710 0.000000 
#    z 0.000000 0.000000 3.449350 
# 
# 
# High freq. dielectric constant tensor:
#      x y z
#    x 1.746170 0.000000 0.000000 
#    y 0.000000 1.768550 0.000000 
#    z 0.000000 0.000000 1.743420 
# 
# From -- ./inp_files/11850.got.cif
#   From: 2010.03.12/outbox.cif.g09.slc.cpg/sg35_6_cif.got.tgz:11850.got - 2010.04.14 02:02:04.
