data_PCOD8172007
_publ_section_title
;
Structure prediction by ZEFSAII (Michael W. Deem and Ramdas Pophale) SiO2 
 PCOD8172007
Probable space group: P N N 2
;
_chemical_formula_sum "Si O2"
_cell_formula_units_Z 28
_cell_length_a 20.025018
_cell_length_b 5.173675
_cell_length_c 13.258694
_cell_angle_alpha 90.000000
_cell_angle_beta 90.000000
_cell_angle_gamma 90.000000
_cell_volume 1373.639613
_symmetry_space_group_name_H-M "P N N 2"
_symmetry_group_IT_number 34
_symmetry_cell_setting 'orthorhombic'
loop_
_space_group_symop_operation_xyz
x,y,z
-x,-y,z
1/2-x,1/2+y,1/2+z
1/2+x,1/2-y,1/2+z
loop_
_atom_site_type_symbol
_atom_site_label
_atom_site_fract_x
_atom_site_fract_y
_atom_site_fract_z
Si Si1 0.150569 0.441576 0.005940
Si Si2 0.748511 0.678292 0.851611
Si Si3 0.456821 0.741092 0.865794
Si Si4 0.463155 0.259368 0.488803
Si Si5 0.816072 0.660235 0.435249
Si Si6 0.594325 0.436447 0.650136
Si Si7 0.266259 0.298972 0.629329
O O1 0.090705 0.281343 0.061299
O O2 0.205202 0.524575 0.090099
O O3 0.185696 0.271686 0.919546
O O4 0.114586 0.698307 0.957304
O O5 0.721350 0.393805 0.878579
O O6 0.771647 0.715887 0.736058
O O7 0.692725 0.895826 0.872433
O O8 0.500000 0.500000 0.906892
O O9 0.395170 0.783923 0.942125
O O10 0.427180 0.668556 0.757230
O O11 0.500000 0.000000 0.858554
O O12 0.500000 0.500000 0.431887
O O13 0.454755 0.333171 0.609975
O O14 0.500000 0.000000 0.461792
O O15 0.786833 0.603189 0.546545
O O16 0.672175 0.510073 0.651801
#
# Coordination Sequence:
#
# PCOD8172007 Si02
#       7
#     4   4   4   4   4   4   4
#     4  10  22  36  58  90 123 156 200 258 313 373
#     4  11  22  40  62  92 122 154 207 262 318 370
#     4  12  27  38  59  91 127 170 207 251 312 391
#     4  11  22  34  53  80 118 162 191 235 302 377
#     4  11  23  42  61  92 127 162 207 257 311 382
#     4  11  21  37  57  90 122 156 202 246 314 365
#     4  10  22  38  65  89 123 164 201 262 317 365
#
# _framework density 20.383804999999999
#
# number of rings (size 3 to 8) (size 9 to 14) (size 15 to 20)
#    0.000    1.143    4.286    2.143    6.000    0.000 
#    0.000    0.000    0.000    0.857    3.714    0.000 
#    0.000    0.000    0.000    0.000    0.000    0.000 
#
# Total GULP energy -346912.261663 kJ/mol
# GULP energy per Si atom -12389.723631 kJ/mol
# Density = 2.033741 g / cm^3
# Si number density = 20.383805 Si / 1000 Ang^3
#
#
#
# Elastic Constant Matrix: (Units=GPa)
#
#
# Indices 1 2 3 4 5 6 
#
# 1 77.1613 33.1655 28.0590 0.0000 0.0000 0.0000
# 2 33.1655 110.3420 27.7078 0.0000 0.0000 0.0000
# 3 28.0590 27.7078 97.1076 0.0000 0.0000 0.0000
# 4 0.0000 0.0000 0.0000 15.4280 0.0000 0.0000
# 5 0.0000 0.0000 0.0000 0.0000 26.0866 0.0000
# 6 0.0000 0.0000 0.0000 0.0000 0.0000 41.0352
#
#
#
# Elastic Compliance Matrix: (Units=1/GPa)
#
#
# Indices 1 2 3 4 5 6 
#
# 1 0.015905 -0.003906 -0.003481 0.000000 0.000000 0.000000
# 2 -0.003906 0.010722 -0.001930 0.000000 0.000000 0.000000
# 3 -0.003481 -0.001930 0.011855 0.000000 0.000000 0.000000
# 4 0.000000 0.000000 0.000000 0.064817 0.000000 0.000000
# 5 0.000000 0.000000 0.000000 0.000000 0.038334 0.000000
# 6 0.000000 0.000000 0.000000 0.000000 0.000000 0.024369
#
#
# Mechanical properties :
#
#
# Convention : Reuss Voigt Hill
#
# Bulk Modulus (GPa) = 50.39017 51.38616 50.88817
# Shear Modulus (GPa) = 26.14352 29.55520 27.84936
#
# Velocity S-wave (km/s) = 3.58517 3.81193 3.70029
# Velocity P-wave (km/s) = 6.47397 6.68120 6.57840
#
# Compressibility (1/GPa) = 0.01984514
#
# Stress axis : x y z
#
# Youngs Moduli (GPa) = 62.87432 93.26939 84.35606
#
# Poissons Ratio (x) = 0.36434 0.29365
# Poissons Ratio (y) = 0.24561 0.16285
# Poissons Ratio (z) = 0.21887 0.18005
#
# Static dielectric constant tensor:
#      x y z
#    x 4.138380 0.000000 0.000000 
#    y 0.000000 3.969260 0.000000 
#    z 0.000000 0.000000 3.461260 
# 
# 
# High freq. dielectric constant tensor:
#      x y z
#    x 1.806750 0.000000 0.000000 
#    y 0.000000 1.815380 0.000000 
#    z 0.000000 0.000000 1.743600 
# 
# From -- ./inp_files/5842.got.cif
#   From: 2010.03.12/outbox.cif.g09.slc.cpg/sg34_3_cif.got.tgz:5842.got - 2010.04.14 01:56:33.
