data_PCOD8172775
_publ_section_title
;
Structure prediction by ZEFSAII (Michael W. Deem and Ramdas Pophale) SiO2 
 PCOD8172775
Probable space group: C M M 2
;
_chemical_formula_sum "Si O2"
_cell_formula_units_Z 64
_cell_length_a 9.331051
_cell_length_b 28.200200
_cell_length_c 15.415633
_cell_angle_alpha 90.000000
_cell_angle_beta 90.000000
_cell_angle_gamma 90.000000
_cell_volume 4056.431197
_symmetry_space_group_name_H-M "C M M 2"
_symmetry_group_IT_number 35
_symmetry_cell_setting 'orthorhombic'
loop_
_space_group_symop_operation_xyz
x,y,z
-x,-y,z
-x,y,z
x,-y,z
1/2+x,1/2+y,z
1/2-x,1/2-y,z
1/2-x,1/2+y,z
1/2+x,1/2-y,z
loop_
_atom_site_type_symbol
_atom_site_label
_atom_site_fract_x
_atom_site_fract_y
_atom_site_fract_z
Si Si1 0.334891 0.205287 0.660530
Si Si2 0.667831 0.102455 0.405060
Si Si3 0.158398 0.943669 0.066077
Si Si4 0.665221 0.443854 0.561161
Si Si5 0.832977 0.055416 0.872440
Si Si6 0.668983 0.102299 0.719676
Si Si7 0.165337 0.294718 0.462201
Si Si8 0.167031 0.445809 0.227683
O O1 0.500000 0.218845 0.665489
O O2 0.250000 0.250000 0.700044
O O3 0.300262 0.158381 0.715099
O O4 0.287583 0.195553 0.561342
O O5 0.500000 0.092497 0.424670
O O6 0.762419 0.074658 0.473925
O O7 0.701574 0.158338 0.407734
O O8 0.713970 0.084688 0.310411
O O9 0.260639 0.923805 0.141571
O O10 0.000000 0.923733 0.084593
O O11 0.156991 0.000000 0.067781
O O12 0.208195 0.928082 0.969972
O O13 0.500000 0.427019 0.565050
O O14 0.675679 0.500000 0.562434
O O15 0.749847 0.424413 0.643307
O O16 0.729527 0.085059 0.810947
O O17 0.000000 0.066088 0.852881
O O18 0.802082 0.000000 0.858358
O O19 0.500000 0.091527 0.711767
O O20 0.250000 0.250000 0.422664
O O21 0.000000 0.281602 0.456173
O O22 0.215520 0.500000 0.243928
O O23 0.000000 0.442496 0.211137
#
# Coordination Sequence:
#
# PCOD8172775 Si02
#       8
#     8   8   8   8   8   8   8   8
#     4   9  18  32  48  67  89 116 152 192 233 276
#     4  10  19  33  49  67  93 125 157 191 233 277
#     4   8  15  29  47  65  90 123 154 189 230 268
#     4  11  23  34  44  63  93 128 163 193 221 264
#     4   9  18  32  48  68  95 126 159 192 229 274
#     4  11  21  33  48  69  94 122 156 192 232 277
#     4   9  17  31  48  66  89 117 152 193 234 276
#     4   9  17  28  45  69  94 121 154 190 228 272
#
# _framework density 15.777415
#
# number of rings (size 3 to 8) (size 9 to 14) (size 15 to 20)
#    0.000    2.500    1.250    2.250    0.000    5.750 
#    0.000    2.500    0.000    0.000    0.000    0.875 
#    0.000    2.000    0.000    0.000    0.000    0.000 
#
# Total GULP energy -396761.281217 kJ/mol
# GULP energy per Si atom -12398.790038 kJ/mol
# Density = 1.574150 g / cm^3
# Si number density = 15.777415 Si / 1000 Ang^3
#
#
#
# Elastic Constant Matrix: (Units=GPa)
#
#
# Indices 1 2 3 4 5 6 
#
# 1 80.6570 54.4253 65.7452 0.0000 0.0000 0.0000
# 2 54.4253 86.7415 55.3550 0.0000 0.0000 0.0000
# 3 65.7452 55.3550 124.7962 0.0000 0.0000 0.0000
# 4 0.0000 0.0000 0.0000 -1.9332 0.0000 0.0000
# 5 0.0000 0.0000 0.0000 0.0000 28.8145 0.0000
# 6 0.0000 0.0000 0.0000 0.0000 0.0000 26.1815
#
#
#
# Elastic Compliance Matrix: (Units=1/GPa)
#
#
# Indices 1 2 3 4 5 6 
#
# 1 0.027966 -0.011361 -0.009694 0.000000 0.000000 0.000000
# 2 -0.011361 0.020695 -0.003195 0.000000 0.000000 0.000000
# 3 -0.009694 -0.003195 0.014537 0.000000 0.000000 0.000000
# 4 0.000000 0.000000 0.000000 -0.517283 0.000000 0.000000
# 5 0.000000 0.000000 0.000000 0.000000 0.034705 0.000000
# 6 0.000000 0.000000 0.000000 0.000000 0.000000 0.038195
#
#
# Mechanical properties :
#
#
# Convention : Reuss Voigt Hill
#
# Bulk Modulus (GPa) = 68.02781 71.47174 69.74978
# Shear Modulus (GPa) = -15.25378 18.39053 1.56838
#
# Velocity S-wave (km/s) = -3.11273 3.41783 0.99811
# Velocity P-wave (km/s) = 5.50382 7.80857 6.75521
#
# Compressibility (1/GPa) = 0.01469987
#
# Stress axis : x y z
#
# Youngs Moduli (GPa) = 35.75830 48.31995 68.79039
#
# Poissons Ratio (x) = 0.54895 0.66683
# Poissons Ratio (y) = 0.40624 0.21976
# Poissons Ratio (z) = 0.34663 0.15437
#
# Static dielectric constant tensor:
#      x y z
#    x 3.081750 0.000000 0.000000 
#    y 0.000000 2.921530 0.000000 
#    z 0.000000 0.000000 3.079650 
# 
# 
# High freq. dielectric constant tensor:
#      x y z
#    x 1.611410 0.000000 0.000000 
#    y 0.000000 1.586240 0.000000 
#    z 0.000000 0.000000 1.594660 
# 
# From -- ./inp_files/16189.got.cif
#   From: 2010.03.12/outbox.cif.g09.slc.cpg/sg35_9_cif.got.tgz:16189.got - 2010.04.14 02:02:04.
