data_PCOD8172584
_publ_section_title
;
Structure prediction by ZEFSAII (Michael W. Deem and Ramdas Pophale) SiO2 
 PCOD8172584
Probable space group: C M M 2
;
_chemical_formula_sum "Si O2"
_cell_formula_units_Z 48
_cell_length_a 15.657775
_cell_length_b 8.957920
_cell_length_c 17.189611
_cell_angle_alpha 90.000000
_cell_angle_beta 90.000000
_cell_angle_gamma 90.000000
_cell_volume 2411.033676
_symmetry_space_group_name_H-M "C M M 2"
_symmetry_group_IT_number 35
_symmetry_cell_setting 'orthorhombic'
loop_
_space_group_symop_operation_xyz
x,y,z
-x,-y,z
-x,y,z
x,-y,z
1/2+x,1/2+y,z
1/2-x,1/2-y,z
1/2-x,1/2+y,z
1/2+x,1/2-y,z
loop_
_atom_site_type_symbol
_atom_site_label
_atom_site_fract_x
_atom_site_fract_y
_atom_site_fract_z
Si Si1 0.500000 0.178017 0.003811
Si Si2 0.841496 0.674187 0.904510
Si Si3 0.658084 0.675647 0.584077
Si Si4 0.902637 0.169751 0.416749
Si Si5 0.158723 0.325926 0.731731
Si Si6 0.000000 0.677503 0.179806
Si Si7 0.335552 0.823971 0.272882
O O1 0.500000 0.237939 0.091797
O O2 0.500000 0.000000 0.999161
O O3 0.413746 0.238555 0.962489
O O4 0.825810 0.500000 0.918431
O O5 0.750000 0.750000 0.919523
O O6 0.879983 0.701973 0.817524
O O7 0.667053 0.500000 0.596583
O O8 0.750000 0.750000 0.574380
O O9 0.605119 0.715082 0.506924
O O10 0.608925 0.746381 0.659779
O O11 0.846102 0.277100 0.362958
O O12 0.000000 0.189019 0.391186
O O13 0.871033 0.000000 0.404243
O O14 0.165977 0.500000 0.713287
O O15 0.250000 0.250000 0.732700
O O16 0.084606 0.737454 0.222910
O O17 0.000000 0.500000 0.181353
O O18 0.250000 0.750000 0.238260
O O19 0.327066 0.000000 0.267047
#
# Coordination Sequence:
#
# PCOD8172584 Si02
#       7
#     4   8   8   8   8   4   8
#     4   9  18  36  59  82 111 148 180 219 275 333
#     4   9  18  33  56  81 109 145 185 225 272 325
#     4  10  19  31  49  73 102 139 182 225 269 321
#     4  10  21  37  55  77 109 147 186 230 278 327
#     4   9  16  28  47  73 102 137 179 224 268 315
#     4   9  20  38  59  84 115 144 180 225 273 333
#     4  11  22  38  60  87 113 146 187 228 276 334
#
# _framework density 19.908472
#
# number of rings (size 3 to 8) (size 9 to 14) (size 15 to 20)
#    0.000    2.333    0.833    3.000    0.000    4.000 
#    1.500    0.417    0.000    3.000    0.000    0.000 
#    0.000    0.000    0.000    0.000    0.000    0.000 
#
# Total GULP energy -297466.749180 kJ/mol
# GULP energy per Si atom -12394.447882 kJ/mol
# Density = 1.986316 g / cm^3
# Si number density = 19.908472 Si / 1000 Ang^3
#
#
#
# Elastic Constant Matrix: (Units=GPa)
#
#
# Indices 1 2 3 4 5 6 
#
# 1 117.5594 38.7091 65.8112 0.0000 0.0000 0.0000
# 2 38.7091 76.8419 46.4021 0.0000 0.0000 0.0000
# 3 65.8112 46.4021 150.6920 0.0000 0.0000 0.0000
# 4 0.0000 0.0000 0.0000 16.7988 0.0000 0.0000
# 5 0.0000 0.0000 0.0000 0.0000 31.1663 0.0000
# 6 0.0000 0.0000 0.0000 0.0000 0.0000 22.5247
#
#
#
# Elastic Compliance Matrix: (Units=1/GPa)
#
#
# Indices 1 2 3 4 5 6 
#
# 1 0.011993 -0.003536 -0.004149 0.000000 0.000000 0.000000
# 2 -0.003536 0.017029 -0.003699 0.000000 0.000000 0.000000
# 3 -0.004149 -0.003699 0.009587 0.000000 0.000000 0.000000
# 4 0.000000 0.000000 0.000000 0.059528 0.000000 0.000000
# 5 0.000000 0.000000 0.000000 0.000000 0.032086 0.000000
# 6 0.000000 0.000000 0.000000 0.000000 0.000000 0.044396
#
#
# Mechanical properties :
#
#
# Convention : Reuss Voigt Hill
#
# Bulk Modulus (GPa) = 63.12933 71.88202 67.50567
# Shear Modulus (GPa) = 24.67084 27.04267 25.85675
#
# Velocity S-wave (km/s) = 3.52406 3.68958 3.60777
# Velocity P-wave (km/s) = 6.95251 7.37125 7.16494
#
# Compressibility (1/GPa) = 0.01584050
#
# Stress axis : x y z
#
# Youngs Moduli (GPa) = 83.37957 58.72335 104.30687
#
# Poissons Ratio (x) = 0.20766 0.43276
# Poissons Ratio (y) = 0.29485 0.38586
# Poissons Ratio (z) = 0.34593 0.21723
#
# Static dielectric constant tensor:
#      x y z
#    x 3.506120 0.000000 0.000000 
#    y 0.000000 3.465220 0.000000 
#    z 0.000000 0.000000 4.310510 
# 
# 
# High freq. dielectric constant tensor:
#      x y z
#    x 1.762360 0.000000 0.000000 
#    y 0.000000 1.759550 0.000000 
#    z 0.000000 0.000000 1.786350 
# 
# From -- ./inp_files/17876.got.cif
#   From: 2010.03.12/outbox.cif.g09.slc.cpg/sg35_9_cif.got.tgz:17876.got - 2010.04.14 02:02:04.
