data_PCOD8172772
_publ_section_title
;
Structure prediction by ZEFSAII (Michael W. Deem and Ramdas Pophale) SiO2 
 PCOD8172772
Probable space group: C M M 2
;
_chemical_formula_sum "Si O2"
_cell_formula_units_Z 64
_cell_length_a 17.582365
_cell_length_b 26.712648
_cell_length_c 6.391922
_cell_angle_alpha 90.000000
_cell_angle_beta 90.000000
_cell_angle_gamma 90.000000
_cell_volume 3002.103768
_symmetry_space_group_name_H-M "C M M 2"
_symmetry_group_IT_number 35
_symmetry_cell_setting 'orthorhombic'
loop_
_space_group_symop_operation_xyz
x,y,z
-x,-y,z
-x,y,z
x,-y,z
1/2+x,1/2+y,z
1/2-x,1/2-y,z
1/2-x,1/2+y,z
1/2+x,1/2-y,z
loop_
_atom_site_type_symbol
_atom_site_label
_atom_site_fract_x
_atom_site_fract_y
_atom_site_fract_z
Si Si1 0.080366 0.696064 0.512890
Si Si2 0.713115 0.055853 0.623899
Si Si3 0.348315 0.442762 0.932508
Si Si4 0.586523 0.359119 0.672894
Si Si5 0.671979 0.822683 0.127821
Si Si6 0.913186 0.761000 0.878327
Si Si7 0.801902 0.121745 0.306086
Si Si8 0.415962 0.891317 0.839066
O O1 0.150187 0.686493 0.365915
O O2 0.090072 0.748549 0.630979
O O3 0.076847 0.657132 0.699207
O O4 0.000000 0.694980 0.386668
O O5 0.765676 0.060937 0.827665
O O6 0.736603 0.093574 0.440073
O O7 0.628515 0.066510 0.709483
O O8 0.715445 0.000000 0.530237
O O9 0.376298 0.500000 0.953972
O O10 0.405581 0.413744 0.777664
O O11 0.346087 0.418373 0.162838
O O12 0.500000 0.351153 0.599567
O O13 0.608114 0.319902 0.861799
O O14 0.639038 0.352826 0.466759
O O15 0.761727 0.836379 0.153570
O O16 0.650583 0.771523 0.003026
O O17 0.629147 0.872182 0.043540
O O18 0.000000 0.752458 0.967397
O O19 0.500000 0.911733 0.900676
#
# Coordination Sequence:
#
# PCOD8172772 Si02
#       8
#     8   8   8   8   8   8   8   8
#     4   9  17  31  54  83 118 163 209 251 292 352
#     4  10  20  37  59  84 123 167 209 263 325 381
#     4  10  22  42  67  92 119 161 210 262 330 395
#     4  10  24  45  66  93 130 166 204 264 335 393
#     4  11  19  34  61  90 121 167 215 252 299 367
#     4   9  20  38  60  88 127 169 208 253 311 373
#     4  11  22  39  66  92 123 166 212 265 320 385
#     4  10  19  32  54  85 122 166 213 260 302 357
#
# _framework density 21.318382
#
# number of rings (size 3 to 8) (size 9 to 14) (size 15 to 20)
#    0.000    2.000    2.500    2.250    0.000    2.500 
#    0.000    6.250    0.000    0.000    0.000    0.000 
#    0.000    0.000    0.000    0.000    0.000    0.000 
#
# Total GULP energy -396525.122387 kJ/mol
# GULP energy per Si atom -12391.410075 kJ/mol
# Density = 2.126986 g / cm^3
# Si number density = 21.318382 Si / 1000 Ang^3
#
#
#
# Elastic Constant Matrix: (Units=GPa)
#
#
# Indices 1 2 3 4 5 6 
#
# 1 106.3654 47.7404 35.4168 0.0000 0.0000 0.0000
# 2 47.7404 103.1009 27.9035 0.0000 0.0000 0.0000
# 3 35.4168 27.9035 79.7021 0.0000 0.0000 0.0000
# 4 0.0000 0.0000 0.0000 32.0523 0.0000 0.0000
# 5 0.0000 0.0000 0.0000 0.0000 29.4027 0.0000
# 6 0.0000 0.0000 0.0000 0.0000 0.0000 23.9275
#
#
#
# Elastic Compliance Matrix: (Units=1/GPa)
#
#
# Indices 1 2 3 4 5 6 
#
# 1 0.012946 -0.004902 -0.004036 0.000000 0.000000 0.000000
# 2 -0.004902 0.012571 -0.002223 0.000000 0.000000 0.000000
# 3 -0.004036 -0.002223 0.015119 0.000000 0.000000 0.000000
# 4 0.000000 0.000000 0.000000 0.031199 0.000000 0.000000
# 5 0.000000 0.000000 0.000000 0.000000 0.034010 0.000000
# 6 0.000000 0.000000 0.000000 0.000000 0.000000 0.041793
#
#
# Mechanical properties :
#
#
# Convention : Reuss Voigt Hill
#
# Bulk Modulus (GPa) = 54.60709 56.80999 55.70854
# Shear Modulus (GPa) = 28.39878 28.95035 28.67456
#
# Velocity S-wave (km/s) = 3.65379 3.68910 3.67149
# Velocity P-wave (km/s) = 6.59324 6.69718 6.64541
#
# Compressibility (1/GPa) = 0.01831264
#
# Stress axis : x y z
#
# Youngs Moduli (GPa) = 77.24520 79.55035 66.14397
#
# Poissons Ratio (x) = 0.38996 0.26699
# Poissons Ratio (y) = 0.37866 0.14702
# Poissons Ratio (z) = 0.31180 0.17681
#
# Static dielectric constant tensor:
#      x y z
#    x 3.831070 0.000000 0.000000 
#    y 0.000000 3.924470 0.000000 
#    z 0.000000 0.000000 3.668580 
# 
# 
# High freq. dielectric constant tensor:
#      x y z
#    x 1.825000 0.000000 0.000000 
#    y 0.000000 1.830360 0.000000 
#    z 0.000000 0.000000 1.828700 
# 
# From -- ./inp_files/2723.got.cif
#   From: 2010.03.12/outbox.cif.g09.slc.cpg/sg35_2_cif.got.tgz:2723.got - 2010.04.14 02:02:04.
