data_PCOD8172722
_publ_section_title
;
Structure prediction by ZEFSAII (Michael W. Deem and Ramdas Pophale) SiO2 
 PCOD8172722
Probable space group: C M M 2
;
_chemical_formula_sum "Si O2"
_cell_formula_units_Z 64
_cell_length_a 9.164512
_cell_length_b 29.463116
_cell_length_c 12.314697
_cell_angle_alpha 90.000000
_cell_angle_beta 90.000000
_cell_angle_gamma 90.000000
_cell_volume 3325.153897
_symmetry_space_group_name_H-M "C M M 2"
_symmetry_group_IT_number 35
_symmetry_cell_setting 'orthorhombic'
loop_
_space_group_symop_operation_xyz
x,y,z
-x,-y,z
-x,y,z
x,-y,z
1/2+x,1/2+y,z
1/2-x,1/2-y,z
1/2-x,1/2+y,z
1/2+x,1/2-y,z
loop_
_atom_site_type_symbol
_atom_site_label
_atom_site_fract_x
_atom_site_fract_y
_atom_site_fract_z
Si Si1 0.324583 0.200881 0.615660
Si Si2 0.670191 0.950135 0.324347
Si Si3 0.838806 0.169958 0.044612
Si Si4 0.332275 0.207722 0.229555
Si Si5 0.171373 0.854532 0.800278
Si Si6 0.327752 0.450530 0.871523
Si Si7 0.169117 0.640829 0.417937
Si Si8 0.836123 0.931429 0.108004
O O1 0.500000 0.206751 0.615715
O O2 0.250000 0.250000 0.608939
O O3 0.273170 0.174712 0.722659
O O4 0.262739 0.170194 0.515884
O O5 0.500000 0.940462 0.306021
O O6 0.732809 0.910700 0.405154
O O7 0.741050 0.949748 0.206299
O O8 0.697135 0.000000 0.377039
O O9 0.723650 0.201542 0.106332
O O10 0.836906 0.122505 0.106628
O O11 0.000000 0.191633 0.054695
O O12 0.796672 0.165095 0.919298
O O13 0.500000 0.220017 0.225805
O O14 0.250000 0.250000 0.284603
O O15 0.299473 0.164074 0.302659
O O16 0.224659 0.907744 0.798250
O O17 0.000000 0.850019 0.769426
O O18 0.500000 0.443994 0.883808
O O19 0.287012 0.500000 0.819431
O O20 0.265660 0.448908 0.994378
O O21 0.000000 0.638340 0.445475
O O22 0.000000 0.950332 0.123210
#
# Coordination Sequence:
#
# PCOD8172722 Si02
#       8
#     8   8   8   8   8   8   8   8
#     4  11  23  41  63  82 103 135 183 235 283 332
#     4  10  19  32  52  78 110 147 182 215 260 320
#     4   9  18  33  52  78 112 147 178 216 267 322
#     4  11  21  34  54  78 108 141 177 220 269 330
#     4   9  19  36  57  82 112 143 182 226 271 323
#     4   8  14  27  50  79 112 150 185 217 260 315
#     4   9  20  38  56  78 108 141 178 222 270 321
#     4   9  16  28  49  77 110 146 184 222 257 304
#
# _framework density 19.247230999999999
#
# number of rings (size 3 to 8) (size 9 to 14) (size 15 to 20)
#    0.000    2.500    1.250    3.000    0.000    1.750 
#    0.000    5.625    0.000    1.875    0.000    0.000 
#    0.000    0.000    0.000    0.000    0.000    0.000 
#
# Total GULP energy -396517.768191 kJ/mol
# GULP energy per Si atom -12391.180256 kJ/mol
# Density = 1.920342 g / cm^3
# Si number density = 19.247231 Si / 1000 Ang^3
#
#
#
# Elastic Constant Matrix: (Units=GPa)
#
#
# Indices 1 2 3 4 5 6 
#
# 1 63.4793 44.3950 37.1286 0.0000 0.0000 0.0000
# 2 44.3950 152.0980 57.6597 0.0000 0.0000 0.0000
# 3 37.1286 57.6597 85.7474 0.0000 0.0000 0.0000
# 4 0.0000 0.0000 0.0000 19.5615 0.0000 0.0000
# 5 0.0000 0.0000 0.0000 0.0000 21.3364 0.0000
# 6 0.0000 0.0000 0.0000 0.0000 0.0000 16.6321
#
#
#
# Elastic Compliance Matrix: (Units=1/GPa)
#
#
# Indices 1 2 3 4 5 6 
#
# 1 0.022690 -0.003890 -0.007209 0.000000 0.000000 0.000000
# 2 -0.003890 0.009491 -0.004698 0.000000 0.000000 0.000000
# 3 -0.007209 -0.004698 0.017943 0.000000 0.000000 0.000000
# 4 0.000000 0.000000 0.000000 0.051121 0.000000 0.000000
# 5 0.000000 0.000000 0.000000 0.000000 0.046868 0.000000
# 6 0.000000 0.000000 0.000000 0.000000 0.000000 0.060125
#
#
# Mechanical properties :
#
#
# Convention : Reuss Voigt Hill
#
# Bulk Modulus (GPa) = 53.96588 64.41016 59.18802
# Shear Modulus (GPa) = 20.32453 22.31542 21.31998
#
# Velocity S-wave (km/s) = 3.25310 3.40870 3.33181
# Velocity P-wave (km/s) = 6.49687 7.00212 6.75422
#
# Compressibility (1/GPa) = 0.01853023
#
# Stress axis : x y z
#
# Youngs Moduli (GPa) = 44.07181 105.36252 55.73310
#
# Poissons Ratio (x) = 0.40986 0.40179
# Poissons Ratio (y) = 0.17144 0.26182
# Poissons Ratio (z) = 0.31772 0.49497
#
# Static dielectric constant tensor:
#      x y z
#    x 3.260120 0.000000 0.000000 
#    y 0.000000 3.894530 0.000000 
#    z 0.000000 0.000000 3.339510 
# 
# 
# High freq. dielectric constant tensor:
#      x y z
#    x 1.718180 0.000000 0.000000 
#    y 0.000000 1.768970 0.000000 
#    z 0.000000 0.000000 1.725340 
# 
# From -- ./inp_files/11976.got.cif
#   From: 2010.03.12/outbox.cif.g09.slc.cpg/sg35_6_cif.got.tgz:11976.got - 2010.04.14 02:02:04.
