data_PCOD8172447
_publ_section_title
;
Structure prediction by ZEFSAII (Michael W. Deem and Ramdas Pophale) SiO2 
 PCOD8172447
Probable space group: C M M 2
;
_chemical_formula_sum "Si O2"
_cell_formula_units_Z 64
_cell_length_a 29.297426
_cell_length_b 8.582411
_cell_length_c 12.711779
_cell_angle_alpha 90.000000
_cell_angle_beta 90.000000
_cell_angle_gamma 90.000000
_cell_volume 3196.282142
_symmetry_space_group_name_H-M "C M M 2"
_symmetry_group_IT_number 35
_symmetry_cell_setting 'orthorhombic'
loop_
_space_group_symop_operation_xyz
x,y,z
-x,-y,z
-x,y,z
x,-y,z
1/2+x,1/2+y,z
1/2-x,1/2-y,z
1/2-x,1/2+y,z
1/2+x,1/2-y,z
loop_
_atom_site_type_symbol
_atom_site_label
_atom_site_fract_x
_atom_site_fract_y
_atom_site_fract_z
Si Si1 0.886143 0.814217 0.507770
Si Si2 0.183982 0.173398 0.188514
Si Si3 0.549145 0.314771 0.329402
Si Si4 0.296876 0.183336 0.966691
Si Si5 0.082204 0.828818 0.121619
Si Si6 0.390570 0.313623 0.902394
Si Si7 0.297630 0.184162 0.415996
Si Si8 0.447623 0.314784 0.701913
O O1 0.912625 0.747766 0.406079
O O2 0.835731 0.743331 0.499214
O O3 0.915480 0.754048 0.607457
O O4 0.882725 0.000000 0.510012
O O5 0.130301 0.156860 0.179728
O O6 0.195752 0.256939 0.297205
O O7 0.206160 0.000000 0.188153
O O8 0.202295 0.269948 0.089410
O O9 0.500000 0.272509 0.378094
O O10 0.555446 0.500000 0.320258
O O11 0.551795 0.242402 0.210556
O O12 0.250000 0.250000 0.917077
O O13 0.338858 0.251195 0.897838
O O14 0.297899 0.000000 0.955895
O O15 0.061898 0.000000 0.097961
O O16 0.086161 0.742984 0.009113
O O17 0.387304 0.500000 0.907935
O O18 0.422237 0.255425 0.807272
O O19 0.250000 0.250000 0.459972
O O20 0.297383 0.000000 0.416124
O O21 0.500000 0.249719 0.695618
O O22 0.449975 0.500000 0.700156
#
# Coordination Sequence:
#
# PCOD8172447 Si02
#       8
#     8   8   8   8   8   8   8   8
#     4  10  19  35  56  80 112 147 187 237 285 334
#     4  10  18  33  54  80 115 154 191 230 276 329
#     4   9  15  24  45  78 109 140 180 223 271 328
#     4  11  21  34  53  81 115 154 195 234 280 336
#     4   8  14  25  44  73 110 147 177 217 268 319
#     4   9  18  33  53  80 114 149 188 236 285 334
#     4  12  24  37  55  81 112 150 191 233 283 341
#     4   9  18  34  60  90 114 143 189 243 289 334
#
# _framework density 20.023264000000001
#
# number of rings (size 3 to 8) (size 9 to 14) (size 15 to 20)
#    0.000    2.250    1.250    4.125    0.000    2.000 
#    0.000    3.750    0.000    2.625    0.000    0.000 
#    0.000    0.000    0.000    0.000    0.000    0.000 
#
# Total GULP energy -396483.461597 kJ/mol
# GULP energy per Si atom -12390.108175 kJ/mol
# Density = 1.997769 g / cm^3
# Si number density = 20.023264 Si / 1000 Ang^3
#
#
#
# Elastic Constant Matrix: (Units=GPa)
#
#
# Indices 1 2 3 4 5 6 
#
# 1 150.6775 30.7572 80.1629 0.0000 0.0000 0.0000
# 2 30.7572 68.8815 26.9086 0.0000 0.0000 0.0000
# 3 80.1629 26.9086 127.4548 0.0000 0.0000 0.0000
# 4 0.0000 0.0000 0.0000 15.5393 0.0000 0.0000
# 5 0.0000 0.0000 0.0000 0.0000 45.2930 0.0000
# 6 0.0000 0.0000 0.0000 0.0000 0.0000 20.7976
#
#
#
# Elastic Compliance Matrix: (Units=1/GPa)
#
#
# Indices 1 2 3 4 5 6 
#
# 1 0.010285 -0.002251 -0.005993 0.000000 0.000000 0.000000
# 2 -0.002251 0.016315 -0.002029 0.000000 0.000000 0.000000
# 3 -0.005993 -0.002029 0.012044 0.000000 0.000000 0.000000
# 4 0.000000 0.000000 0.000000 0.064353 0.000000 0.000000
# 5 0.000000 0.000000 0.000000 0.000000 0.022078 0.000000
# 6 0.000000 0.000000 0.000000 0.000000 0.000000 0.048082
#
#
# Mechanical properties :
#
#
# Convention : Reuss Voigt Hill
#
# Bulk Modulus (GPa) = 55.25604 69.18568 62.22086
# Shear Modulus (GPa) = 25.03295 30.27166 27.65230
#
# Velocity S-wave (km/s) = 3.53964 3.89244 3.72022
# Velocity P-wave (km/s) = 6.66043 7.40467 7.04238
#
# Compressibility (1/GPa) = 0.01809757
#
# Stress axis : x y z
#
# Youngs Moduli (GPa) = 97.23118 61.29190 83.03046
#
# Poissons Ratio (x) = 0.13797 0.49763
# Poissons Ratio (y) = 0.21887 0.16845
# Poissons Ratio (z) = 0.58274 0.12434
#
# Static dielectric constant tensor:
#      x y z
#    x 3.916580 0.000000 0.000000 
#    y 0.000000 3.186050 0.000000 
#    z 0.000000 0.000000 3.725520 
# 
# 
# High freq. dielectric constant tensor:
#      x y z
#    x 1.794610 0.000000 0.000000 
#    y 0.000000 1.733260 0.000000 
#    z 0.000000 0.000000 1.768930 
# 
# From -- ./inp_files/14535.got.cif
#   From: 2010.03.12/outbox.cif.g09.slc.cpg/sg35_8_cif.got.tgz:14535.got - 2010.04.14 02:02:04.
