data_PCOD8172438
_publ_section_title
;
Structure prediction by ZEFSAII (Michael W. Deem and Ramdas Pophale) SiO2 
 PCOD8172438
Probable space group: C M M 2
;
_chemical_formula_sum "Si O2"
_cell_formula_units_Z 64
_cell_length_a 8.688345
_cell_length_b 30.945260
_cell_length_c 11.908351
_cell_angle_alpha 90.000000
_cell_angle_beta 90.000000
_cell_angle_gamma 90.000000
_cell_volume 3201.716106
_symmetry_space_group_name_H-M "C M M 2"
_symmetry_group_IT_number 35
_symmetry_cell_setting 'orthorhombic'
loop_
_space_group_symop_operation_xyz
x,y,z
-x,-y,z
-x,y,z
x,-y,z
1/2+x,1/2+y,z
1/2-x,1/2-y,z
1/2-x,1/2+y,z
1/2+x,1/2-y,z
loop_
_atom_site_type_symbol
_atom_site_label
_atom_site_fract_x
_atom_site_fract_y
_atom_site_fract_z
Si Si1 0.676362 0.048960 0.862930
Si Si2 0.317916 0.047190 0.384379
Si Si3 0.682068 0.294402 0.853146
Si Si4 0.181503 0.627176 0.240575
Si Si5 0.180013 0.875966 0.999259
Si Si6 0.817385 0.795525 0.378233
Si Si7 0.680929 0.674096 0.617543
Si Si8 0.323050 0.917644 0.621175
O O1 0.500000 0.060381 0.893487
O O2 0.789191 0.080890 0.928358
O O3 0.702563 0.052695 0.729618
O O4 0.715545 0.000000 0.898813
O O5 0.500000 0.046365 0.373435
O O6 0.252384 0.084674 0.303850
O O7 0.268774 0.055695 0.512683
O O8 0.251552 0.000000 0.348942
O O9 0.500000 0.291772 0.853561
O O10 0.750000 0.250000 0.902849
O O11 0.736836 0.334340 0.929349
O O12 0.747101 0.300857 0.726370
O O13 0.264755 0.668970 0.289490
O O14 0.000000 0.632138 0.258610
O O15 0.219747 0.622392 0.110774
O O16 0.000000 0.873207 0.028190
O O17 0.750000 0.750000 0.338160
O O18 0.749443 0.806673 0.502168
O O19 0.000000 0.793400 0.378688
O O20 0.500000 0.679237 0.614355
O O21 0.718845 0.624219 0.631198
O O22 0.500000 0.902915 0.608736
#
# Coordination Sequence:
#
# PCOD8172438 Si02
#       8
#     8   8   8   8   8   8   8   8
#     4  10  21  37  60  91 122 154 196 244 294 352
#     4   9  18  34  58  88 119 151 189 237 292 347
#     4  10  22  39  60  86 116 151 190 237 292 350
#     4  11  23  40  62  87 117 155 202 250 298 349
#     4  11  24  42  61  83 117 158 202 248 297 351
#     4  11  23  39  62  89 121 156 195 242 295 355
#     4  10  20  36  58  87 122 154 186 235 295 354
#     4  10  18  32  59  90 119 152 191 237 291 353
#
# _framework density 19.989279
#
# number of rings (size 3 to 8) (size 9 to 14) (size 15 to 20)
#    0.000    1.750    2.500    1.875    0.000    4.750 
#    0.000    2.500    0.000    3.750    0.000    0.000 
#    0.000    0.000    0.000    0.000    0.000    0.000 
#
# Total GULP energy -396863.960662 kJ/mol
# GULP energy per Si atom -12401.998771 kJ/mol
# Density = 1.994378 g / cm^3
# Si number density = 19.989279 Si / 1000 Ang^3
#
#
#
# Elastic Constant Matrix: (Units=GPa)
#
#
# Indices 1 2 3 4 5 6 
#
# 1 30.9647 22.1465 20.4222 0.0000 0.0000 0.0000
# 2 22.1465 161.2484 51.8005 0.0000 0.0000 0.0000
# 3 20.4222 51.8005 117.1383 0.0000 0.0000 0.0000
# 4 0.0000 0.0000 0.0000 22.0349 0.0000 0.0000
# 5 0.0000 0.0000 0.0000 0.0000 27.1615 0.0000
# 6 0.0000 0.0000 0.0000 0.0000 0.0000 28.7022
#
#
#
# Elastic Compliance Matrix: (Units=1/GPa)
#
#
# Indices 1 2 3 4 5 6 
#
# 1 0.038225 -0.003624 -0.005062 0.000000 0.000000 0.000000
# 2 -0.003624 0.007572 -0.002717 0.000000 0.000000 0.000000
# 3 -0.005062 -0.002717 0.010621 0.000000 0.000000 0.000000
# 4 0.000000 0.000000 0.000000 0.045383 0.000000 0.000000
# 5 0.000000 0.000000 0.000000 0.000000 0.036817 0.000000
# 6 0.000000 0.000000 0.000000 0.000000 0.000000 0.034841
#
#
# Mechanical properties :
#
#
# Convention : Reuss Voigt Hill
#
# Bulk Modulus (GPa) = 29.75015 55.34331 42.54673
# Shear Modulus (GPa) = 24.10023 29.91187 27.00605
#
# Velocity S-wave (km/s) = 3.47603 3.87252 3.67962
# Velocity P-wave (km/s) = 5.57007 6.90955 6.27565
#
# Compressibility (1/GPa) = 0.03361328
#
# Stress axis : x y z
#
# Youngs Moduli (GPa) = 26.16081 132.06442 94.15525
#
# Poissons Ratio (x) = 0.47859 0.47659
# Poissons Ratio (y) = 0.09480 0.25579
# Poissons Ratio (z) = 0.13242 0.35878
#
# Static dielectric constant tensor:
#      x y z
#    x 3.356400 0.000000 0.000000 
#    y 0.000000 3.684260 0.000000 
#    z 0.000000 0.000000 3.761600 
# 
# 
# High freq. dielectric constant tensor:
#      x y z
#    x 1.757720 0.000000 0.000000 
#    y 0.000000 1.792100 0.000000 
#    z 0.000000 0.000000 1.782090 
# 
# From -- ./inp_files/11933.got.cif
#   From: 2010.03.12/outbox.cif.g09.slc.cpg/sg35_6_cif.got.tgz:11933.got - 2010.04.14 02:02:04.
