data_PCOD8172215
_publ_section_title
;
Structure prediction by ZEFSAII (Michael W. Deem and Ramdas Pophale) SiO2 
 PCOD8172215
Probable space group: C M M 2
;
_chemical_formula_sum "Si O2"
_cell_formula_units_Z 64
_cell_length_a 8.843649
_cell_length_b 28.546710
_cell_length_c 15.530382
_cell_angle_alpha 90.000000
_cell_angle_beta 90.000000
_cell_angle_gamma 90.000000
_cell_volume 3920.754943
_symmetry_space_group_name_H-M "C M M 2"
_symmetry_group_IT_number 35
_symmetry_cell_setting 'orthorhombic'
loop_
_space_group_symop_operation_xyz
x,y,z
-x,-y,z
-x,y,z
x,-y,z
1/2+x,1/2+y,z
1/2-x,1/2-y,z
1/2-x,1/2+y,z
1/2+x,1/2-y,z
loop_
_atom_site_type_symbol
_atom_site_label
_atom_site_fract_x
_atom_site_fract_y
_atom_site_fract_z
Si Si1 0.174547 0.945107 0.967020
Si Si2 0.820199 0.610840 0.487581
Si Si3 0.167786 0.555535 0.138222
Si Si4 0.679872 0.947730 0.326313
Si Si5 0.321330 0.890142 0.815031
Si Si6 0.822018 0.201490 0.555134
Si Si7 0.320375 0.947605 0.651134
Si Si8 0.821945 0.201359 0.753031
O O1 0.277687 0.916394 0.901969
O O2 0.000000 0.933564 0.950676
O O3 0.209313 0.000000 0.954694
O O4 0.218162 0.928427 0.063337
O O5 0.760242 0.587222 0.399747
O O6 0.744834 0.661460 0.494288
O O7 0.762711 0.578724 0.566188
O O8 0.000000 0.616479 0.489156
O O9 0.156649 0.500000 0.142315
O O10 0.228792 0.572155 0.232127
O O11 0.000000 0.576114 0.119584
O O12 0.500000 0.950647 0.330259
O O13 0.746119 0.000000 0.342565
O O14 0.500000 0.883543 0.810605
O O15 0.259698 0.920602 0.734979
O O16 0.244019 0.839439 0.812869
O O17 0.750000 0.250000 0.523936
O O18 0.776141 0.191247 0.654060
O O19 0.000000 0.204444 0.543529
O O20 0.500000 0.949775 0.652292
O O21 0.252441 0.000000 0.651638
O O22 0.750000 0.250000 0.784384
O O23 0.000000 0.204391 0.765206
#
# Coordination Sequence:
#
# PCOD8172215 Si02
#       8
#     8   8   8   8   8   8   8   8
#     4  10  20  32  46  67  96 129 163 200 242 284
#     4  10  17  28  47  70  96 125 159 195 234 277
#     4   8  14  27  46  67  91 121 159 200 238 277
#     4   8  14  25  45  72  98 125 159 197 233 274
#     4  11  20  31  48  70  96 126 162 198 236 281
#     4  10  20  33  49  67  91 121 158 200 242 281
#     4   9  17  27  41  64  94 127 161 191 220 264
#     4  10  20  34  51  69  92 121 158 201 245 285
#
# _framework density 16.323387
#
# number of rings (size 3 to 8) (size 9 to 14) (size 15 to 20)
#    0.000    2.500    1.250    3.000    0.000    3.750 
#    0.000    0.625    0.000    3.000    0.000    0.875 
#    0.000    2.000    0.000    0.000    0.000    0.000 
#
# Total GULP energy -396781.771005 kJ/mol
# GULP energy per Si atom -12399.430344 kJ/mol
# Density = 1.628623 g / cm^3
# Si number density = 16.323387 Si / 1000 Ang^3
#
#
#
# Elastic Constant Matrix: (Units=GPa)
#
#
# Indices 1 2 3 4 5 6 
#
# 1 48.9844 32.9468 25.8749 0.0000 0.0000 0.0000
# 2 32.9468 107.5820 52.9614 0.0000 0.0000 0.0000
# 3 25.8749 52.9614 112.3511 0.0000 0.0000 0.0000
# 4 0.0000 0.0000 0.0000 11.8599 0.0000 0.0000
# 5 0.0000 0.0000 0.0000 0.0000 16.0569 0.0000
# 6 0.0000 0.0000 0.0000 0.0000 0.0000 23.1471
#
#
#
# Elastic Compliance Matrix: (Units=1/GPa)
#
#
# Indices 1 2 3 4 5 6 
#
# 1 0.026445 -0.006642 -0.002960 0.000000 0.000000 0.000000
# 2 -0.006642 0.013772 -0.004962 0.000000 0.000000 0.000000
# 3 -0.002960 -0.004962 0.011922 0.000000 0.000000 0.000000
# 4 0.000000 0.000000 0.000000 0.084318 0.000000 0.000000
# 5 0.000000 0.000000 0.000000 0.000000 0.062279 0.000000
# 6 0.000000 0.000000 0.000000 0.000000 0.000000 0.043202
#
#
# Mechanical properties :
#
#
# Convention : Reuss Voigt Hill
#
# Bulk Modulus (GPa) = 43.45691 54.72042 49.08867
# Shear Modulus (GPa) = 17.93817 20.68841 19.31329
#
# Velocity S-wave (km/s) = 3.31860 3.56393 3.44345
# Velocity P-wave (km/s) = 6.43152 7.10851 6.77847
#
# Compressibility (1/GPa) = 0.02301130
#
# Stress axis : x y z
#
# Youngs Moduli (GPa) = 37.81392 72.60961 83.88176
#
# Poissons Ratio (x) = 0.48227 0.24825
# Poissons Ratio (y) = 0.25116 0.41626
# Poissons Ratio (z) = 0.11191 0.36032
#
# Static dielectric constant tensor:
#      x y z
#    x 2.862020 0.000000 0.000000 
#    y 0.000000 2.998140 0.000000 
#    z 0.000000 0.000000 3.226320 
# 
# 
# High freq. dielectric constant tensor:
#      x y z
#    x 1.612900 0.000000 0.000000 
#    y 0.000000 1.610370 0.000000 
#    z 0.000000 0.000000 1.618480 
# 
# From -- ./inp_files/16226.got.cif
#   From: 2010.03.12/outbox.cif.g09.slc.cpg/sg35_9_cif.got.tgz:16226.got - 2010.04.14 02:02:04.
