data_PCOD8172706
_publ_section_title
;
Structure prediction by ZEFSAII (Michael W. Deem and Ramdas Pophale) SiO2 
 PCOD8172706
Probable space group: C M M 2
;
_chemical_formula_sum "Si O2"
_cell_formula_units_Z 64
_cell_length_a 8.974223
_cell_length_b 18.848999
_cell_length_c 20.737058
_cell_angle_alpha 90.000000
_cell_angle_beta 90.000000
_cell_angle_gamma 90.000000
_cell_volume 3507.779542
_symmetry_space_group_name_H-M "C M M 2"
_symmetry_group_IT_number 35
_symmetry_cell_setting 'orthorhombic'
loop_
_space_group_symop_operation_xyz
x,y,z
-x,-y,z
-x,y,z
x,-y,z
1/2+x,1/2+y,z
1/2-x,1/2-y,z
1/2-x,1/2+y,z
1/2+x,1/2-y,z
loop_
_atom_site_type_symbol
_atom_site_label
_atom_site_fract_x
_atom_site_fract_y
_atom_site_fract_z
Si Si1 0.675428 0.673435 0.786180
Si Si2 0.174374 0.417661 0.314925
Si Si3 0.328385 0.417989 0.183320
Si Si4 0.175330 0.174048 0.064690
Si Si5 0.172206 0.824062 0.925910
Si Si6 0.323729 0.326538 0.424695
Si Si7 0.329056 0.916607 0.677970
Si Si8 0.673349 0.418623 0.547564
O O1 0.500000 0.682425 0.775468
O O2 0.750000 0.750000 0.777883
O O3 0.712284 0.638703 0.857387
O O4 0.737920 0.619579 0.734430
O O5 0.211762 0.500000 0.328644
O O6 0.227392 0.395879 0.243719
O O7 0.264619 0.369471 0.363891
O O8 0.000000 0.402035 0.321593
O O9 0.500000 0.399170 0.198929
O O10 0.310128 0.500000 0.166808
O O11 0.265821 0.376827 0.121022
O O12 0.250000 0.250000 0.072557
O O13 0.000000 0.184637 0.071662
O O14 0.214180 0.137805 0.994142
O O15 0.250000 0.750000 0.926414
O O16 0.000000 0.806692 0.925948
O O17 0.500000 0.318191 0.418401
O O18 0.250000 0.250000 0.428063
O O19 0.277760 0.369797 0.488272
O O20 0.500000 0.893075 0.681990
O O21 0.265607 0.891936 0.609127
O O22 0.308093 0.000000 0.686306
O O23 0.500000 0.410325 0.563834
O O24 0.712486 0.500000 0.530053
#
# Coordination Sequence:
#
# PCOD8172706 Si02
#       8
#     8   8   8   8   8   8   8   8
#     4  10  19  32  52  76 103 136 174 217 262 309
#     4  10  21  37  57  79 104 137 176 215 255 305
#     4   9  18  33  52  73 100 135 172 210 253 303
#     4   9  17  30  49  73  99 129 167 210 256 305
#     4   8  15  28  46  70  98 129 167 208 253 305
#     4  11  23  38  57  82 111 139 169 210 257 303
#     4  10  21  36  54  77 106 139 174 213 256 304
#     4   9  19  37  59  79 101 135 176 213 253 305
#
# _framework density 18.245159999999998
#
# number of rings (size 3 to 8) (size 9 to 14) (size 15 to 20)
#    0.000    2.500    0.000    1.875    0.000    5.000 
#    0.000    4.375    0.000    2.250    0.000    1.750 
#    0.000    0.000    0.000    0.000    0.000    0.000 
#
# Total GULP energy -396612.149040 kJ/mol
# GULP energy per Si atom -12394.129658 kJ/mol
# Density = 1.820363 g / cm^3
# Si number density = 18.245160 Si / 1000 Ang^3
#
#
#
# Elastic Constant Matrix: (Units=GPa)
#
#
# Indices 1 2 3 4 5 6 
#
# 1 70.7948 39.9225 64.9388 0.0000 0.0000 0.0000
# 2 39.9225 71.1667 77.9325 0.0000 0.0000 0.0000
# 3 64.9388 77.9325 179.6527 0.0000 0.0000 0.0000
# 4 0.0000 0.0000 0.0000 31.3878 0.0000 0.0000
# 5 0.0000 0.0000 0.0000 0.0000 25.4418 0.0000
# 6 0.0000 0.0000 0.0000 0.0000 0.0000 26.0075
#
#
#
# Elastic Compliance Matrix: (Units=1/GPa)
#
#
# Indices 1 2 3 4 5 6 
#
# 1 0.022923 -0.007211 -0.005158 0.000000 0.000000 0.000000
# 2 -0.007211 0.029035 -0.009989 0.000000 0.000000 0.000000
# 3 -0.005158 -0.009989 0.011764 0.000000 0.000000 0.000000
# 4 0.000000 0.000000 0.000000 0.031859 0.000000 0.000000
# 5 0.000000 0.000000 0.000000 0.000000 0.039305 0.000000
# 6 0.000000 0.000000 0.000000 0.000000 0.000000 0.038450
#
#
# Mechanical properties :
#
#
# Convention : Reuss Voigt Hill
#
# Bulk Modulus (GPa) = 52.61302 76.35576 64.48439
# Shear Modulus (GPa) = 22.28290 25.82214 24.05252
#
# Velocity S-wave (km/s) = 3.49851 3.76611 3.63477
# Velocity P-wave (km/s) = 6.72449 7.80078 7.28254
#
# Compressibility (1/GPa) = 0.01900670
#
# Stress axis : x y z
#
# Youngs Moduli (GPa) = 43.62458 34.44124 85.00678
#
# Poissons Ratio (x) = 0.24835 0.43845
# Poissons Ratio (y) = 0.31457 0.84911
# Poissons Ratio (z) = 0.22501 0.34402
#
# Static dielectric constant tensor:
#      x y z
#    x 3.323070 0.000000 0.000000 
#    y 0.000000 2.982390 0.000000 
#    z 0.000000 0.000000 3.887080 
# 
# 
# High freq. dielectric constant tensor:
#      x y z
#    x 1.712420 0.000000 0.000000 
#    y 0.000000 1.681580 0.000000 
#    z 0.000000 0.000000 1.729990 
# 
# From -- ./inp_files/18352.got.cif
#   From: 2010.03.12/outbox.cif.g09.slc.cpg/sg35_10_cif.got.tgz:18352.got - 2010.04.14 02:02:04.
