data_PCOD8172672
_publ_section_title
;
Structure prediction by ZEFSAII (Michael W. Deem and Ramdas Pophale) SiO2 
 PCOD8172672
Probable space group: C M M 2
;
_chemical_formula_sum "Si O2"
_cell_formula_units_Z 56
_cell_length_a 9.154111
_cell_length_b 19.021361
_cell_length_c 18.207733
_cell_angle_alpha 90.000000
_cell_angle_beta 90.000000
_cell_angle_gamma 90.000000
_cell_volume 3170.396928
_symmetry_space_group_name_H-M "C M M 2"
_symmetry_group_IT_number 35
_symmetry_cell_setting 'orthorhombic'
loop_
_space_group_symop_operation_xyz
x,y,z
-x,-y,z
-x,y,z
x,-y,z
1/2+x,1/2+y,z
1/2-x,1/2-y,z
1/2-x,1/2+y,z
1/2+x,1/2-y,z
loop_
_atom_site_type_symbol
_atom_site_label
_atom_site_fract_x
_atom_site_fract_y
_atom_site_fract_z
Si Si1 0.331121 0.083035 0.928840
Si Si2 0.333872 0.321046 0.649803
Si Si3 0.827595 0.174558 0.809459
Si Si4 0.329004 0.324552 0.490865
Si Si5 0.162343 0.583652 0.210912
Si Si6 0.169364 0.418121 0.374683
Si Si7 0.836456 0.083657 0.072872
O O1 0.500000 0.105478 0.926272
O O2 0.242387 0.119275 0.864212
O O3 0.312113 0.000000 0.919580
O O4 0.264225 0.109386 0.005880
O O5 0.500000 0.297828 0.649718
O O6 0.250000 0.250000 0.649590
O O7 0.299773 0.359453 0.727511
O O8 0.298907 0.359956 0.572209
O O9 0.750000 0.250000 0.817913
O O10 0.000000 0.183106 0.825752
O O11 0.500000 0.312650 0.477337
O O12 0.250000 0.250000 0.483093
O O13 0.270188 0.377830 0.431169
O O14 0.158324 0.500000 0.207974
O O15 0.212277 0.607131 0.292351
O O16 0.271514 0.613969 0.149197
O O17 0.000000 0.612588 0.194225
O O18 0.202134 0.500000 0.384203
O O19 0.000000 0.401719 0.390124
O O20 0.000000 0.113466 0.062782
O O21 0.838543 0.000000 0.075644
#
# Coordination Sequence:
#
# PCOD8172672 Si02
#       7
#     8   8   8   8   8   8   8
#     4  10  20  33  49  71 100 131 163 199 239 283
#     4   8  16  30  48  70  93 121 158 199 239 281
#     4  10  19  33  53  74  97 125 160 200 242 289
#     4  10  19  32  51  73  97 126 162 201 241 287
#     4   8  14  26  44  65  91 124 159 194 234 281
#     4   9  18  32  49  71 100 131 162 198 241 286
#     4   9  16  26  43  68  95 123 158 198 238 281
#
# _framework density 17.663404
#
# number of rings (size 3 to 8) (size 9 to 14) (size 15 to 20)
#    0.000    2.857    0.000    2.571    0.000    4.571 
#    0.000    2.143    0.000    5.143    0.000    2.000 
#    0.000    0.000    0.000    0.000    0.000    0.000 
#
# Total GULP energy -346903.395048 kJ/mol
# GULP energy per Si atom -12389.406966 kJ/mol
# Density = 1.762320 g / cm^3
# Si number density = 17.663404 Si / 1000 Ang^3
#
#
#
# Elastic Constant Matrix: (Units=GPa)
#
#
# Indices 1 2 3 4 5 6 
#
# 1 120.8148 33.5296 88.7911 0.0000 0.0000 0.0000
# 2 33.5296 29.6986 40.2364 0.0000 0.0000 0.0000
# 3 88.7911 40.2364 175.5755 0.0000 0.0000 0.0000
# 4 0.0000 0.0000 0.0000 70.6057 0.0000 0.0000
# 5 0.0000 0.0000 0.0000 0.0000 33.8440 0.0000
# 6 0.0000 0.0000 0.0000 0.0000 0.0000 25.3460
#
#
#
# Elastic Compliance Matrix: (Units=1/GPa)
#
#
# Indices 1 2 3 4 5 6 
#
# 1 0.014831 -0.009547 -0.005312 0.000000 0.000000 0.000000
# 2 -0.009547 0.054979 -0.007772 0.000000 0.000000 0.000000
# 3 -0.005312 -0.007772 0.010163 0.000000 0.000000 0.000000
# 4 0.000000 0.000000 0.000000 0.014163 0.000000 0.000000
# 5 0.000000 0.000000 0.000000 0.000000 0.029547 0.000000
# 6 0.000000 0.000000 0.000000 0.000000 0.000000 0.039454
#
#
# Mechanical properties :
#
#
# Convention : Reuss Voigt Hill
#
# Bulk Modulus (GPa) = 28.80883 72.35592 50.58237
# Shear Modulus (GPa) = 22.73049 36.86126 29.79588
#
# Velocity S-wave (km/s) = 3.59119 4.57319 4.11161
# Velocity P-wave (km/s) = 5.79144 8.30289 7.15817
#
# Compressibility (1/GPa) = 0.03471158
#
# Stress axis : x y z
#
# Youngs Moduli (GPa) = 67.42693 18.18886 98.39515
#
# Poissons Ratio (x) = 0.17364 0.52271
# Poissons Ratio (y) = 0.64370 0.76468
# Poissons Ratio (z) = 0.35820 0.14136
#
# Static dielectric constant tensor:
#      x y z
#    x 3.459540 0.000000 0.000000 
#    y 0.000000 2.666160 0.000000 
#    z 0.000000 0.000000 3.958840 
# 
# 
# High freq. dielectric constant tensor:
#      x y z
#    x 1.696160 0.000000 0.000000 
#    y 0.000000 1.620780 0.000000 
#    z 0.000000 0.000000 1.707950 
# 
# From -- ./inp_files/15588.got.cif
#   From: 2010.03.12/outbox.cif.g09.slc.cpg/sg35_8_cif.got.tgz:15588.got - 2010.04.14 02:02:04.
