data_PCOD8172043
_publ_section_title
;
Structure prediction by ZEFSAII (Michael W. Deem and Ramdas Pophale) SiO2 
 PCOD8172043
Probable space group: P N N 2
;
_chemical_formula_sum "Si O2"
_cell_formula_units_Z 22
_cell_length_a 15.115673
_cell_length_b 12.560695
_cell_length_c 5.179628
_cell_angle_alpha 90.000000
_cell_angle_beta 90.000000
_cell_angle_gamma 90.000000
_cell_volume 983.421567
_symmetry_space_group_name_H-M "P N N 2"
_symmetry_group_IT_number 34
_symmetry_cell_setting 'orthorhombic'
loop_
_space_group_symop_operation_xyz
x,y,z
-x,-y,z
1/2-x,1/2+y,1/2+z
1/2+x,1/2-y,1/2+z
loop_
_atom_site_type_symbol
_atom_site_label
_atom_site_fract_x
_atom_site_fract_y
_atom_site_fract_z
Si Si1 0.502294 0.193955 0.286050
Si Si2 0.569769 0.634574 0.595997
Si Si3 0.837947 0.053370 0.589770
Si Si4 0.500000 0.000000 0.974411
Si Si5 0.591594 0.340746 0.901015
Si Si6 0.858013 0.629850 0.160027
O O1 0.439844 0.238862 0.517286
O O2 0.598043 0.151534 0.382567
O O3 0.455900 0.094204 0.146270
O O4 0.518993 0.294426 0.099391
O O5 0.605180 0.571361 0.348029
O O6 0.468342 0.601357 0.677138
O O7 0.633338 0.624137 0.843429
O O8 0.736558 0.077206 0.640906
O O9 0.845475 0.928600 0.525111
O O10 0.578474 0.048509 0.807638
O O11 0.652134 0.243987 0.801352
#
# Coordination Sequence:
#
# PCOD8172043 Si02
#       6
#     4   4   4   2   4   4
#     4  10  22  47  71 104 142 196 250 290 368 446
#     4  11  25  44  73 107 143 191 241 301 370 433
#     4  12  27  45  75 114 146 187 251 306 368 428
#     4  10  22  48  76  98 152 206 240 296 376 432
#     4  10  24  46  74 102 152 188 240 305 362 445
#     4  10  25  48  69 110 150 193 249 306 363 440
#
# _framework density 22.370874000000001
#
# number of rings (size 3 to 8) (size 9 to 14) (size 15 to 20)
#    0.000    1.455    1.818    1.091   12.727    0.000 
#   16.364    0.000    0.000    0.000    0.000    0.000 
#    0.000    0.000    0.000    0.000    0.000    0.000 
#
# Total GULP energy -272684.156508 kJ/mol
# GULP energy per Si atom -12394.734387 kJ/mol
# Density = 2.231996 g / cm^3
# Si number density = 22.370874 Si / 1000 Ang^3
#
#
#
# Elastic Constant Matrix: (Units=GPa)
#
#
# Indices 1 2 3 4 5 6 
#
# 1 122.3452 93.6392 53.7387 0.0000 0.0000 0.0000
# 2 93.6392 154.8660 66.0288 0.0000 0.0000 0.0000
# 3 53.7387 66.0288 134.5035 0.0000 0.0000 0.0000
# 4 0.0000 0.0000 0.0000 34.7634 0.0000 0.0000
# 5 0.0000 0.0000 0.0000 0.0000 24.6048 0.0000
# 6 0.0000 0.0000 0.0000 0.0000 0.0000 36.9345
#
#
#
# Elastic Compliance Matrix: (Units=1/GPa)
#
#
# Indices 1 2 3 4 5 6 
#
# 1 0.015642 -0.008591 -0.002032 0.000000 0.000000 0.000000
# 2 -0.008591 0.012885 -0.002893 0.000000 0.000000 0.000000
# 3 -0.002032 -0.002893 0.009667 0.000000 0.000000 0.000000
# 4 0.000000 0.000000 0.000000 0.028766 0.000000 0.000000
# 5 0.000000 0.000000 0.000000 0.000000 0.040643 0.000000
# 6 0.000000 0.000000 0.000000 0.000000 0.000000 0.027075
#
#
# Mechanical properties :
#
#
# Convention : Reuss Voigt Hill
#
# Bulk Modulus (GPa) = 89.59437 93.16979 91.38208
# Shear Modulus (GPa) = 30.22430 32.48106 31.35268
#
# Velocity S-wave (km/s) = 3.67966 3.81456 3.74772
# Velocity P-wave (km/s) = 7.62822 7.81917 7.72428
#
# Compressibility (1/GPa) = 0.01116142
#
# Stress axis : x y z
#
# Youngs Moduli (GPa) = 63.93219 77.60728 103.44779
#
# Poissons Ratio (x) = 0.66675 0.21018
# Poissons Ratio (y) = 0.54926 0.29928
# Poissons Ratio (z) = 0.12990 0.22452
#
# Static dielectric constant tensor:
#      x y z
#    x 3.600750 0.000000 0.000000 
#    y 0.000000 4.160770 0.000000 
#    z 0.000000 0.000000 4.466860 
# 
# 
# High freq. dielectric constant tensor:
#      x y z
#    x 1.840420 0.000000 0.000000 
#    y 0.000000 1.895380 0.000000 
#    z 0.000000 0.000000 1.904960 
# 
# From -- ./inp_files/1198.got.cif
#   From: 2010.03.12/outbox.cif.g09.slc.cpg/sg34_1_cif.got.tgz:1198.got - 2010.04.14 01:56:33.
