data_PCOD8172038
_publ_section_title
;
Structure prediction by ZEFSAII (Michael W. Deem and Ramdas Pophale) SiO2 
 PCOD8172038
Probable space group: P N N 2
;
_chemical_formula_sum "Si O2"
_cell_formula_units_Z 26
_cell_length_a 8.224083
_cell_length_b 11.456586
_cell_length_c 11.966379
_cell_angle_alpha 90.000000
_cell_angle_beta 90.000000
_cell_angle_gamma 90.000000
_cell_volume 1127.471202
_symmetry_space_group_name_H-M "P N N 2"
_symmetry_group_IT_number 34
_symmetry_cell_setting 'orthorhombic'
loop_
_space_group_symop_operation_xyz
x,y,z
-x,-y,z
1/2-x,1/2+y,1/2+z
1/2+x,1/2-y,1/2+z
loop_
_atom_site_type_symbol
_atom_site_label
_atom_site_fract_x
_atom_site_fract_y
_atom_site_fract_z
Si Si1 0.945693 0.175231 0.211190
Si Si2 0.500000 0.000000 0.436897
Si Si3 0.934653 0.629806 0.358348
Si Si4 0.920979 0.746870 0.989131
Si Si5 0.435245 0.368264 0.278303
Si Si6 0.736438 0.967056 0.246212
Si Si7 0.576976 0.801524 0.078977
O O1 0.942713 0.295405 0.279955
O O2 0.098983 0.104651 0.258581
O O3 0.777349 0.103824 0.224921
O O4 0.966360 0.188711 0.078893
O O5 0.555530 0.108821 0.510911
O O6 0.350544 0.046022 0.363732
O O7 0.754500 0.636850 0.308229
O O8 0.000000 0.500000 0.354092
O O9 0.935418 0.674530 0.487721
O O10 0.966721 0.791644 0.867070
O O11 0.733302 0.773200 0.005025
O O12 0.500000 0.500000 0.275519
O O13 0.467055 0.308089 0.158134
O O14 0.615668 0.917308 0.151455
#
# Coordination Sequence:
#
# PCOD8172038 Si02
#       7
#     4   2   4   4   4   4   4
#     4  10  23  45  70 100 138 192 242 294 364 429
#     4  12  22  40  68 102 140 178 238 304 358 432
#     4  12  26  47  73 107 150 192 248 302 369 445
#     4  11  24  44  73 101 146 188 240 304 370 433
#     4  12  27  52  73 109 150 191 244 307 371 440
#     4  10  22  43  70  98 137 184 243 296 351 436
#     4  11  25  50  69 112 144 194 251 299 370 442
#
# _framework density 23.060455999999999
#
# number of rings (size 3 to 8) (size 9 to 14) (size 15 to 20)
#    0.000    0.923    4.615    1.846    8.615    0.000 
#   13.846    0.000    0.000    0.000    0.000    0.000 
#    0.000    0.000    0.000    0.000    0.000    0.000 
#
# Total GULP energy -322450.464972 kJ/mol
# GULP energy per Si atom -12401.940960 kJ/mol
# Density = 2.300797 g / cm^3
# Si number density = 23.060456 Si / 1000 Ang^3
#
#
#
# Elastic Constant Matrix: (Units=GPa)
#
#
# Indices 1 2 3 4 5 6 
#
# 1 37.3448 27.1347 21.5045 0.0000 0.0000 0.0000
# 2 27.1347 148.9558 33.4804 0.0000 0.0000 0.0000
# 3 21.5045 33.4804 80.9931 0.0000 0.0000 0.0000
# 4 0.0000 0.0000 0.0000 18.3718 0.0000 0.0000
# 5 0.0000 0.0000 0.0000 0.0000 57.2595 0.0000
# 6 0.0000 0.0000 0.0000 0.0000 0.0000 29.6498
#
#
#
# Elastic Compliance Matrix: (Units=1/GPa)
#
#
# Indices 1 2 3 4 5 6 
#
# 1 0.034280 -0.004629 -0.007188 0.000000 0.000000 0.000000
# 2 -0.004629 0.008026 -0.002089 0.000000 0.000000 0.000000
# 3 -0.007188 -0.002089 0.015119 0.000000 0.000000 0.000000
# 4 0.000000 0.000000 0.000000 0.054431 0.000000 0.000000
# 5 0.000000 0.000000 0.000000 0.000000 0.017464 0.000000
# 6 0.000000 0.000000 0.000000 0.000000 0.000000 0.033727
#
#
# Mechanical properties :
#
#
# Convention : Reuss Voigt Hill
#
# Bulk Modulus (GPa) = 33.76887 47.94811 40.85849
# Shear Modulus (GPa) = 24.90901 33.40117 29.15509
#
# Velocity S-wave (km/s) = 3.29015 3.80994 3.55954
# Velocity P-wave (km/s) = 5.39526 6.33969 5.88645
#
# Compressibility (1/GPa) = 0.02961307
#
# Stress axis : x y z
#
# Youngs Moduli (GPa) = 29.17135 124.59301 66.14320
#
# Poissons Ratio (x) = 0.57674 0.47545
# Poissons Ratio (y) = 0.13503 0.13816
# Poissons Ratio (z) = 0.20969 0.26024
#
# Static dielectric constant tensor:
#      x y z
#    x 4.192490 0.000000 0.000000 
#    y 0.000000 4.722940 0.000000 
#    z 0.000000 0.000000 4.141330 
# 
# 
# High freq. dielectric constant tensor:
#      x y z
#    x 1.912350 0.000000 0.000000 
#    y 0.000000 1.925800 0.000000 
#    z 0.000000 0.000000 1.911190 
# 
# From -- ./inp_files/4962.got.cif
#   From: 2010.03.12/outbox.cif.g09.slc.cpg/sg34_3_cif.got.tgz:4962.got - 2010.04.14 01:56:33.
