data_PCOD8172208
_publ_section_title
;
Structure prediction by ZEFSAII (Michael W. Deem and Ramdas Pophale) SiO2 
 PCOD8172208
Probable space group: C M M 2
;
_chemical_formula_sum "Si O2"
_cell_formula_units_Z 40
_cell_length_a 15.184478
_cell_length_b 8.707043
_cell_length_c 15.036472
_cell_angle_alpha 90.000000
_cell_angle_beta 90.000000
_cell_angle_gamma 90.000000
_cell_volume 1988.000576
_symmetry_space_group_name_H-M "C M M 2"
_symmetry_group_IT_number 35
_symmetry_cell_setting 'orthorhombic'
loop_
_space_group_symop_operation_xyz
x,y,z
-x,-y,z
-x,y,z
x,-y,z
1/2+x,1/2+y,z
1/2-x,1/2-y,z
1/2-x,1/2+y,z
1/2+x,1/2-y,z
loop_
_atom_site_type_symbol
_atom_site_label
_atom_site_fract_x
_atom_site_fract_y
_atom_site_fract_z
Si Si1 0.847580 0.682037 0.875000
Si Si2 0.500000 0.681866 0.184255
Si Si3 0.000000 0.816214 0.383711
Si Si4 0.345363 0.679073 0.506120
Si Si5 0.653478 0.317594 0.055950
Si Si6 0.154287 0.820915 0.701847
O O1 0.848153 0.500000 0.881355
O O2 0.750000 0.750000 0.869240
O O3 0.897194 0.737672 0.784137
O O4 0.889401 0.752071 0.964561
O O5 0.500000 0.500000 0.188070
O O6 0.500000 0.750331 0.283717
O O7 0.411661 0.737086 0.134202
O O8 0.913320 0.753083 0.433995
O O9 0.000000 0.000000 0.385434
O O10 0.332351 0.500000 0.491956
O O11 0.250000 0.750000 0.491082
O O12 0.387775 0.709468 0.604599
O O13 0.660516 0.500000 0.048758
O O14 0.750000 0.250000 0.075247
O O15 0.250000 0.750000 0.694299
O O16 0.159500 0.000000 0.724398
#
# Coordination Sequence:
#
# PCOD8172208 Si02
#       6
#     8   4   4   8   8   8
#     4  10  17  27  46  73 103 138 171 207 250 300
#     4   9  20  36  56  77 102 134 173 215 260 309
#     4   9  18  36  56  77 102 134 173 215 258 309
#     4   9  18  32  54  78 105 137 172 210 254 302
#     4  10  19  34  54  78 104 136 172 212 256 305
#     4   9  15  25  43  71 102 135 170 207 247 297
#
# _framework density 20.120718
#
# number of rings (size 3 to 8) (size 9 to 14) (size 15 to 20)
#    0.000    2.600    0.000    5.400    0.000    1.600 
#    0.000    3.500    0.000    7.200    0.000    0.000 
#    0.000    0.000    0.000    0.000    0.000    0.000 
#
# Total GULP energy -247797.085831 kJ/mol
# GULP energy per Si atom -12389.854292 kJ/mol
# Density = 2.007492 g / cm^3
# Si number density = 20.120718 Si / 1000 Ang^3
#
#
#
# Elastic Constant Matrix: (Units=GPa)
#
#
# Indices 1 2 3 4 5 6 
#
# 1 95.9292 29.3688 79.8731 0.0000 0.0000 0.0000
# 2 29.3688 94.4658 54.7528 0.0000 0.0000 0.0000
# 3 79.8731 54.7528 212.7473 0.0000 0.0000 0.0000
# 4 0.0000 0.0000 0.0000 21.6475 0.0000 0.0000
# 5 0.0000 0.0000 0.0000 0.0000 -22.7560 0.0000
# 6 0.0000 0.0000 0.0000 0.0000 0.0000 15.4342
#
#
#
# Elastic Compliance Matrix: (Units=1/GPa)
#
#
# Indices 1 2 3 4 5 6 
#
# 1 0.015390 -0.001687 -0.005344 0.000000 0.000000 0.000000
# 2 -0.001687 0.012627 -0.002616 0.000000 0.000000 0.000000
# 3 -0.005344 -0.002616 0.007380 0.000000 0.000000 0.000000
# 4 0.000000 0.000000 0.000000 0.046195 0.000000 0.000000
# 5 0.000000 0.000000 0.000000 0.000000 -0.043944 0.000000
# 6 0.000000 0.000000 0.000000 0.000000 0.000000 0.064791
#
#
# Mechanical properties :
#
#
# Convention : Reuss Voigt Hill
#
# Bulk Modulus (GPa) = 62.10281 81.23685 71.66983
# Shear Modulus (GPa) = 39.33878 18.80828 29.07353
#
# Velocity S-wave (km/s) = 4.42649 3.06072 3.80538
# Velocity P-wave (km/s) = 7.55362 7.27689 7.41654
#
# Compressibility (1/GPa) = 0.01610233
#
# Stress axis : x y z
#
# Youngs Moduli (GPa) = 64.97559 79.19679 135.50203
#
# Poissons Ratio (x) = 0.13364 0.72410
# Poissons Ratio (y) = 0.10964 0.35449
# Poissons Ratio (z) = 0.34722 0.20719
#
# Static dielectric constant tensor:
#      x y z
#    x 3.422620 0.000000 0.000000 
#    y 0.000000 3.476120 0.000000 
#    z 0.000000 0.000000 4.860600 
# 
# 
# High freq. dielectric constant tensor:
#      x y z
#    x 1.754700 0.000000 0.000000 
#    y 0.000000 1.769830 0.000000 
#    z 0.000000 0.000000 1.804160 
# 
# From -- ./inp_files/14743.got.cif
#   From: 2010.03.12/outbox.cif.g09.slc.cpg/sg35_8_cif.got.tgz:14743.got - 2010.04.14 02:02:04.
