data_PCOD8172853
_publ_section_title
;
Structure prediction by ZEFSAII (Michael W. Deem and Ramdas Pophale) SiO2 
 PCOD8172853
Probable space group: C M M 2
;
_chemical_formula_sum "Si O2"
_cell_formula_units_Z 64
_cell_length_a 15.530830
_cell_length_b 18.147631
_cell_length_c 11.840144
_cell_angle_alpha 90.000000
_cell_angle_beta 90.000000
_cell_angle_gamma 90.000000
_cell_volume 3337.118206
_symmetry_space_group_name_H-M "C M M 2"
_symmetry_group_IT_number 35
_symmetry_cell_setting 'orthorhombic'
loop_
_space_group_symop_operation_xyz
x,y,z
-x,-y,z
-x,y,z
x,-y,z
1/2+x,1/2+y,z
1/2-x,1/2-y,z
1/2-x,1/2+y,z
1/2+x,1/2-y,z
loop_
_atom_site_type_symbol
_atom_site_label
_atom_site_fract_x
_atom_site_fract_y
_atom_site_fract_z
Si Si1 0.097401 0.806599 0.677340
Si Si2 0.821062 0.580682 0.900471
Si Si3 0.901409 0.190686 0.130280
Si Si4 0.259418 0.416372 0.658425
Si Si5 0.902129 0.335636 0.267465
Si Si6 0.168836 0.301270 0.506382
Si Si7 0.749356 0.583067 0.140927
Si Si8 0.400346 0.234454 0.902718
O O1 0.146511 0.881021 0.645119
O O2 0.101557 0.747838 0.576265
O O3 0.140858 0.769755 0.789625
O O4 0.000000 0.829636 0.699238
O O5 0.867965 0.500000 0.901534
O O6 0.764779 0.588272 0.789016
O O7 0.889193 0.646504 0.907640
O O8 0.756869 0.585751 0.006025
O O9 0.898158 0.252138 0.225941
O O10 0.837596 0.126797 0.173023
O O11 0.000000 0.161333 0.116285
O O12 0.863221 0.225687 0.014164
O O13 0.262146 0.500000 0.614234
O O14 0.192894 0.371225 0.582605
O O15 0.876888 0.335222 0.398038
O O16 0.835803 0.385425 0.197719
O O17 0.000000 0.366461 0.252205
O O18 0.250000 0.250000 0.473901
O O19 0.737345 0.500000 0.185175
O O20 0.500000 0.250457 0.899705
#
# Coordination Sequence:
#
# PCOD8172853 Si02
#       8
#     8   8   8   8   8   8   8   8
#     4  10  20  34  56  84 112 144 184 231 277 325
#     4  10  20  34  54  83 119 152 182 223 277 336
#     4  10  21  37  59  87 115 147 190 237 280 330
#     4  10  21  36  55  82 113 148 187 223 275 339
#     4  11  23  39  60  85 112 146 190 240 286 336
#     4  10  20  36  59  82 108 145 187 235 281 332
#     4  11  23  37  58  85 116 155 189 226 283 341
#     4  10  19  33  56  85 114 149 190 228 273 331
#
# _framework density 19.178222999999999
#
# number of rings (size 3 to 8) (size 9 to 14) (size 15 to 20)
#    0.000    1.750    2.500    2.250    0.000    2.500 
#    0.000    1.250    0.000    5.625    0.000    3.500 
#    0.000    0.000    0.000    0.000    0.000    0.000 
#
# Total GULP energy -396749.804338 kJ/mol
# GULP energy per Si atom -12398.431386 kJ/mol
# Density = 1.913457 g / cm^3
# Si number density = 19.178223 Si / 1000 Ang^3
#
#
#
# Elastic Constant Matrix: (Units=GPa)
#
#
# Indices 1 2 3 4 5 6 
#
# 1 99.7789 58.8485 35.7756 0.0000 0.0000 0.0000
# 2 58.8485 130.2543 30.8929 0.0000 0.0000 0.0000
# 3 35.7756 30.8929 97.3713 0.0000 0.0000 0.0000
# 4 0.0000 0.0000 0.0000 5.6271 0.0000 0.0000
# 5 0.0000 0.0000 0.0000 0.0000 24.4741 0.0000
# 6 0.0000 0.0000 0.0000 0.0000 0.0000 23.0280
#
#
#
# Elastic Compliance Matrix: (Units=1/GPa)
#
#
# Indices 1 2 3 4 5 6 
#
# 1 0.014727 -0.005807 -0.003568 0.000000 0.000000 0.000000
# 2 -0.005807 0.010592 -0.001227 0.000000 0.000000 0.000000
# 3 -0.003568 -0.001227 0.011970 0.000000 0.000000 0.000000
# 4 0.000000 0.000000 0.000000 0.177710 0.000000 0.000000
# 5 0.000000 0.000000 0.000000 0.000000 0.040859 0.000000
# 6 0.000000 0.000000 0.000000 0.000000 0.000000 0.043425
#
#
# Mechanical properties :
#
#
# Convention : Reuss Voigt Hill
#
# Bulk Modulus (GPa) = 62.17310 64.27092 63.22201
# Shear Modulus (GPa) = 15.34452 24.08503 19.71477
#
# Velocity S-wave (km/s) = 2.83167 3.54765 3.20969
# Velocity P-wave (km/s) = 6.57116 7.09692 6.83909
#
# Compressibility (1/GPa) = 0.01608413
#
# Stress axis : x y z
#
# Youngs Moduli (GPa) = 67.90463 94.41182 83.54028
#
# Poissons Ratio (x) = 0.54826 0.29810
# Poissons Ratio (y) = 0.39433 0.10249
# Poissons Ratio (z) = 0.24231 0.11583
#
# Static dielectric constant tensor:
#      x y z
#    x 3.331750 0.000000 0.000000 
#    y 0.000000 3.549400 0.000000 
#    z 0.000000 0.000000 3.632350 
# 
# 
# High freq. dielectric constant tensor:
#      x y z
#    x 1.735750 0.000000 0.000000 
#    y 0.000000 1.741520 0.000000 
#    z 0.000000 0.000000 1.751250 
# 
# From -- ./inp_files/13168.got.cif
#   From: 2010.03.12/outbox.cif.g09.slc.cpg/sg35_7_cif.got.tgz:13168.got - 2010.04.14 02:02:04.
