data_PCOD8172566
_publ_section_title
;
Structure prediction by ZEFSAII (Michael W. Deem and Ramdas Pophale) SiO2 
 PCOD8172566
Probable space group: C M M 2
;
_chemical_formula_sum "Si O2"
_cell_formula_units_Z 64
_cell_length_a 28.316075
_cell_length_b 9.011924
_cell_length_c 15.518853
_cell_angle_alpha 90.000000
_cell_angle_beta 90.000000
_cell_angle_gamma 90.000000
_cell_volume 3960.136848
_symmetry_space_group_name_H-M "C M M 2"
_symmetry_group_IT_number 35
_symmetry_cell_setting 'orthorhombic'
loop_
_space_group_symop_operation_xyz
x,y,z
-x,-y,z
-x,y,z
x,-y,z
1/2+x,1/2+y,z
1/2-x,1/2-y,z
1/2-x,1/2+y,z
1/2+x,1/2-y,z
loop_
_atom_site_type_symbol
_atom_site_label
_atom_site_fract_x
_atom_site_fract_y
_atom_site_fract_z
Si Si1 0.604028 0.671888 0.072650
Si Si2 0.945522 0.173694 0.899774
Si Si3 0.796682 0.672996 0.325876
Si Si4 0.445754 0.674703 0.557400
Si Si5 0.104669 0.671576 0.402220
Si Si6 0.053680 0.325050 0.229964
Si Si7 0.556092 0.833067 0.729163
Si Si8 0.796947 0.173720 0.145038
O O1 0.591643 0.500000 0.084722
O O2 0.576961 0.758146 0.146131
O O3 0.660134 0.700784 0.078929
O O4 0.585767 0.728304 0.980256
O O5 0.924958 0.256042 0.815878
O O6 0.000000 0.215927 0.918054
O O7 0.940066 0.000000 0.882921
O O8 0.787186 0.500000 0.307887
O O9 0.750000 0.750000 0.365688
O O10 0.839127 0.693880 0.393309
O O11 0.809846 0.750877 0.235890
O O12 0.500000 0.722724 0.540191
O O13 0.441212 0.500000 0.566183
O O14 0.413198 0.730346 0.480490
O O15 0.425857 0.745693 0.645320
O O16 0.091526 0.500000 0.419072
O O17 0.080071 0.730885 0.315444
O O18 0.058030 0.500000 0.222160
O O19 0.000000 0.270836 0.236070
O O20 0.500000 0.828896 0.730879
O O21 0.575700 0.000000 0.725063
O O22 0.750000 0.250000 0.105742
O O23 0.787795 0.000000 0.160100
#
# Coordination Sequence:
#
# PCOD8172566 Si02
#       8
#     8   8   8   8   8   8   8   8
#     4  10  20  32  47  68  94 126 161 197 237 280
#     4   9  17  30  47  67  94 125 156 192 233 278
#     4  10  19  32  50  69  91 121 157 199 243 282
#     4  10  20  32  48  71  97 126 160 197 236 279
#     4  10  20  33  48  67  94 128 161 194 236 282
#     4  10  20  32  45  63  93 131 164 193 228 273
#     4   9  17  30  48  69  93 122 156 194 235 279
#     4  10  19  31  48  68  91 121 158 200 243 283
#
# _framework density 16.161057
#
# number of rings (size 3 to 8) (size 9 to 14) (size 15 to 20)
#    0.000    2.250    1.250    3.000    0.000    6.000 
#    0.000    1.250    0.000    0.000    0.000    0.875 
#    0.000    4.000    0.000    0.000    0.000    0.000 
#
# Total GULP energy -396820.086484 kJ/mol
# GULP energy per Si atom -12400.627703 kJ/mol
# Density = 1.612427 g / cm^3
# Si number density = 16.161057 Si / 1000 Ang^3
#
#
#
# Elastic Constant Matrix: (Units=GPa)
#
#
# Indices 1 2 3 4 5 6 
#
# 1 90.3955 42.5728 57.3845 0.0000 0.0000 0.0000
# 2 42.5728 77.0702 50.6833 0.0000 0.0000 0.0000
# 3 57.3845 50.6833 127.0916 0.0000 0.0000 0.0000
# 4 0.0000 0.0000 0.0000 26.1130 0.0000 0.0000
# 5 0.0000 0.0000 0.0000 0.0000 7.2840 0.0000
# 6 0.0000 0.0000 0.0000 0.0000 0.0000 22.8619
#
#
#
# Elastic Compliance Matrix: (Units=1/GPa)
#
#
# Indices 1 2 3 4 5 6 
#
# 1 0.017341 -0.006005 -0.005435 0.000000 0.000000 0.000000
# 2 -0.006005 0.019667 -0.005132 0.000000 0.000000 0.000000
# 3 -0.005435 -0.005132 0.012369 0.000000 0.000000 0.000000
# 4 0.000000 0.000000 0.000000 0.038295 0.000000 0.000000
# 5 0.000000 0.000000 0.000000 0.000000 0.137288 0.000000
# 6 0.000000 0.000000 0.000000 0.000000 0.000000 0.043741
#
#
# Mechanical properties :
#
#
# Convention : Reuss Voigt Hill
#
# Bulk Modulus (GPa) = 61.60100 66.20429 63.90264
# Shear Modulus (GPa) = 16.27315 20.84621 18.55968
#
# Velocity S-wave (km/s) = 3.17667 3.59542 3.39251
# Velocity P-wave (km/s) = 7.18712 7.63481 7.41434
#
# Compressibility (1/GPa) = 0.01623350
#
# Stress axis : x y z
#
# Youngs Moduli (GPa) = 57.66780 50.84694 80.84766
#
# Poissons Ratio (x) = 0.30531 0.43941
# Poissons Ratio (y) = 0.34627 0.41490
# Poissons Ratio (z) = 0.31343 0.26094
#
# Static dielectric constant tensor:
#      x y z
#    x 3.098170 0.000000 0.000000 
#    y 0.000000 3.127540 0.000000 
#    z 0.000000 0.000000 3.039690 
# 
# 
# High freq. dielectric constant tensor:
#      x y z
#    x 1.603660 0.000000 0.000000 
#    y 0.000000 1.630530 0.000000 
#    z 0.000000 0.000000 1.608670 
# 
# From -- ./inp_files/16179.got.cif
#   From: 2010.03.12/outbox.cif.g09.slc.cpg/sg35_9_cif.got.tgz:16179.got - 2010.04.14 02:02:04.
