data_PCOD8172879
_publ_section_title
;
Structure prediction by ZEFSAII (Michael W. Deem and Ramdas Pophale) SiO2 
 PCOD8172879
Probable space group: C M M 2
;
_chemical_formula_sum "Si O2"
_cell_formula_units_Z 64
_cell_length_a 14.188144
_cell_length_b 18.728581
_cell_length_c 12.421893
_cell_angle_alpha 90.000000
_cell_angle_beta 90.000000
_cell_angle_gamma 90.000000
_cell_volume 3300.792663
_symmetry_space_group_name_H-M "C M M 2"
_symmetry_group_IT_number 35
_symmetry_cell_setting 'orthorhombic'
loop_
_space_group_symop_operation_xyz
x,y,z
-x,-y,z
-x,y,z
x,-y,z
1/2+x,1/2+y,z
1/2-x,1/2-y,z
1/2-x,1/2+y,z
1/2+x,1/2-y,z
loop_
_atom_site_type_symbol
_atom_site_label
_atom_site_fract_x
_atom_site_fract_y
_atom_site_fract_z
Si Si1 0.393557 0.771408 0.475990
Si Si2 0.889933 0.208674 0.258498
Si Si3 0.816700 0.420185 0.510895
Si Si4 0.219887 0.365523 0.741121
Si Si5 0.263633 0.419784 0.285445
Si Si6 0.106452 0.580051 0.929237
Si Si7 0.609177 0.149572 0.149050
Si Si8 0.611720 0.273288 0.704225
O O1 0.500000 0.748467 0.466321
O O2 0.344532 0.743106 0.367583
O O3 0.391000 0.857089 0.489773
O O4 0.353333 0.728742 0.579145
O O5 0.840353 0.133651 0.234668
O O6 0.867645 0.266363 0.165503
O O7 0.000000 0.193078 0.267455
O O8 0.862757 0.500000 0.506645
O O9 0.773260 0.408760 0.629333
O O10 0.738677 0.414538 0.415979
O O11 0.185786 0.416958 0.836311
O O12 0.325211 0.333925 0.762319
O O13 0.139563 0.304306 0.748080
O O14 0.291400 0.500000 0.251003
O O15 0.162845 0.399998 0.234672
O O16 0.107956 0.500000 0.975272
O O17 0.000000 0.598169 0.887549
O O18 0.136149 0.632187 0.026362
O O19 0.500000 0.134097 0.172747
O O20 0.500000 0.287520 0.720443
#
# Coordination Sequence:
#
# PCOD8172879 Si02
#       8
#     8   8   8   8   8   8   8   8
#     4   9  17  31  52  78 112 151 186 225 277 335
#     4  10  20  36  57  82 110 149 196 234 271 330
#     4  10  20  31  49  81 116 147 182 228 285 345
#     4  10  19  34  55  79 111 148 186 231 279 339
#     4  11  22  35  55  84 119 153 182 228 287 341
#     4  10  21  38  59  81 110 146 184 233 294 354
#     4  10  21  38  60  84 108 143 190 239 287 338
#     4   9  18  32  52  80 111 147 188 231 277 327
#
# _framework density 19.389281
#
# number of rings (size 3 to 8) (size 9 to 14) (size 15 to 20)
#    0.000    2.125    1.250    2.250    0.000    2.750 
#    4.500    1.250    0.000    2.250    0.000    0.000 
#    0.000    0.000    0.000    0.000    0.000    0.000 
#
# Total GULP energy -396542.763969 kJ/mol
# GULP energy per Si atom -12391.961374 kJ/mol
# Density = 1.934515 g / cm^3
# Si number density = 19.389281 Si / 1000 Ang^3
#
#
#
# Elastic Constant Matrix: (Units=GPa)
#
#
# Indices 1 2 3 4 5 6 
#
# 1 87.0705 47.0026 40.5917 0.0000 0.0000 0.0000
# 2 47.0026 122.9024 46.6370 0.0000 0.0000 0.0000
# 3 40.5917 46.6370 85.5880 0.0000 0.0000 0.0000
# 4 0.0000 0.0000 0.0000 25.7428 0.0000 0.0000
# 5 0.0000 0.0000 0.0000 0.0000 15.9494 0.0000
# 6 0.0000 0.0000 0.0000 0.0000 0.0000 27.2649
#
#
#
# Elastic Compliance Matrix: (Units=1/GPa)
#
#
# Indices 1 2 3 4 5 6 
#
# 1 0.016269 -0.004153 -0.005453 0.000000 0.000000 0.000000
# 2 -0.004153 0.011317 -0.004197 0.000000 0.000000 0.000000
# 3 -0.005453 -0.004197 0.016557 0.000000 0.000000 0.000000
# 4 0.000000 0.000000 0.000000 0.038846 0.000000 0.000000
# 5 0.000000 0.000000 0.000000 0.000000 0.062698 0.000000
# 6 0.000000 0.000000 0.000000 0.000000 0.000000 0.036677
#
#
# Mechanical properties :
#
#
# Convention : Reuss Voigt Hill
#
# Bulk Modulus (GPa) = 60.46907 62.66928 61.56918
# Shear Modulus (GPa) = 23.20365 24.54672 23.87518
#
# Velocity S-wave (km/s) = 3.46313 3.56194 3.51288
# Velocity P-wave (km/s) = 6.87354 7.02199 6.94816
#
# Compressibility (1/GPa) = 0.01653738
#
# Stress axis : x y z
#
# Youngs Moduli (GPa) = 61.46747 88.35935 60.39653
#
# Poissons Ratio (x) = 0.36692 0.32934
# Poissons Ratio (y) = 0.25525 0.25351
# Poissons Ratio (z) = 0.33518 0.37088
#
# Static dielectric constant tensor:
#      x y z
#    x 3.255160 0.000000 0.000000 
#    y 0.000000 3.531240 0.000000 
#    z 0.000000 0.000000 3.559860 
# 
# 
# High freq. dielectric constant tensor:
#      x y z
#    x 1.734290 0.000000 0.000000 
#    y 0.000000 1.751310 0.000000 
#    z 0.000000 0.000000 1.742340 
# 
# From -- ./inp_files/13167.got.cif
#   From: 2010.03.12/outbox.cif.g09.slc.cpg/sg35_7_cif.got.tgz:13167.got - 2010.04.14 02:02:04.
