data_PCOD8172766
_publ_section_title
;
Structure prediction by ZEFSAII (Michael W. Deem and Ramdas Pophale) SiO2 
 PCOD8172766
Probable space group: C M M 2
;
_chemical_formula_sum "Si O2"
_cell_formula_units_Z 64
_cell_length_a 29.074891
_cell_length_b 9.062315
_cell_length_c 12.328398
_cell_angle_alpha 90.000000
_cell_angle_beta 90.000000
_cell_angle_gamma 90.000000
_cell_volume 3248.358067
_symmetry_space_group_name_H-M "C M M 2"
_symmetry_group_IT_number 35
_symmetry_cell_setting 'orthorhombic'
loop_
_space_group_symop_operation_xyz
x,y,z
-x,-y,z
-x,y,z
x,-y,z
1/2+x,1/2+y,z
1/2-x,1/2-y,z
1/2-x,1/2+y,z
1/2+x,1/2-y,z
loop_
_atom_site_type_symbol
_atom_site_label
_atom_site_fract_x
_atom_site_fract_y
_atom_site_fract_z
Si Si1 0.137371 0.829245 0.300350
Si Si2 0.430499 0.836751 0.988296
Si Si3 0.799091 0.172551 0.494427
Si Si4 0.858907 0.173246 0.704994
Si Si5 0.293001 0.328895 0.114818
Si Si6 0.051313 0.327243 0.222523
Si Si7 0.328736 0.165961 0.918311
Si Si8 0.550898 0.826254 0.753967
O O1 0.170785 0.766426 0.393903
O O2 0.161195 0.802051 0.184416
O O3 0.088174 0.748086 0.302026
O O4 0.127518 0.000000 0.322694
O O5 0.375952 0.840790 0.983419
O O6 0.449487 0.762063 0.877710
O O7 0.451962 0.000000 0.992571
O O8 0.445607 0.757295 0.100319
O O9 0.750000 0.250000 0.499551
O O10 0.828045 0.208204 0.601479
O O11 0.789691 0.000000 0.480315
O O12 0.833578 0.251164 0.804646
O O13 0.910220 0.239991 0.686018
O O14 0.863512 0.000000 0.727678
O O15 0.282069 0.500000 0.102777
O O16 0.250000 0.250000 0.174976
O O17 0.295179 0.257786 0.995329
O O18 0.063145 0.500000 0.218279
O O19 0.000000 0.298536 0.268559
O O20 0.309945 0.000000 0.897865
O O21 0.500000 0.800836 0.703058
O O22 0.564059 0.000000 0.755541
#
# Coordination Sequence:
#
# PCOD8172766 Si02
#       8
#     8   8   8   8   8   8   8   8
#     4  10  22  40  59  82 114 147 186 236 287 338
#     4   8  14  27  49  76 109 148 186 225 268 319
#     4  10  23  43  65  86 108 143 189 240 292 342
#     4  10  21  37  57  83 116 148 188 238 288 340
#     4  11  22  35  55  83 114 147 185 230 283 346
#     4  10  19  32  54  84 116 152 193 232 275 330
#     4  10  19  34  56  81 114 153 188 226 281 337
#     4   9  17  31  53  82 116 155 196 235 278 331
#
# _framework density 19.702261
#
# number of rings (size 3 to 8) (size 9 to 14) (size 15 to 20)
#    0.000    2.250    1.250    2.625    0.000    4.500 
#    0.000    1.875    0.000    5.250    0.000    0.000 
#    0.000    0.000    0.000    0.000    0.000    0.000 
#
# Total GULP energy -396662.313685 kJ/mol
# GULP energy per Si atom -12395.697303 kJ/mol
# Density = 1.965742 g / cm^3
# Si number density = 19.702261 Si / 1000 Ang^3
#
#
#
# Elastic Constant Matrix: (Units=GPa)
#
#
# Indices 1 2 3 4 5 6 
#
# 1 140.9229 61.4870 53.9318 0.0000 0.0000 0.0000
# 2 61.4870 94.6959 50.4689 0.0000 0.0000 0.0000
# 3 53.9318 50.4689 91.4796 0.0000 0.0000 0.0000
# 4 0.0000 0.0000 0.0000 22.0033 0.0000 0.0000
# 5 0.0000 0.0000 0.0000 0.0000 23.4792 0.0000
# 6 0.0000 0.0000 0.0000 0.0000 0.0000 33.0342
#
#
#
# Elastic Compliance Matrix: (Units=1/GPa)
#
#
# Indices 1 2 3 4 5 6 
#
# 1 0.010631 -0.005046 -0.003484 0.000000 0.000000 0.000000
# 2 -0.005046 0.017354 -0.006599 0.000000 0.000000 0.000000
# 3 -0.003484 -0.006599 0.016626 0.000000 0.000000 0.000000
# 4 0.000000 0.000000 0.000000 0.045448 0.000000 0.000000
# 5 0.000000 0.000000 0.000000 0.000000 0.042591 0.000000
# 6 0.000000 0.000000 0.000000 0.000000 0.000000 0.030272
#
#
# Mechanical properties :
#
#
# Convention : Reuss Voigt Hill
#
# Bulk Modulus (GPa) = 69.67192 73.20821 71.44007
# Shear Modulus (GPa) = 25.25734 26.45072 25.85403
#
# Velocity S-wave (km/s) = 3.58432 3.66802 3.62641
# Velocity P-wave (km/s) = 7.25045 7.42813 7.33982
#
# Compressibility (1/GPa) = 0.01435299
#
# Stress axis : x y z
#
# Youngs Moduli (GPa) = 94.06459 57.62484 60.14784
#
# Poissons Ratio (x) = 0.29079 0.20953
# Poissons Ratio (y) = 0.47467 0.39691
# Poissons Ratio (z) = 0.32768 0.38026
#
# Static dielectric constant tensor:
#      x y z
#    x 3.646290 0.000000 0.000000 
#    y 0.000000 3.426980 0.000000 
#    z 0.000000 0.000000 3.450120 
# 
# 
# High freq. dielectric constant tensor:
#      x y z
#    x 1.778320 0.000000 0.000000 
#    y 0.000000 1.748510 0.000000 
#    z 0.000000 0.000000 1.748720 
# 
# From -- ./inp_files/14577.got.cif
#   From: 2010.03.12/outbox.cif.g09.slc.cpg/sg35_8_cif.got.tgz:14577.got - 2010.04.14 02:02:04.
