data_PCOD8172065
_publ_section_title
;
Structure prediction by ZEFSAII (Michael W. Deem and Ramdas Pophale) SiO2 
 PCOD8172065
Probable space group: P N N 2
;
_chemical_formula_sum "Si O2"
_cell_formula_units_Z 14
_cell_length_a 6.969122
_cell_length_b 11.600587
_cell_length_c 8.538659
_cell_angle_alpha 90.000000
_cell_angle_beta 90.000000
_cell_angle_gamma 90.000000
_cell_volume 690.315624
_symmetry_space_group_name_H-M "P N N 2"
_symmetry_group_IT_number 34
_symmetry_cell_setting 'orthorhombic'
loop_
_space_group_symop_operation_xyz
x,y,z
-x,-y,z
1/2-x,1/2+y,1/2+z
1/2+x,1/2-y,1/2+z
loop_
_atom_site_type_symbol
_atom_site_label
_atom_site_fract_x
_atom_site_fract_y
_atom_site_fract_z
Si Si1 0.500000 0.000000 0.953490
Si Si2 0.215462 0.974403 0.527286
Si Si3 0.334138 0.416009 0.671590
Si Si4 0.463254 0.155645 0.673635
O O1 0.588723 0.898778 0.843784
O O2 0.344817 0.935082 0.059027
O O3 0.227545 0.939538 0.347700
O O4 0.312683 0.873186 0.633023
O O5 0.333255 0.092978 0.543384
O O6 0.000000 0.000000 0.585224
O O7 0.500000 0.500000 0.613305
O O8 0.421204 0.288975 0.663310
#
# Coordination Sequence:
#
# PCOD8172065 Si02
#       4
#     2   4   4   4
#     4  10  24  44  62 100 124 168 216 260 328 372
#     4   9  21  44  65  91 129 172 201 264 328 365
#     4  11  25  40  68  97 125 169 217 260 322 384
#     4  10  24  43  65  96 129 164 218 263 316 388
#
# _framework density 20.28058
#
# number of rings (size 3 to 8) (size 9 to 14) (size 15 to 20)
#    0.000    2.286    0.000    1.714   12.000    4.571 
#    0.000    0.000    0.000    0.000    0.000    0.000 
#    0.000    0.000    0.000    0.000    0.000    0.000 
#
# Total GULP energy -173557.415548 kJ/mol
# GULP energy per Si atom -12396.958253 kJ/mol
# Density = 2.023442 g / cm^3
# Si number density = 20.280580 Si / 1000 Ang^3
#
#
#
# Elastic Constant Matrix: (Units=GPa)
#
#
# Indices 1 2 3 4 5 6 
#
# 1 135.4173 75.9227 57.7503 0.0000 0.0000 0.0000
# 2 75.9227 205.1327 62.2393 0.0000 0.0000 0.0000
# 3 57.7503 62.2393 94.0054 0.0000 0.0000 0.0000
# 4 0.0000 0.0000 0.0000 29.7927 0.0000 0.0000
# 5 0.0000 0.0000 0.0000 0.0000 15.8290 0.0000
# 6 0.0000 0.0000 0.0000 0.0000 0.0000 37.7351
#
#
#
# Elastic Compliance Matrix: (Units=1/GPa)
#
#
# Indices 1 2 3 4 5 6 
#
# 1 0.010956 -0.002519 -0.005063 0.000000 0.000000 0.000000
# 2 -0.002519 0.006679 -0.002875 0.000000 0.000000 0.000000
# 3 -0.005063 -0.002875 0.015651 0.000000 0.000000 0.000000
# 4 0.000000 0.000000 0.000000 0.033565 0.000000 0.000000
# 5 0.000000 0.000000 0.000000 0.000000 0.063175 0.000000
# 6 0.000000 0.000000 0.000000 0.000000 0.000000 0.026501
#
#
# Mechanical properties :
#
#
# Convention : Reuss Voigt Hill
#
# Bulk Modulus (GPa) = 80.81807 91.81998 86.31903
# Shear Modulus (GPa) = 27.53826 32.58090 30.05958
#
# Velocity S-wave (km/s) = 3.68892 4.01247 3.85409
# Velocity P-wave (km/s) = 7.62107 8.17556 7.90318
#
# Compressibility (1/GPa) = 0.01237347
#
# Stress axis : x y z
#
# Youngs Moduli (GPa) = 91.27509 149.71339 63.89209
#
# Poissons Ratio (x) = 0.37710 0.32348
# Poissons Ratio (y) = 0.22991 0.18369
# Poissons Ratio (z) = 0.46211 0.43042
#
# Static dielectric constant tensor:
#      x y z
#    x 3.860040 0.000000 0.000000 
#    y 0.000000 3.565820 0.000000 
#    z 0.000000 0.000000 3.730720 
# 
# 
# High freq. dielectric constant tensor:
#      x y z
#    x 1.796720 0.000000 0.000000 
#    y 0.000000 1.791650 0.000000 
#    z 0.000000 0.000000 1.798930 
# 
# From -- ./inp_files/2316.got.cif
#   From: 2010.03.12/outbox.cif.g09.slc.cpg/sg34_2_cif.got.tgz:2316.got - 2010.04.14 01:56:33.
