data_PCOD8172057
_publ_section_title
;
Structure prediction by ZEFSAII (Michael W. Deem and Ramdas Pophale) SiO2 
 PCOD8172057
Probable space group: P N N 2
;
_chemical_formula_sum "Si O2"
_cell_formula_units_Z 20
_cell_length_a 5.107572
_cell_length_b 13.409016
_cell_length_c 13.480218
_cell_angle_alpha 90.000000
_cell_angle_beta 90.000000
_cell_angle_gamma 90.000000
_cell_volume 923.226628
_symmetry_space_group_name_H-M "P N N 2"
_symmetry_group_IT_number 34
_symmetry_cell_setting 'orthorhombic'
loop_
_space_group_symop_operation_xyz
x,y,z
-x,-y,z
1/2-x,1/2+y,1/2+z
1/2+x,1/2-y,1/2+z
loop_
_atom_site_type_symbol
_atom_site_label
_atom_site_fract_x
_atom_site_fract_y
_atom_site_fract_z
Si Si1 0.000000 0.000000 0.860220
Si Si2 0.000000 0.000000 0.258629
Si Si3 0.500000 0.000000 0.725373
Si Si4 0.500000 0.000000 0.123781
Si Si5 0.010771 0.649336 0.053245
Si Si6 0.010765 0.149336 0.430757
Si Si7 0.250000 0.339003 0.492001
O O1 0.748863 0.980693 0.793505
O O2 0.046628 0.904588 0.929736
O O3 0.248862 0.019306 0.190496
O O4 0.969154 0.098963 0.324563
O O5 0.469150 0.901037 0.659439
O O6 0.546628 0.095411 0.054266
O O7 0.082290 0.767122 0.066171
O O8 0.750008 0.635439 0.991998
O O9 0.250006 0.596504 0.992003
O O10 0.082287 0.267122 0.417831
#
# Coordination Sequence:
#
# PCOD8172057 Si02
#       7
#     2   2   2   2   4   4   4
#     4  12  27  43  70 100 136 184 224 289 323 414
#     4  12  25  43  72 106 134 168 244 281 331 384
#     4  12  25  43  72 106 134 168 244 281 331 384
#     4  12  27  43  70 100 136 184 224 289 323 414
#     4  10  23  44  72  97 136 184 219 279 339 411
#     4  10  23  44  72  97 136 184 219 279 339 411
#     4  10  28  46  70  92 146 186 224 260 368 394
#
# _framework density 21.663150999999999
#
# number of rings (size 3 to 8) (size 9 to 14) (size 15 to 20)
#    1.200    0.000    0.000    4.800    8.400    3.200 
#    0.000    0.000    0.000    0.000    0.000    0.000 
#    0.000    0.000    0.000    0.000    0.000    0.000 
#
# Total GULP energy -247927.317018 kJ/mol
# GULP energy per Si atom -12396.365851 kJ/mol
# Density = 2.161385 g / cm^3
# Si number density = 21.663151 Si / 1000 Ang^3
#
#
#
# Elastic Constant Matrix: (Units=GPa)
#
#
# Indices 1 2 3 4 5 6 
#
# 1 188.6568 59.4611 73.9235 0.0000 0.0000 0.0000
# 2 59.4611 175.4773 90.0216 0.0000 0.0000 0.0000
# 3 73.9235 90.0216 133.1249 0.0000 0.0000 0.0000
# 4 0.0000 0.0000 0.0000 -12.6892 0.0000 0.0000
# 5 0.0000 0.0000 0.0000 0.0000 59.1437 0.0000
# 6 0.0000 0.0000 0.0000 0.0000 0.0000 -49.8611
#
#
#
# Elastic Compliance Matrix: (Units=1/GPa)
#
#
# Indices 1 2 3 4 5 6 
#
# 1 0.006811 -0.000563 -0.003401 0.000000 0.000000 0.000000
# 2 -0.000563 0.008772 -0.005619 0.000000 0.000000 0.000000
# 3 -0.003401 -0.005619 0.013200 0.000000 0.000000 0.000000
# 4 0.000000 0.000000 0.000000 -0.078807 0.000000 0.000000
# 5 0.000000 0.000000 0.000000 0.000000 0.016908 0.000000
# 6 0.000000 0.000000 0.000000 0.000000 0.000000 -0.020056
#
#
# Mechanical properties :
#
#
# Convention : Reuss Voigt Hill
#
# Bulk Modulus (GPa) = 103.99122 104.89683 104.44402
# Shear Modulus (GPa) = -162.34566 17.57554 -72.38506
#
# Velocity S-wave (km/s) = -8.66623 2.85144 -5.78675
# Velocity P-wave (km/s) = 7.21320 7.70505 1.91542
#
# Compressibility (1/GPa) = 0.00961620
#
# Stress axis : x y z
#
# Youngs Moduli (GPa) = 146.82446 113.99503 75.75504
#
# Poissons Ratio (x) = 0.06417 0.25767
# Poissons Ratio (y) = 0.08266 0.42570
# Poissons Ratio (z) = 0.49940 0.64058
#
# Static dielectric constant tensor:
#      x y z
#    x 4.050340 0.000000 0.000000 
#    y 0.000000 4.011480 0.000000 
#    z 0.000000 0.000000 4.469260 
# 
# 
# High freq. dielectric constant tensor:
#      x y z
#    x 1.871510 0.000000 0.000000 
#    y 0.000000 1.858460 0.000000 
#    z 0.000000 0.000000 1.839270 
# 
# From -- ./inp_files/4379.got.cif
#   From: 2010.03.12/outbox.cif.g09.slc.cpg/sg34_3_cif.got.tgz:4379.got - 2010.04.14 01:56:33.
