data_PCOD8172849
_publ_section_title
;
Structure prediction by ZEFSAII (Michael W. Deem and Ramdas Pophale) SiO2 
 PCOD8172849
Probable space group: C M M 2
;
_chemical_formula_sum "Si O2"
_cell_formula_units_Z 48
_cell_length_a 8.878374
_cell_length_b 15.503222
_cell_length_c 17.022253
_cell_angle_alpha 90.000000
_cell_angle_beta 90.000000
_cell_angle_gamma 90.000000
_cell_volume 2343.000832
_symmetry_space_group_name_H-M "C M M 2"
_symmetry_group_IT_number 35
_symmetry_cell_setting 'orthorhombic'
loop_
_space_group_symop_operation_xyz
x,y,z
-x,-y,z
-x,y,z
x,-y,z
1/2+x,1/2+y,z
1/2-x,1/2-y,z
1/2-x,1/2+y,z
1/2+x,1/2-y,z
loop_
_atom_site_type_symbol
_atom_site_label
_atom_site_fract_x
_atom_site_fract_y
_atom_site_fract_z
Si Si1 0.321521 0.837588 0.312170
Si Si2 0.669581 0.897398 0.623941
Si Si3 0.678348 0.000000 0.214597
Si Si4 0.679203 0.000000 0.035132
Si Si5 0.173906 0.101662 0.467136
Si Si6 0.322530 0.338774 0.948965
Si Si7 0.674031 0.401121 0.778879
O O1 0.500000 0.831009 0.308757
O O2 0.250000 0.750000 0.278296
O O3 0.258590 0.915326 0.258473
O O4 0.271009 0.850642 0.401632
O O5 0.500000 0.864191 0.612480
O O6 0.769974 0.863786 0.551567
O O7 0.733153 0.860847 0.706222
O O8 0.678009 0.000000 0.627275
O O9 0.733101 0.000000 0.125237
O O10 0.500000 0.000000 0.220135
O O11 0.500000 0.000000 0.026856
O O12 0.745440 0.084494 0.995561
O O13 0.000000 0.126062 0.456640
O O14 0.201874 0.000000 0.459697
O O15 0.500000 0.340189 0.965725
O O16 0.250000 0.250000 0.979322
O O17 0.287231 0.347591 0.856620
O O18 0.500000 0.394922 0.756133
O O19 0.720053 0.500000 0.795411
#
# Coordination Sequence:
#
# PCOD8172849 Si02
#       7
#     8   8   4   4   8   8   8
#     4  11  22  40  63  90 123 159 199 247 300 359
#     4   9  17  28  48  81 116 154 203 252 301 354
#     4   9  22  43  67  92 123 158 195 243 304 365
#     4  11  23  43  69  96 125 160 201 249 308 373
#     4  10  19  33  55  84 118 158 205 251 299 353
#     4  11  23  41  63  93 127 165 207 254 308 366
#     4   9  17  33  55  79 115 158 202 253 305 358
#
# _framework density 20.486547999999999
#
# number of rings (size 3 to 8) (size 9 to 14) (size 15 to 20)
#    0.000    2.000    1.667    2.250    0.000    4.667 
#    0.000    5.833    0.000    2.000    0.000    0.000 
#    0.000    0.000    0.000    0.000    0.000    0.000 
#
# Total GULP energy -297674.298952 kJ/mol
# GULP energy per Si atom -12403.095790 kJ/mol
# Density = 2.043992 g / cm^3
# Si number density = 20.486548 Si / 1000 Ang^3
#
#
#
# Elastic Constant Matrix: (Units=GPa)
#
#
# Indices 1 2 3 4 5 6 
#
# 1 104.5156 52.4430 55.6570 0.0000 0.0000 0.0000
# 2 52.4430 124.0614 59.9974 0.0000 0.0000 0.0000
# 3 55.6570 59.9974 130.5408 0.0000 0.0000 0.0000
# 4 0.0000 0.0000 0.0000 -13.1972 0.0000 0.0000
# 5 0.0000 0.0000 0.0000 0.0000 27.8452 0.0000
# 6 0.0000 0.0000 0.0000 0.0000 0.0000 29.8508
#
#
#
# Elastic Compliance Matrix: (Units=1/GPa)
#
#
# Indices 1 2 3 4 5 6 
#
# 1 0.013641 -0.003798 -0.004071 0.000000 0.000000 0.000000
# 2 -0.003798 0.011422 -0.003630 0.000000 0.000000 0.000000
# 3 -0.004071 -0.003630 0.011064 0.000000 0.000000 0.000000
# 4 0.000000 0.000000 0.000000 -0.075774 0.000000 0.000000
# 5 0.000000 0.000000 0.000000 0.000000 0.035913 0.000000
# 6 0.000000 0.000000 0.000000 0.000000 0.000000 0.033500
#
#
# Mechanical properties :
#
#
# Convention : Reuss Voigt Hill
#
# Bulk Modulus (GPa) = 76.16100 77.25693 76.70896
# Shear Modulus (GPa) = 87.50460 21.63446 54.56953
#
# Velocity S-wave (km/s) = 6.54262 3.25319 5.16668
# Velocity P-wave (km/s) = 9.71243 7.20444 8.55089
#
# Compressibility (1/GPa) = 0.01313008
#
# Stress axis : x y z
#
# Youngs Moduli (GPa) = 73.30699 87.55390 90.38007
#
# Poissons Ratio (x) = 0.33252 0.36789
# Poissons Ratio (y) = 0.27841 0.32809
# Poissons Ratio (z) = 0.29840 0.31784
#
# Static dielectric constant tensor:
#      x y z
#    x 3.664640 0.000000 0.000000 
#    y 0.000000 3.650150 0.000000 
#    z 0.000000 0.000000 3.802890 
# 
# 
# High freq. dielectric constant tensor:
#      x y z
#    x 1.800000 0.000000 0.000000 
#    y 0.000000 1.791960 0.000000 
#    z 0.000000 0.000000 1.801790 
# 
# From -- ./inp_files/17886.got.cif
#   From: 2010.03.12/outbox.cif.g09.slc.cpg/sg35_9_cif.got.tgz:17886.got - 2010.04.14 02:02:04.
