data_PCOD8172885
_publ_section_title
;
Structure prediction by ZEFSAII (Michael W. Deem and Ramdas Pophale) SiO2 
 PCOD8172885
Probable space group: C M M 2
;
_chemical_formula_sum "Si O2"
_cell_formula_units_Z 40
_cell_length_a 25.927666
_cell_length_b 8.978335
_cell_length_c 9.126551
_cell_angle_alpha 90.000000
_cell_angle_beta 90.000000
_cell_angle_gamma 90.000000
_cell_volume 2124.544902
_symmetry_space_group_name_H-M "C M M 2"
_symmetry_group_IT_number 35
_symmetry_cell_setting 'orthorhombic'
loop_
_space_group_symop_operation_xyz
x,y,z
-x,-y,z
-x,y,z
x,-y,z
1/2+x,1/2+y,z
1/2-x,1/2-y,z
1/2-x,1/2+y,z
1/2+x,1/2-y,z
loop_
_atom_site_type_symbol
_atom_site_label
_atom_site_fract_x
_atom_site_fract_y
_atom_site_fract_z
Si Si1 0.594799 0.824028 0.464100
Si Si2 0.098489 0.327849 0.801277
Si Si3 0.500000 0.173536 0.993715
Si Si4 0.000000 0.176691 0.301378
Si Si5 0.699184 0.330928 0.460831
Si Si6 0.299897 0.333622 0.809769
O O1 0.586278 0.783570 0.634118
O O2 0.550406 0.744400 0.374586
O O3 0.649345 0.760596 0.407103
O O4 0.592833 0.000000 0.435516
O O5 0.112790 0.500000 0.809629
O O6 0.147605 0.241512 0.866051
O O7 0.049545 0.285981 0.897688
O O8 0.500000 0.280170 0.131993
O O9 0.500000 0.000000 0.040156
O O10 0.000000 0.000000 0.319690
O O11 0.696663 0.500000 0.401396
O O12 0.750000 0.250000 0.396855
O O13 0.701525 0.329874 0.635254
O O14 0.298521 0.500000 0.871410
O O15 0.250000 0.250000 0.874422
#
# Coordination Sequence:
#
# PCOD8172885 Si02
#       6
#     8   8   4   4   8   8
#     4  10  19  34  56  80 105 136 173 215 260 307
#     4   9  18  33  55  80 104 132 171 214 256 304
#     4  10  21  38  56  74 100 136 173 212 260 312
#     4  12  25  38  52  74 104 138 175 216 260 312
#     4   9  16  27  45  74 108 139 170 208 253 302
#     4   9  16  26  44  72 106 138 168 205 251 299
#
# _framework density 18.827560999999999
#
# number of rings (size 3 to 8) (size 9 to 14) (size 15 to 20)
#    0.000    2.400    0.000    3.300    0.000    8.000 
#    0.000    1.000    0.000    1.200    0.000    2.800 
#    0.000    0.000    0.000    0.000    0.000    0.000 
#
# Total GULP energy -248020.930781 kJ/mol
# GULP energy per Si atom -12401.046539 kJ/mol
# Density = 1.878471 g / cm^3
# Si number density = 18.827561 Si / 1000 Ang^3
#
#
#
# Elastic Constant Matrix: (Units=GPa)
#
#
# Indices 1 2 3 4 5 6 
#
# 1 195.2668 93.6827 52.1787 0.0000 0.0000 0.0000
# 2 93.6827 138.1089 42.0992 0.0000 0.0000 0.0000
# 3 52.1787 42.0992 51.2642 0.0000 0.0000 0.0000
# 4 0.0000 0.0000 0.0000 19.0723 0.0000 0.0000
# 5 0.0000 0.0000 0.0000 0.0000 -7.5696 0.0000
# 6 0.0000 0.0000 0.0000 0.0000 0.0000 42.0523
#
#
#
# Elastic Compliance Matrix: (Units=1/GPa)
#
#
# Indices 1 2 3 4 5 6 
#
# 1 0.008532 -0.004189 -0.005244 0.000000 0.000000 0.000000
# 2 -0.004189 0.011715 -0.005357 0.000000 0.000000 0.000000
# 3 -0.005244 -0.005357 0.029244 0.000000 0.000000 0.000000
# 4 0.000000 0.000000 0.000000 0.052432 0.000000 0.000000
# 5 0.000000 0.000000 0.000000 0.000000 -0.132107 0.000000
# 6 0.000000 0.000000 0.000000 0.000000 0.000000 0.023780
#
#
# Mechanical properties :
#
#
# Convention : Reuss Voigt Hill
#
# Bulk Modulus (GPa) = 50.22433 84.50680 67.36556
# Shear Modulus (GPa) = 167.70282 23.82294 95.76288
#
# Velocity S-wave (km/s) = 9.44809 3.56100 7.13958
# Velocity P-wave (km/s) = 12.07293 7.86700 10.18934
#
# Compressibility (1/GPa) = 0.01991067
#
# Stress axis : x y z
#
# Youngs Moduli (GPa) = 117.20035 85.35951 34.19507
#
# Poissons Ratio (x) = 0.35758 0.17933
# Poissons Ratio (y) = 0.49096 0.18318
# Poissons Ratio (z) = 0.61465 0.45726
#
# Static dielectric constant tensor:
#      x y z
#    x 3.707720 0.000000 0.000000 
#    y 0.000000 3.587000 0.000000 
#    z 0.000000 0.000000 3.010160 
# 
# 
# High freq. dielectric constant tensor:
#      x y z
#    x 1.752700 0.000000 0.000000 
#    y 0.000000 1.741400 0.000000 
#    z 0.000000 0.000000 1.677640 
# 
# From -- ./inp_files/5002.got.cif
#   From: 2010.03.12/outbox.cif.g09.slc.cpg/sg35_3_cif.got.tgz:5002.got - 2010.04.14 02:02:04.
