data_PCOD8172122
_publ_section_title
;
Structure prediction by ZEFSAII (Michael W. Deem and Ramdas Pophale) SiO2 
 PCOD8172122
Probable space group: P N N 2
;
_chemical_formula_sum "Si O2"
_cell_formula_units_Z 32
_cell_length_a 14.309527
_cell_length_b 8.539164
_cell_length_c 11.481608
_cell_angle_alpha 90.000000
_cell_angle_beta 90.000000
_cell_angle_gamma 90.000000
_cell_volume 1402.953731
_symmetry_space_group_name_H-M "P N N 2"
_symmetry_group_IT_number 34
_symmetry_cell_setting 'orthorhombic'
loop_
_space_group_symop_operation_xyz
x,y,z
-x,-y,z
1/2-x,1/2+y,1/2+z
1/2+x,1/2-y,1/2+z
loop_
_atom_site_type_symbol
_atom_site_label
_atom_site_fract_x
_atom_site_fract_y
_atom_site_fract_z
Si Si1 0.627193 0.913984 0.795930
Si Si2 0.752359 0.520487 0.938705
Si Si3 0.264699 0.720918 0.134171
Si Si4 0.549102 0.154856 0.420112
Si Si5 0.641222 0.787084 0.037067
Si Si6 0.023965 0.179495 0.688962
Si Si7 0.795022 0.941561 0.183882
Si Si8 0.958568 0.718870 0.180719
O O1 0.729721 0.860172 0.753954
O O2 0.554051 0.778236 0.754700
O O3 0.603907 0.080285 0.737729
O O4 0.626074 0.919207 0.936640
O O5 0.839601 0.637580 0.929466
O O6 0.737895 0.440682 0.815651
O O7 0.773267 0.379694 0.026734
O O8 0.660852 0.619189 0.976204
O O9 0.376358 0.728727 0.135813
O O10 0.217916 0.891213 0.122092
O O11 0.522531 0.289061 0.327463
O O12 0.509566 0.189299 0.548193
O O13 0.500000 0.000000 0.370526
O O14 0.550754 0.783807 0.119096
O O15 0.731786 0.818722 0.114886
O O16 0.000000 0.000000 0.667239
O O17 0.902370 0.882224 0.183014
#
# Coordination Sequence:
#
# PCOD8172122 Si02
#       8
#     4   4   4   4   4   4   4   4
#     4  11  24  48  76 102 151 195 244 303 374 449
#     4  12  24  49  73 102 157 194 238 316 377 441
#     4  12  25  47  74 108 144 197 247 304 380 443
#     4  12  22  50  74 101 152 195 246 308 374 451
#     4  12  26  48  73 111 147 191 248 308 368 458
#     4  12  28  46  74 111 150 195 249 313 379 452
#     4  12  27  45  76 114 144 196 250 307 376 456
#     4  11  25  47  73 107 145 198 244 306 380 449
#
# _framework density 22.809023
#
# number of rings (size 3 to 8) (size 9 to 14) (size 15 to 20)
#    0.000    0.250    7.500    0.750    3.500    1.500 
#    6.750    0.000    0.000    0.000    0.000    0.000 
#    0.000    0.000    0.000    0.000    0.000    0.000 
#
# Total GULP energy -396897.868929 kJ/mol
# GULP energy per Si atom -12403.058404 kJ/mol
# Density = 2.275711 g / cm^3
# Si number density = 22.809023 Si / 1000 Ang^3
#
#
#
# Elastic Constant Matrix: (Units=GPa)
#
#
# Indices 1 2 3 4 5 6 
#
# 1 94.7739 12.1396 26.8561 0.0000 0.0000 0.0000
# 2 12.1396 88.3529 28.8078 0.0000 0.0000 0.0000
# 3 26.8561 28.8078 151.5100 0.0000 0.0000 0.0000
# 4 0.0000 0.0000 0.0000 23.6914 0.0000 0.0000
# 5 0.0000 0.0000 0.0000 0.0000 35.6868 0.0000
# 6 0.0000 0.0000 0.0000 0.0000 0.0000 37.2517
#
#
#
# Elastic Compliance Matrix: (Units=1/GPa)
#
#
# Indices 1 2 3 4 5 6 
#
# 1 0.011184 -0.000949 -0.001802 0.000000 0.000000 0.000000
# 2 -0.000949 0.012147 -0.002141 0.000000 0.000000 0.000000
# 3 -0.001802 -0.002141 0.007327 0.000000 0.000000 0.000000
# 4 0.000000 0.000000 0.000000 0.042209 0.000000 0.000000
# 5 0.000000 0.000000 0.000000 0.000000 0.028022 0.000000
# 6 0.000000 0.000000 0.000000 0.000000 0.000000 0.026844
#
#
# Mechanical properties :
#
#
# Convention : Reuss Voigt Hill
#
# Bulk Modulus (GPa) = 47.90984 52.24930 50.07957
# Shear Modulus (GPa) = 34.60810 37.11486 35.86148
#
# Velocity S-wave (km/s) = 3.89948 4.03823 3.96946
# Velocity P-wave (km/s) = 6.42845 6.68582 6.55839
#
# Compressibility (1/GPa) = 0.02087254
#
# Stress axis : x y z
#
# Youngs Moduli (GPa) = 89.41661 82.32588 136.48576
#
# Poissons Ratio (x) = 0.07814 0.24593
# Poissons Ratio (y) = 0.08486 0.29226
# Poissons Ratio (z) = 0.16112 0.17629
#
# Static dielectric constant tensor:
#      x y z
#    x 4.193870 0.000000 0.000000 
#    y 0.000000 4.024500 0.000000 
#    z 0.000000 0.000000 4.232170 
# 
# 
# High freq. dielectric constant tensor:
#      x y z
#    x 1.905890 0.000000 0.000000 
#    y 0.000000 1.888730 0.000000 
#    z 0.000000 0.000000 1.911900 
# 
# From -- ./inp_files/5691.got.cif
#   From: 2010.03.12/outbox.cif.g09.slc.cpg/sg34_3_cif.got.tgz:5691.got - 2010.04.14 01:56:33.
