data_PCOD8172017
_publ_section_title
;
Structure prediction by ZEFSAII (Michael W. Deem and Ramdas Pophale) SiO2 
 PCOD8172017
Probable space group: P N N 2
;
_chemical_formula_sum "Si O2"
_cell_formula_units_Z 20
_cell_length_a 4.710726
_cell_length_b 17.149694
_cell_length_c 8.174694
_cell_angle_alpha 90.000000
_cell_angle_beta 90.000000
_cell_angle_gamma 90.000000
_cell_volume 660.413169
_symmetry_space_group_name_H-M "P N N 2"
_symmetry_group_IT_number 34
_symmetry_cell_setting 'orthorhombic'
loop_
_space_group_symop_operation_xyz
x,y,z
-x,-y,z
1/2-x,1/2+y,1/2+z
1/2+x,1/2-y,1/2+z
loop_
_atom_site_type_symbol
_atom_site_label
_atom_site_fract_x
_atom_site_fract_y
_atom_site_fract_z
Si Si1 0.244236 0.442387 0.988280
Si Si2 0.466432 0.408749 0.314043
Si Si3 0.938557 0.301687 0.181948
Si Si4 0.012019 0.907035 0.169670
Si Si5 0.057287 0.702594 0.794438
O O1 0.500000 0.500000 0.026468
O O2 0.289897 0.385167 0.830131
O O3 0.000000 0.500000 0.945502
O O4 0.229650 0.394829 0.164409
O O5 0.500000 0.500000 0.339483
O O6 0.770234 0.372181 0.269898
O O7 0.368093 0.378375 0.493931
O O8 0.745288 0.223836 0.206591
O O9 0.242350 0.279910 0.272407
O O10 0.972032 0.321042 0.987154
O O11 0.702090 0.869268 0.197124
O O12 0.000000 0.000000 0.183564
#
# Coordination Sequence:
#
# PCOD8172017 Si02
#       5
#     4   4   4   4   4
#     4  10  22  40  64  96 134 174 221 278 343 404
#     4  10  22  44  72 104 141 185 237 294 356 426
#     4  12  26  47  73 105 146 191 243 301 364 436
#     4  10  22  44  72 104 141 185 237 294 356 426
#     4  12  26  47  73 105 146 191 243 301 364 436
#
# _framework density 30.284068000000001
#
# number of rings (size 3 to 8) (size 9 to 14) (size 15 to 20)
#    0.000    1.200    2.000    3.600    0.000    7.200 
#    0.000    8.000    0.000    0.000    0.000    0.000 
#    0.000    0.000    0.000    0.000    0.000    0.000 
#
# Total GULP energy -248035.323095 kJ/mol
# GULP energy per Si atom -12401.766155 kJ/mol
# Density = 3.021514 g / cm^3
# Si number density = 30.284068 Si / 1000 Ang^3
#
#
#
# Elastic Constant Matrix: (Units=GPa)
#
#
# Indices 1 2 3 4 5 6 
#
# 1 166.9845 21.9457 89.1627 0.0000 0.0000 0.0000
# 2 21.9457 146.4131 73.2095 0.0000 0.0000 0.0000
# 3 89.1627 73.2095 336.3400 0.0000 0.0000 0.0000
# 4 0.0000 0.0000 0.0000 66.7023 0.0000 0.0000
# 5 0.0000 0.0000 0.0000 0.0000 60.4851 0.0000
# 6 0.0000 0.0000 0.0000 0.0000 0.0000 58.4360
#
#
#
# Elastic Compliance Matrix: (Units=1/GPa)
#
#
# Indices 1 2 3 4 5 6 
#
# 1 0.006978 -0.000136 -0.001820 0.000000 0.000000 0.000000
# 2 -0.000136 0.007667 -0.001633 0.000000 0.000000 0.000000
# 3 -0.001820 -0.001633 0.003811 0.000000 0.000000 0.000000
# 4 0.000000 0.000000 0.000000 0.014992 0.000000 0.000000
# 5 0.000000 0.000000 0.000000 0.000000 0.016533 0.000000
# 6 0.000000 0.000000 0.000000 0.000000 0.000000 0.017113
#
#
# Mechanical properties :
#
#
# Convention : Reuss Voigt Hill
#
# Bulk Modulus (GPa) = 88.66460 113.15261 100.90861
# Shear Modulus (GPa) = 64.07664 68.15265 66.11464
#
# Velocity S-wave (km/s) = 4.60483 4.74903 4.67749
# Velocity P-wave (km/s) = 7.59038 8.21681 7.90980
#
# Compressibility (1/GPa) = 0.01127846
#
# Stress axis : x y z
#
# Youngs Moduli (GPa) = 143.29831 130.43299 262.38628
#
# Poissons Ratio (x) = 0.01771 0.47765
# Poissons Ratio (y) = 0.01945 0.42843
# Poissons Ratio (z) = 0.26086 0.21297
#
# Static dielectric constant tensor:
#      x y z
#    x 5.711050 0.000000 0.000000 
#    y 0.000000 6.566440 0.000000 
#    z 0.000000 0.000000 7.132260 
# 
# 
# High freq. dielectric constant tensor:
#      x y z
#    x 2.251730 0.000000 0.000000 
#    y 0.000000 2.335770 0.000000 
#    z 0.000000 0.000000 2.271820 
# 
# From -- ./inp_files/2028.got.cif
#   From: 2010.03.12/outbox.cif.g09.slc.cpg/sg34_2_cif.got.tgz:2028.got - 2010.04.14 01:56:33.
