data_PCOD8172872
_publ_section_title
;
Structure prediction by ZEFSAII (Michael W. Deem and Ramdas Pophale) SiO2 
 PCOD8172872
Probable space group: C M M 2
;
_chemical_formula_sum "Si O2"
_cell_formula_units_Z 48
_cell_length_a 33.060845
_cell_length_b 8.622341
_cell_length_c 9.221947
_cell_angle_alpha 90.000000
_cell_angle_beta 90.000000
_cell_angle_gamma 90.000000
_cell_volume 2628.825543
_symmetry_space_group_name_H-M "C M M 2"
_symmetry_group_IT_number 35
_symmetry_cell_setting 'orthorhombic'
loop_
_space_group_symop_operation_xyz
x,y,z
-x,-y,z
-x,y,z
x,-y,z
1/2+x,1/2+y,z
1/2-x,1/2-y,z
1/2-x,1/2+y,z
1/2+x,1/2-y,z
loop_
_atom_site_type_symbol
_atom_site_label
_atom_site_fract_x
_atom_site_fract_y
_atom_site_fract_z
Si Si1 0.292910 0.814858 0.356200
Si Si2 0.116262 0.684757 0.823244
Si Si3 0.368694 0.681777 0.512225
Si Si4 0.083644 0.671468 0.266913
Si Si5 0.453615 0.678204 0.004253
Si Si6 0.335276 0.169491 0.084649
O O1 0.250000 0.750000 0.407738
O O2 0.326476 0.762123 0.470677
O O3 0.303121 0.747001 0.192876
O O4 0.292579 0.000000 0.352715
O O5 0.119759 0.500000 0.800516
O O6 0.121079 0.776909 0.676179
O O7 0.072709 0.720951 0.892645
O O8 0.152173 0.748725 0.931963
O O9 0.363484 0.500000 0.492531
O O10 0.406474 0.738836 0.415615
O O11 0.066524 0.500000 0.303913
O O12 0.124277 0.653777 0.176897
O O13 0.051357 0.765069 0.170533
O O14 0.500000 0.698909 0.958188
O O15 0.439768 0.500000 0.994879
O O16 0.317996 0.000000 0.046917
#
# Coordination Sequence:
#
# PCOD8172872 Si02
#       6
#     8   8   8   8   8   8
#     4  10  19  34  54  78 105 135 174 218 265 315
#     4  10  19  34  55  77 104 141 180 216 258 314
#     4  11  21  34  53  78 107 140 176 217 267 318
#     4   9  17  32  53  75  99 132 173 212 252 306
#     4  10  20  34  53  79 109 138 171 216 266 313
#     4   7  14  29  50  72  95 126 165 206 247 297
#
# _framework density 18.259104000000001
#
# number of rings (size 3 to 8) (size 9 to 14) (size 15 to 20)
#    0.000    2.500    0.000    5.500    0.000    1.333 
#    0.000    4.167    0.000    7.000    0.000    0.000 
#    0.000    0.000    0.000    0.000    0.000    0.000 
#
# Total GULP energy -297381.095509 kJ/mol
# GULP energy per Si atom -12390.878980 kJ/mol
# Density = 1.821755 g / cm^3
# Si number density = 18.259104 Si / 1000 Ang^3
#
#
#
# Elastic Constant Matrix: (Units=GPa)
#
#
# Indices 1 2 3 4 5 6 
#
# 1 63.3650 16.3504 26.9333 0.0000 0.0000 0.0000
# 2 16.3504 81.7505 19.8112 0.0000 0.0000 0.0000
# 3 26.9333 19.8112 114.6264 0.0000 0.0000 0.0000
# 4 0.0000 0.0000 0.0000 28.7900 0.0000 0.0000
# 5 0.0000 0.0000 0.0000 0.0000 18.7494 0.0000
# 6 0.0000 0.0000 0.0000 0.0000 0.0000 24.8025
#
#
#
# Elastic Compliance Matrix: (Units=1/GPa)
#
#
# Indices 1 2 3 4 5 6 
#
# 1 0.018086 -0.002701 -0.003783 0.000000 0.000000 0.000000
# 2 -0.002701 0.013170 -0.001642 0.000000 0.000000 0.000000
# 3 -0.003783 -0.001642 0.009897 0.000000 0.000000 0.000000
# 4 0.000000 0.000000 0.000000 0.034734 0.000000 0.000000
# 5 0.000000 0.000000 0.000000 0.000000 0.053335 0.000000
# 6 0.000000 0.000000 0.000000 0.000000 0.000000 0.040319
#
#
# Mechanical properties :
#
#
# Convention : Reuss Voigt Hill
#
# Bulk Modulus (GPa) = 40.15612 42.88130 41.51871
# Shear Modulus (GPa) = 25.76089 27.57817 26.66953
#
# Velocity S-wave (km/s) = 3.76021 3.89058 3.82595
# Velocity P-wave (km/s) = 6.39471 6.61196 6.50424
#
# Compressibility (1/GPa) = 0.02490280
#
# Stress axis : x y z
#
# Youngs Moduli (GPa) = 55.29023 75.92837 101.04482
#
# Poissons Ratio (x) = 0.20505 0.38225
# Poissons Ratio (y) = 0.14932 0.16589
# Poissons Ratio (z) = 0.20916 0.12465
#
# Static dielectric constant tensor:
#      x y z
#    x 3.270840 0.000000 0.000000 
#    y 0.000000 3.375150 0.000000 
#    z 0.000000 0.000000 3.526260 
# 
# 
# High freq. dielectric constant tensor:
#      x y z
#    x 1.683070 0.000000 0.000000 
#    y 0.000000 1.707550 0.000000 
#    z 0.000000 0.000000 1.704290 
# 
# From -- ./inp_files/5266.got.cif
#   From: 2010.03.12/outbox.cif.g09.slc.cpg/sg35_3_cif.got.tgz:5266.got - 2010.04.14 02:02:04.
