data_PCOD8173040
_publ_section_title
;
Structure prediction by ZEFSAII (Michael W. Deem and Ramdas Pophale) SiO2 
 PCOD8173040
Probable space group: C M M 2
;
_chemical_formula_sum "Si O2"
_cell_formula_units_Z 48
_cell_length_a 9.964029
_cell_length_b 18.156044
_cell_length_c 15.433474
_cell_angle_alpha 90.000000
_cell_angle_beta 90.000000
_cell_angle_gamma 90.000000
_cell_volume 2792.028866
_symmetry_space_group_name_H-M "C M M 2"
_symmetry_group_IT_number 35
_symmetry_cell_setting 'orthorhombic'
loop_
_space_group_symop_operation_xyz
x,y,z
-x,-y,z
-x,y,z
x,-y,z
1/2+x,1/2+y,z
1/2-x,1/2-y,z
1/2-x,1/2+y,z
1/2+x,1/2-y,z
loop_
_atom_site_type_symbol
_atom_site_label
_atom_site_fract_x
_atom_site_fract_y
_atom_site_fract_z
Si Si1 0.150354 0.912315 0.507310
Si Si2 0.849585 0.912463 0.699876
Si Si3 0.843375 0.680329 0.014987
Si Si4 0.847608 0.585351 0.845972
Si Si5 0.350484 0.087782 0.363940
Si Si6 0.159166 0.581674 0.172648
O O1 0.191119 0.884614 0.603630
O O2 0.251788 0.878252 0.436495
O O3 0.000000 0.885559 0.484946
O O4 0.156428 0.000000 0.504400
O O5 0.746802 0.880530 0.770873
O O6 0.000000 0.885581 0.722890
O O7 0.843504 0.000000 0.700609
O O8 0.750000 0.750000 0.000578
O O9 0.819771 0.626503 0.934913
O O10 0.000000 0.703167 0.022966
O O11 0.789856 0.638693 0.100659
O O12 0.815038 0.500000 0.862892
O O13 0.000000 0.596153 0.814506
O O14 0.500000 0.118926 0.381279
O O15 0.298434 0.110819 0.268135
O O16 0.353660 0.000000 0.368699
O O17 0.220178 0.500000 0.155297
O O18 0.000000 0.575245 0.168136
#
# Coordination Sequence:
#
# PCOD8173040 Si02
#       6
#     8   8   8   8   8   8
#     4   8  13  21  33  53  85 119 142 164 205 258
#     4   8  14  24  38  58  86 118 146 173 212 260
#     4  10  20  33  48  66  89 116 146 181 222 266
#     4   9  17  29  46  67  88 113 148 186 219 253
#     4   8  13  21  36  59  83 108 141 178 212 246
#     4   8  14  27  47  67  87 115 150 183 215 255
#
# _framework density 17.191797999999999
#
# number of rings (size 3 to 8) (size 9 to 14) (size 15 to 20)
#    0.000    3.500    0.000    2.500    0.000    3.333 
#    0.000    4.167    0.000    2.500    0.000    1.167 
#    0.000    2.667    0.000    0.000    0.000    0.000 
#
# Total GULP energy -297426.665544 kJ/mol
# GULP energy per Si atom -12392.777731 kJ/mol
# Density = 1.715267 g / cm^3
# Si number density = 17.191798 Si / 1000 Ang^3
#
#
#
# Elastic Constant Matrix: (Units=GPa)
#
#
# Indices 1 2 3 4 5 6 
#
# 1 91.5819 30.2722 86.1178 0.0000 0.0000 0.0000
# 2 30.2722 34.7114 31.9774 0.0000 0.0000 0.0000
# 3 86.1178 31.9774 155.9858 0.0000 0.0000 0.0000
# 4 0.0000 0.0000 0.0000 0.5365 0.0000 0.0000
# 5 0.0000 0.0000 0.0000 0.0000 25.4871 0.0000
# 6 0.0000 0.0000 0.0000 0.0000 0.0000 14.5538
#
#
#
# Elastic Compliance Matrix: (Units=1/GPa)
#
#
# Indices 1 2 3 4 5 6 
#
# 1 0.026053 -0.011676 -0.011990 0.000000 0.000000 0.000000
# 2 -0.011676 0.040749 -0.001908 0.000000 0.000000 0.000000
# 3 -0.011990 -0.001908 0.013422 0.000000 0.000000 0.000000
# 4 0.000000 0.000000 0.000000 1.864047 0.000000 0.000000
# 5 0.000000 0.000000 0.000000 0.000000 0.039236 0.000000
# 6 0.000000 0.000000 0.000000 0.000000 0.000000 0.068711
#
#
# Mechanical properties :
#
#
# Convention : Reuss Voigt Hill
#
# Bulk Modulus (GPa) = 34.39167 64.33488 49.36327
# Shear Modulus (GPa) = 2.36624 17.04292 9.70458
#
# Velocity S-wave (km/s) = 1.17446 3.15197 2.37848
# Velocity P-wave (km/s) = 4.67838 7.12388 6.02648
#
# Compressibility (1/GPa) = 0.02907681
#
# Stress axis : x y z
#
# Youngs Moduli (GPa) = 38.38277 24.54064 74.50696
#
# Poissons Ratio (x) = 0.28653 0.89336
# Poissons Ratio (y) = 0.44814 0.14213
# Poissons Ratio (z) = 0.46022 0.04681
#
# Static dielectric constant tensor:
#      x y z
#    x 3.265230 0.000000 0.000000 
#    y 0.000000 2.725650 0.000000 
#    z 0.000000 0.000000 3.645890 
# 
# 
# High freq. dielectric constant tensor:
#      x y z
#    x 1.648160 0.000000 0.000000 
#    y 0.000000 1.603220 0.000000 
#    z 0.000000 0.000000 1.679850 
# 
# From -- ./inp_files/12284.got.cif
#   From: 2010.03.12/outbox.cif.g09.slc.cpg/sg35_7_cif.got.tgz:12284.got - 2010.04.14 02:02:04.
