data_PCOD8173575
_publ_section_title
;
Structure prediction by ZEFSAII (Michael W. Deem and Ramdas Pophale) SiO2 
 PCOD8173575
Probable space group: C M M 2
;
_chemical_formula_sum "Si O2"
_cell_formula_units_Z 56
_cell_length_a 21.894653
_cell_length_b 8.807724
_cell_length_c 14.864466
_cell_angle_alpha 90.000000
_cell_angle_beta 90.000000
_cell_angle_gamma 90.000000
_cell_volume 2866.494255
_symmetry_space_group_name_H-M "C M M 2"
_symmetry_group_IT_number 35
_symmetry_cell_setting 'orthorhombic'
loop_
_space_group_symop_operation_xyz
x,y,z
-x,-y,z
-x,y,z
x,-y,z
1/2+x,1/2+y,z
1/2-x,1/2-y,z
1/2-x,1/2+y,z
1/2+x,1/2-y,z
loop_
_atom_site_type_symbol
_atom_site_label
_atom_site_fract_x
_atom_site_fract_y
_atom_site_fract_z
Si Si1 0.570482 0.178131 0.429580
Si Si2 0.402949 0.171872 0.632625
Si Si3 0.000000 0.172971 0.744388
Si Si4 0.817523 0.674765 0.309989
Si Si5 0.685665 0.172687 0.784227
Si Si6 0.187895 0.326316 0.111174
Si Si7 0.000000 0.322609 0.931682
Si Si8 0.878127 0.821586 0.949472
O O1 0.500000 0.243453 0.415865
O O2 0.596350 0.216206 0.528629
O O3 0.624855 0.246331 0.366361
O O4 0.566109 0.000000 0.412995
O O5 0.441888 0.297256 0.683376
O O6 0.336668 0.182669 0.680436
O O7 0.429022 0.000000 0.644637
O O8 0.000000 0.289948 0.826027
O O9 0.000000 0.000000 0.780107
O O10 0.807441 0.500000 0.337727
O O11 0.750000 0.750000 0.326540
O O12 0.845039 0.684637 0.208076
O O13 0.750000 0.250000 0.792955
O O14 0.639504 0.252625 0.853079
O O15 0.691916 0.000000 0.816150
O O16 0.192384 0.500000 0.077211
O O17 0.250000 0.250000 0.138888
O O18 0.165213 0.221736 0.030778
O O19 0.942477 0.246914 0.979535
O O20 0.000000 0.500000 0.950603
O O21 0.881240 0.000000 0.937526
#
# Coordination Sequence:
#
# PCOD8173575 Si02
#       8
#     8   8   4   8   8   8   4   8
#     4   9  17  33  60  89 114 148 199 248 293 351
#     4  10  20  36  59  81 109 153 196 234 282 341
#     4  12  22  34  56  83 112 147 190 235 276 326
#     4   9  19  36  60  88 116 151 196 244 299 357
#     4  11  23  37  55  81 116 154 195 239 287 341
#     4  10  20  37  59  85 114 151 195 240 290 350
#     4  12  24  40  60  83 114 153 194 233 282 346
#     4  12  24  39  59  85 116 150 190 240 291 342
#
# _framework density 19.536059000000002
#
# number of rings (size 3 to 8) (size 9 to 14) (size 15 to 20)
#    0.000    1.571    2.143    3.857    0.000    1.714 
#    1.286    0.714    0.000    0.000    0.000    0.000 
#    0.000    0.000    0.000    0.000    0.000    0.000 
#
# Total GULP energy -346883.064695 kJ/mol
# GULP energy per Si atom -12388.680882 kJ/mol
# Density = 1.949159 g / cm^3
# Si number density = 19.536059 Si / 1000 Ang^3
#
#
#
# Elastic Constant Matrix: (Units=GPa)
#
#
# Indices 1 2 3 4 5 6 
#
# 1 93.7413 29.8786 34.0724 0.0000 0.0000 0.0000
# 2 29.8786 108.4365 21.6007 0.0000 0.0000 0.0000
# 3 34.0724 21.6007 95.8232 0.0000 0.0000 0.0000
# 4 0.0000 0.0000 0.0000 17.0918 0.0000 0.0000
# 5 0.0000 0.0000 0.0000 0.0000 27.0041 0.0000
# 6 0.0000 0.0000 0.0000 0.0000 0.0000 28.6780
#
#
#
# Elastic Compliance Matrix: (Units=1/GPa)
#
#
# Indices 1 2 3 4 5 6 
#
# 1 0.013009 -0.002788 -0.003997 0.000000 0.000000 0.000000
# 2 -0.002788 0.010253 -0.001320 0.000000 0.000000 0.000000
# 3 -0.003997 -0.001320 0.012155 0.000000 0.000000 0.000000
# 4 0.000000 0.000000 0.000000 0.058508 0.000000 0.000000
# 5 0.000000 0.000000 0.000000 0.000000 0.037031 0.000000
# 6 0.000000 0.000000 0.000000 0.000000 0.000000 0.034870
#
#
# Mechanical properties :
#
#
# Convention : Reuss Voigt Hill
#
# Bulk Modulus (GPa) = 52.06595 52.12271 52.09433
# Shear Modulus (GPa) = 26.53378 28.71807 27.62592
#
# Velocity S-wave (km/s) = 3.68937 3.83822 3.76453
# Velocity P-wave (km/s) = 6.69758 6.81034 6.75420
#
# Compressibility (1/GPa) = 0.01920641
#
# Stress axis : x y z
#
# Youngs Moduli (GPa) = 76.86828 97.53063 82.27252
#
# Poissons Ratio (x) = 0.27195 0.32886
# Poissons Ratio (y) = 0.21433 0.10859
# Poissons Ratio (z) = 0.30726 0.12873
#
# Static dielectric constant tensor:
#      x y z
#    x 3.765020 0.000000 0.000000 
#    y 0.000000 3.449370 0.000000 
#    z 0.000000 0.000000 3.601710 
# 
# 
# High freq. dielectric constant tensor:
#      x y z
#    x 1.762450 0.000000 0.000000 
#    y 0.000000 1.749160 0.000000 
#    z 0.000000 0.000000 1.760620 
# 
# From -- ./inp_files/15696.got.cif
#   From: 2010.03.12/outbox.cif.g09.slc.cpg/sg35_8_cif.got.tgz:15696.got - 2010.04.14 02:02:04.
