data_PCOD8173356
_publ_section_title
;
Structure prediction by ZEFSAII (Michael W. Deem and Ramdas Pophale) SiO2 
 PCOD8173356
Probable space group: C M M 2
;
_chemical_formula_sum "Si O2"
_cell_formula_units_Z 40
_cell_length_a 8.852785
_cell_length_b 15.527021
_cell_length_c 14.265467
_cell_angle_alpha 90.000000
_cell_angle_beta 90.000000
_cell_angle_gamma 90.000000
_cell_volume 1960.893698
_symmetry_space_group_name_H-M "C M M 2"
_symmetry_group_IT_number 35
_symmetry_cell_setting 'orthorhombic'
loop_
_space_group_symop_operation_xyz
x,y,z
-x,-y,z
-x,y,z
x,-y,z
1/2+x,1/2+y,z
1/2-x,1/2-y,z
1/2-x,1/2+y,z
1/2+x,1/2-y,z
loop_
_atom_site_type_symbol
_atom_site_label
_atom_site_fract_x
_atom_site_fract_y
_atom_site_fract_z
Si Si1 0.324362 0.100138 0.834880
Si Si2 0.178809 0.500000 0.328446
Si Si3 0.826502 0.099054 0.022889
Si Si4 0.822821 0.163745 0.651459
Si Si5 0.177880 0.161276 0.225489
Si Si6 0.177756 0.000000 0.528669
O O1 0.500000 0.117289 0.820450
O O2 0.234224 0.152380 0.757187
O O3 0.281517 0.000000 0.825813
O O4 0.275510 0.133708 0.937531
O O5 0.246648 0.415623 0.281528
O O6 0.222020 0.500000 0.436770
O O7 0.000000 0.500000 0.316159
O O8 0.786711 0.152972 0.115219
O O9 0.000000 0.110131 0.993379
O O10 0.789116 0.000000 0.046026
O O11 0.750000 0.250000 0.607885
O O12 0.000000 0.175245 0.653749
O O13 0.774642 0.083332 0.588125
O O14 0.250000 0.250000 0.262008
O O15 0.000000 0.159876 0.245837
O O16 0.000000 0.000000 0.504294
#
# Coordination Sequence:
#
# PCOD8173356 Si02
#       6
#     8   4   8   8   8   4
#     4  10  20  34  57  90 127 167 208 254 301 360
#     4  12  26  44  69  96 125 164 205 258 320 380
#     4   9  18  35  59  86 122 170 212 253 305 361
#     4  11  23  41  65  93 124 163 206 254 308 367
#     4  11  23  42  66  95 129 167 211 261 313 372
#     4  10  24  46  69  90 121 162 203 256 318 376
#
# _framework density 20.398862999999999
#
# number of rings (size 3 to 8) (size 9 to 14) (size 15 to 20)
#    0.000    1.600    2.000    2.700    0.000    5.600 
#    0.000    4.000    0.000    0.000    0.000    0.000 
#    0.000    0.000    0.000    0.000    0.000    0.000 
#
# Total GULP energy -248104.418649 kJ/mol
# GULP energy per Si atom -12405.220932 kJ/mol
# Density = 2.035243 g / cm^3
# Si number density = 20.398863 Si / 1000 Ang^3
#
#
#
# Elastic Constant Matrix: (Units=GPa)
#
#
# Indices 1 2 3 4 5 6 
#
# 1 113.1274 70.8350 65.2209 0.0000 0.0000 0.0000
# 2 70.8350 155.5486 65.9027 0.0000 0.0000 0.0000
# 3 65.2209 65.9027 109.6918 0.0000 0.0000 0.0000
# 4 0.0000 0.0000 0.0000 82.5898 0.0000 0.0000
# 5 0.0000 0.0000 0.0000 0.0000 32.7038 0.0000
# 6 0.0000 0.0000 0.0000 0.0000 0.0000 35.4275
#
#
#
# Elastic Compliance Matrix: (Units=1/GPa)
#
#
# Indices 1 2 3 4 5 6 
#
# 1 0.015219 -0.004154 -0.006553 0.000000 0.000000 0.000000
# 2 -0.004154 0.009758 -0.003393 0.000000 0.000000 0.000000
# 3 -0.006553 -0.003393 0.015051 0.000000 0.000000 0.000000
# 4 0.000000 0.000000 0.000000 0.012108 0.000000 0.000000
# 5 0.000000 0.000000 0.000000 0.000000 0.030577 0.000000
# 6 0.000000 0.000000 0.000000 0.000000 0.000000 0.028227
#
#
# Mechanical properties :
#
#
# Convention : Reuss Voigt Hill
#
# Bulk Modulus (GPa) = 84.54317 86.92054 85.73185
# Shear Modulus (GPa) = 34.94503 41.90484 38.42493
#
# Velocity S-wave (km/s) = 4.14344 4.53733 4.34485
# Velocity P-wave (km/s) = 8.02657 8.37572 8.20300
#
# Compressibility (1/GPa) = 0.01182828
#
# Stress axis : x y z
#
# Youngs Moduli (GPa) = 65.70897 102.48062 66.44049
#
# Poissons Ratio (x) = 0.42571 0.43539
# Poissons Ratio (y) = 0.27296 0.22541
# Poissons Ratio (z) = 0.43059 0.34768
#
# Static dielectric constant tensor:
#      x y z
#    x 3.675440 0.000000 0.000000 
#    y 0.000000 3.786050 0.000000 
#    z 0.000000 0.000000 3.696120 
# 
# 
# High freq. dielectric constant tensor:
#      x y z
#    x 1.801420 0.000000 0.000000 
#    y 0.000000 1.803430 0.000000 
#    z 0.000000 0.000000 1.794650 
# 
# From -- ./inp_files/14756.got.cif
#   From: 2010.03.12/outbox.cif.g09.slc.cpg/sg35_8_cif.got.tgz:14756.got - 2010.04.14 02:02:04.
