data_PCOD8173531
_publ_section_title
;
Structure prediction by ZEFSAII (Michael W. Deem and Ramdas Pophale) SiO2 
 PCOD8173531
Probable space group: C M M 2
;
_chemical_formula_sum "Si O2"
_cell_formula_units_Z 48
_cell_length_a 8.752044
_cell_length_b 15.408978
_cell_length_c 18.621150
_cell_angle_alpha 90.000000
_cell_angle_beta 90.000000
_cell_angle_gamma 90.000000
_cell_volume 2511.249284
_symmetry_space_group_name_H-M "C M M 2"
_symmetry_group_IT_number 35
_symmetry_cell_setting 'orthorhombic'
loop_
_space_group_symop_operation_xyz
x,y,z
-x,-y,z
-x,y,z
x,-y,z
1/2+x,1/2+y,z
1/2-x,1/2-y,z
1/2-x,1/2+y,z
1/2+x,1/2-y,z
loop_
_atom_site_type_symbol
_atom_site_label
_atom_site_fract_x
_atom_site_fract_y
_atom_site_fract_z
Si Si1 0.819390 0.340847 0.386970
Si Si2 0.179357 0.000000 0.470465
Si Si3 0.819968 0.660326 0.222849
Si Si4 0.680632 0.340599 0.877415
Si Si5 0.320533 0.160038 0.724350
Si Si6 0.177387 0.500000 0.622867
Si Si7 0.678931 0.500000 0.976697
Si Si8 0.818975 0.500000 0.131869
O O1 0.750000 0.250000 0.413427
O O2 0.751757 0.415181 0.436046
O O3 0.771232 0.359127 0.304740
O O4 0.000000 0.338362 0.396526
O O5 0.214474 0.000000 0.554462
O O6 0.000000 0.000000 0.457109
O O7 0.750000 0.750000 0.194912
O O8 0.753521 0.584445 0.172593
O O9 0.000000 0.667595 0.216475
O O10 0.500000 0.331794 0.870582
O O11 0.750000 0.250000 0.905452
O O12 0.747255 0.365912 0.800168
O O13 0.728536 0.414956 0.932944
O O14 0.500000 0.171906 0.735635
O O15 0.250000 0.250000 0.695171
O O16 0.281859 0.085128 0.668237
O O17 0.000000 0.500000 0.599819
O O18 0.500000 0.500000 0.992898
O O19 0.769206 0.500000 0.050307
O O20 0.000000 0.500000 0.136974
#
# Coordination Sequence:
#
# PCOD8173531 Si02
#       8
#     8   4   8   8   8   4   4   4
#     4  10  20  38  62  85 113 146 185 234 282 332
#     4  12  25  38  56  84 116 152 191 228 276 334
#     4   9  19  36  58  83 108 140 181 225 274 325
#     4  10  20  36  57  80 107 139 178 223 269 319
#     4  10  20  36  59  84 108 138 179 224 271 323
#     4  10  23  40  56  78 112 150 183 222 274 328
#     4  10  23  38  52  76 110 146 181 220 268 318
#     4  10  21  36  54  78 110 146 181 218 268 326
#
# _framework density 19.113993000000001
#
# number of rings (size 3 to 8) (size 9 to 14) (size 15 to 20)
#    0.000    2.000    0.000    4.250    0.000    6.667 
#    0.000    5.833    0.000    0.000    0.000    0.000 
#    0.000    0.000    0.000    0.000    0.000    0.000 
#
# Total GULP energy -297685.769352 kJ/mol
# GULP energy per Si atom -12403.573723 kJ/mol
# Density = 1.907049 g / cm^3
# Si number density = 19.113993 Si / 1000 Ang^3
#
#
#
# Elastic Constant Matrix: (Units=GPa)
#
#
# Indices 1 2 3 4 5 6 
#
# 1 80.0878 58.6408 46.2296 0.0000 0.0000 0.0000
# 2 58.6408 180.9815 96.6975 0.0000 0.0000 0.0000
# 3 46.2296 96.6975 115.2303 0.0000 0.0000 0.0000
# 4 0.0000 0.0000 0.0000 13.9155 0.0000 0.0000
# 5 0.0000 0.0000 0.0000 0.0000 31.6144 0.0000
# 6 0.0000 0.0000 0.0000 0.0000 0.0000 28.9368
#
#
#
# Elastic Compliance Matrix: (Units=1/GPa)
#
#
# Indices 1 2 3 4 5 6 
#
# 1 0.017362 -0.003451 -0.004069 0.000000 0.000000 0.000000
# 2 -0.003451 0.010703 -0.007597 0.000000 0.000000 0.000000
# 3 -0.004069 -0.007597 0.016686 0.000000 0.000000 0.000000
# 4 0.000000 0.000000 0.000000 0.071863 0.000000 0.000000
# 5 0.000000 0.000000 0.000000 0.000000 0.031631 0.000000
# 6 0.000000 0.000000 0.000000 0.000000 0.000000 0.034558
#
#
# Mechanical properties :
#
#
# Convention : Reuss Voigt Hill
#
# Bulk Modulus (GPa) = 68.88966 86.60392 77.74679
# Shear Modulus (GPa) = 22.94887 26.54211 24.74549
#
# Velocity S-wave (km/s) = 3.46877 3.73046 3.60200
# Velocity P-wave (km/s) = 7.22239 7.99767 7.61989
#
# Compressibility (1/GPa) = 0.01451597
#
# Stress axis : x y z
#
# Youngs Moduli (GPa) = 57.59551 93.43583 59.93195
#
# Poissons Ratio (x) = 0.32249 0.24388
# Poissons Ratio (y) = 0.19879 0.45527
# Poissons Ratio (z) = 0.23437 0.70979
#
# Static dielectric constant tensor:
#      x y z
#    x 3.497720 0.000000 0.000000 
#    y 0.000000 3.753750 0.000000 
#    z 0.000000 0.000000 3.435370 
# 
# 
# High freq. dielectric constant tensor:
#      x y z
#    x 1.746830 0.000000 0.000000 
#    y 0.000000 1.761640 0.000000 
#    z 0.000000 0.000000 1.737880 
# 
# From -- ./inp_files/17139.got.cif
#   From: 2010.03.12/outbox.cif.g09.slc.cpg/sg35_9_cif.got.tgz:17139.got - 2010.04.14 02:02:04.
