data_PCOD8173526
_publ_section_title
;
Structure prediction by ZEFSAII (Michael W. Deem and Ramdas Pophale) SiO2 
 PCOD8173526
Probable space group: C M M 2
;
_chemical_formula_sum "Si O2"
_cell_formula_units_Z 56
_cell_length_a 20.949807
_cell_length_b 8.925924
_cell_length_c 14.528503
_cell_angle_alpha 90.000000
_cell_angle_beta 90.000000
_cell_angle_gamma 90.000000
_cell_volume 2716.777542
_symmetry_space_group_name_H-M "C M M 2"
_symmetry_group_IT_number 35
_symmetry_cell_setting 'orthorhombic'
loop_
_space_group_symop_operation_xyz
x,y,z
-x,-y,z
-x,y,z
x,-y,z
1/2+x,1/2+y,z
1/2-x,1/2-y,z
1/2-x,1/2+y,z
1/2+x,1/2-y,z
loop_
_atom_site_type_symbol
_atom_site_label
_atom_site_fract_x
_atom_site_fract_y
_atom_site_fract_z
Si Si1 0.313965 0.173306 0.188120
Si Si2 0.569826 0.176900 0.305921
Si Si3 0.375436 0.828137 0.003649
Si Si4 0.685886 0.677909 0.628760
Si Si5 0.426848 0.174802 0.517552
Si Si6 0.500000 0.330424 0.794403
Si Si7 0.000000 0.164957 0.012653
Si Si8 0.369712 0.178189 0.796605
O O1 0.250000 0.250000 0.224184
O O2 0.374590 0.245117 0.241403
O O3 0.308740 0.000000 0.213037
O O4 0.319530 0.198017 0.077739
O O5 0.500000 0.243046 0.277789
O O6 0.584484 0.216651 0.411379
O O7 0.567196 0.000000 0.292812
O O8 0.355412 0.770616 0.902166
O O9 0.395118 0.000000 0.994622
O O10 0.436855 0.747645 0.046693
O O11 0.691726 0.500000 0.628836
O O12 0.750000 0.750000 0.584104
O O13 0.622601 0.726476 0.574711
O O14 0.682445 0.741022 0.733176
O O15 0.500000 0.213656 0.545943
O O16 0.413101 0.000000 0.535809
O O17 0.500000 0.500000 0.753302
O O18 0.438389 0.237756 0.761858
O O19 0.500000 0.338537 0.903330
O O20 0.000000 0.000000 0.055303
O O21 0.366520 0.000000 0.783993
#
# Coordination Sequence:
#
# PCOD8173526 Si02
#       8
#     8   8   8   8   8   4   4   8
#     4  10  21  36  56  84 118 155 195 237 285 340
#     4   8  16  34  62  91 115 147 190 235 283 344
#     4   9  19  34  54  80 112 155 199 238 282 340
#     4  12  26  42  60  85 118 156 200 245 298 355
#     4   9  19  39  66  93 120 150 189 236 293 355
#     4   9  17  31  51  79 110 145 190 237 289 342
#     4   9  17  29  49  77 108 141 184 241 293 332
#     4  10  20  36  56  81 115 154 199 245 292 342
#
# _framework density 20.612656000000001
#
# number of rings (size 3 to 8) (size 9 to 14) (size 15 to 20)
#    0.000    2.429    0.000    3.000    2.000    4.286 
#    0.000    3.571    0.000    0.857    0.000    0.000 
#    0.000    0.000    0.000    0.000    0.000    0.000 
#
# Total GULP energy -347114.653761 kJ/mol
# GULP energy per Si atom -12396.951920 kJ/mol
# Density = 2.056574 g / cm^3
# Si number density = 20.612656 Si / 1000 Ang^3
#
#
#
# Elastic Constant Matrix: (Units=GPa)
#
#
# Indices 1 2 3 4 5 6 
#
# 1 141.6109 52.3116 61.7937 0.0000 0.0000 0.0000
# 2 52.3116 91.5157 32.4633 0.0000 0.0000 0.0000
# 3 61.7937 32.4633 82.7834 0.0000 0.0000 0.0000
# 4 0.0000 0.0000 0.0000 15.9700 0.0000 0.0000
# 5 0.0000 0.0000 0.0000 0.0000 23.5229 0.0000
# 6 0.0000 0.0000 0.0000 0.0000 0.0000 34.9866
#
#
#
# Elastic Compliance Matrix: (Units=1/GPa)
#
#
# Indices 1 2 3 4 5 6 
#
# 1 0.011699 -0.004170 -0.007098 0.000000 0.000000 0.000000
# 2 -0.004170 0.014179 -0.002448 0.000000 0.000000 0.000000
# 3 -0.007098 -0.002448 0.018338 0.000000 0.000000 0.000000
# 4 0.000000 0.000000 0.000000 0.062617 0.000000 0.000000
# 5 0.000000 0.000000 0.000000 0.000000 0.042512 0.000000
# 6 0.000000 0.000000 0.000000 0.000000 0.000000 0.028582
#
#
# Mechanical properties :
#
#
# Convention : Reuss Voigt Hill
#
# Bulk Modulus (GPa) = 59.57551 67.67192 63.62372
# Shear Modulus (GPa) = 23.70207 26.18532 24.94370
#
# Velocity S-wave (km/s) = 3.39467 3.56807 3.48245
# Velocity P-wave (km/s) = 6.65809 7.06232 6.86318
#
# Compressibility (1/GPa) = 0.01678542
#
# Stress axis : x y z
#
# Youngs Moduli (GPa) = 85.47735 70.52794 54.53259
#
# Poissons Ratio (x) = 0.29407 0.38705
# Poissons Ratio (y) = 0.35640 0.13348
# Poissons Ratio (z) = 0.60669 0.17264
#
# Static dielectric constant tensor:
#      x y z
#    x 3.960910 0.000000 0.000000 
#    y 0.000000 3.521890 0.000000 
#    z 0.000000 0.000000 3.740600 
# 
# 
# High freq. dielectric constant tensor:
#      x y z
#    x 1.806860 0.000000 0.000000 
#    y 0.000000 1.783430 0.000000 
#    z 0.000000 0.000000 1.802010 
# 
# From -- ./inp_files/17472.got.cif
#   From: 2010.03.12/outbox.cif.g09.slc.cpg/sg35_9_cif.got.tgz:17472.got - 2010.04.14 02:02:04.
