data_PCOD8173986
_publ_section_title
;
Structure prediction by ZEFSAII (Michael W. Deem and Ramdas Pophale) SiO2 
 PCOD8173986
Probable space group: C M M 2
;
_chemical_formula_sum "Si O2"
_cell_formula_units_Z 32
_cell_length_a 17.344817
_cell_length_b 10.805691
_cell_length_c 7.684862
_cell_angle_alpha 90.000000
_cell_angle_beta 90.000000
_cell_angle_gamma 90.000000
_cell_volume 1440.317838
_symmetry_space_group_name_H-M "C M M 2"
_symmetry_group_IT_number 35
_symmetry_cell_setting 'orthorhombic'
loop_
_space_group_symop_operation_xyz
x,y,z
-x,-y,z
-x,y,z
x,-y,z
1/2+x,1/2+y,z
1/2-x,1/2-y,z
1/2-x,1/2+y,z
1/2+x,1/2-y,z
loop_
_atom_site_type_symbol
_atom_site_label
_atom_site_fract_x
_atom_site_fract_y
_atom_site_fract_z
Si Si1 0.808468 0.363572 0.450740
Si Si2 0.660911 0.245917 0.796018
Si Si3 0.916537 0.000000 0.178077
Si Si4 0.414876 0.500000 0.770620
Si Si5 0.408322 0.766783 0.163305
O O1 0.768851 0.500000 0.443739
O O2 0.750000 0.250000 0.429109
O O3 0.851065 0.350157 0.637530
O O4 0.870626 0.363277 0.294900
O O5 0.750000 0.250000 0.852883
O O6 0.633645 0.378540 0.719240
O O7 0.613089 0.201779 0.963986
O O8 0.874454 0.870031 0.221101
O O9 0.929310 0.000000 0.973497
O O10 0.000000 0.000000 0.271133
O O11 0.500000 0.500000 0.679420
O O12 0.500000 0.770521 0.179106
#
# Coordination Sequence:
#
# PCOD8173986 Si02
#       5
#     8   8   4   4   8
#     4  11  27  45  66  96 134 177 230 278 337 409
#     4  10  22  39  68  98 137 177 227 279 340 400
#     4   7  14  31  59  93 126 164 212 262 314 389
#     4   9  18  37  65  99 133 174 230 278 325 401
#     4  10  21  41  67  99 136 175 221 276 341 406
#
# _framework density 22.217317999999999
#
# number of rings (size 3 to 8) (size 9 to 14) (size 15 to 20)
#    0.000    2.250    0.000    3.000    8.750    3.500 
#    4.500    1.250    0.000    0.000    0.000    0.000 
#    0.000    0.000    0.000    0.000    0.000    0.000 
#
# Total GULP energy -198229.032698 kJ/mol
# GULP energy per Si atom -12389.314544 kJ/mol
# Density = 2.216675 g / cm^3
# Si number density = 22.217318 Si / 1000 Ang^3
#
#
#
# Elastic Constant Matrix: (Units=GPa)
#
#
# Indices 1 2 3 4 5 6 
#
# 1 96.5325 55.4847 28.8520 0.0000 0.0000 0.0000
# 2 55.4847 145.9495 41.9062 0.0000 0.0000 0.0000
# 3 28.8520 41.9062 121.6638 0.0000 0.0000 0.0000
# 4 0.0000 0.0000 0.0000 14.7699 0.0000 0.0000
# 5 0.0000 0.0000 0.0000 0.0000 -26.9100 0.0000
# 6 0.0000 0.0000 0.0000 0.0000 0.0000 25.7336
#
#
#
# Elastic Compliance Matrix: (Units=1/GPa)
#
#
# Indices 1 2 3 4 5 6 
#
# 1 0.013529 -0.004685 -0.001594 0.000000 0.000000 0.000000
# 2 -0.004685 0.009226 -0.002067 0.000000 0.000000 0.000000
# 3 -0.001594 -0.002067 0.009309 0.000000 0.000000 0.000000
# 4 0.000000 0.000000 0.000000 0.067705 0.000000 0.000000
# 5 0.000000 0.000000 0.000000 0.000000 -0.037161 0.000000
# 6 0.000000 0.000000 0.000000 0.000000 0.000000 0.038860
#
#
# Mechanical properties :
#
#
# Convention : Reuss Voigt Hill
#
# Bulk Modulus (GPa) = 65.05654 68.51463 66.78558
# Shear Modulus (GPa) = 40.55624 18.57889 29.56757
#
# Velocity S-wave (km/s) = 4.27714 2.89491 3.65202
# Velocity P-wave (km/s) = 7.33058 6.48686 6.92159
#
# Compressibility (1/GPa) = 0.01537125
#
# Stress axis : x y z
#
# Youngs Moduli (GPa) = 73.91642 108.38545 107.41837
#
# Poissons Ratio (x) = 0.50782 0.17127
# Poissons Ratio (y) = 0.34632 0.22202
# Poissons Ratio (z) = 0.11786 0.22401
#
# Static dielectric constant tensor:
#      x y z
#    x 3.851220 0.000000 0.000000 
#    y 0.000000 4.359770 0.000000 
#    z 0.000000 0.000000 3.979970 
# 
# 
# High freq. dielectric constant tensor:
#      x y z
#    x 1.857890 0.000000 0.000000 
#    y 0.000000 1.870280 0.000000 
#    z 0.000000 0.000000 1.873310 
# 
# From -- ./inp_files/6753.got.cif
#   From: 2010.03.12/outbox.cif.g09.slc.cpg/sg35_4_cif.got.tgz:6753.got - 2010.04.14 02:02:04.
