data_PCOD8173646
_publ_section_title
;
Structure prediction by ZEFSAII (Michael W. Deem and Ramdas Pophale) SiO2 
 PCOD8173646
Probable space group: C M M 2
;
_chemical_formula_sum "Si O2"
_cell_formula_units_Z 40
_cell_length_a 25.757161
_cell_length_b 8.867722
_cell_length_c 9.028067
_cell_angle_alpha 90.000000
_cell_angle_beta 90.000000
_cell_angle_gamma 90.000000
_cell_volume 2062.076798
_symmetry_space_group_name_H-M "C M M 2"
_symmetry_group_IT_number 35
_symmetry_cell_setting 'orthorhombic'
loop_
_space_group_symop_operation_xyz
x,y,z
-x,-y,z
-x,y,z
x,-y,z
1/2+x,1/2+y,z
1/2-x,1/2-y,z
1/2-x,1/2+y,z
1/2+x,1/2-y,z
loop_
_atom_site_type_symbol
_atom_site_label
_atom_site_fract_x
_atom_site_fract_y
_atom_site_fract_z
Si Si1 0.000000 0.177700 0.399511
Si Si2 0.901600 0.323715 0.912887
Si Si3 0.802945 0.676951 0.724850
Si Si4 0.500000 0.826881 0.712688
Si Si5 0.196244 0.321616 0.387717
Si Si6 0.899575 0.821626 0.225698
O O1 0.948688 0.240337 0.318373
O O2 0.000000 0.224734 0.568857
O O3 0.000000 0.000000 0.388027
O O4 0.899476 0.500000 0.955674
O O5 0.849733 0.270358 0.828941
O O6 0.949516 0.288014 0.806975
O O7 0.908617 0.222121 0.056355
O O8 0.795489 0.500000 0.730704
O O9 0.750000 0.750000 0.784781
O O10 0.814911 0.728817 0.556813
O O11 0.500000 0.000000 0.661454
O O12 0.199519 0.500000 0.370894
O O13 0.250000 0.250000 0.332084
O O14 0.151394 0.260023 0.283851
O O15 0.892818 0.000000 0.240902
#
# Coordination Sequence:
#
# PCOD8173646 Si02
#       6
#     4   8   8   4   8   8
#     4  10  23  40  58  82 114 148 187 234 284 336
#     4  10  21  37  56  82 113 144 181 230 282 333
#     4   9  19  35  56  81 109 141 181 225 272 326
#     4  10  21  38  62  86 108 140 187 236 284 336
#     4  10  20  37  60  85 113 147 187 234 282 333
#     4  11  23  38  56  82 115 152 190 230 279 336
#
# _framework density 19.397919999999999
#
# number of rings (size 3 to 8) (size 9 to 14) (size 15 to 20)
#    0.000    2.000    0.000    3.000    0.000    6.400 
#    0.000    2.000    0.000    0.000    0.000    0.000 
#    0.000    0.000    0.000    0.000    0.000    0.000 
#
# Total GULP energy -248095.417597 kJ/mol
# GULP energy per Si atom -12404.770880 kJ/mol
# Density = 1.935377 g / cm^3
# Si number density = 19.397920 Si / 1000 Ang^3
#
#
#
# Elastic Constant Matrix: (Units=GPa)
#
#
# Indices 1 2 3 4 5 6 
#
# 1 158.0135 34.8861 60.8237 0.0000 0.0000 0.0000
# 2 34.8861 43.5216 22.1770 0.0000 0.0000 0.0000
# 3 60.8237 22.1770 94.5689 0.0000 0.0000 0.0000
# 4 0.0000 0.0000 0.0000 35.1285 0.0000 0.0000
# 5 0.0000 0.0000 0.0000 0.0000 0.4442 0.0000
# 6 0.0000 0.0000 0.0000 0.0000 0.0000 29.8799
#
#
#
# Elastic Compliance Matrix: (Units=1/GPa)
#
#
# Indices 1 2 3 4 5 6 
#
# 1 0.009277 -0.004992 -0.004796 0.000000 0.000000 0.000000
# 2 -0.004992 0.028782 -0.003539 0.000000 0.000000 0.000000
# 3 -0.004796 -0.003539 0.014489 0.000000 0.000000 0.000000
# 4 0.000000 0.000000 0.000000 0.028467 0.000000 0.000000
# 5 0.000000 0.000000 0.000000 0.000000 2.251440 0.000000
# 6 0.000000 0.000000 0.000000 0.000000 0.000000 0.033467
#
#
# Mechanical properties :
#
#
# Convention : Reuss Voigt Hill
#
# Bulk Modulus (GPa) = 38.61918 59.09752 48.85835
# Shear Modulus (GPa) = 2.08229 24.97166 13.52697
#
# Velocity S-wave (km/s) = 1.03720 3.59184 2.64359
# Velocity P-wave (km/s) = 4.62456 6.90896 5.87879
#
# Compressibility (1/GPa) = 0.02589387
#
# Stress axis : x y z
#
# Youngs Moduli (GPa) = 107.79555 34.74393 69.01957
#
# Poissons Ratio (x) = 0.17345 0.33101
# Poissons Ratio (y) = 0.53815 0.24423
# Poissons Ratio (z) = 0.51697 0.12295
#
# Static dielectric constant tensor:
#      x y z
#    x 3.812490 0.000000 0.000000 
#    y 0.000000 3.441450 0.000000 
#    z 0.000000 0.000000 3.508850 
# 
# 
# High freq. dielectric constant tensor:
#      x y z
#    x 1.774240 0.000000 0.000000 
#    y 0.000000 1.750010 0.000000 
#    z 0.000000 0.000000 1.756950 
# 
# From -- ./inp_files/4991.got.cif
#   From: 2010.03.12/outbox.cif.g09.slc.cpg/sg35_3_cif.got.tgz:4991.got - 2010.04.14 02:02:04.
