data_PCOD8173951
_publ_section_title
;
Structure prediction by ZEFSAII (Michael W. Deem and Ramdas Pophale) SiO2 
 PCOD8173951
Probable space group: C M M 2
;
_chemical_formula_sum "Si O2"
_cell_formula_units_Z 52
_cell_length_a 13.817024
_cell_length_b 18.690417
_cell_length_c 9.454365
_cell_angle_alpha 90.000000
_cell_angle_beta 90.000000
_cell_angle_gamma 90.000000
_cell_volume 2441.551379
_symmetry_space_group_name_H-M "C M M 2"
_symmetry_group_IT_number 35
_symmetry_cell_setting 'orthorhombic'
loop_
_space_group_symop_operation_xyz
x,y,z
-x,-y,z
-x,y,z
x,-y,z
1/2+x,1/2+y,z
1/2-x,1/2-y,z
1/2-x,1/2+y,z
1/2+x,1/2-y,z
loop_
_atom_site_type_symbol
_atom_site_label
_atom_site_fract_x
_atom_site_fract_y
_atom_site_fract_z
Si Si1 0.392922 0.500000 0.934490
Si Si2 0.886608 0.281933 0.097859
Si Si3 0.108588 0.275768 0.768540
Si Si4 0.105976 0.111353 0.696879
Si Si5 0.780027 0.000000 0.202933
Si Si6 0.111280 0.500000 0.402634
Si Si7 0.285410 0.871663 0.541781
Si Si8 0.780848 0.155303 0.251336
O O1 0.500000 0.500000 0.008810
O O2 0.383130 0.427830 0.845671
O O3 0.300449 0.500000 0.036605
O O4 0.858047 0.209164 0.182209
O O5 0.819063 0.345044 0.159246
O O6 0.000000 0.297520 0.124534
O O7 0.861010 0.276893 0.932614
O O8 0.117600 0.195503 0.716253
O O9 0.176859 0.324609 0.672415
O O10 0.000000 0.304893 0.751383
O O11 0.190143 0.084741 0.592897
O O12 0.000000 0.093393 0.632078
O O13 0.825799 0.074879 0.259419
O O14 0.668351 0.000000 0.253172
O O15 0.135344 0.570596 0.493807
O O16 0.000000 0.500000 0.362754
O O17 0.251103 0.821953 0.410088
#
# Coordination Sequence:
#
# PCOD8173951 Si02
#       8
#     4   8   8   8   4   4   8   8
#     4  10  21  39  63  96 132 168 208 261 333 396
#     4  10  23  42  61  91 130 167 211 268 324 385
#     4  10  22  38  62  91 123 167 216 268 320 376
#     4  10  22  37  61  94 127 166 211 263 320 380
#     4  10  22  40  66  92 124 170 214 258 326 388
#     4  10  23  45  65  90 130 170 216 269 323 384
#     4  11  23  40  65  94 125 173 219 267 321 384
#     4  10  24  40  62  94 126 168 214 260 326 392
#
# _framework density 21.297934999999999
#
# number of rings (size 3 to 8) (size 9 to 14) (size 15 to 20)
#    0.000    1.846    0.000    2.308   10.769    5.538 
#    0.000    2.308    0.000    0.000    0.000    0.000 
#    0.000    0.000    0.000    0.000    0.000    0.000 
#
# Total GULP energy -322135.457008 kJ/mol
# GULP energy per Si atom -12389.825270 kJ/mol
# Density = 2.124946 g / cm^3
# Si number density = 21.297935 Si / 1000 Ang^3
#
#
#
# Elastic Constant Matrix: (Units=GPa)
#
#
# Indices 1 2 3 4 5 6 
#
# 1 126.0872 15.0899 56.9324 0.0000 0.0000 0.0000
# 2 15.0899 101.3111 25.9751 0.0000 0.0000 0.0000
# 3 56.9324 25.9751 118.1344 0.0000 0.0000 0.0000
# 4 0.0000 0.0000 0.0000 24.7406 0.0000 0.0000
# 5 0.0000 0.0000 0.0000 0.0000 38.1322 0.0000
# 6 0.0000 0.0000 0.0000 0.0000 0.0000 22.9848
#
#
#
# Elastic Compliance Matrix: (Units=1/GPa)
#
#
# Indices 1 2 3 4 5 6 
#
# 1 0.010144 -0.000273 -0.004829 0.000000 0.000000 0.000000
# 2 -0.000273 0.010468 -0.002170 0.000000 0.000000 0.000000
# 3 -0.004829 -0.002170 0.011269 0.000000 0.000000 0.000000
# 4 0.000000 0.000000 0.000000 0.040419 0.000000 0.000000
# 5 0.000000 0.000000 0.000000 0.000000 0.026225 0.000000
# 6 0.000000 0.000000 0.000000 0.000000 0.000000 0.043507
#
#
# Mechanical properties :
#
#
# Convention : Reuss Voigt Hill
#
# Bulk Modulus (GPa) = 57.67854 60.16974 58.92414
# Shear Modulus (GPa) = 30.79685 33.67385 32.23535
#
# Velocity S-wave (km/s) = 3.80676 3.98060 3.89465
# Velocity P-wave (km/s) = 6.81633 7.03134 6.92467
#
# Compressibility (1/GPa) = 0.01733747
#
# Stress axis : x y z
#
# Youngs Moduli (GPa) = 98.58061 95.53273 88.73773
#
# Poissons Ratio (x) = 0.02607 0.42849
# Poissons Ratio (y) = 0.02690 0.19257
# Poissons Ratio (z) = 0.47601 0.20731
#
# Static dielectric constant tensor:
#      x y z
#    x 4.033400 0.000000 0.000000 
#    y 0.000000 3.880300 0.000000 
#    z 0.000000 0.000000 3.870130 
# 
# 
# High freq. dielectric constant tensor:
#      x y z
#    x 1.836000 0.000000 0.000000 
#    y 0.000000 1.837800 0.000000 
#    z 0.000000 0.000000 1.834620 
# 
# From -- ./inp_files/7575.got.cif
#   From: 2010.03.12/outbox.cif.g09.slc.cpg/sg35_4_cif.got.tgz:7575.got - 2010.04.14 02:02:04.
