data_PCOD8173520
_publ_section_title
;
Structure prediction by ZEFSAII (Michael W. Deem and Ramdas Pophale) SiO2 
 PCOD8173520
Probable space group: C M M 2
;
_chemical_formula_sum "Si O2"
_cell_formula_units_Z 56
_cell_length_a 21.922664
_cell_length_b 21.924765
_cell_length_c 6.141055
_cell_angle_alpha 90.000000
_cell_angle_beta 90.000000
_cell_angle_gamma 90.000000
_cell_volume 2951.693519
_symmetry_space_group_name_H-M "C M M 2"
_symmetry_group_IT_number 35
_symmetry_cell_setting 'orthorhombic'
loop_
_space_group_symop_operation_xyz
x,y,z
-x,-y,z
-x,y,z
x,-y,z
1/2+x,1/2+y,z
1/2-x,1/2-y,z
1/2-x,1/2+y,z
1/2+x,1/2-y,z
loop_
_atom_site_type_symbol
_atom_site_label
_atom_site_fract_x
_atom_site_fract_y
_atom_site_fract_z
Si Si1 0.763507 0.151076 0.951360
Si Si2 0.329887 0.170126 0.317028
Si Si3 0.848897 0.236472 0.682658
Si Si4 0.569033 0.338385 0.371984
Si Si5 0.338368 0.430974 0.262059
Si Si6 0.569521 0.773372 0.062177
Si Si7 0.273412 0.930485 0.571844
O O1 0.795105 0.204856 0.816959
O O2 0.724891 0.105686 0.798243
O O3 0.718031 0.183149 0.122771
O O4 0.814037 0.110711 0.068602
O O5 0.316835 0.218041 0.511257
O O6 0.398692 0.179090 0.229096
O O7 0.320952 0.101326 0.404986
O O8 0.889282 0.185960 0.565424
O O9 0.894274 0.275082 0.835848
O O10 0.500000 0.344658 0.455605
O O11 0.594536 0.405476 0.317045
O O12 0.572868 0.294485 0.162299
O O13 0.344643 0.500000 0.178437
O O14 0.294451 0.427137 0.471713
O O15 0.500000 0.794492 0.025602
O O16 0.294546 0.000000 0.608311
#
# Coordination Sequence:
#
# PCOD8173520 Si02
#       7
#     8   8   8   8   8   8   8
#     4  11  21  37  57  83 119 154 192 243 299 355
#     4  10  24  37  56  93 116 148 190 245 296 352
#     4  11  21  37  57  83 119 154 192 243 299 355
#     4  10  20  36  55  80 113 154 203 245 285 332
#     4  10  20  36  55  80 113 154 203 245 285 332
#     4  10  21  38  59  83 117 155 190 235 294 358
#     4  10  21  38  59  83 117 155 190 235 294 358
#
# _framework density 18.972159000000001
#
# number of rings (size 3 to 8) (size 9 to 14) (size 15 to 20)
#    0.000    1.714    2.857    1.714    0.000    4.857 
#    0.000    0.000    0.000    0.429    0.000    0.000 
#    0.000    0.000    0.000    0.000    0.000    0.000 
#
# Total GULP energy -347230.285271 kJ/mol
# GULP energy per Si atom -12401.081617 kJ/mol
# Density = 1.892898 g / cm^3
# Si number density = 18.972159 Si / 1000 Ang^3
#
#
#
# Elastic Constant Matrix: (Units=GPa)
#
#
# Indices 1 2 3 4 5 6 
#
# 1 95.8739 78.7247 47.0602 0.0000 0.0000 0.0000
# 2 78.7247 96.0824 47.1311 0.0000 0.0000 0.0000
# 3 47.0602 47.1311 108.6200 0.0000 0.0000 0.0000
# 4 0.0000 0.0000 0.0000 24.2406 0.0000 0.0000
# 5 0.0000 0.0000 0.0000 0.0000 24.2217 0.0000
# 6 0.0000 0.0000 0.0000 0.0000 0.0000 24.2260
#
#
#
# Elastic Compliance Matrix: (Units=1/GPa)
#
#
# Indices 1 2 3 4 5 6 
#
# 1 0.032747 -0.025245 -0.003234 0.000000 0.000000 0.000000
# 2 -0.025245 0.032683 -0.003244 0.000000 0.000000 0.000000
# 3 -0.003234 -0.003244 0.012015 0.000000 0.000000 0.000000
# 4 0.000000 0.000000 0.000000 0.041253 0.000000 0.000000
# 5 0.000000 0.000000 0.000000 0.000000 0.041285 0.000000
# 6 0.000000 0.000000 0.000000 0.000000 0.000000 0.041278
#
#
# Mechanical properties :
#
#
# Convention : Reuss Voigt Hill
#
# Bulk Modulus (GPa) = 71.42932 71.82312 71.62622
# Shear Modulus (GPa) = 18.56162 23.04834 20.80498
#
# Velocity S-wave (km/s) = 3.13127 3.48925 3.31510
# Velocity P-wave (km/s) = 7.12772 7.36020 7.24489
#
# Compressibility (1/GPa) = 0.01399985
#
# Stress axis : x y z
#
# Youngs Moduli (GPa) = 30.53741 30.59692 83.22837
#
# Poissons Ratio (x) = 0.77241 0.26915
# Poissons Ratio (y) = 0.77090 0.27000
# Poissons Ratio (z) = 0.09875 0.09926
#
# Static dielectric constant tensor:
#      x y z
#    x 3.421090 0.000000 0.000000 
#    y 0.000000 3.421360 0.000000 
#    z 0.000000 0.000000 3.676750 
# 
# 
# High freq. dielectric constant tensor:
#      x y z
#    x 1.722750 0.000000 0.000000 
#    y 0.000000 1.722780 0.000000 
#    z 0.000000 0.000000 1.750470 
# 
# From -- ./inp_files/3101.got.cif
#   From: 2010.03.12/outbox.cif.g09.slc.cpg/sg35_2_cif.got.tgz:3101.got - 2010.04.14 02:02:04.
