data_PCOD8173649
_publ_section_title
;
Structure prediction by ZEFSAII (Michael W. Deem and Ramdas Pophale) SiO2 
 PCOD8173649
Probable space group: C M M 2
;
_chemical_formula_sum "Si O2"
_cell_formula_units_Z 48
_cell_length_a 7.729080
_cell_length_b 17.830873
_cell_length_c 17.248638
_cell_angle_alpha 90.000000
_cell_angle_beta 90.000000
_cell_angle_gamma 90.000000
_cell_volume 2377.142501
_symmetry_space_group_name_H-M "C M M 2"
_symmetry_group_IT_number 35
_symmetry_cell_setting 'orthorhombic'
loop_
_space_group_symop_operation_xyz
x,y,z
-x,-y,z
-x,y,z
x,-y,z
1/2+x,1/2+y,z
1/2-x,1/2-y,z
1/2-x,1/2+y,z
1/2+x,1/2-y,z
loop_
_atom_site_type_symbol
_atom_site_label
_atom_site_fract_x
_atom_site_fract_y
_atom_site_fract_z
Si Si1 0.691433 0.411165 0.835310
Si Si2 0.000000 0.410557 0.939757
Si Si3 0.204562 0.413442 0.362186
Si Si4 0.500000 0.910941 0.115425
Si Si5 0.297213 0.835565 0.516885
Si Si6 0.294738 0.085194 0.668777
Si Si7 0.804044 0.164116 0.208934
O O1 0.500000 0.388339 0.864191
O O2 0.715241 0.500000 0.831126
O O3 0.830541 0.378260 0.895889
O O4 0.721204 0.379711 0.748542
O O5 0.000000 0.500000 0.939145
O O6 0.000000 0.380958 0.027396
O O7 0.256243 0.500000 0.355032
O O8 0.274689 0.382785 0.444292
O O9 0.299647 0.366936 0.295888
O O10 0.000000 0.401684 0.353072
O O11 0.325465 0.882416 0.155198
O O12 0.500000 0.000000 0.120799
O O13 0.500000 0.847450 0.520663
O O14 0.250000 0.750000 0.504833
O O15 0.217799 0.866755 0.597228
O O16 0.500000 0.088760 0.673124
O O17 0.231224 0.000000 0.657174
O O18 0.750000 0.250000 0.209410
O O19 0.000000 0.155807 0.176960
#
# Coordination Sequence:
#
# PCOD8173649 Si02
#       7
#     8   4   8   4   8   8   8
#     4   9  16  28  51  83 115 148 191 242 298 358
#     4   9  18  34  56  85 123 156 185 241 307 358
#     4  10  20  37  60  87 122 157 202 259 309 360
#     4  11  24  42  66  99 132 162 205 265 320 374
#     4  10  21  34  51  77 111 159 200 244 295 358
#     4   9  16  30  52  77 106 145 195 247 297 347
#     4  12  24  42  67  94 125 171 211 254 312 384
#
# _framework density 20.192311
#
# number of rings (size 3 to 8) (size 9 to 14) (size 15 to 20)
#    0.000    2.000    2.500    1.500    0.000    6.667 
#    0.000    1.667    0.000    4.000    0.000    0.000 
#    0.000    0.000    0.000    0.000    0.000    0.000 
#
# Total GULP energy -297600.055527 kJ/mol
# GULP energy per Si atom -12400.002314 kJ/mol
# Density = 2.014635 g / cm^3
# Si number density = 20.192311 Si / 1000 Ang^3
#
#
#
# Elastic Constant Matrix: (Units=GPa)
#
#
# Indices 1 2 3 4 5 6 
#
# 1 120.5954 28.7415 67.4193 0.0000 0.0000 0.0000
# 2 28.7415 82.8509 38.7904 0.0000 0.0000 0.0000
# 3 67.4193 38.7904 164.4222 0.0000 0.0000 0.0000
# 4 0.0000 0.0000 0.0000 7.9582 0.0000 0.0000
# 5 0.0000 0.0000 0.0000 0.0000 5.6988 0.0000
# 6 0.0000 0.0000 0.0000 0.0000 0.0000 21.3288
#
#
#
# Elastic Compliance Matrix: (Units=1/GPa)
#
#
# Indices 1 2 3 4 5 6 
#
# 1 0.011023 -0.001920 -0.004067 0.000000 0.000000 0.000000
# 2 -0.001920 0.013903 -0.002493 0.000000 0.000000 0.000000
# 3 -0.004067 -0.002493 0.008338 0.000000 0.000000 0.000000
# 4 0.000000 0.000000 0.000000 0.125657 0.000000 0.000000
# 5 0.000000 0.000000 0.000000 0.000000 0.175476 0.000000
# 6 0.000000 0.000000 0.000000 0.000000 0.000000 0.046885
#
#
# Mechanical properties :
#
#
# Convention : Reuss Voigt Hill
#
# Bulk Modulus (GPa) = 61.33232 70.86341 66.09786
# Shear Modulus (GPa) = 12.38615 22.52496 17.45556
#
# Velocity S-wave (km/s) = 2.47940 3.34357 2.94337
# Velocity P-wave (km/s) = 6.21583 7.07646 6.66007
#
# Compressibility (1/GPa) = 0.01630462
#
# Stress axis : x y z
#
# Youngs Moduli (GPa) = 90.71541 71.92688 119.93777
#
# Poissons Ratio (x) = 0.13809 0.48780
# Poissons Ratio (y) = 0.17417 0.29898
# Poissons Ratio (z) = 0.36895 0.17930
#
# Static dielectric constant tensor:
#      x y z
#    x 3.705630 0.000000 0.000000 
#    y 0.000000 3.403790 0.000000 
#    z 0.000000 0.000000 3.930200 
# 
# 
# High freq. dielectric constant tensor:
#      x y z
#    x 1.788710 0.000000 0.000000 
#    y 0.000000 1.760200 0.000000 
#    z 0.000000 0.000000 1.794520 
# 
# From -- ./inp_files/15218.got.cif
#   From: 2010.03.12/outbox.cif.g09.slc.cpg/sg35_8_cif.got.tgz:15218.got - 2010.04.14 02:02:04.
