data_PCOD8173451
_publ_section_title
;
Structure prediction by ZEFSAII (Michael W. Deem and Ramdas Pophale) SiO2 
 PCOD8173451
Probable space group: C M M 2
;
_chemical_formula_sum "Si O2"
_cell_formula_units_Z 64
_cell_length_a 17.589851
_cell_length_b 13.945682
_cell_length_c 12.676342
_cell_angle_alpha 90.000000
_cell_angle_beta 90.000000
_cell_angle_gamma 90.000000
_cell_volume 3109.537984
_symmetry_space_group_name_H-M "C M M 2"
_symmetry_group_IT_number 35
_symmetry_cell_setting 'orthorhombic'
loop_
_space_group_symop_operation_xyz
x,y,z
-x,-y,z
-x,y,z
x,-y,z
1/2+x,1/2+y,z
1/2-x,1/2-y,z
1/2-x,1/2+y,z
1/2+x,1/2-y,z
loop_
_atom_site_type_symbol
_atom_site_label
_atom_site_fract_x
_atom_site_fract_y
_atom_site_fract_z
Si Si1 0.814182 0.887687 0.360940
Si Si2 0.414328 0.294408 0.529538
Si Si3 0.411171 0.613361 0.165960
Si Si4 0.585859 0.709866 0.957648
Si Si5 0.667936 0.106087 0.470255
Si Si6 0.776820 0.358178 0.686969
Si Si7 0.880597 0.894550 0.744378
Si Si8 0.588623 0.891421 0.840929
O O1 0.860698 0.864510 0.465724
O O2 0.857676 0.844145 0.259372
O O3 0.725302 0.855470 0.377181
O O4 0.813644 0.000000 0.347147
O O5 0.500000 0.313940 0.495548
O O6 0.396170 0.183778 0.498933
O O7 0.403502 0.318140 0.653605
O O8 0.500000 0.638446 0.188809
O O9 0.402283 0.500000 0.152109
O O10 0.375728 0.662528 0.060388
O O11 0.500000 0.720544 0.992837
O O12 0.590133 0.642846 0.855671
O O13 0.616752 0.817057 0.931418
O O14 0.720134 0.092295 0.573410
O O15 0.633618 0.000000 0.441925
O O16 0.750000 0.250000 0.670236
O O17 0.710550 0.407636 0.754671
O O18 0.859174 0.371254 0.739890
O O19 0.916528 0.000000 0.722787
O O20 0.500000 0.872405 0.809649
O O21 0.599156 0.000000 0.882300
#
# Coordination Sequence:
#
# PCOD8173451 Si02
#       8
#     8   8   8   8   8   8   8   8
#     4  10  20  37  62  88 113 147 193 243 294 348
#     4  12  24  37  57  88 121 154 194 237 288 352
#     4   9  18  34  58  88 120 154 193 240 298 358
#     4  10  20  35  56  86 124 161 193 235 293 353
#     4  11  22  39  60  81 112 155 199 242 290 340
#     4  12  20  37  58  81 117 158 198 238 292 342
#     4  12  23  35  55  86 124 161 192 234 293 357
#     4  10  21  37  59  86 118 160 205 243 281 339
#
# _framework density 20.581835000000002
#
# number of rings (size 3 to 8) (size 9 to 14) (size 15 to 20)
#    0.000    1.250    3.750    3.000    0.000    4.500 
#    0.000    0.000    5.500    0.750    0.000    1.750 
#    0.000    0.000    0.000    0.000    0.000    0.000 
#
# Total GULP energy -396471.379271 kJ/mol
# GULP energy per Si atom -12389.730602 kJ/mol
# Density = 2.053499 g / cm^3
# Si number density = 20.581835 Si / 1000 Ang^3
#
#
#
# Elastic Constant Matrix: (Units=GPa)
#
#
# Indices 1 2 3 4 5 6 
#
# 1 58.9943 15.5200 9.6218 0.0000 0.0000 0.0000
# 2 15.5200 80.7854 16.4743 0.0000 0.0000 0.0000
# 3 9.6218 16.4743 95.3757 0.0000 0.0000 0.0000
# 4 0.0000 0.0000 0.0000 21.0484 0.0000 0.0000
# 5 0.0000 0.0000 0.0000 0.0000 28.7174 0.0000
# 6 0.0000 0.0000 0.0000 0.0000 0.0000 20.7321
#
#
#
# Elastic Compliance Matrix: (Units=1/GPa)
#
#
# Indices 1 2 3 4 5 6 
#
# 1 0.017999 -0.003200 -0.001263 0.000000 0.000000 0.000000
# 2 -0.003200 0.013399 -0.001992 0.000000 0.000000 0.000000
# 3 -0.001263 -0.001992 0.010956 0.000000 0.000000 0.000000
# 4 0.000000 0.000000 0.000000 0.047510 0.000000 0.000000
# 5 0.000000 0.000000 0.000000 0.000000 0.034822 0.000000
# 6 0.000000 0.000000 0.000000 0.000000 0.000000 0.048234
#
#
# Mechanical properties :
#
#
# Convention : Reuss Voigt Hill
#
# Bulk Modulus (GPa) = 33.96199 35.37639 34.66919
# Shear Modulus (GPa) = 25.55649 27.00220 26.27935
#
# Velocity S-wave (km/s) = 3.52760 3.62601 3.57714
# Velocity P-wave (km/s) = 5.75576 5.89542 5.82601
#
# Compressibility (1/GPa) = 0.02944468
#
# Stress axis : x y z
#
# Youngs Moduli (GPa) = 55.55958 74.62998 91.27183
#
# Poissons Ratio (x) = 0.23883 0.11527
# Poissons Ratio (y) = 0.17780 0.18178
# Poissons Ratio (z) = 0.07017 0.14864
#
# Static dielectric constant tensor:
#      x y z
#    x 4.013300 0.000000 0.000000 
#    y 0.000000 4.002770 0.000000 
#    z 0.000000 0.000000 3.824700 
# 
# 
# High freq. dielectric constant tensor:
#      x y z
#    x 1.796030 0.000000 0.000000 
#    y 0.000000 1.816630 0.000000 
#    z 0.000000 0.000000 1.777190 
# 
# From -- ./inp_files/13594.got.cif
#   From: 2010.03.12/outbox.cif.g09.slc.cpg/sg35_7_cif.got.tgz:13594.got - 2010.04.14 02:02:04.
