data_PCOD8173306
_publ_section_title
;
Structure prediction by ZEFSAII (Michael W. Deem and Ramdas Pophale) SiO2 
 PCOD8173306
Probable space group: C M M 2
;
_chemical_formula_sum "Si O2"
_cell_formula_units_Z 48
_cell_length_a 14.737948
_cell_length_b 21.364382
_cell_length_c 7.424984
_cell_angle_alpha 90.000000
_cell_angle_beta 90.000000
_cell_angle_gamma 90.000000
_cell_volume 2337.883558
_symmetry_space_group_name_H-M "C M M 2"
_symmetry_group_IT_number 35
_symmetry_cell_setting 'orthorhombic'
loop_
_space_group_symop_operation_xyz
x,y,z
-x,-y,z
-x,y,z
x,-y,z
1/2+x,1/2+y,z
1/2-x,1/2-y,z
1/2-x,1/2+y,z
1/2+x,1/2-y,z
loop_
_atom_site_type_symbol
_atom_site_label
_atom_site_fract_x
_atom_site_fract_y
_atom_site_fract_z
Si Si1 0.106415 0.634764 0.136080
Si Si2 0.399696 0.273078 0.186506
Si Si3 0.366424 0.701896 0.791792
Si Si4 0.163654 0.338353 0.756514
Si Si5 0.789903 0.570751 0.441774
Si Si6 0.398720 0.626268 0.457687
O O1 0.146673 0.704685 0.177729
O O2 0.168086 0.586092 0.246102
O O3 0.000000 0.627051 0.184567
O O4 0.119146 0.623373 0.922244
O O5 0.500000 0.262100 0.261103
O O6 0.354321 0.319731 0.330250
O O7 0.405937 0.305463 0.991324
O O8 0.262554 0.683854 0.810652
O O9 0.388050 0.772546 0.719129
O O10 0.413188 0.652842 0.658138
O O11 0.162232 0.382417 0.582292
O O12 0.816390 0.500000 0.491261
O O13 0.679445 0.573614 0.448787
O O14 0.500000 0.602513 0.394157
#
# Coordination Sequence:
#
# PCOD8173306 Si02
#       6
#     8   8   8   8   8   8
#     4  10  21  37  58  83 110 140 175 220 274 326
#     4   9  17  30  53  85 113 135 166 214 273 333
#     4   9  16  30  54  82 111 138 166 211 274 335
#     4   9  19  34  54  80 108 139 174 217 271 326
#     4  11  24  39  54  75 107 148 192 229 257 299
#     4  10  20  34  55  82 111 143 177 217 268 322
#
# _framework density 20.531390999999999
#
# number of rings (size 3 to 8) (size 9 to 14) (size 15 to 20)
#    0.000    2.333    0.000    2.500    0.000    6.000 
#    0.000    0.000    0.000    0.000    0.000    4.667 
#    0.000    0.000    0.000    0.000    0.000    0.000 
#
# Total GULP energy -297405.162594 kJ/mol
# GULP energy per Si atom -12391.881775 kJ/mol
# Density = 2.048466 g / cm^3
# Si number density = 20.531391 Si / 1000 Ang^3
#
#
#
# Elastic Constant Matrix: (Units=GPa)
#
#
# Indices 1 2 3 4 5 6 
#
# 1 65.6348 12.4327 22.5939 0.0000 0.0000 0.0000
# 2 12.4327 68.9805 29.2388 0.0000 0.0000 0.0000
# 3 22.5939 29.2388 72.5986 0.0000 0.0000 0.0000
# 4 0.0000 0.0000 0.0000 13.7035 0.0000 0.0000
# 5 0.0000 0.0000 0.0000 0.0000 -183.5190 0.0000
# 6 0.0000 0.0000 0.0000 0.0000 0.0000 4.2658
#
#
#
# Elastic Compliance Matrix: (Units=1/GPa)
#
#
# Indices 1 2 3 4 5 6 
#
# 1 0.017121 -0.000998 -0.004926 0.000000 0.000000 0.000000
# 2 -0.000998 0.017539 -0.006753 0.000000 0.000000 0.000000
# 3 -0.004926 -0.006753 0.018027 0.000000 0.000000 0.000000
# 4 0.000000 0.000000 0.000000 0.072974 0.000000 0.000000
# 5 0.000000 0.000000 0.000000 0.000000 -0.005449 0.000000
# 6 0.000000 0.000000 0.000000 0.000000 0.000000 0.234425
#
#
# Mechanical properties :
#
#
# Convention : Reuss Voigt Hill
#
# Bulk Modulus (GPa) = 36.58649 37.30497 36.94573
# Shear Modulus (GPa) = 12.85007 -23.58005 -5.36499
#
# Velocity S-wave (km/s) = 2.50446 -3.39261 -1.61825
# Velocity P-wave (km/s) = 5.12070 1.69197 3.81342
#
# Compressibility (1/GPa) = 0.02733249
#
# Stress axis : x y z
#
# Youngs Moduli (GPa) = 58.40903 57.01510 55.47091
#
# Poissons Ratio (x) = 0.05688 0.27328
# Poissons Ratio (y) = 0.05827 0.37462
# Poissons Ratio (z) = 0.28775 0.38505
#
# Static dielectric constant tensor:
#      x y z
#    x 4.880200 0.000000 0.000000 
#    y 0.000000 3.426100 0.000000 
#    z 0.000000 0.000000 3.679930 
# 
# 
# High freq. dielectric constant tensor:
#      x y z
#    x 1.805700 0.000000 0.000000 
#    y 0.000000 1.758080 0.000000 
#    z 0.000000 0.000000 1.805530 
# 
# From -- ./inp_files/7455.got.cif
#   From: 2010.03.12/outbox.cif.g09.slc.cpg/sg35_4_cif.got.tgz:7455.got - 2010.04.14 02:02:04.
