data_PCOD8173595
_publ_section_title
;
Structure prediction by ZEFSAII (Michael W. Deem and Ramdas Pophale) SiO2 
 PCOD8173595
Probable space group: C M M 2
;
_chemical_formula_sum "Si O2"
_cell_formula_units_Z 64
_cell_length_a 30.852954
_cell_length_b 9.004463
_cell_length_c 11.899510
_cell_angle_alpha 90.000000
_cell_angle_beta 90.000000
_cell_angle_gamma 90.000000
_cell_volume 3305.853836
_symmetry_space_group_name_H-M "C M M 2"
_symmetry_group_IT_number 35
_symmetry_cell_setting 'orthorhombic'
loop_
_space_group_symop_operation_xyz
x,y,z
-x,-y,z
-x,y,z
x,-y,z
1/2+x,1/2+y,z
1/2-x,1/2-y,z
1/2-x,1/2+y,z
1/2+x,1/2-y,z
loop_
_atom_site_type_symbol
_atom_site_label
_atom_site_fract_x
_atom_site_fract_y
_atom_site_fract_z
Si Si1 0.705754 0.826456 0.337930
Si Si2 0.128504 0.174957 0.470592
Si Si3 0.323728 0.172450 0.088828
Si Si4 0.048652 0.830457 0.318620
Si Si5 0.451518 0.671485 0.876663
Si Si6 0.874613 0.823930 0.723861
Si Si7 0.206634 0.824080 0.869415
Si Si8 0.576851 0.174632 0.097663
O O1 0.750000 0.750000 0.378638
O O2 0.666050 0.758894 0.405612
O O3 0.699217 0.795095 0.206548
O O4 0.708270 0.000000 0.364280
O O5 0.082241 0.214663 0.415845
O O6 0.127195 0.237601 0.597467
O O7 0.138154 0.000000 0.466865
O O8 0.373285 0.225182 0.096677
O O9 0.320226 0.000000 0.054817
O O10 0.299836 0.271850 0.997005
O O11 0.054503 0.727843 0.211078
O O12 0.000000 0.808792 0.366467
O O13 0.056586 0.000000 0.281012
O O14 0.500000 0.691452 0.828070
O O15 0.440879 0.500000 0.901297
O O16 0.417720 0.737034 0.785755
O O17 0.448221 0.757167 0.993130
O O18 0.832873 0.767567 0.792463
O O19 0.876112 0.000000 0.720301
O O20 0.250000 0.750000 0.819770
O O21 0.211410 0.000000 0.867160
O O22 0.572353 0.000000 0.091473
#
# Coordination Sequence:
#
# PCOD8173595 Si02
#       8
#     8   8   8   8   8   8   8   8
#     4  11  23  40  60  86 117 148 188 233 286 343
#     4  10  21  39  61  83 113 151 195 240 283 331
#     4  10  21  37  58  85 115 147 185 229 281 340
#     4  10  21  36  57  86 117 151 191 234 282 338
#     4  10  20  36  59  86 116 150 189 232 280 337
#     4   9  20  38  58  83 112 148 191 235 281 328
#     4  11  22  37  59  84 115 148 185 229 279 336
#     4  11  21  35  57  85 118 151 185 231 285 339
#
# _framework density 19.359597000000001
#
# number of rings (size 3 to 8) (size 9 to 14) (size 15 to 20)
#    0.000    1.750    2.500    1.875    0.000    5.500 
#    0.000    5.625    0.000    0.000    0.000    1.750 
#    0.000    0.000    0.000    0.000    0.000    0.000 
#
# Total GULP energy -396922.809360 kJ/mol
# GULP energy per Si atom -12403.837793 kJ/mol
# Density = 1.931553 g / cm^3
# Si number density = 19.359597 Si / 1000 Ang^3
#
#
#
# Elastic Constant Matrix: (Units=GPa)
#
#
# Indices 1 2 3 4 5 6 
#
# 1 166.1290 52.2556 64.0385 0.0000 0.0000 0.0000
# 2 52.2556 63.5903 45.4739 0.0000 0.0000 0.0000
# 3 64.0385 45.4739 126.8154 0.0000 0.0000 0.0000
# 4 0.0000 0.0000 0.0000 9.6778 0.0000 0.0000
# 5 0.0000 0.0000 0.0000 0.0000 5.3541 0.0000
# 6 0.0000 0.0000 0.0000 0.0000 0.0000 29.6240
#
#
#
# Elastic Compliance Matrix: (Units=1/GPa)
#
#
# Indices 1 2 3 4 5 6 
#
# 1 0.008647 -0.005357 -0.002446 0.000000 0.000000 0.000000
# 2 -0.005357 0.024467 -0.006068 0.000000 0.000000 0.000000
# 3 -0.002446 -0.006068 0.011297 0.000000 0.000000 0.000000
# 4 0.000000 0.000000 0.000000 0.103329 0.000000 0.000000
# 5 0.000000 0.000000 0.000000 0.000000 0.186774 0.000000
# 6 0.000000 0.000000 0.000000 0.000000 0.000000 0.033756
#
#
# Mechanical properties :
#
#
# Convention : Reuss Voigt Hill
#
# Bulk Modulus (GPa) = 59.99199 75.56339 67.77769
# Shear Modulus (GPa) = 12.45113 21.91562 17.18337
#
# Velocity S-wave (km/s) = 2.53879 3.36821 2.98248
# Velocity P-wave (km/s) = 6.29678 7.36496 6.85172
#
# Compressibility (1/GPa) = 0.01666889
#
# Stress axis : x y z
#
# Youngs Moduli (GPa) = 115.64453 40.87075 88.52265
#
# Poissons Ratio (x) = 0.21894 0.21650
# Poissons Ratio (y) = 0.61950 0.53720
# Poissons Ratio (z) = 0.28283 0.24802
#
# Static dielectric constant tensor:
#      x y z
#    x 3.911470 0.000000 0.000000 
#    y 0.000000 3.370270 0.000000 
#    z 0.000000 0.000000 3.557090 
# 
# 
# High freq. dielectric constant tensor:
#      x y z
#    x 1.773120 0.000000 0.000000 
#    y 0.000000 1.738410 0.000000 
#    z 0.000000 0.000000 1.746610 
# 
# From -- ./inp_files/11847.got.cif
#   From: 2010.03.12/outbox.cif.g09.slc.cpg/sg35_6_cif.got.tgz:11847.got - 2010.04.14 02:02:04.
