data_PCOD8173784
_publ_section_title
;
Structure prediction by ZEFSAII (Michael W. Deem and Ramdas Pophale) SiO2 
 PCOD8173784
Probable space group: C M M 2
;
_chemical_formula_sum "Si O2"
_cell_formula_units_Z 64
_cell_length_a 9.070091
_cell_length_b 27.019637
_cell_length_c 13.014684
_cell_angle_alpha 90.000000
_cell_angle_beta 90.000000
_cell_angle_gamma 90.000000
_cell_volume 3189.515979
_symmetry_space_group_name_H-M "C M M 2"
_symmetry_group_IT_number 35
_symmetry_cell_setting 'orthorhombic'
loop_
_space_group_symop_operation_xyz
x,y,z
-x,-y,z
-x,y,z
x,-y,z
1/2+x,1/2+y,z
1/2-x,1/2-y,z
1/2-x,1/2+y,z
1/2+x,1/2-y,z
loop_
_atom_site_type_symbol
_atom_site_label
_atom_site_fract_x
_atom_site_fract_y
_atom_site_fract_z
Si Si1 0.830893 0.199299 0.861890
Si Si2 0.665713 0.941225 0.774872
Si Si3 0.168252 0.898657 0.967891
Si Si4 0.825608 0.302637 0.671337
Si Si5 0.828434 0.404453 0.376389
Si Si6 0.334594 0.441460 0.575945
Si Si7 0.671318 0.057286 0.156694
Si Si8 0.330495 0.200277 0.443270
O O1 0.750000 0.250000 0.895578
O O2 0.821846 0.160699 0.955598
O O3 0.749926 0.168675 0.767049
O O4 0.000000 0.211165 0.832667
O O5 0.500000 0.919313 0.776733
O O6 0.748221 0.927948 0.879031
O O7 0.743590 0.918885 0.672303
O O8 0.661132 0.000000 0.766828
O O9 0.000000 0.916895 0.965567
O O10 0.237311 0.910209 0.077833
O O11 0.750000 0.250000 0.692324
O O12 0.779459 0.319294 0.556650
O O13 0.000000 0.301135 0.684813
O O14 0.738202 0.427780 0.468486
O O15 0.775109 0.429283 0.271264
O O16 0.799652 0.345183 0.366930
O O17 0.000000 0.415076 0.398263
O O18 0.500000 0.419662 0.579830
O O19 0.338603 0.500000 0.585761
O O20 0.500000 0.070343 0.144029
O O21 0.702456 0.000000 0.135540
O O22 0.500000 0.215388 0.448536
O O23 0.250000 0.250000 0.406546
#
# Coordination Sequence:
#
# PCOD8173784 Si02
#       8
#     8   8   8   8   8   8   8   8
#     4  10  21  36  54  80 113 150 191 234 284 340
#     4  10  21  37  58  84 115 152 192 233 284 349
#     4  11  24  39  58  86 117 149 190 241 297 351
#     4   9  16  28  48  75 108 147 187 227 273 328
#     4  10  21  38  60  86 115 151 198 243 288 343
#     4  10  21  36  55  84 120 153 187 232 291 352
#     4  10  22  41  64  87 112 149 198 246 291 346
#     4   9  19  34  53  81 115 152 192 235 284 337
#
# _framework density 20.065740000000002
#
# number of rings (size 3 to 8) (size 9 to 14) (size 15 to 20)
#    0.000    2.125    0.000    3.375    1.750    7.250 
#    0.000    0.625    0.000    3.000    0.000    0.000 
#    0.000    0.000    0.000    0.000    0.000    0.000 
#
# Total GULP energy -396726.177164 kJ/mol
# GULP energy per Si atom -12397.693036 kJ/mol
# Density = 2.002007 g / cm^3
# Si number density = 20.065740 Si / 1000 Ang^3
#
#
#
# Elastic Constant Matrix: (Units=GPa)
#
#
# Indices 1 2 3 4 5 6 
#
# 1 132.0395 31.7024 71.3436 0.0000 0.0000 0.0000
# 2 31.7024 40.7566 28.2457 0.0000 0.0000 0.0000
# 3 71.3436 28.2457 115.7600 0.0000 0.0000 0.0000
# 4 0.0000 0.0000 0.0000 391.1527 0.0000 0.0000
# 5 0.0000 0.0000 0.0000 0.0000 30.1310 0.0000
# 6 0.0000 0.0000 0.0000 0.0000 0.0000 24.1658
#
#
#
# Elastic Compliance Matrix: (Units=1/GPa)
#
#
# Indices 1 2 3 4 5 6 
#
# 1 0.012190 -0.005145 -0.006257 0.000000 0.000000 0.000000
# 2 -0.005145 0.031701 -0.004564 0.000000 0.000000 0.000000
# 3 -0.006257 -0.004564 0.013609 0.000000 0.000000 0.000000
# 4 0.000000 0.000000 0.000000 0.002557 0.000000 0.000000
# 5 0.000000 0.000000 0.000000 0.000000 0.033188 0.000000
# 6 0.000000 0.000000 0.000000 0.000000 0.000000 0.041381
#
#
# Mechanical properties :
#
#
# Convention : Reuss Voigt Hill
#
# Bulk Modulus (GPa) = 39.11380 61.23773 50.17577
# Shear Modulus (GPa) = 28.55829 99.57419 64.06624
#
# Velocity S-wave (km/s) = 3.77667 7.05207 5.65663
# Velocity P-wave (km/s) = 6.20909 9.84346 8.22942
#
# Compressibility (1/GPa) = 0.02556642
#
# Stress axis : x y z
#
# Youngs Moduli (GPa) = 82.03630 31.54445 73.48342
#
# Poissons Ratio (x) = 0.16231 0.45979
# Poissons Ratio (y) = 0.42210 0.33539
# Poissons Ratio (z) = 0.51331 0.14397
#
# Static dielectric constant tensor:
#      x y z
#    x 3.849880 0.000000 0.000000 
#    y 0.000000 1.492500 0.000000 
#    z 0.000000 0.000000 3.626110 
# 
# 
# High freq. dielectric constant tensor:
#      x y z
#    x 1.788660 0.000000 0.000000 
#    y 0.000000 1.788050 0.000000 
#    z 0.000000 0.000000 1.769500 
# 
# From -- ./inp_files/11968.got.cif
#   From: 2010.03.12/outbox.cif.g09.slc.cpg/sg35_6_cif.got.tgz:11968.got - 2010.04.14 02:02:04.
