data_PCOD8173585
_publ_section_title
;
Structure prediction by ZEFSAII (Michael W. Deem and Ramdas Pophale) SiO2 
 PCOD8173585
Probable space group: C M M 2
;
_chemical_formula_sum "Si O2"
_cell_formula_units_Z 48
_cell_length_a 8.657339
_cell_length_b 18.956354
_cell_length_c 15.058367
_cell_angle_alpha 90.000000
_cell_angle_beta 90.000000
_cell_angle_gamma 90.000000
_cell_volume 2471.252442
_symmetry_space_group_name_H-M "C M M 2"
_symmetry_group_IT_number 35
_symmetry_cell_setting 'orthorhombic'
loop_
_space_group_symop_operation_xyz
x,y,z
-x,-y,z
-x,y,z
x,-y,z
1/2+x,1/2+y,z
1/2-x,1/2-y,z
1/2-x,1/2+y,z
1/2+x,1/2-y,z
loop_
_atom_site_type_symbol
_atom_site_label
_atom_site_fract_x
_atom_site_fract_y
_atom_site_fract_z
Si Si1 0.680762 0.677117 0.410360
Si Si2 0.182419 0.175140 0.908809
Si Si3 0.181663 0.675630 0.718964
Si Si4 0.819601 0.918371 0.570503
Si Si5 0.316471 0.324931 0.209720
Si Si6 0.820407 0.417272 0.059948
O O1 0.500000 0.687312 0.409284
O O2 0.750000 0.750000 0.446365
O O3 0.731291 0.614804 0.476334
O O4 0.738016 0.659950 0.310765
O O5 0.250000 0.250000 0.940612
O O6 0.247228 0.153351 0.813033
O O7 0.000000 0.181761 0.903110
O O8 0.228417 0.115144 0.977731
O O9 0.250000 0.750000 0.685625
O O10 0.220937 0.615321 0.648954
O O11 0.000000 0.683624 0.729816
O O12 0.000000 0.905246 0.589266
O O13 0.777845 0.000000 0.565743
O O14 0.500000 0.324690 0.198596
O O15 0.250000 0.250000 0.177133
O O16 0.243530 0.386710 0.151781
O O17 0.788870 0.500000 0.060534
O O18 0.000000 0.399113 0.049949
#
# Coordination Sequence:
#
# PCOD8173585 Si02
#       6
#     8   8   8   8   8   8
#     4   9  19  35  57  83 110 145 187 233 279 326
#     4  11  22  39  63  87 112 144 185 230 277 330
#     4  11  22  38  60  85 113 145 186 232 278 329
#     4  10  21  37  56  81 115 152 188 228 278 333
#     4  10  20  36  59  85 113 146 188 233 278 330
#     4  11  24  40  57  81 115 151 186 228 279 332
#
# _framework density 19.423349999999999
#
# number of rings (size 3 to 8) (size 9 to 14) (size 15 to 20)
#    0.000    1.667    0.000    6.000    0.000    5.667 
#    0.000    1.667    0.000    0.000    0.000    0.000 
#    0.000    0.000    0.000    0.000    0.000    0.000 
#
# Total GULP energy -297717.404443 kJ/mol
# GULP energy per Si atom -12404.891852 kJ/mol
# Density = 1.937914 g / cm^3
# Si number density = 19.423350 Si / 1000 Ang^3
#
#
#
# Elastic Constant Matrix: (Units=GPa)
#
#
# Indices 1 2 3 4 5 6 
#
# 1 120.1296 59.6776 53.6011 0.0000 0.0000 0.0000
# 2 59.6776 129.0609 80.5667 0.0000 0.0000 0.0000
# 3 53.6011 80.5667 123.7844 0.0000 0.0000 0.0000
# 4 0.0000 0.0000 0.0000 16.7257 0.0000 0.0000
# 5 0.0000 0.0000 0.0000 0.0000 90.8767 0.0000
# 6 0.0000 0.0000 0.0000 0.0000 0.0000 30.6359
#
#
#
# Elastic Compliance Matrix: (Units=1/GPa)
#
#
# Indices 1 2 3 4 5 6 
#
# 1 0.011249 -0.003639 -0.002502 0.000000 0.000000 0.000000
# 2 -0.003639 0.014228 -0.007685 0.000000 0.000000 0.000000
# 3 -0.002502 -0.007685 0.014164 0.000000 0.000000 0.000000
# 4 0.000000 0.000000 0.000000 0.059788 0.000000 0.000000
# 5 0.000000 0.000000 0.000000 0.000000 0.011004 0.000000
# 6 0.000000 0.000000 0.000000 0.000000 0.000000 0.032641
#
#
# Mechanical properties :
#
#
# Convention : Reuss Voigt Hill
#
# Bulk Modulus (GPa) = 83.41545 84.51840 83.96692
# Shear Modulus (GPa) = 28.61666 39.58962 34.10314
#
# Velocity S-wave (km/s) = 3.84254 4.51959 4.19475
# Velocity P-wave (km/s) = 7.91997 8.41688 8.17221
#
# Compressibility (1/GPa) = 0.01198819
#
# Stress axis : x y z
#
# Youngs Moduli (GPa) = 88.89854 70.28196 70.60249
#
# Poissons Ratio (x) = 0.25579 0.17666
# Poissons Ratio (y) = 0.32354 0.54257
# Poissons Ratio (z) = 0.22244 0.54010
#
# Static dielectric constant tensor:
#      x y z
#    x 3.604760 0.000000 0.000000 
#    y 0.000000 3.498740 0.000000 
#    z 0.000000 0.000000 3.754480 
# 
# 
# High freq. dielectric constant tensor:
#      x y z
#    x 1.764900 0.000000 0.000000 
#    y 0.000000 1.751340 0.000000 
#    z 0.000000 0.000000 1.769540 
# 
# From -- ./inp_files/15078.got.cif
#   From: 2010.03.12/outbox.cif.g09.slc.cpg/sg35_8_cif.got.tgz:15078.got - 2010.04.14 02:02:04.
