data_PCOD8173212
_publ_section_title
;
Structure prediction by ZEFSAII (Michael W. Deem and Ramdas Pophale) SiO2 
 PCOD8173212
Probable space group: C M M 2
;
_chemical_formula_sum "Si O2"
_cell_formula_units_Z 40
_cell_length_a 10.120082
_cell_length_b 21.669420
_cell_length_c 10.099440
_cell_angle_alpha 90.000000
_cell_angle_beta 90.000000
_cell_angle_gamma 90.000000
_cell_volume 2214.769898
_symmetry_space_group_name_H-M "C M M 2"
_symmetry_group_IT_number 35
_symmetry_cell_setting 'orthorhombic'
loop_
_space_group_symop_operation_xyz
x,y,z
-x,-y,z
-x,y,z
x,-y,z
1/2+x,1/2+y,z
1/2-x,1/2-y,z
1/2-x,1/2+y,z
1/2+x,1/2-y,z
loop_
_atom_site_type_symbol
_atom_site_label
_atom_site_fract_x
_atom_site_fract_y
_atom_site_fract_z
Si Si1 0.347770 0.135197 0.869930
Si Si2 0.350046 0.000000 0.861565
Si Si3 0.250000 0.750000 0.029501
Si Si4 0.500000 0.701472 0.488333
Si Si5 0.500000 0.253658 0.210761
Si Si6 0.649403 0.500000 0.624722
Si Si7 0.500000 0.165566 0.434525
Si Si8 0.747238 0.374511 0.570685
O O1 0.500000 0.155565 0.875825
O O2 0.329830 0.066140 0.937906
O O3 0.300641 0.130908 0.719104
O O4 0.264372 0.187987 0.942673
O O5 0.500000 0.000000 0.803359
O O6 0.245775 0.000000 0.746784
O O7 0.373534 0.737396 0.121459
O O8 0.500000 0.694741 0.327661
O O9 0.500000 0.773585 0.527743
O O10 0.364982 0.676243 0.549139
O O11 0.500000 0.185389 0.279222
O O12 0.500000 0.500000 0.677394
O O13 0.677365 0.439476 0.538380
O O14 0.632863 0.128361 0.466576
#
# Coordination Sequence:
#
# PCOD8173212 Si02
#       8
#     8   4   4   4   4   4   4   8
#     4  10  21  35  59  89 120 143 190 242 288 346
#     4   8  18  38  58  79 113 164 186 221 292 352
#     4  12  22  38  60  86 114 154 192 254 276 334
#     4  10  22  36  59  82 115 156 182 244 282 358
#     4  10  24  40  56  80 116 154 200 228 292 332
#     4  10  20  34  52  85 125 150 178 229 288 368
#     4  10  22  36  59  80 111 156 194 240 274 360
#     4  11  20  36  59  88 120 151 186 232 302 344
#
# _framework density 18.060566999999999
#
# number of rings (size 3 to 8) (size 9 to 14) (size 15 to 20)
#    0.600    1.200    3.000    1.800    4.200    0.800 
#    1.800    0.000    0.000    7.200    0.000    0.000 
#    0.000    0.000    0.000    0.000    0.000    0.000 
#
# Total GULP energy -247791.282299 kJ/mol
# GULP energy per Si atom -12389.564115 kJ/mol
# Density = 1.801946 g / cm^3
# Si number density = 18.060567 Si / 1000 Ang^3
#
#
#
# Elastic Constant Matrix: (Units=GPa)
#
#
# Indices 1 2 3 4 5 6 
#
# 1 128.9419 42.9032 30.6456 0.0000 0.0000 0.0000
# 2 42.9032 124.2338 35.3504 0.0000 0.0000 0.0000
# 3 30.6456 35.3504 63.9442 0.0000 0.0000 0.0000
# 4 0.0000 0.0000 0.0000 5.9441 0.0000 0.0000
# 5 0.0000 0.0000 0.0000 0.0000 35.2765 0.0000
# 6 0.0000 0.0000 0.0000 0.0000 0.0000 33.6746
#
#
#
# Elastic Compliance Matrix: (Units=1/GPa)
#
#
# Indices 1 2 3 4 5 6 
#
# 1 0.009275 -0.002300 -0.003174 0.000000 0.000000 0.000000
# 2 -0.002300 0.010122 -0.004494 0.000000 0.000000 0.000000
# 3 -0.003174 -0.004494 0.019644 0.000000 0.000000 0.000000
# 4 0.000000 0.000000 0.000000 0.168234 0.000000 0.000000
# 5 0.000000 0.000000 0.000000 0.000000 0.028347 0.000000
# 6 0.000000 0.000000 0.000000 0.000000 0.000000 0.029696
#
#
# Mechanical properties :
#
#
# Convention : Reuss Voigt Hill
#
# Bulk Modulus (GPa) = 52.33780 59.43539 55.88659
# Shear Modulus (GPa) = 17.14548 28.86042 23.00295
#
# Velocity S-wave (km/s) = 3.08447 4.00181 3.57270
# Velocity P-wave (km/s) = 6.45966 7.37109 6.93038
#
# Compressibility (1/GPa) = 0.01910665
#
# Stress axis : x y z
#
# Youngs Moduli (GPa) = 107.81688 98.79187 50.90664
#
# Poissons Ratio (x) = 0.22722 0.16156
# Poissons Ratio (y) = 0.24798 0.22876
# Poissons Ratio (z) = 0.34216 0.44393
#
# Static dielectric constant tensor:
#      x y z
#    x 3.216890 0.000000 0.000000 
#    y 0.000000 3.949710 0.000000 
#    z 0.000000 0.000000 3.026880 
# 
# 
# High freq. dielectric constant tensor:
#      x y z
#    x 1.719730 0.000000 0.000000 
#    y 0.000000 1.709690 0.000000 
#    z 0.000000 0.000000 1.658720 
# 
# From -- ./inp_files/11272.got.cif
#   From: 2010.03.12/outbox.cif.g09.slc.cpg/sg35_6_cif.got.tgz:11272.got - 2010.04.14 02:02:04.
