data_PCOD8173115
_publ_section_title
;
Structure prediction by ZEFSAII (Michael W. Deem and Ramdas Pophale) SiO2 
 PCOD8173115
Probable space group: C M M 2
;
_chemical_formula_sum "Si O2"
_cell_formula_units_Z 64
_cell_length_a 19.612683
_cell_length_b 17.991083
_cell_length_c 9.824991
_cell_angle_alpha 90.000000
_cell_angle_beta 90.000000
_cell_angle_gamma 90.000000
_cell_volume 3466.781555
_symmetry_space_group_name_H-M "C M M 2"
_symmetry_group_IT_number 35
_symmetry_cell_setting 'orthorhombic'
loop_
_space_group_symop_operation_xyz
x,y,z
-x,-y,z
-x,y,z
x,-y,z
1/2+x,1/2+y,z
1/2-x,1/2-y,z
1/2-x,1/2+y,z
1/2+x,1/2-y,z
loop_
_atom_site_type_symbol
_atom_site_label
_atom_site_fract_x
_atom_site_fract_y
_atom_site_fract_z
Si Si1 0.745816 0.418573 0.112770
Si Si2 0.290925 0.319360 0.883243
Si Si3 0.578747 0.800130 0.314164
Si Si4 0.301195 0.411997 0.619766
Si Si5 0.189346 0.586787 0.396677
Si Si6 0.577495 0.353674 0.456948
Si Si7 0.091447 0.078643 0.177743
Si Si8 0.074257 0.224881 0.037769
O O1 0.777440 0.500000 0.072456
O O2 0.771062 0.392852 0.259294
O O3 0.665837 0.426591 0.118043
O O4 0.757071 0.353030 0.003660
O O5 0.250000 0.250000 0.822167
O O6 0.291439 0.384208 0.772620
O O7 0.366237 0.289661 0.927937
O O8 0.500000 0.823099 0.322078
O O9 0.620057 0.866425 0.386589
O O10 0.594819 0.727767 0.401879
O O11 0.598089 0.784123 0.154665
O O12 0.310449 0.500000 0.619836
O O13 0.237155 0.389372 0.523542
O O14 0.370893 0.372202 0.577025
O O15 0.170477 0.500000 0.406698
O O16 0.500000 0.358077 0.511782
O O17 0.590523 0.414152 0.340390
O O18 0.053681 0.148086 0.112165
O O19 0.054927 0.000000 0.142994
O O20 0.000000 0.250093 0.973523
#
# Coordination Sequence:
#
# PCOD8173115 Si02
#       8
#     8   8   8   8   8   8   8   8
#     4   9  17  33  54  78 106 139 179 224 273 322
#     4  11  23  36  54  79 106 148 187 223 275 334
#     4   9  19  35  57  85 113 141 182 237 286 334
#     4  11  24  39  53  80 115 147 187 233 274 324
#     4  10  20  35  59  84 110 144 184 234 287 334
#     4  10  20  33  51  76 109 147 180 217 268 323
#     4   9  15  27  48  76 107 139 175 212 257 317
#     4   9  19  35  53  79 111 141 181 234 279 324
#
# _framework density 18.460926000000001
#
# number of rings (size 3 to 8) (size 9 to 14) (size 15 to 20)
#    0.000    2.250    1.250    2.625    1.750    3.000 
#    0.000    0.000    0.000    0.000    0.000    0.000 
#    0.000    4.000    0.000    0.000    0.000    0.000 
#
# Total GULP energy -396442.044984 kJ/mol
# GULP energy per Si atom -12388.813906 kJ/mol
# Density = 1.841891 g / cm^3
# Si number density = 18.460926 Si / 1000 Ang^3
#
#
#
# Elastic Constant Matrix: (Units=GPa)
#
#
# Indices 1 2 3 4 5 6 
#
# 1 68.5459 38.5991 37.0590 0.0000 0.0000 0.0000
# 2 38.5991 70.4749 27.2848 0.0000 0.0000 0.0000
# 3 37.0590 27.2848 80.4851 0.0000 0.0000 0.0000
# 4 0.0000 0.0000 0.0000 28.8934 0.0000 0.0000
# 5 0.0000 0.0000 0.0000 0.0000 -9.1470 0.0000
# 6 0.0000 0.0000 0.0000 0.0000 0.0000 19.8373
#
#
#
# Elastic Compliance Matrix: (Units=1/GPa)
#
#
# Indices 1 2 3 4 5 6 
#
# 1 0.024746 -0.010523 -0.007827 0.000000 0.000000 0.000000
# 2 -0.010523 0.020808 -0.002209 0.000000 0.000000 0.000000
# 3 -0.007827 -0.002209 0.016777 0.000000 0.000000 0.000000
# 4 0.000000 0.000000 0.000000 0.034610 0.000000 0.000000
# 5 0.000000 0.000000 0.000000 0.000000 -0.109326 0.000000
# 6 0.000000 0.000000 0.000000 0.000000 0.000000 0.050410
#
#
# Mechanical properties :
#
#
# Convention : Reuss Voigt Hill
#
# Bulk Modulus (GPa) = 47.13864 47.26575 47.20220
# Shear Modulus (GPa) = 57.99502 15.68762 36.84132
#
# Velocity S-wave (km/s) = 5.61099 2.91825 4.47210
# Velocity P-wave (km/s) = 8.21993 6.08388 7.23122
#
# Compressibility (1/GPa) = 0.02121402
#
# Stress axis : x y z
#
# Youngs Moduli (GPa) = 40.41053 48.05818 59.60467
#
# Poissons Ratio (x) = 0.50573 0.46651
# Poissons Ratio (y) = 0.42525 0.13165
# Poissons Ratio (z) = 0.31628 0.10614
#
# Static dielectric constant tensor:
#      x y z
#    x 3.348730 0.000000 0.000000 
#    y 0.000000 3.394930 0.000000 
#    z 0.000000 0.000000 3.191530 
# 
# 
# High freq. dielectric constant tensor:
#      x y z
#    x 1.714010 0.000000 0.000000 
#    y 0.000000 1.716210 0.000000 
#    z 0.000000 0.000000 1.690290 
# 
# From -- ./inp_files/9457.got.cif
#   From: 2010.03.12/outbox.cif.g09.slc.cpg/sg35_5_cif.got.tgz:9457.got - 2010.04.14 02:02:04.
