data_PCOD8173435
_publ_section_title
;
Structure prediction by ZEFSAII (Michael W. Deem and Ramdas Pophale) SiO2 
 PCOD8173435
Probable space group: C M M 2
;
_chemical_formula_sum "Si O2"
_cell_formula_units_Z 64
_cell_length_a 9.221340
_cell_length_b 28.879344
_cell_length_c 12.298358
_cell_angle_alpha 90.000000
_cell_angle_beta 90.000000
_cell_angle_gamma 90.000000
_cell_volume 3275.129600
_symmetry_space_group_name_H-M "C M M 2"
_symmetry_group_IT_number 35
_symmetry_cell_setting 'orthorhombic'
loop_
_space_group_symop_operation_xyz
x,y,z
-x,-y,z
-x,y,z
x,-y,z
1/2+x,1/2+y,z
1/2-x,1/2-y,z
1/2-x,1/2+y,z
1/2+x,1/2-y,z
loop_
_atom_site_type_symbol
_atom_site_label
_atom_site_fract_x
_atom_site_fract_y
_atom_site_fract_z
Si Si1 0.331555 0.552134 0.817370
Si Si2 0.669138 0.294469 0.726080
Si Si3 0.163180 0.069173 0.573881
Si Si4 0.168749 0.450042 0.364777
Si Si5 0.670701 0.861580 0.876067
Si Si6 0.670201 0.798576 0.082224
Si Si7 0.171429 0.351275 0.294972
Si Si8 0.660117 0.671985 0.499123
O O1 0.500000 0.566764 0.826125
O O2 0.307412 0.500000 0.861055
O O3 0.278922 0.554853 0.692303
O O4 0.234048 0.586557 0.890727
O O5 0.500000 0.294044 0.759195
O O6 0.750000 0.250000 0.777138
O O7 0.746294 0.339776 0.773568
O O8 0.689572 0.291501 0.595341
O O9 0.260891 0.045563 0.482829
O O10 0.170677 0.123904 0.562117
O O11 0.000000 0.050613 0.558726
O O12 0.197437 0.500000 0.304835
O O13 0.228415 0.405118 0.298067
O O14 0.000000 0.442079 0.383676
O O15 0.500000 0.863722 0.853020
O O16 0.706980 0.831762 0.982161
O O17 0.500000 0.788583 0.091466
O O18 0.750000 0.750000 0.067998
O O19 0.730546 0.825411 0.188493
O O20 0.226240 0.323541 0.401114
O O21 0.000000 0.349829 0.295341
O O22 0.500000 0.678994 0.448500
#
# Coordination Sequence:
#
# PCOD8173435 Si02
#       8
#     8   8   8   8   8   8   8   8
#     4  10  20  35  56  82 115 155 192 229 281 337
#     4  11  22  37  56  82 115 149 186 229 285 349
#     4   9  16  30  50  74 107 149 187 220 262 318
#     4   9  17  29  48  77 110 144 181 220 266 322
#     4  11  23  39  59  83 113 147 190 240 286 336
#     4  10  23  42  62  84 107 140 187 239 291 341
#     4   9  19  36  56  79 110 142 181 230 280 333
#     4   9  18  33  53  78 112 148 183 222 273 334
#
# _framework density 19.54121
#
# number of rings (size 3 to 8) (size 9 to 14) (size 15 to 20)
#    0.000    2.250    1.250    1.500    0.000    5.500 
#    0.000    3.125    0.000    2.250    0.000    0.000 
#    0.000    0.000    0.000    0.000    0.000    0.000 
#
# Total GULP energy -396674.223544 kJ/mol
# GULP energy per Si atom -12396.069486 kJ/mol
# Density = 1.949673 g / cm^3
# Si number density = 19.541210 Si / 1000 Ang^3
#
#
#
# Elastic Constant Matrix: (Units=GPa)
#
#
# Indices 1 2 3 4 5 6 
#
# 1 69.7703 54.6448 40.7825 0.0000 0.0000 0.0000
# 2 54.6448 121.1236 45.8442 0.0000 0.0000 0.0000
# 3 40.7825 45.8442 87.0814 0.0000 0.0000 0.0000
# 4 0.0000 0.0000 0.0000 21.0616 0.0000 0.0000
# 5 0.0000 0.0000 0.0000 0.0000 23.3519 0.0000
# 6 0.0000 0.0000 0.0000 0.0000 0.0000 27.7350
#
#
#
# Elastic Compliance Matrix: (Units=1/GPa)
#
#
# Indices 1 2 3 4 5 6 
#
# 1 0.025430 -0.008698 -0.007330 0.000000 0.000000 0.000000
# 2 -0.008698 0.013286 -0.002921 0.000000 0.000000 0.000000
# 3 -0.007330 -0.002921 0.016454 0.000000 0.000000 0.000000
# 4 0.000000 0.000000 0.000000 0.047480 0.000000 0.000000
# 5 0.000000 0.000000 0.000000 0.000000 0.042823 0.000000
# 6 0.000000 0.000000 0.000000 0.000000 0.000000 0.036056
#
#
# Mechanical properties :
#
#
# Convention : Reuss Voigt Hill
#
# Bulk Modulus (GPa) = 57.89951 62.27983 60.08967
# Shear Modulus (GPa) = 22.20405 23.54327 22.87366
#
# Velocity S-wave (km/s) = 3.37451 3.47479 3.42502
# Velocity P-wave (km/s) = 6.69902 6.93102 6.81601
#
# Compressibility (1/GPa) = 0.01727130
#
# Stress axis : x y z
#
# Youngs Moduli (GPa) = 39.32339 75.26888 60.77521
#
# Poissons Ratio (x) = 0.65471 0.44550
# Poissons Ratio (y) = 0.34205 0.17750
# Poissons Ratio (z) = 0.28825 0.21983
#
# Static dielectric constant tensor:
#      x y z
#    x 3.473520 0.000000 0.000000 
#    y 0.000000 3.824400 0.000000 
#    z 0.000000 0.000000 3.388560 
# 
# 
# High freq. dielectric constant tensor:
#      x y z
#    x 1.753210 0.000000 0.000000 
#    y 0.000000 1.774790 0.000000 
#    z 0.000000 0.000000 1.734210 
# 
# From -- ./inp_files/11986.got.cif
#   From: 2010.03.12/outbox.cif.g09.slc.cpg/sg35_6_cif.got.tgz:11986.got - 2010.04.14 02:02:04.
