data_PCOD8173203
_publ_section_title
;
Structure prediction by ZEFSAII (Michael W. Deem and Ramdas Pophale) SiO2 
 PCOD8173203
Probable space group: C M M 2
;
_chemical_formula_sum "Si O2"
_cell_formula_units_Z 48
_cell_length_a 18.060217
_cell_length_b 9.295585
_cell_length_c 15.446227
_cell_angle_alpha 90.000000
_cell_angle_beta 90.000000
_cell_angle_gamma 90.000000
_cell_volume 2593.116948
_symmetry_space_group_name_H-M "C M M 2"
_symmetry_group_IT_number 35
_symmetry_cell_setting 'orthorhombic'
loop_
_space_group_symop_operation_xyz
x,y,z
-x,-y,z
-x,y,z
x,-y,z
1/2+x,1/2+y,z
1/2-x,1/2-y,z
1/2-x,1/2+y,z
1/2+x,1/2-y,z
loop_
_atom_site_type_symbol
_atom_site_label
_atom_site_fract_x
_atom_site_fract_y
_atom_site_fract_z
Si Si1 0.327518 0.329313 0.843790
Si Si2 0.913416 0.663779 0.700141
Si Si3 0.675387 0.166769 0.527834
Si Si4 0.588164 0.159852 0.177684
Si Si5 0.084423 0.168215 0.014100
Si Si6 0.917351 0.328492 0.367070
O O1 0.316315 0.500000 0.836293
O O2 0.250000 0.250000 0.837493
O O3 0.378772 0.276924 0.766049
O O4 0.366327 0.284110 0.933191
O O5 0.896426 0.500000 0.730049
O O6 0.881355 0.692491 0.605430
O O7 0.000000 0.693458 0.695433
O O8 0.750000 0.250000 0.548805
O O9 0.637867 0.230002 0.440658
O O10 0.695021 0.000000 0.516654
O O11 0.500000 0.156625 0.177609
O O12 0.613261 0.219194 0.272163
O O13 0.619901 0.000000 0.161943
O O14 0.618153 0.259414 0.100368
O O15 0.000000 0.218675 0.996713
O O16 0.087847 0.000000 0.029622
O O17 0.921715 0.500000 0.370653
O O18 0.000000 0.265999 0.383133
#
# Coordination Sequence:
#
# PCOD8173203 Si02
#       6
#     8   8   8   8   8   8
#     4  11  23  38  55  76 105 140 174 211 259 311
#     4  10  21  37  58  82 104 131 171 215 258 307
#     4  10  20  34  52  75 105 138 169 205 251 303
#     4   8  14  26  48  76 100 126 166 213 254 293
#     4   9  18  33  52  74 101 133 168 208 257 308
#     4   8  14  28  51  75  98 129 171 213 250 293
#
# _framework density 18.510542999999998
#
# number of rings (size 3 to 8) (size 9 to 14) (size 15 to 20)
#    0.000    2.667    0.000    3.000    0.000    6.333 
#    0.000    3.333    0.000    6.500    0.000    0.000 
#    0.000    0.000    0.000    0.000    0.000    0.000 
#
# Total GULP energy -297560.368335 kJ/mol
# GULP energy per Si atom -12398.348681 kJ/mol
# Density = 1.846841 g / cm^3
# Si number density = 18.510543 Si / 1000 Ang^3
#
#
#
# Elastic Constant Matrix: (Units=GPa)
#
#
# Indices 1 2 3 4 5 6 
#
# 1 98.4257 40.0903 57.9199 0.0000 0.0000 0.0000
# 2 40.0903 53.3421 54.8831 0.0000 0.0000 0.0000
# 3 57.9199 54.8831 148.6578 0.0000 0.0000 0.0000
# 4 0.0000 0.0000 0.0000 58.2164 0.0000 0.0000
# 5 0.0000 0.0000 0.0000 0.0000 3.1365 0.0000
# 6 0.0000 0.0000 0.0000 0.0000 0.0000 17.7041
#
#
#
# Elastic Compliance Matrix: (Units=1/GPa)
#
#
# Indices 1 2 3 4 5 6 
#
# 1 0.015319 -0.008663 -0.002770 0.000000 0.000000 0.000000
# 2 -0.008663 0.035129 -0.009594 0.000000 0.000000 0.000000
# 3 -0.002770 -0.009594 0.011348 0.000000 0.000000 0.000000
# 4 0.000000 0.000000 0.000000 0.017177 0.000000 0.000000
# 5 0.000000 0.000000 0.000000 0.000000 0.318824 0.000000
# 6 0.000000 0.000000 0.000000 0.000000 0.000000 0.056484
#
#
# Mechanical properties :
#
#
# Convention : Reuss Voigt Hill
#
# Bulk Modulus (GPa) = 50.65454 67.35690 59.00572
# Shear Modulus (GPa) = 9.94203 25.64690 17.79446
#
# Velocity S-wave (km/s) = 2.32006 3.72631 3.10387
# Velocity P-wave (km/s) = 5.88231 7.41493 6.69264
#
# Compressibility (1/GPa) = 0.01974157
#
# Stress axis : x y z
#
# Youngs Moduli (GPa) = 65.28030 28.46675 88.11965
#
# Poissons Ratio (x) = 0.24660 0.24411
# Poissons Ratio (y) = 0.56550 0.84542
# Poissons Ratio (z) = 0.18084 0.27311
#
# Static dielectric constant tensor:
#      x y z
#    x 3.293570 0.000000 0.000000 
#    y 0.000000 3.245490 0.000000 
#    z 0.000000 0.000000 3.761820 
# 
# 
# High freq. dielectric constant tensor:
#      x y z
#    x 1.702210 0.000000 0.000000 
#    y 0.000000 1.695070 0.000000 
#    z 0.000000 0.000000 1.736660 
# 
# From -- ./inp_files/12279.got.cif
#   From: 2010.03.12/outbox.cif.g09.slc.cpg/sg35_7_cif.got.tgz:12279.got - 2010.04.14 02:02:04.
