data_PCOD8173291
_publ_section_title
;
Structure prediction by ZEFSAII (Michael W. Deem and Ramdas Pophale) SiO2 
 PCOD8173291
Probable space group: C M M 2
;
_chemical_formula_sum "Si O2"
_cell_formula_units_Z 40
_cell_length_a 18.252789
_cell_length_b 8.934048
_cell_length_c 12.752239
_cell_angle_alpha 90.000000
_cell_angle_beta 90.000000
_cell_angle_gamma 90.000000
_cell_volume 2079.524103
_symmetry_space_group_name_H-M "C M M 2"
_symmetry_group_IT_number 35
_symmetry_cell_setting 'orthorhombic'
loop_
_space_group_symop_operation_xyz
x,y,z
-x,-y,z
-x,y,z
x,-y,z
1/2+x,1/2+y,z
1/2-x,1/2-y,z
1/2-x,1/2+y,z
1/2+x,1/2-y,z
loop_
_atom_site_type_symbol
_atom_site_label
_atom_site_fract_x
_atom_site_fract_y
_atom_site_fract_z
Si Si1 0.326865 0.324869 0.341000
Si Si2 0.671572 0.823806 0.951426
Si Si3 0.085471 0.172311 0.133990
Si Si4 0.581008 0.677216 0.533252
Si Si5 0.585430 0.326235 0.769418
O O1 0.313626 0.500000 0.352366
O O2 0.250000 0.250000 0.317871
O O3 0.380800 0.286759 0.246028
O O4 0.362321 0.257860 0.447775
O O5 0.750000 0.750000 0.967380
O O6 0.635597 0.774718 0.842440
O O7 0.682004 0.000000 0.951084
O O8 0.619337 0.777726 0.046219
O O9 0.000000 0.205729 0.140849
O O10 0.101043 0.000000 0.103875
O O11 0.500000 0.744739 0.512545
O O12 0.575826 0.500000 0.521167
O O13 0.606870 0.718196 0.650528
O O14 0.500000 0.293157 0.790775
O O15 0.602238 0.500000 0.791584
#
# Coordination Sequence:
#
# PCOD8173291 Si02
#       5
#     8   8   8   8   8
#     4  10  20  34  54  81 112 144 179 220 267 319
#     4  12  25  39  56  79 110 145 182 226 274 324
#     4  10  21  38  60  83 108 141 181 224 271 325
#     4   8  15  31  56  82 107 140 182 222 261 313
#     4   9  18  35  59  84 111 144 182 224 270 322
#
# _framework density 19.23517
#
# number of rings (size 3 to 8) (size 9 to 14) (size 15 to 20)
#    0.000    2.200    0.000    4.800    0.000    8.800 
#    0.000    3.000    0.000    3.000    0.000    0.000 
#    0.000    0.000    0.000    0.000    0.000    0.000 
#
# Total GULP energy -248027.487656 kJ/mol
# GULP energy per Si atom -12401.374383 kJ/mol
# Density = 1.919139 g / cm^3
# Si number density = 19.235170 Si / 1000 Ang^3
#
#
#
# Elastic Constant Matrix: (Units=GPa)
#
#
# Indices 1 2 3 4 5 6 
#
# 1 131.9118 54.9935 73.3701 0.0000 0.0000 0.0000
# 2 54.9935 76.8121 54.4881 0.0000 0.0000 0.0000
# 3 73.3701 54.4881 135.5222 0.0000 0.0000 0.0000
# 4 0.0000 0.0000 0.0000 -47.8093 0.0000 0.0000
# 5 0.0000 0.0000 0.0000 0.0000 309.5519 0.0000
# 6 0.0000 0.0000 0.0000 0.0000 0.0000 27.2293
#
#
#
# Elastic Compliance Matrix: (Units=1/GPa)
#
#
# Indices 1 2 3 4 5 6 
#
# 1 0.012445 -0.005779 -0.004414 0.000000 0.000000 0.000000
# 2 -0.005779 0.020897 -0.005273 0.000000 0.000000 0.000000
# 3 -0.004414 -0.005273 0.011889 0.000000 0.000000 0.000000
# 4 0.000000 0.000000 0.000000 -0.020916 0.000000 0.000000
# 5 0.000000 0.000000 0.000000 0.000000 0.003230 0.000000
# 6 0.000000 0.000000 0.000000 0.000000 0.000000 0.036725
#
#
# Mechanical properties :
#
#
# Convention : Reuss Voigt Hill
#
# Bulk Modulus (GPa) = 69.93837 78.88328 74.41082
# Shear Modulus (GPa) = 50.01576 68.55402 59.28489
#
# Velocity S-wave (km/s) = 5.10477 5.97640 5.55770
# Velocity P-wave (km/s) = 8.43703 9.41924 8.94163
#
# Compressibility (1/GPa) = 0.01429830
#
# Stress axis : x y z
#
# Youngs Moduli (GPa) = 80.35215 47.85436 84.11258
#
# Poissons Ratio (x) = 0.27654 0.37129
# Poissons Ratio (y) = 0.46434 0.44354
# Poissons Ratio (z) = 0.35470 0.25234
#
# Static dielectric constant tensor:
#      x y z
#    x 3.448900 0.000000 0.000000 
#    y 0.000000 3.236030 0.000000 
#    z 0.000000 0.000000 3.775780 
# 
# 
# High freq. dielectric constant tensor:
#      x y z
#    x 1.755750 0.000000 0.000000 
#    y 0.000000 1.716450 0.000000 
#    z 0.000000 0.000000 1.766650 
# 
# From -- ./inp_files/11013.got.cif
#   From: 2010.03.12/outbox.cif.g09.slc.cpg/sg35_6_cif.got.tgz:11013.got - 2010.04.14 02:02:04.
