data_PCOD8173886
_publ_section_title
;
Structure prediction by ZEFSAII (Michael W. Deem and Ramdas Pophale) SiO2 
 PCOD8173886
Probable space group: C M M 2
;
_chemical_formula_sum "Si O2"
_cell_formula_units_Z 56
_cell_length_a 18.531055
_cell_length_b 17.072660
_cell_length_c 9.031174
_cell_angle_alpha 90.000000
_cell_angle_beta 90.000000
_cell_angle_gamma 90.000000
_cell_volume 2857.232269
_symmetry_space_group_name_H-M "C M M 2"
_symmetry_group_IT_number 35
_symmetry_cell_setting 'orthorhombic'
loop_
_space_group_symop_operation_xyz
x,y,z
-x,-y,z
-x,y,z
x,-y,z
1/2+x,1/2+y,z
1/2-x,1/2-y,z
1/2-x,1/2+y,z
1/2+x,1/2-y,z
loop_
_atom_site_type_symbol
_atom_site_label
_atom_site_fract_x
_atom_site_fract_y
_atom_site_fract_z
Si Si1 0.834761 0.151040 0.412780
Si Si2 0.334761 0.348960 0.763847
Si Si3 0.419868 0.500000 0.412442
Si Si4 0.199337 0.411070 0.259072
Si Si5 0.582545 0.210748 0.918022
Si Si6 0.917455 0.710748 0.258605
Si Si7 0.800664 0.588930 0.917555
Si Si8 0.919868 0.000000 0.764186
O O1 0.829591 0.154030 0.588314
O O2 0.879060 0.076340 0.353863
O O3 0.754387 0.143919 0.348778
O O4 0.874997 0.227793 0.358084
O O5 0.374997 0.272207 0.818544
O O6 0.254387 0.356081 0.827848
O O7 0.379060 0.423660 0.822764
O O8 0.500000 0.500000 0.344689
O O9 0.422910 0.500000 0.588314
O O10 0.198080 0.500000 0.321199
O O11 0.119807 0.374077 0.278690
O O12 0.223009 0.410444 0.088313
O O13 0.500000 0.203920 0.863837
O O14 0.619806 0.125923 0.897937
O O15 0.586571 0.238084 0.088314
O O16 0.000000 0.703920 0.312791
O O17 0.801921 0.500000 0.855427
O O18 0.000000 0.000000 0.831938
#
# Coordination Sequence:
#
# PCOD8173886 Si02
#       8
#     8   8   4   8   8   8   8   4
#     4  11  21  36  58  84 115 150 189 231 281 340
#     4  11  21  36  58  84 115 150 189 231 281 340
#     4   9  18  32  51  77 110 145 180 222 271 325
#     4  10  21  38  60  84 113 150 191 235 282 334
#     4  10  22  39  58  83 115 150 190 236 284 334
#     4  10  22  39  58  83 115 150 190 236 284 334
#     4  10  21  38  60  84 113 150 191 235 282 334
#     4   9  18  32  51  77 110 145 180 222 271 325
#
# _framework density 19.599388000000001
#
# number of rings (size 3 to 8) (size 9 to 14) (size 15 to 20)
#    0.000    1.857    1.429    2.571    0.000    6.857 
#    0.000    2.857    0.000    3.429    0.000    4.000 
#    0.000    0.000    0.000    0.000    0.000    0.000 
#
# Total GULP energy -347276.467280 kJ/mol
# GULP energy per Si atom -12402.730974 kJ/mol
# Density = 1.955478 g / cm^3
# Si number density = 19.599388 Si / 1000 Ang^3
#
#
#
# Elastic Constant Matrix: (Units=GPa)
#
#
# Indices 1 2 3 4 5 6 
#
# 1 145.8671 67.0239 43.8648 0.0000 0.0000 0.0000
# 2 67.0239 92.7996 39.2057 0.0000 0.0000 0.0000
# 3 43.8648 39.2057 62.7882 0.0000 0.0000 0.0000
# 4 0.0000 0.0000 0.0000 26.1654 0.0000 0.0000
# 5 0.0000 0.0000 0.0000 0.0000 18.2301 0.0000
# 6 0.0000 0.0000 0.0000 0.0000 0.0000 25.7106
#
#
#
# Elastic Compliance Matrix: (Units=1/GPa)
#
#
# Indices 1 2 3 4 5 6 
#
# 1 0.010843 -0.006290 -0.003647 0.000000 0.000000 0.000000
# 2 -0.006290 0.018286 -0.007024 0.000000 0.000000 0.000000
# 3 -0.003647 -0.007024 0.022860 0.000000 0.000000 0.000000
# 4 0.000000 0.000000 0.000000 0.038218 0.000000 0.000000
# 5 0.000000 0.000000 0.000000 0.000000 0.054854 0.000000
# 6 0.000000 0.000000 0.000000 0.000000 0.000000 0.038894
#
#
# Mechanical properties :
#
#
# Convention : Reuss Voigt Hill
#
# Bulk Modulus (GPa) = 55.34963 66.84929 61.09946
# Shear Modulus (GPa) = 22.33133 24.11194 23.22163
#
# Velocity S-wave (km/s) = 3.37915 3.51128 3.44585
# Velocity P-wave (km/s) = 6.59747 7.11482 6.86102
#
# Compressibility (1/GPa) = 0.01806697
#
# Stress axis : x y z
#
# Youngs Moduli (GPa) = 92.22943 54.68571 43.74398
#
# Poissons Ratio (x) = 0.34398 0.15954
# Poissons Ratio (y) = 0.58013 0.30725
# Poissons Ratio (z) = 0.33637 0.38410
#
# Static dielectric constant tensor:
#      x y z
#    x 3.736610 0.000000 0.000000 
#    y 0.000000 3.660440 0.000000 
#    z 0.000000 0.000000 3.336710 
# 
# 
# High freq. dielectric constant tensor:
#      x y z
#    x 1.772970 0.000000 0.000000 
#    y 0.000000 1.770540 0.000000 
#    z 0.000000 0.000000 1.744760 
# 
# From -- ./inp_files/9326.got.cif
#   From: 2010.03.12/outbox.cif.g09.slc.cpg/sg35_5_cif.got.tgz:9326.got - 2010.04.14 02:02:04.
