data_PCOD8173318
_publ_section_title
;
Structure prediction by ZEFSAII (Michael W. Deem and Ramdas Pophale) SiO2 
 PCOD8173318
Probable space group: C M M 2
;
_chemical_formula_sum "Si O2"
_cell_formula_units_Z 64
_cell_length_a 8.963928
_cell_length_b 18.040645
_cell_length_c 20.524023
_cell_angle_alpha 90.000000
_cell_angle_beta 90.000000
_cell_angle_gamma 90.000000
_cell_volume 3319.043259
_symmetry_space_group_name_H-M "C M M 2"
_symmetry_group_IT_number 35
_symmetry_cell_setting 'orthorhombic'
loop_
_space_group_symop_operation_xyz
x,y,z
-x,-y,z
-x,y,z
x,-y,z
1/2+x,1/2+y,z
1/2-x,1/2-y,z
1/2-x,1/2+y,z
1/2+x,1/2-y,z
loop_
_atom_site_type_symbol
_atom_site_label
_atom_site_fract_x
_atom_site_fract_y
_atom_site_fract_z
Si Si1 0.322926 0.582962 0.353210
Si Si2 0.323592 0.670556 0.227342
Si Si3 0.825107 0.414434 0.594260
Si Si4 0.325542 0.171599 0.982099
Si Si5 0.335504 0.912210 0.739077
Si Si6 0.676574 0.328957 0.479481
Si Si7 0.827471 0.086726 0.866458
Si Si8 0.671364 0.086684 0.112776
O O1 0.500000 0.579456 0.350817
O O2 0.255916 0.500000 0.348738
O O3 0.262973 0.631008 0.292626
O O4 0.267941 0.619504 0.420223
O O5 0.500000 0.680450 0.228774
O O6 0.250000 0.750000 0.220594
O O7 0.279866 0.620725 0.166197
O O8 0.779650 0.500000 0.584556
O O9 0.784757 0.385994 0.667177
O O10 0.727735 0.364771 0.546709
O O11 0.000000 0.403308 0.580288
O O12 0.500000 0.184179 0.974042
O O13 0.250000 0.250000 0.993696
O O14 0.286073 0.120056 0.043056
O O15 0.266863 0.132642 0.917566
O O16 0.500000 0.880194 0.755716
O O17 0.219315 0.886143 0.794112
O O18 0.345823 0.000000 0.736555
O O19 0.500000 0.319671 0.479852
O O20 0.750000 0.250000 0.469234
O O21 0.000000 0.104609 0.876455
O O22 0.792175 0.000000 0.875652
O O23 0.500000 0.104424 0.130892
O O24 0.702139 0.000000 0.108944
#
# Coordination Sequence:
#
# PCOD8173318 Si02
#       8
#     8   8   8   8   8   8   8   8
#     4   9  19  36  57  82 110 142 184 230 275 326
#     4  11  22  37  59  85 116 152 186 224 272 325
#     4   9  18  34  56  82 111 142 180 226 274 328
#     4  11  23  39  58  80 110 147 184 225 276 330
#     4   8  15  30  53  79 108 143 180 221 272 327
#     4  11  22  36  55  78 109 147 185 228 277 329
#     4  10  20  34  55  84 114 143 181 228 272 322
#     4  10  22  40  61  86 114 144 183 229 274 325
#
# _framework density 19.282664
#
# number of rings (size 3 to 8) (size 9 to 14) (size 15 to 20)
#    0.000    2.125    0.000    4.125    0.000    5.250 
#    0.000    3.750    0.000    7.500    0.000    0.000 
#    0.000    0.000    0.000    0.000    0.000    0.000 
#
# Total GULP energy -396861.901809 kJ/mol
# GULP energy per Si atom -12401.934432 kJ/mol
# Density = 1.923878 g / cm^3
# Si number density = 19.282664 Si / 1000 Ang^3
#
#
#
# Elastic Constant Matrix: (Units=GPa)
#
#
# Indices 1 2 3 4 5 6 
#
# 1 75.6283 46.6760 50.8295 0.0000 0.0000 0.0000
# 2 46.6760 108.9594 63.7138 0.0000 0.0000 0.0000
# 3 50.8295 63.7138 140.4284 0.0000 0.0000 0.0000
# 4 0.0000 0.0000 0.0000 1.9905 0.0000 0.0000
# 5 0.0000 0.0000 0.0000 0.0000 34.5393 0.0000
# 6 0.0000 0.0000 0.0000 0.0000 0.0000 21.1278
#
#
#
# Elastic Compliance Matrix: (Units=1/GPa)
#
#
# Indices 1 2 3 4 5 6 
#
# 1 0.019895 -0.005869 -0.004538 0.000000 0.000000 0.000000
# 2 -0.005869 0.014223 -0.004329 0.000000 0.000000 0.000000
# 3 -0.004538 -0.004329 0.010728 0.000000 0.000000 0.000000
# 4 0.000000 0.000000 0.000000 0.502378 0.000000 0.000000
# 5 0.000000 0.000000 0.000000 0.000000 0.028953 0.000000
# 6 0.000000 0.000000 0.000000 0.000000 0.000000 0.047331
#
#
# Mechanical properties :
#
#
# Convention : Reuss Voigt Hill
#
# Bulk Modulus (GPa) = 65.04628 71.93940 68.49284
# Shear Modulus (GPa) = 7.59758 22.45132 15.02445
#
# Velocity S-wave (km/s) = 1.98712 3.41592 2.79439
# Velocity P-wave (km/s) = 6.25069 7.27646 6.78299
#
# Compressibility (1/GPa) = 0.01537367
#
# Stress axis : x y z
#
# Youngs Moduli (GPa) = 50.26426 70.30821 93.21499
#
# Poissons Ratio (x) = 0.41262 0.42305
# Poissons Ratio (y) = 0.29499 0.40352
# Poissons Ratio (z) = 0.22812 0.30436
#
# Static dielectric constant tensor:
#      x y z
#    x 3.409820 0.000000 0.000000 
#    y 0.000000 3.515140 0.000000 
#    z 0.000000 0.000000 3.769520 
# 
# 
# High freq. dielectric constant tensor:
#      x y z
#    x 1.741790 0.000000 0.000000 
#    y 0.000000 1.745030 0.000000 
#    z 0.000000 0.000000 1.767410 
# 
# From -- ./inp_files/18406.got.cif
#   From: 2010.03.12/outbox.cif.g09.slc.cpg/sg35_10_cif.got.tgz:18406.got - 2010.04.14 02:02:04.
