data_PCOD8173865
_publ_section_title
;
Structure prediction by ZEFSAII (Michael W. Deem and Ramdas Pophale) SiO2 
 PCOD8173865
Probable space group: C M M 2
;
_chemical_formula_sum "Si O2"
_cell_formula_units_Z 56
_cell_length_a 14.041031
_cell_length_b 14.454888
_cell_length_c 12.674988
_cell_angle_alpha 90.000000
_cell_angle_beta 90.000000
_cell_angle_gamma 90.000000
_cell_volume 2572.534964
_symmetry_space_group_name_H-M "C M M 2"
_symmetry_group_IT_number 35
_symmetry_cell_setting 'orthorhombic'
loop_
_space_group_symop_operation_xyz
x,y,z
-x,-y,z
-x,y,z
x,-y,z
1/2+x,1/2+y,z
1/2-x,1/2-y,z
1/2-x,1/2+y,z
1/2+x,1/2-y,z
loop_
_atom_site_type_symbol
_atom_site_label
_atom_site_fract_x
_atom_site_fract_y
_atom_site_fract_z
Si Si1 0.278799 0.850261 0.661770
Si Si2 0.796724 0.394208 0.259845
Si Si3 0.390141 0.206318 0.064149
Si Si4 0.107214 0.899798 0.534478
Si Si5 0.607227 0.897282 0.861684
Si Si6 0.889093 0.297730 0.457057
Si Si7 0.393497 0.397295 0.159064
O O1 0.250000 0.750000 0.702395
O O2 0.182152 0.903633 0.630474
O O3 0.328861 0.901122 0.757685
O O4 0.351049 0.845765 0.562869
O O5 0.832351 0.500000 0.268249
O O6 0.834067 0.347804 0.153743
O O7 0.831848 0.337337 0.359230
O O8 0.681508 0.388856 0.254875
O O9 0.500000 0.178914 0.076857
O O10 0.374253 0.317194 0.072494
O O11 0.352592 0.173415 0.949875
O O12 0.131616 0.812874 0.459287
O O13 0.000000 0.886477 0.580080
O O14 0.114555 0.000000 0.474818
O O15 0.500000 0.867998 0.829233
O O16 0.608207 0.000000 0.911267
O O17 0.000000 0.320414 0.443565
O O18 0.500000 0.384119 0.207225
O O19 0.383935 0.500000 0.106145
#
# Coordination Sequence:
#
# PCOD8173865 Si02
#       7
#     8   8   8   8   8   8   8
#     4  10  21  37  60  88 121 161 201 246 298 354
#     4  11  23  39  62  90 122 159 198 243 297 357
#     4  10  21  38  61  89 123 159 198 246 298 356
#     4   9  19  38  63  89 120 159 202 248 297 352
#     4  10  21  38  62  91 122 158 200 246 298 356
#     4  10  22  40  61  89 124 158 197 246 299 357
#     4   9  20  40  64  89 119 157 201 248 297 352
#
# _framework density 21.768412000000001
#
# number of rings (size 3 to 8) (size 9 to 14) (size 15 to 20)
#    0.000    2.143    0.000    2.143    0.000    8.000 
#    0.000    4.286    0.000   14.571    0.000   14.000 
#    0.000    0.000    0.000    0.000    0.000    0.000 
#
# Total GULP energy -347072.072986 kJ/mol
# GULP energy per Si atom -12395.431178 kJ/mol
# Density = 2.171887 g / cm^3
# Si number density = 21.768412 Si / 1000 Ang^3
#
#
#
# Elastic Constant Matrix: (Units=GPa)
#
#
# Indices 1 2 3 4 5 6 
#
# 1 111.3536 70.6346 69.0116 0.0000 0.0000 0.0000
# 2 70.6346 161.5381 73.1889 0.0000 0.0000 0.0000
# 3 69.0116 73.1889 134.7641 0.0000 0.0000 0.0000
# 4 0.0000 0.0000 0.0000 12.2867 0.0000 0.0000
# 5 0.0000 0.0000 0.0000 0.0000 20.8914 0.0000
# 6 0.0000 0.0000 0.0000 0.0000 0.0000 26.5416
#
#
#
# Elastic Compliance Matrix: (Units=1/GPa)
#
#
# Indices 1 2 3 4 5 6 
#
# 1 0.014928 -0.004064 -0.005438 0.000000 0.000000 0.000000
# 2 -0.004064 0.009317 -0.002979 0.000000 0.000000 0.000000
# 3 -0.005438 -0.002979 0.011823 0.000000 0.000000 0.000000
# 4 0.000000 0.000000 0.000000 0.081389 0.000000 0.000000
# 5 0.000000 0.000000 0.000000 0.000000 0.047867 0.000000
# 6 0.000000 0.000000 0.000000 0.000000 0.000000 0.037677
#
#
# Mechanical properties :
#
#
# Convention : Reuss Voigt Hill
#
# Bulk Modulus (GPa) = 90.03113 92.59179 91.31146
# Shear Modulus (GPa) = 21.58305 24.93200 23.25753
#
# Velocity S-wave (km/s) = 3.15220 3.38794 3.27220
# Velocity P-wave (km/s) = 7.39574 7.61127 7.50428
#
# Compressibility (1/GPa) = 0.01110727
#
# Stress axis : x y z
#
# Youngs Moduli (GPa) = 66.98750 107.32861 84.58292
#
# Poissons Ratio (x) = 0.43617 0.45992
# Poissons Ratio (y) = 0.27223 0.25197
# Poissons Ratio (z) = 0.36425 0.31973
#
# Static dielectric constant tensor:
#      x y z
#    x 4.375620 0.000000 0.000000 
#    y 0.000000 4.269980 0.000000 
#    z 0.000000 0.000000 3.541910 
# 
# 
# High freq. dielectric constant tensor:
#      x y z
#    x 1.874940 0.000000 0.000000 
#    y 0.000000 1.873140 0.000000 
#    z 0.000000 0.000000 1.817190 
# 
# From -- ./inp_files/12972.got.cif
#   From: 2010.03.12/outbox.cif.g09.slc.cpg/sg35_7_cif.got.tgz:12972.got - 2010.04.14 02:02:04.
