data_PCOD8173713
_publ_section_title
;
Structure prediction by ZEFSAII (Michael W. Deem and Ramdas Pophale) SiO2 
 PCOD8173713
Probable space group: C M M 2
;
_chemical_formula_sum "Si O2"
_cell_formula_units_Z 64
_cell_length_a 24.142618
_cell_length_b 13.956597
_cell_length_c 8.987916
_cell_angle_alpha 90.000000
_cell_angle_beta 90.000000
_cell_angle_gamma 90.000000
_cell_volume 3028.467420
_symmetry_space_group_name_H-M "C M M 2"
_symmetry_group_IT_number 35
_symmetry_cell_setting 'orthorhombic'
loop_
_space_group_symop_operation_xyz
x,y,z
-x,-y,z
-x,y,z
x,-y,z
1/2+x,1/2+y,z
1/2-x,1/2-y,z
1/2-x,1/2+y,z
1/2+x,1/2-y,z
loop_
_atom_site_type_symbol
_atom_site_label
_atom_site_fract_x
_atom_site_fract_y
_atom_site_fract_z
Si Si1 0.562317 0.203748 0.883250
Si Si2 0.137905 0.102877 0.476228
Si Si3 0.757269 0.393321 0.586019
Si Si4 0.848545 0.697479 0.388378
Si Si5 0.939308 0.104169 0.750616
Si Si6 0.561955 0.109171 0.573994
Si Si7 0.170013 0.703249 0.051247
Si Si8 0.272119 0.388117 0.918889
O O1 0.500000 0.166710 0.925019
O O2 0.564509 0.319045 0.882099
O O3 0.579943 0.169837 0.718323
O O4 0.607997 0.172135 0.002653
O O5 0.204037 0.099574 0.482241
O O6 0.124253 0.196056 0.380357
O O7 0.110231 0.118791 0.635949
O O8 0.117178 0.000000 0.408886
O O9 0.784983 0.500000 0.596422
O O10 0.800218 0.317569 0.512828
O O11 0.735178 0.359417 0.746525
O O12 0.898588 0.627481 0.432889
O O13 0.824457 0.681874 0.225887
O O14 0.000000 0.113781 0.671135
O O15 0.933185 0.000000 0.826230
O O16 0.500000 0.137465 0.524832
O O17 0.565623 0.000000 0.623748
O O18 0.211386 0.624768 0.986213
O O19 0.185929 0.812302 0.999341
O O20 0.291594 0.500000 0.938262
#
# Coordination Sequence:
#
# PCOD8173713 Si02
#       8
#     8   8   8   8   8   8   8   8
#     4  10  20  39  64  91 124 161 204 258 308 368
#     4  10  21  34  56  87 117 155 197 247 304 356
#     4  10  22  39  64  88 113 158 211 260 303 353
#     4  12  24  38  59  90 127 161 201 254 309 374
#     4   9  17  32  58  92 121 150 197 251 299 350
#     4  10  22  41  66  92 117 157 212 259 301 355
#     4  11  26  39  59  95 127 166 203 246 318 387
#     4  10  24  44  63  86 122 165 213 263 306 362
#
# _framework density 21.132801000000001
#
# number of rings (size 3 to 8) (size 9 to 14) (size 15 to 20)
#    0.000    1.750    1.250    2.250    7.000    5.000 
#    0.000    0.000    0.000    1.500    0.000    1.750 
#    0.000    0.000    0.000    0.000    0.000    0.000 
#
# Total GULP energy -396479.652071 kJ/mol
# GULP energy per Si atom -12389.989127 kJ/mol
# Density = 2.108470 g / cm^3
# Si number density = 21.132801 Si / 1000 Ang^3
#
#
#
# Elastic Constant Matrix: (Units=GPa)
#
#
# Indices 1 2 3 4 5 6 
#
# 1 109.1808 12.9034 27.9605 0.0000 0.0000 0.0000
# 2 12.9034 82.2901 20.0055 0.0000 0.0000 0.0000
# 3 27.9605 20.0055 77.4056 0.0000 0.0000 0.0000
# 4 0.0000 0.0000 0.0000 15.0587 0.0000 0.0000
# 5 0.0000 0.0000 0.0000 0.0000 16.7947 0.0000
# 6 0.0000 0.0000 0.0000 0.0000 0.0000 28.0934
#
#
#
# Elastic Compliance Matrix: (Units=1/GPa)
#
#
# Indices 1 2 3 4 5 6 
#
# 1 0.010136 -0.000746 -0.003468 0.000000 0.000000 0.000000
# 2 -0.000746 0.013022 -0.003096 0.000000 0.000000 0.000000
# 3 -0.003468 -0.003096 0.014972 0.000000 0.000000 0.000000
# 4 0.000000 0.000000 0.000000 0.066407 0.000000 0.000000
# 5 0.000000 0.000000 0.000000 0.000000 0.059543 0.000000
# 6 0.000000 0.000000 0.000000 0.000000 0.000000 0.035596
#
#
# Mechanical properties :
#
#
# Convention : Reuss Voigt Hill
#
# Bulk Modulus (GPa) = 42.53793 43.40170 42.96981
# Shear Modulus (GPa) = 22.50924 25.85651 24.18287
#
# Velocity S-wave (km/s) = 3.26718 3.50169 3.38646
# Velocity P-wave (km/s) = 5.86559 6.07711 5.97229
#
# Compressibility (1/GPa) = 0.02350843
#
# Stress axis : x y z
#
# Youngs Moduli (GPa) = 98.66300 76.79441 66.79159
#
# Poissons Ratio (x) = 0.05730 0.23165
# Poissons Ratio (y) = 0.07361 0.20679
# Poissons Ratio (z) = 0.34219 0.23775
#
# Static dielectric constant tensor:
#      x y z
#    x 3.975310 0.000000 0.000000 
#    y 0.000000 4.183030 0.000000 
#    z 0.000000 0.000000 3.420420 
# 
# 
# High freq. dielectric constant tensor:
#      x y z
#    x 1.836670 0.000000 0.000000 
#    y 0.000000 1.844060 0.000000 
#    z 0.000000 0.000000 1.777540 
# 
# From -- ./inp_files/9895.got.cif
#   From: 2010.03.12/outbox.cif.g09.slc.cpg/sg35_5_cif.got.tgz:9895.got - 2010.04.14 02:02:04.
