data_PCOD8173143
_publ_section_title
;
Structure prediction by ZEFSAII (Michael W. Deem and Ramdas Pophale) SiO2 
 PCOD8173143
Probable space group: C M M 2
;
_chemical_formula_sum "Si O2"
_cell_formula_units_Z 48
_cell_length_a 18.474644
_cell_length_b 8.063458
_cell_length_c 17.088814
_cell_angle_alpha 90.000000
_cell_angle_beta 90.000000
_cell_angle_gamma 90.000000
_cell_volume 2545.712350
_symmetry_space_group_name_H-M "C M M 2"
_symmetry_group_IT_number 35
_symmetry_cell_setting 'orthorhombic'
loop_
_space_group_symop_operation_xyz
x,y,z
-x,-y,z
-x,y,z
x,-y,z
1/2+x,1/2+y,z
1/2-x,1/2-y,z
1/2-x,1/2+y,z
1/2+x,1/2-y,z
loop_
_atom_site_type_symbol
_atom_site_label
_atom_site_fract_x
_atom_site_fract_y
_atom_site_fract_z
Si Si1 0.170586 0.696692 0.694620
Si Si2 0.585674 0.500000 0.272397
Si Si3 0.914367 0.311030 0.372206
Si Si4 0.579327 0.191759 0.836070
Si Si5 0.413624 0.500000 0.093201
Si Si6 0.828278 0.306255 0.522087
Si Si7 0.171671 0.818751 0.973733
O O1 0.165360 0.500000 0.694574
O O2 0.250000 0.750000 0.721622
O O3 0.115158 0.772663 0.758450
O O4 0.153299 0.770972 0.607782
O O5 0.500000 0.500000 0.279011
O O6 0.615121 0.329033 0.311920
O O7 0.610969 0.500000 0.182984
O O8 0.887344 0.500000 0.350765
O O9 0.887230 0.254536 0.457818
O O10 0.000000 0.310070 0.374345
O O11 0.500000 0.274318 0.850471
O O12 0.630620 0.206862 0.911249
O O13 0.568550 0.000000 0.819812
O O14 0.500000 0.500000 0.083304
O O15 0.378740 0.663449 0.051719
O O16 0.827141 0.500000 0.533248
O O17 0.750000 0.250000 0.491752
O O18 0.250000 0.750000 0.997784
O O19 0.182772 0.000000 0.935146
#
# Coordination Sequence:
#
# PCOD8173143 Si02
#       7
#     8   4   8   8   4   8   8
#     4   9  18  32  48  70 102 142 185 226 275 327
#     4   9  18  36  60  83 111 146 179 227 281 334
#     4   9  18  33  55  81 108 142 187 228 273 335
#     4  10  20  33  52  80 111 143 188 235 278 330
#     4   9  20  38  62  83 108 148 185 223 284 344
#     4   9  18  31  49  72 103 143 182 225 276 330
#     4  10  21  36  59  79 110 145 182 224 278 340
#
# _framework density 18.855233999999999
#
# number of rings (size 3 to 8) (size 9 to 14) (size 15 to 20)
#    0.500    2.167    0.000    1.500    1.167    2.667 
#    0.000    5.833    0.000    4.000    0.000    0.000 
#    0.000    0.000    0.000    0.000    0.000    0.000 
#
# Total GULP energy -297355.686390 kJ/mol
# GULP energy per Si atom -12389.820266 kJ/mol
# Density = 1.881232 g / cm^3
# Si number density = 18.855234 Si / 1000 Ang^3
#
#
#
# Elastic Constant Matrix: (Units=GPa)
#
#
# Indices 1 2 3 4 5 6 
#
# 1 97.8375 25.8268 60.4819 0.0000 0.0000 0.0000
# 2 25.8268 50.2954 42.5790 0.0000 0.0000 0.0000
# 3 60.4819 42.5790 144.1734 0.0000 0.0000 0.0000
# 4 0.0000 0.0000 0.0000 18.0564 0.0000 0.0000
# 5 0.0000 0.0000 0.0000 0.0000 27.7950 0.0000
# 6 0.0000 0.0000 0.0000 0.0000 0.0000 22.7349
#
#
#
# Elastic Compliance Matrix: (Units=1/GPa)
#
#
# Indices 1 2 3 4 5 6 
#
# 1 0.014128 -0.002983 -0.005046 0.000000 0.000000 0.000000
# 2 -0.002983 0.027141 -0.006764 0.000000 0.000000 0.000000
# 3 -0.005046 -0.006764 0.011050 0.000000 0.000000 0.000000
# 4 0.000000 0.000000 0.000000 0.055382 0.000000 0.000000
# 5 0.000000 0.000000 0.000000 0.000000 0.035978 0.000000
# 6 0.000000 0.000000 0.000000 0.000000 0.000000 0.043985
#
#
# Mechanical properties :
#
#
# Convention : Reuss Voigt Hill
#
# Bulk Modulus (GPa) = 43.98856 61.12017 52.55437
# Shear Modulus (GPa) = 22.23929 24.61182 23.42556
#
# Velocity S-wave (km/s) = 3.43808 3.61682 3.52858
# Velocity P-wave (km/s) = 6.25626 7.06595 6.67340
#
# Compressibility (1/GPa) = 0.02273318
#
# Stress axis : x y z
#
# Youngs Moduli (GPa) = 70.78319 36.84504 90.49398
#
# Poissons Ratio (x) = 0.10991 0.45660
# Poissons Ratio (y) = 0.21115 0.61211
# Poissons Ratio (z) = 0.35715 0.24922
#
# Static dielectric constant tensor:
#      x y z
#    x 3.454840 0.000000 0.000000 
#    y 0.000000 3.430090 0.000000 
#    z 0.000000 0.000000 3.605040 
# 
# 
# High freq. dielectric constant tensor:
#      x y z
#    x 1.724180 0.000000 0.000000 
#    y 0.000000 1.719010 0.000000 
#    z 0.000000 0.000000 1.728310 
# 
# From -- ./inp_files/18799.got.cif
#   From: 2010.03.12/outbox.cif.g09.slc.cpg/sg35_10_cif.got.tgz:18799.got - 2010.04.14 02:02:04.
