data_PCOD8173050
_publ_section_title
;
Structure prediction by ZEFSAII (Michael W. Deem and Ramdas Pophale) SiO2 
 PCOD8173050
Probable space group: C M M 2
;
_chemical_formula_sum "Si O2"
_cell_formula_units_Z 56
_cell_length_a 9.065200
_cell_length_b 19.885914
_cell_length_c 17.854230
_cell_angle_alpha 90.000000
_cell_angle_beta 90.000000
_cell_angle_gamma 90.000000
_cell_volume 3218.578250
_symmetry_space_group_name_H-M "C M M 2"
_symmetry_group_IT_number 35
_symmetry_cell_setting 'orthorhombic'
loop_
_space_group_symop_operation_xyz
x,y,z
-x,-y,z
-x,y,z
x,-y,z
1/2+x,1/2+y,z
1/2-x,1/2-y,z
1/2-x,1/2+y,z
1/2+x,1/2-y,z
loop_
_atom_site_type_symbol
_atom_site_label
_atom_site_fract_x
_atom_site_fract_y
_atom_site_fract_z
Si Si1 0.173753 0.680574 0.783510
Si Si2 0.334206 0.079850 0.525485
Si Si3 0.665570 0.580286 0.380460
Si Si4 0.664124 0.919936 0.237135
Si Si5 0.672416 0.578898 0.675205
Si Si6 0.172297 0.317659 0.956119
Si Si7 0.675850 0.074521 0.072914
O O1 0.250000 0.750000 0.757841
O O2 0.242900 0.618217 0.739926
O O3 0.208440 0.665676 0.870193
O O4 0.000000 0.685664 0.767508
O O5 0.500000 0.108731 0.532922
O O6 0.260769 0.108559 0.449841
O O7 0.237089 0.103440 0.595868
O O8 0.338151 0.000000 0.521787
O O9 0.500000 0.607672 0.388668
O O10 0.667651 0.500000 0.380702
O O11 0.731566 0.608586 0.302660
O O12 0.500000 0.890752 0.250172
O O13 0.726032 0.898681 0.155144
O O14 0.657655 0.000000 0.240262
O O15 0.500000 0.596108 0.677129
O O16 0.701339 0.500000 0.687947
O O17 0.250000 0.250000 0.982551
O O18 0.000000 0.308034 0.969023
O O19 0.236597 0.377187 0.007838
O O20 0.500000 0.071294 0.071949
O O21 0.740388 0.000000 0.057706
#
# Coordination Sequence:
#
# PCOD8173050 Si02
#       7
#     8   8   8   8   8   8   8
#     4  10  20  34  52  72  95 125 162 201 240 286
#     4   9  16  26  41  62  89 121 157 193 229 274
#     4   9  15  22  34  55  86 121 152 183 225 275
#     4   8  13  22  37  57  82 113 149 187 225 267
#     4  10  20  33  49  71 100 129 157 195 243 289
#     4   9  18  32  50  70  92 120 154 193 234 278
#     4   8  14  26  45  68  92 119 154 194 232 271
#
# _framework density 17.398986000000001
#
# number of rings (size 3 to 8) (size 9 to 14) (size 15 to 20)
#    0.000    3.000    0.000    2.571    0.000    5.429 
#    0.000    2.143    0.000    1.286    0.000    1.000 
#    0.000    2.286    0.000    0.000    0.000    0.000 
#
# Total GULP energy -347108.471330 kJ/mol
# GULP energy per Si atom -12396.731119 kJ/mol
# Density = 1.735939 g / cm^3
# Si number density = 17.398986 Si / 1000 Ang^3
#
#
#
# Elastic Constant Matrix: (Units=GPa)
#
#
# Indices 1 2 3 4 5 6 
#
# 1 97.8574 34.7985 58.0373 0.0000 0.0000 0.0000
# 2 34.7985 55.6874 57.3547 0.0000 0.0000 0.0000
# 3 58.0373 57.3547 133.4559 0.0000 0.0000 0.0000
# 4 0.0000 0.0000 0.0000 3.3880 0.0000 0.0000
# 5 0.0000 0.0000 0.0000 0.0000 23.6115 0.0000
# 6 0.0000 0.0000 0.0000 0.0000 0.0000 19.2520
#
#
#
# Elastic Compliance Matrix: (Units=1/GPa)
#
#
# Indices 1 2 3 4 5 6 
#
# 1 0.014391 -0.004570 -0.004294 0.000000 0.000000 0.000000
# 2 -0.004570 0.033669 -0.012483 0.000000 0.000000 0.000000
# 3 -0.004294 -0.012483 0.014725 0.000000 0.000000 0.000000
# 4 0.000000 0.000000 0.000000 0.295157 0.000000 0.000000
# 5 0.000000 0.000000 0.000000 0.000000 0.042352 0.000000
# 6 0.000000 0.000000 0.000000 0.000000 0.000000 0.051943
#
#
# Mechanical properties :
#
#
# Convention : Reuss Voigt Hill
#
# Bulk Modulus (GPa) = 49.77117 65.26463 57.51790
# Shear Modulus (GPa) = 9.96754 18.37099 14.16927
#
# Velocity S-wave (km/s) = 2.39609 3.25293 2.85682
# Velocity P-wave (km/s) = 6.02685 7.19033 6.63414
#
# Compressibility (1/GPa) = 0.02009195
#
# Stress axis : x y z
#
# Youngs Moduli (GPa) = 69.48848 29.70062 67.91062
#
# Poissons Ratio (x) = 0.13572 0.29163
# Poissons Ratio (y) = 0.31755 0.84770
# Poissons Ratio (z) = 0.29841 0.37074
#
# Static dielectric constant tensor:
#      x y z
#    x 3.265700 0.000000 0.000000 
#    y 0.000000 2.870870 0.000000 
#    z 0.000000 0.000000 3.510350 
# 
# 
# High freq. dielectric constant tensor:
#      x y z
#    x 1.668520 0.000000 0.000000 
#    y 0.000000 1.615830 0.000000 
#    z 0.000000 0.000000 1.686330 
# 
# From -- ./inp_files/18224.got.cif
#   From: 2010.03.12/outbox.cif.g09.slc.cpg/sg35_10_cif.got.tgz:18224.got - 2010.04.14 02:02:04.
