data_PCOD8173972
_publ_section_title
;
Structure prediction by ZEFSAII (Michael W. Deem and Ramdas Pophale) SiO2 
 PCOD8173972
Probable space group: C M M 2
;
_chemical_formula_sum "Si O2"
_cell_formula_units_Z 56
_cell_length_a 18.035534
_cell_length_b 27.913939
_cell_length_c 5.261955
_cell_angle_alpha 90.000000
_cell_angle_beta 90.000000
_cell_angle_gamma 90.000000
_cell_volume 2649.093337
_symmetry_space_group_name_H-M "C M M 2"
_symmetry_group_IT_number 35
_symmetry_cell_setting 'orthorhombic'
loop_
_space_group_symop_operation_xyz
x,y,z
-x,-y,z
-x,y,z
x,-y,z
1/2+x,1/2+y,z
1/2-x,1/2-y,z
1/2-x,1/2+y,z
1/2+x,1/2-y,z
loop_
_atom_site_type_symbol
_atom_site_label
_atom_site_fract_x
_atom_site_fract_y
_atom_site_fract_z
Si Si1 0.832999 0.851601 0.638520
Si Si2 0.080001 0.730801 0.428609
Si Si3 0.245422 0.946251 0.658902
Si Si4 0.659749 0.053652 0.159845
Si Si5 0.081686 0.648102 0.088208
Si Si6 0.584240 0.680065 0.139795
Si Si7 0.799048 0.291217 0.790105
O O1 0.821230 0.908786 0.633775
O O2 0.887173 0.840351 0.407915
O O3 0.753950 0.824411 0.615549
O O4 0.867392 0.837893 0.908739
O O5 0.090409 0.761960 0.169002
O O6 0.146812 0.741820 0.618565
O O7 0.000000 0.745209 0.552350
O O8 0.079205 0.674535 0.360621
O O9 0.303304 0.937249 0.432112
O O10 0.212637 0.000000 0.637653
O O11 0.282501 0.938577 0.932786
O O12 0.625951 0.000000 0.146570
O O13 0.593776 0.091797 0.128786
O O14 0.151354 0.672491 0.950262
O O15 0.000000 0.654814 0.955788
O O16 0.500000 0.663101 0.098803
O O17 0.750000 0.250000 0.937973
#
# Coordination Sequence:
#
# PCOD8173972 Si02
#       7
#     8   8   8   8   8   8   8
#     4  12  23  40  68  95 124 167 213 271 320 382
#     4  10  23  40  58  85 130 177 212 260 327 388
#     4  10  21  40  66  96 129 163 211 269 325 379
#     4  10  21  40  64  92 129 171 216 266 320 385
#     4  11  24  40  60  88 132 174 215 271 329 382
#     4  11  25  44  64  92 130 171 211 260 329 399
#     4  12  23  37  61  93 124 165 222 271 312 385
#
# _framework density 21.139306999999999
#
# number of rings (size 3 to 8) (size 9 to 14) (size 15 to 20)
#    0.000    1.143    2.857    3.429    2.000    0.857 
#    0.000    0.000    0.000    5.143    0.000    0.000 
#    0.000    0.000    0.000    0.000    0.000    0.000 
#
# Total GULP energy -347035.491679 kJ/mol
# GULP energy per Si atom -12394.124703 kJ/mol
# Density = 2.109119 g / cm^3
# Si number density = 21.139307 Si / 1000 Ang^3
#
#
#
# Elastic Constant Matrix: (Units=GPa)
#
#
# Indices 1 2 3 4 5 6 
#
# 1 111.8573 54.8328 20.0632 0.0000 0.0000 0.0000
# 2 54.8328 142.1998 18.4201 0.0000 0.0000 0.0000
# 3 20.0632 18.4201 72.0720 0.0000 0.0000 0.0000
# 4 0.0000 0.0000 0.0000 18.0521 0.0000 0.0000
# 5 0.0000 0.0000 0.0000 0.0000 25.1718 0.0000
# 6 0.0000 0.0000 0.0000 0.0000 0.0000 25.8036
#
#
#
# Elastic Compliance Matrix: (Units=1/GPa)
#
#
# Indices 1 2 3 4 5 6 
#
# 1 0.011325 -0.004094 -0.002106 0.000000 0.000000 0.000000
# 2 -0.004094 0.008753 -0.001097 0.000000 0.000000 0.000000
# 3 -0.002106 -0.001097 0.014742 0.000000 0.000000 0.000000
# 4 0.000000 0.000000 0.000000 0.055395 0.000000 0.000000
# 5 0.000000 0.000000 0.000000 0.000000 0.039727 0.000000
# 6 0.000000 0.000000 0.000000 0.000000 0.000000 0.038754
#
#
# Mechanical properties :
#
#
# Convention : Reuss Voigt Hill
#
# Bulk Modulus (GPa) = 49.44529 56.97346 53.20937
# Shear Modulus (GPa) = 26.31123 29.32636 27.81880
#
# Velocity S-wave (km/s) = 3.53180 3.72868 3.63157
# Velocity P-wave (km/s) = 6.33028 6.74887 6.54293
#
# Compressibility (1/GPa) = 0.02022437
#
# Stress axis : x y z
#
# Youngs Moduli (GPa) = 88.30321 114.24428 67.83424
#
# Poissons Ratio (x) = 0.46771 0.14287
# Poissons Ratio (y) = 0.36151 0.07445
# Poissons Ratio (z) = 0.18598 0.12538
#
# Static dielectric constant tensor:
#      x y z
#    x 3.866890 0.000000 0.000000 
#    y 0.000000 4.239670 0.000000 
#    z 0.000000 0.000000 3.692510 
# 
# 
# High freq. dielectric constant tensor:
#      x y z
#    x 1.823180 0.000000 0.000000 
#    y 0.000000 1.835610 0.000000 
#    z 0.000000 0.000000 1.823130 
# 
# From -- ./inp_files/2086.got.cif
#   From: 2010.03.12/outbox.cif.g09.slc.cpg/sg35_2_cif.got.tgz:2086.got - 2010.04.14 02:02:04.
