data_PCOD8173930
_publ_section_title
;
Structure prediction by ZEFSAII (Michael W. Deem and Ramdas Pophale) SiO2 
 PCOD8173930
Probable space group: C M M 2
;
_chemical_formula_sum "Si O2"
_cell_formula_units_Z 64
_cell_length_a 8.811579
_cell_length_b 31.043269
_cell_length_c 11.933136
_cell_angle_alpha 90.000000
_cell_angle_beta 90.000000
_cell_angle_gamma 90.000000
_cell_volume 3264.192613
_symmetry_space_group_name_H-M "C M M 2"
_symmetry_group_IT_number 35
_symmetry_cell_setting 'orthorhombic'
loop_
_space_group_symop_operation_xyz
x,y,z
-x,-y,z
-x,y,z
x,-y,z
1/2+x,1/2+y,z
1/2-x,1/2-y,z
1/2-x,1/2+y,z
1/2+x,1/2-y,z
loop_
_atom_site_type_symbol
_atom_site_label
_atom_site_fract_x
_atom_site_fract_y
_atom_site_fract_z
Si Si1 0.679558 0.047311 0.934780
Si Si2 0.320635 0.205802 0.933615
Si Si3 0.677792 0.323897 0.159732
Si Si4 0.180156 0.625345 0.788290
Si Si5 0.177716 0.206174 0.402890
Si Si6 0.674247 0.451264 0.385200
Si Si7 0.678531 0.374778 0.546129
Si Si8 0.322222 0.915749 0.172117
O O1 0.500000 0.046863 0.923418
O O2 0.747188 0.082956 0.850104
O O3 0.745847 0.000000 0.904544
O O4 0.724976 0.058193 0.061689
O O5 0.500000 0.209429 0.930190
O O6 0.250000 0.250000 0.887065
O O7 0.260657 0.167156 0.855384
O O8 0.270717 0.198203 0.060913
O O9 0.500000 0.320654 0.133533
O O10 0.722194 0.299235 0.273237
O O11 0.722680 0.373120 0.176022
O O12 0.237113 0.626568 0.662987
O O13 0.000000 0.624526 0.789871
O O14 0.250000 0.250000 0.450412
O O15 0.238873 0.165368 0.472894
O O16 0.000000 0.209415 0.418954
O O17 0.500000 0.441988 0.350336
O O18 0.694766 0.500000 0.429582
O O19 0.723831 0.418952 0.483799
O O20 0.781778 0.444982 0.278339
O O21 0.500000 0.372055 0.567028
O O22 0.500000 0.903923 0.171728
#
# Coordination Sequence:
#
# PCOD8173930 Si02
#       8
#     8   8   8   8   8   8   8   8
#     4   9  18  35  58  84 117 152 184 230 291 343
#     4  11  23  40  60  88 121 154 195 241 294 349
#     4  11  21  37  61  88 120 156 192 235 293 355
#     4  10  22  40  59  83 114 151 197 245 289 340
#     4  10  22  39  59  84 116 149 186 234 286 343
#     4  10  21  39  61  85 119 158 194 239 294 351
#     4  10  22  41  59  81 114 153 196 242 292 342
#     4  11  20  34  59  90 122 154 191 238 291 352
#
# _framework density 19.606686
#
# number of rings (size 3 to 8) (size 9 to 14) (size 15 to 20)
#    0.000    1.750    2.500    1.875    0.000    5.750 
#    0.000    2.500    0.000    1.500    0.000    0.000 
#    0.000    0.000    0.000    0.000    0.000    0.000 
#
# Total GULP energy -396887.033371 kJ/mol
# GULP energy per Si atom -12402.719793 kJ/mol
# Density = 1.956206 g / cm^3
# Si number density = 19.606686 Si / 1000 Ang^3
#
#
#
# Elastic Constant Matrix: (Units=GPa)
#
#
# Indices 1 2 3 4 5 6 
#
# 1 25.5114 28.9444 27.7578 0.0000 0.0000 0.0000
# 2 28.9444 179.8626 69.0070 0.0000 0.0000 0.0000
# 3 27.7578 69.0070 131.2056 0.0000 0.0000 0.0000
# 4 0.0000 0.0000 0.0000 15.7535 0.0000 0.0000
# 5 0.0000 0.0000 0.0000 0.0000 32.8521 0.0000
# 6 0.0000 0.0000 0.0000 0.0000 0.0000 20.4627
#
#
#
# Elastic Compliance Matrix: (Units=1/GPa)
#
#
# Indices 1 2 3 4 5 6 
#
# 1 0.054928 -0.005488 -0.008734 0.000000 0.000000 0.000000
# 2 -0.005488 0.007514 -0.002791 0.000000 0.000000 0.000000
# 3 -0.008734 -0.002791 0.010937 0.000000 0.000000 0.000000
# 4 0.000000 0.000000 0.000000 0.063478 0.000000 0.000000
# 5 0.000000 0.000000 0.000000 0.000000 0.030439 0.000000
# 6 0.000000 0.000000 0.000000 0.000000 0.000000 0.048869
#
#
# Mechanical properties :
#
#
# Convention : Reuss Voigt Hill
#
# Bulk Modulus (GPa) = 25.41113 65.33311 45.37212
# Shear Modulus (GPa) = 18.98907 27.87169 23.43038
#
# Velocity S-wave (km/s) = 3.11545 3.77442 3.46066
# Velocity P-wave (km/s) = 5.09214 7.23804 6.25776
#
# Compressibility (1/GPa) = 0.03935284
#
# Stress axis : x y z
#
# Youngs Moduli (GPa) = 18.20565 133.09018 91.43171
#
# Poissons Ratio (x) = 0.73045 0.79856
# Poissons Ratio (y) = 0.09992 0.25516
# Poissons Ratio (z) = 0.15901 0.37141
#
# Static dielectric constant tensor:
#      x y z
#    x 3.353870 0.000000 0.000000 
#    y 0.000000 4.031240 0.000000 
#    z 0.000000 0.000000 3.554190 
# 
# 
# High freq. dielectric constant tensor:
#      x y z
#    x 1.745950 0.000000 0.000000 
#    y 0.000000 1.783480 0.000000 
#    z 0.000000 0.000000 1.759410 
# 
# From -- ./inp_files/11825.got.cif
#   From: 2010.03.12/outbox.cif.g09.slc.cpg/sg35_6_cif.got.tgz:11825.got - 2010.04.14 02:02:04.
