data_PCOD8173565
_publ_section_title
;
Structure prediction by ZEFSAII (Michael W. Deem and Ramdas Pophale) SiO2 
 PCOD8173565
Probable space group: C M M 2
;
_chemical_formula_sum "Si O2"
_cell_formula_units_Z 48
_cell_length_a 8.823953
_cell_length_b 15.583538
_cell_length_c 16.997940
_cell_angle_alpha 90.000000
_cell_angle_beta 90.000000
_cell_angle_gamma 90.000000
_cell_volume 2337.359650
_symmetry_space_group_name_H-M "C M M 2"
_symmetry_group_IT_number 35
_symmetry_cell_setting 'orthorhombic'
loop_
_space_group_symop_operation_xyz
x,y,z
-x,-y,z
-x,y,z
x,-y,z
1/2+x,1/2+y,z
1/2-x,1/2-y,z
1/2-x,1/2+y,z
1/2+x,1/2-y,z
loop_
_atom_site_type_symbol
_atom_site_label
_atom_site_fract_x
_atom_site_fract_y
_atom_site_fract_z
Si Si1 0.829055 0.602201 0.401010
Si Si2 0.677869 0.660744 0.715268
Si Si3 0.326834 0.000000 0.977111
Si Si4 0.326507 0.000000 0.163166
Si Si5 0.679051 0.339426 0.246865
Si Si6 0.819735 0.842935 0.890029
Si Si7 0.665753 0.402470 0.552570
O O1 0.818472 0.500000 0.392923
O O2 0.719196 0.645710 0.337988
O O3 0.779163 0.636652 0.487569
O O4 0.000000 0.633745 0.386113
O O5 0.500000 0.671183 0.719136
O O6 0.750000 0.750000 0.693816
O O7 0.730549 0.628286 0.801384
O O8 0.729052 0.600899 0.642346
O O9 0.244282 0.085640 0.947894
O O10 0.500000 0.000000 0.947639
O O11 0.316979 0.000000 0.070108
O O12 0.245175 0.915357 0.194273
O O13 0.500000 0.000000 0.193264
O O14 0.500000 0.336304 0.236203
O O15 0.750000 0.250000 0.217017
O O16 0.750000 0.750000 0.910686
O O17 0.000000 0.837535 0.899613
O O18 0.500000 0.356963 0.548070
O O19 0.645452 0.500000 0.528711
#
# Coordination Sequence:
#
# PCOD8173565 Si02
#       7
#     8   8   4   4   8   8   8
#     4  10  20  36  58  84 122 163 205 256 307 358
#     4   9  19  34  54  79 112 155 198 250 305 356
#     4  11  25  43  67  96 125 162 203 247 308 373
#     4  11  25  47  69  94 129 160 197 253 308 369
#     4  12  25  42  68  97 126 164 207 250 306 368
#     4  10  21  39  64  92 127 165 208 257 309 366
#     4   9  18  32  52  78 112 155 206 252 298 354
#
# _framework density 20.535990999999999
#
# number of rings (size 3 to 8) (size 9 to 14) (size 15 to 20)
#    0.000    1.833    0.833    3.000    1.167    4.667 
#    0.000    1.667    0.000    0.000    0.000    0.000 
#    0.000    0.000    0.000    0.000    0.000    0.000 
#
# Total GULP energy -297502.826366 kJ/mol
# GULP energy per Si atom -12395.951099 kJ/mol
# Density = 2.048925 g / cm^3
# Si number density = 20.535991 Si / 1000 Ang^3
#
#
#
# Elastic Constant Matrix: (Units=GPa)
#
#
# Indices 1 2 3 4 5 6 
#
# 1 128.8991 60.9990 52.9047 0.0000 0.0000 0.0000
# 2 60.9990 108.7383 49.2659 0.0000 0.0000 0.0000
# 3 52.9047 49.2659 101.5513 0.0000 0.0000 0.0000
# 4 0.0000 0.0000 0.0000 -409.7716 0.0000 0.0000
# 5 0.0000 0.0000 0.0000 0.0000 31.2695 0.0000
# 6 0.0000 0.0000 0.0000 0.0000 0.0000 33.0717
#
#
#
# Elastic Compliance Matrix: (Units=1/GPa)
#
#
# Indices 1 2 3 4 5 6 
#
# 1 0.011544 -0.004808 -0.003682 0.000000 0.000000 0.000000
# 2 -0.004808 0.013790 -0.004185 0.000000 0.000000 0.000000
# 3 -0.003682 -0.004185 0.013796 0.000000 0.000000 0.000000
# 4 0.000000 0.000000 0.000000 -0.002440 0.000000 0.000000
# 5 0.000000 0.000000 0.000000 0.000000 0.031980 0.000000
# 6 0.000000 0.000000 0.000000 0.000000 0.000000 0.030237
#
#
# Mechanical properties :
#
#
# Convention : Reuss Voigt Hill
#
# Bulk Modulus (GPa) = 72.56805 73.94754 73.25779
# Shear Modulus (GPa) = 38.80496 -57.35148 -9.27326
#
# Velocity S-wave (km/s) = 4.35168 -5.29036 -2.12730
# Velocity P-wave (km/s) = 7.78866 1.10920 5.45128
#
# Compressibility (1/GPa) = 0.01378017
#
# Stress axis : x y z
#
# Youngs Moduli (GPa) = 86.62209 72.51821 72.48707
#
# Poissons Ratio (x) = 0.34867 0.26688
# Poissons Ratio (y) = 0.41648 0.30336
# Poissons Ratio (z) = 0.31892 0.30349
#
# Static dielectric constant tensor:
#      x y z
#    x 3.927240 0.000000 0.000000 
#    y 0.000000 4.303700 0.000000 
#    z 0.000000 0.000000 3.915290 
# 
# 
# High freq. dielectric constant tensor:
#      x y z
#    x 1.807920 0.000000 0.000000 
#    y 0.000000 1.793980 0.000000 
#    z 0.000000 0.000000 1.810790 
# 
# From -- ./inp_files/17896.got.cif
#   From: 2010.03.12/outbox.cif.g09.slc.cpg/sg35_9_cif.got.tgz:17896.got - 2010.04.14 02:02:04.
