data_PCOD8173808
_publ_section_title
;
Structure prediction by ZEFSAII (Michael W. Deem and Ramdas Pophale) SiO2 
 PCOD8173808
Probable space group: C M M 2
;
_chemical_formula_sum "Si O2"
_cell_formula_units_Z 40
_cell_length_a 8.684411
_cell_length_b 15.676621
_cell_length_c 14.285033
_cell_angle_alpha 90.000000
_cell_angle_beta 90.000000
_cell_angle_gamma 90.000000
_cell_volume 1944.796103
_symmetry_space_group_name_H-M "C M M 2"
_symmetry_group_IT_number 35
_symmetry_cell_setting 'orthorhombic'
loop_
_space_group_symop_operation_xyz
x,y,z
-x,-y,z
-x,y,z
x,-y,z
1/2+x,1/2+y,z
1/2-x,1/2-y,z
1/2-x,1/2+y,z
1/2+x,1/2-y,z
loop_
_atom_site_type_symbol
_atom_site_label
_atom_site_fract_x
_atom_site_fract_y
_atom_site_fract_z
Si Si1 0.182137 0.500000 0.613000
Si Si2 0.816737 0.158220 0.502426
Si Si3 0.683251 0.839598 0.924920
Si Si4 0.829232 0.404847 0.120860
Si Si5 0.682768 0.500000 0.817379
Si Si6 0.678784 0.662245 0.292699
O O1 0.249571 0.585043 0.567157
O O2 0.228692 0.500000 0.720109
O O3 0.000000 0.500000 0.601629
O O4 0.750000 0.250000 0.533516
O O5 0.761313 0.136820 0.396093
O O6 0.000000 0.159926 0.512287
O O7 0.500000 0.845652 0.908564
O O8 0.750000 0.750000 0.887218
O O9 0.768367 0.915124 0.871478
O O10 0.725578 0.845458 0.035363
O O11 0.828471 0.500000 0.079664
O O12 0.721041 0.404885 0.212342
O O13 0.000000 0.377872 0.153648
O O14 0.500000 0.500000 0.802004
O O15 0.500000 0.673725 0.299881
O O16 0.750000 0.750000 0.257262
#
# Coordination Sequence:
#
# PCOD8173808 Si02
#       6
#     4   8   8   8   4   8
#     4  12  26  44  69  96 125 164 205 258 322 380
#     4  10  22  42  65  94 130 167 212 262 312 371
#     4  11  23  43  67  95 129 167 210 259 314 373
#     4  10  21  37  58  88 127 168 209 257 306 362
#     4  12  26  46  69  96 125 160 207 262 318 378
#     4  10  21  36  57  86 123 165 209 256 303 361
#
# _framework density 20.567708
#
# number of rings (size 3 to 8) (size 9 to 14) (size 15 to 20)
#    0.000    1.400    1.000    4.200    1.400    6.800 
#    0.000    4.000    0.000    0.000    0.000    0.000 
#    0.000    0.000    0.000    0.000    0.000    0.000 
#
# Total GULP energy -247997.294906 kJ/mol
# GULP energy per Si atom -12399.864745 kJ/mol
# Density = 2.052089 g / cm^3
# Si number density = 20.567708 Si / 1000 Ang^3
#
#
#
# Elastic Constant Matrix: (Units=GPa)
#
#
# Indices 1 2 3 4 5 6 
#
# 1 84.9481 35.2730 26.4082 0.0000 0.0000 0.0000
# 2 35.2730 133.2394 47.4242 0.0000 0.0000 0.0000
# 3 26.4082 47.4242 91.0104 0.0000 0.0000 0.0000
# 4 0.0000 0.0000 0.0000 13.5108 0.0000 0.0000
# 5 0.0000 0.0000 0.0000 0.0000 33.9227 0.0000
# 6 0.0000 0.0000 0.0000 0.0000 0.0000 36.6923
#
#
#
# Elastic Compliance Matrix: (Units=1/GPa)
#
#
# Indices 1 2 3 4 5 6 
#
# 1 0.013695 -0.002715 -0.002559 0.000000 0.000000 0.000000
# 2 -0.002715 0.009752 -0.004294 0.000000 0.000000 0.000000
# 3 -0.002559 -0.004294 0.013968 0.000000 0.000000 0.000000
# 4 0.000000 0.000000 0.000000 0.074015 0.000000 0.000000
# 5 0.000000 0.000000 0.000000 0.000000 0.029479 0.000000
# 6 0.000000 0.000000 0.000000 0.000000 0.000000 0.027254
#
#
# Mechanical properties :
#
#
# Convention : Reuss Voigt Hill
#
# Bulk Modulus (GPa) = 54.70710 58.60097 56.65403
# Shear Modulus (GPa) = 25.85432 30.16466 28.00949
#
# Velocity S-wave (km/s) = 3.54931 3.83378 3.69429
# Velocity P-wave (km/s) = 6.59190 6.93907 6.76771
#
# Compressibility (1/GPa) = 0.01827916
#
# Stress axis : x y z
#
# Youngs Moduli (GPa) = 73.02126 102.53961 71.59239
#
# Poissons Ratio (x) = 0.27835 0.18322
# Poissons Ratio (y) = 0.19822 0.30743
# Poissons Ratio (z) = 0.18688 0.44032
#
# Static dielectric constant tensor:
#      x y z
#    x 3.806850 0.000000 0.000000 
#    y 0.000000 3.755860 0.000000 
#    z 0.000000 0.000000 3.770150 
# 
# 
# High freq. dielectric constant tensor:
#      x y z
#    x 1.811630 0.000000 0.000000 
#    y 0.000000 1.812060 0.000000 
#    z 0.000000 0.000000 1.805670 
# 
# From -- ./inp_files/14727.got.cif
#   From: 2010.03.12/outbox.cif.g09.slc.cpg/sg35_8_cif.got.tgz:14727.got - 2010.04.14 02:02:04.
