data_PCOD8173835
_publ_section_title
;
Structure prediction by ZEFSAII (Michael W. Deem and Ramdas Pophale) SiO2 
 PCOD8173835
Probable space group: C M M 2
;
_chemical_formula_sum "Si O2"
_cell_formula_units_Z 40
_cell_length_a 8.891718
_cell_length_b 14.570040
_cell_length_c 16.273936
_cell_angle_alpha 90.000000
_cell_angle_beta 90.000000
_cell_angle_gamma 90.000000
_cell_volume 2108.332136
_symmetry_space_group_name_H-M "C M M 2"
_symmetry_group_IT_number 35
_symmetry_cell_setting 'orthorhombic'
loop_
_space_group_symop_operation_xyz
x,y,z
-x,-y,z
-x,y,z
x,-y,z
1/2+x,1/2+y,z
1/2-x,1/2-y,z
1/2-x,1/2+y,z
1/2+x,1/2-y,z
loop_
_atom_site_type_symbol
_atom_site_label
_atom_site_fract_x
_atom_site_fract_y
_atom_site_fract_z
Si Si1 0.175897 0.349853 0.969480
Si Si2 0.327319 0.500000 0.270173
Si Si3 0.823453 0.000000 0.663758
Si Si4 0.826104 0.000000 0.076551
Si Si5 0.326069 0.847482 0.557372
Si Si6 0.671252 0.000000 0.834332
Si Si7 0.173429 0.347121 0.372725
O O1 0.250000 0.250000 0.960372
O O2 0.202141 0.408110 0.886687
O O3 0.000000 0.337760 0.988241
O O4 0.249087 0.407044 0.043782
O O5 0.500000 0.500000 0.296722
O O6 0.306056 0.500000 0.173443
O O7 0.249767 0.410895 0.306363
O O8 0.754444 0.910874 0.622611
O O9 0.786851 0.000000 0.759810
O O10 0.000000 0.000000 0.650444
O O11 0.000000 0.000000 0.049804
O O12 0.500000 0.839209 0.581192
O O13 0.250000 0.750000 0.564421
O O14 0.307005 0.887105 0.465019
O O15 0.500000 0.000000 0.801856
O O16 0.250000 0.250000 0.365665
O O17 0.000000 0.336862 0.349851
#
# Coordination Sequence:
#
# PCOD8173835 Si02
#       7
#     8   4   4   4   8   4   8
#     4  10  21  39  64  88 112 146 183 224 277 333
#     4  11  23  37  56  83 115 150 187 231 280 329
#     4  12  24  36  56  85 116 151 186 227 280 331
#     4  10  22  39  58  84 116 148 186 230 275 328
#     4  10  21  38  58  81 111 148 191 236 281 330
#     4   9  21  40  58  82 115 147 185 230 273 326
#     4  10  21  37  58  82 110 148 191 235 282 331
#
# _framework density 18.972342999999999
#
# number of rings (size 3 to 8) (size 9 to 14) (size 15 to 20)
#    0.000    1.800    0.000    4.500    0.000   10.400 
#    0.000    2.000    0.000    0.000    0.000    0.000 
#    0.000    0.000    0.000    0.000    0.000    0.000 
#
# Total GULP energy -248053.290177 kJ/mol
# GULP energy per Si atom -12402.664509 kJ/mol
# Density = 1.892916 g / cm^3
# Si number density = 18.972343 Si / 1000 Ang^3
#
#
#
# Elastic Constant Matrix: (Units=GPa)
#
#
# Indices 1 2 3 4 5 6 
#
# 1 175.4984 74.1535 75.3841 0.0000 0.0000 0.0000
# 2 74.1535 127.3179 53.1277 0.0000 0.0000 0.0000
# 3 75.3841 53.1277 95.4630 0.0000 0.0000 0.0000
# 4 0.0000 0.0000 0.0000 26.2034 0.0000 0.0000
# 5 0.0000 0.0000 0.0000 0.0000 33.5666 0.0000
# 6 0.0000 0.0000 0.0000 0.0000 0.0000 41.1215
#
#
#
# Elastic Compliance Matrix: (Units=1/GPa)
#
#
# Indices 1 2 3 4 5 6 
#
# 1 0.009491 -0.003126 -0.005755 0.000000 0.000000 0.000000
# 2 -0.003126 0.011260 -0.003798 0.000000 0.000000 0.000000
# 3 -0.005755 -0.003798 0.017133 0.000000 0.000000 0.000000
# 4 0.000000 0.000000 0.000000 0.038163 0.000000 0.000000
# 5 0.000000 0.000000 0.000000 0.000000 0.029791 0.000000
# 6 0.000000 0.000000 0.000000 0.000000 0.000000 0.024318
#
#
# Mechanical properties :
#
#
# Convention : Reuss Voigt Hill
#
# Bulk Modulus (GPa) = 79.83155 89.28998 84.56077
# Shear Modulus (GPa) = 31.31069 33.21925 32.26497
#
# Velocity S-wave (km/s) = 4.06684 4.18895 4.12835
# Velocity P-wave (km/s) = 8.01383 8.40011 8.20924
#
# Compressibility (1/GPa) = 0.01252638
#
# Stress axis : x y z
#
# Youngs Moduli (GPa) = 105.36287 88.81021 58.36651
#
# Poissons Ratio (x) = 0.27766 0.33589
# Poissons Ratio (y) = 0.32941 0.22165
# Poissons Ratio (z) = 0.60634 0.33727
#
# Static dielectric constant tensor:
#      x y z
#    x 3.702890 0.000000 0.000000 
#    y 0.000000 3.496650 0.000000 
#    z 0.000000 0.000000 3.461830 
# 
# 
# High freq. dielectric constant tensor:
#      x y z
#    x 1.757410 0.000000 0.000000 
#    y 0.000000 1.746480 0.000000 
#    z 0.000000 0.000000 1.735240 
# 
# From -- ./inp_files/14835.got.cif
#   From: 2010.03.12/outbox.cif.g09.slc.cpg/sg35_8_cif.got.tgz:14835.got - 2010.04.14 02:02:04.
