data_PCOD8173347
_publ_section_title
;
Structure prediction by ZEFSAII (Michael W. Deem and Ramdas Pophale) SiO2 
 PCOD8173347
Probable space group: C M M 2
;
_chemical_formula_sum "Si O2"
_cell_formula_units_Z 64
_cell_length_a 27.785851
_cell_length_b 9.460923
_cell_length_c 12.246564
_cell_angle_alpha 90.000000
_cell_angle_beta 90.000000
_cell_angle_gamma 90.000000
_cell_volume 3219.374256
_symmetry_space_group_name_H-M "C M M 2"
_symmetry_group_IT_number 35
_symmetry_cell_setting 'orthorhombic'
loop_
_space_group_symop_operation_xyz
x,y,z
-x,-y,z
-x,y,z
x,-y,z
1/2+x,1/2+y,z
1/2-x,1/2-y,z
1/2-x,1/2+y,z
1/2+x,1/2-y,z
loop_
_atom_site_type_symbol
_atom_site_label
_atom_site_fract_x
_atom_site_fract_y
_atom_site_fract_z
Si Si1 0.846605 0.665163 0.886430
Si Si2 0.705704 0.658368 0.465235
Si Si3 0.866874 0.162180 0.269071
Si Si4 0.446491 0.744002 0.625475
Si Si5 0.444494 0.841342 0.382132
Si Si6 0.949433 0.342749 0.858998
Si Si7 0.844740 0.156507 0.680448
Si Si8 0.200879 0.332016 0.112859
O O1 0.850418 0.500000 0.858411
O O2 0.901047 0.725857 0.910785
O O3 0.828019 0.745064 0.779789
O O4 0.810667 0.692684 0.985681
O O5 0.724415 0.500000 0.482562
O O6 0.750000 0.750000 0.423823
O O7 0.665338 0.664151 0.375143
O O8 0.683456 0.719456 0.576638
O O9 0.917486 0.229242 0.305072
O O10 0.842872 0.261020 0.177634
O O11 0.873995 0.000000 0.227355
O O12 0.500000 0.669444 0.620192
O O13 0.435902 0.820303 0.511205
O O14 0.445861 0.852617 0.726914
O O15 0.401758 0.641030 0.652075
O O16 0.500000 0.821620 0.352777
O O17 0.426934 0.000000 0.353875
O O18 0.953117 0.500000 0.905206
O O19 0.000000 0.262964 0.891845
O O20 0.826680 0.000000 0.709185
O O21 0.205574 0.500000 0.140070
O O22 0.250000 0.250000 0.142084
#
# Coordination Sequence:
#
# PCOD8173347 Si02
#       8
#     8   8   8   8   8   8   8   8
#     4   9  20  37  57  83 113 146 189 237 289 348
#     4  10  22  38  54  79 111 146 187 234 289 349
#     4  11  23  41  62  85 117 153 196 245 296 351
#     4   9  16  28  49  79 117 157 193 230 275 333
#     4  10  20  34  56  88 123 159 199 240 286 345
#     4   8  13  25  48  78 111 146 183 223 270 326
#     4  10  20  35  53  81 119 152 188 234 288 349
#     4  11  24  43  65  88 112 144 196 253 305 360
#
# _framework density 19.879639000000001
#
# number of rings (size 3 to 8) (size 9 to 14) (size 15 to 20)
#    0.000    2.250    1.250    1.500    0.000    6.500 
#    0.000    4.375    0.000    2.250    0.000    1.750 
#    0.000    0.000    0.000    0.000    0.000    0.000 
#
# Total GULP energy -396439.614660 kJ/mol
# GULP energy per Si atom -12388.737958 kJ/mol
# Density = 1.983439 g / cm^3
# Si number density = 19.879639 Si / 1000 Ang^3
#
#
#
# Elastic Constant Matrix: (Units=GPa)
#
#
# Indices 1 2 3 4 5 6 
#
# 1 68.3335 35.7552 17.6943 0.0000 0.0000 0.0000
# 2 35.7552 100.3268 38.9499 0.0000 0.0000 0.0000
# 3 17.6943 38.9499 62.2580 0.0000 0.0000 0.0000
# 4 0.0000 0.0000 0.0000 19.9000 0.0000 0.0000
# 5 0.0000 0.0000 0.0000 0.0000 15.6675 0.0000
# 6 0.0000 0.0000 0.0000 0.0000 0.0000 28.5348
#
#
#
# Elastic Compliance Matrix: (Units=1/GPa)
#
#
# Indices 1 2 3 4 5 6 
#
# 1 0.018089 -0.005879 -0.001463 0.000000 0.000000 0.000000
# 2 -0.005879 0.015075 -0.007761 0.000000 0.000000 0.000000
# 3 -0.001463 -0.007761 0.021333 0.000000 0.000000 0.000000
# 4 0.000000 0.000000 0.000000 0.050251 0.000000 0.000000
# 5 0.000000 0.000000 0.000000 0.000000 0.063827 0.000000
# 6 0.000000 0.000000 0.000000 0.000000 0.000000 0.035045
#
#
# Mechanical properties :
#
#
# Convention : Reuss Voigt Hill
#
# Bulk Modulus (GPa) = 41.16495 46.19078 43.67787
# Shear Modulus (GPa) = 20.66771 22.05504 21.36138
#
# Velocity S-wave (km/s) = 3.22785 3.33442 3.28157
# Velocity P-wave (km/s) = 5.88592 6.17334 6.03134
#
# Compressibility (1/GPa) = 0.02429251
#
# Stress axis : x y z
#
# Youngs Moduli (GPa) = 55.28233 66.33300 46.87495
#
# Poissons Ratio (x) = 0.38994 0.06859
# Poissons Ratio (y) = 0.32498 0.36379
# Poissons Ratio (z) = 0.08089 0.51480
#
# Static dielectric constant tensor:
#      x y z
#    x 3.867500 0.000000 0.000000 
#    y 0.000000 3.611370 0.000000 
#    z 0.000000 0.000000 3.440810 
# 
# 
# High freq. dielectric constant tensor:
#      x y z
#    x 1.784420 0.000000 0.000000 
#    y 0.000000 1.755910 0.000000 
#    z 0.000000 0.000000 1.757610 
# 
# From -- ./inp_files/14580.got.cif
#   From: 2010.03.12/outbox.cif.g09.slc.cpg/sg35_8_cif.got.tgz:14580.got - 2010.04.14 02:02:04.
