data_PCOD8173065
_publ_section_title
;
Structure prediction by ZEFSAII (Michael W. Deem and Ramdas Pophale) SiO2 
 PCOD8173065
Probable space group: C M M 2
;
_chemical_formula_sum "Si O2"
_cell_formula_units_Z 56
_cell_length_a 19.142287
_cell_length_b 9.304121
_cell_length_c 17.691215
_cell_angle_alpha 90.000000
_cell_angle_beta 90.000000
_cell_angle_gamma 90.000000
_cell_volume 3150.843507
_symmetry_space_group_name_H-M "C M M 2"
_symmetry_group_IT_number 35
_symmetry_cell_setting 'orthorhombic'
loop_
_space_group_symop_operation_xyz
x,y,z
-x,-y,z
-x,y,z
x,-y,z
1/2+x,1/2+y,z
1/2-x,1/2-y,z
1/2-x,1/2+y,z
1/2+x,1/2-y,z
loop_
_atom_site_type_symbol
_atom_site_label
_atom_site_fract_x
_atom_site_fract_y
_atom_site_fract_z
Si Si1 0.323277 0.829888 0.799010
Si Si2 0.920254 0.832647 0.511783
Si Si3 0.419968 0.167627 0.658834
Si Si4 0.422489 0.169941 0.931059
Si Si5 0.181485 0.833204 0.381116
Si Si6 0.179678 0.168713 0.208764
Si Si7 0.082222 0.662815 0.101102
O O1 0.250000 0.750000 0.793401
O O2 0.370538 0.787387 0.727608
O O3 0.364889 0.771549 0.872551
O O4 0.309959 0.000000 0.803121
O O5 0.891791 0.749153 0.584845
O O6 0.879992 0.783470 0.436628
O O7 0.000000 0.791383 0.496494
O O8 0.910079 0.000000 0.528183
O O9 0.500000 0.211752 0.678016
O O10 0.414891 0.000000 0.641949
O O11 0.500000 0.234440 0.913869
O O12 0.428232 0.000000 0.922644
O O13 0.398527 0.210386 0.015743
O O14 0.250000 0.750000 0.406516
O O15 0.159828 0.795924 0.295397
O O16 0.198256 0.000000 0.389626
O O17 0.250000 0.250000 0.184807
O O18 0.117073 0.225788 0.157839
O O19 0.190082 0.000000 0.195171
O O20 0.108400 0.500000 0.116608
O O21 0.000000 0.671703 0.113462
#
# Coordination Sequence:
#
# PCOD8173065 Si02
#       7
#     8   8   8   8   8   8   8
#     4  10  20  33  50  73 100 128 160 199 240 284
#     4   9  18  33  52  73  97 125 158 197 242 289
#     4   9  18  33  52  72  94 124 163 201 236 280
#     4   8  15  31  54  74  94 127 167 201 237 285
#     4   9  19  34  51  71  96 129 165 200 240 289
#     4  10  20  34  52  73 100 134 170 207 248 296
#     4   9  18  33  53  77 103 130 164 206 250 297
#
# _framework density 17.773019999999999
#
# number of rings (size 3 to 8) (size 9 to 14) (size 15 to 20)
#    0.000    2.857    0.000    1.714    0.000    5.429 
#    0.000    6.429    0.000    3.857    0.000    0.000 
#    0.000    0.000    0.000    0.000    0.000    0.000 
#
# Total GULP energy -347184.211565 kJ/mol
# GULP energy per Si atom -12399.436127 kJ/mol
# Density = 1.773257 g / cm^3
# Si number density = 17.773020 Si / 1000 Ang^3
#
#
#
# Elastic Constant Matrix: (Units=GPa)
#
#
# Indices 1 2 3 4 5 6 
#
# 1 101.4560 44.3200 80.8181 0.0000 0.0000 0.0000
# 2 44.3200 50.2529 50.9272 0.0000 0.0000 0.0000
# 3 80.8181 50.9272 132.9567 0.0000 0.0000 0.0000
# 4 0.0000 0.0000 0.0000 26.6401 0.0000 0.0000
# 5 0.0000 0.0000 0.0000 0.0000 22.7853 0.0000
# 6 0.0000 0.0000 0.0000 0.0000 0.0000 30.4731
#
#
#
# Elastic Compliance Matrix: (Units=1/GPa)
#
#
# Indices 1 2 3 4 5 6 
#
# 1 0.021495 -0.009343 -0.009487 0.000000 0.000000 0.000000
# 2 -0.009343 0.036586 -0.008334 0.000000 0.000000 0.000000
# 3 -0.009487 -0.008334 0.016481 0.000000 0.000000 0.000000
# 4 0.000000 0.000000 0.000000 0.037537 0.000000 0.000000
# 5 0.000000 0.000000 0.000000 0.000000 0.043888 0.000000
# 6 0.000000 0.000000 0.000000 0.000000 0.000000 0.032816
#
#
# Mechanical properties :
#
#
# Convention : Reuss Voigt Hill
#
# Bulk Modulus (GPa) = 49.42668 70.75512 60.09090
# Shear Modulus (GPa) = 20.00995 23.21972 21.61484
#
# Velocity S-wave (km/s) = 3.35903 3.61842 3.49113
# Velocity P-wave (km/s) = 6.55091 7.57325 7.08055
#
# Compressibility (1/GPa) = 0.02023199
#
# Stress axis : x y z
#
# Youngs Moduli (GPa) = 46.52201 27.33321 60.67777
#
# Poissons Ratio (x) = 0.25537 0.57566
# Poissons Ratio (y) = 0.43465 0.50572
# Poissons Ratio (z) = 0.44137 0.22781
#
# Static dielectric constant tensor:
#      x y z
#    x 3.364480 0.000000 0.000000 
#    y 0.000000 3.121650 0.000000 
#    z 0.000000 0.000000 3.512920 
# 
# 
# High freq. dielectric constant tensor:
#      x y z
#    x 1.684740 0.000000 0.000000 
#    y 0.000000 1.668880 0.000000 
#    z 0.000000 0.000000 1.696740 
# 
# From -- ./inp_files/15606.got.cif
#   From: 2010.03.12/outbox.cif.g09.slc.cpg/sg35_8_cif.got.tgz:15606.got - 2010.04.14 02:02:04.
