data_PCOD8173514
_publ_section_title
;
Structure prediction by ZEFSAII (Michael W. Deem and Ramdas Pophale) SiO2 
 PCOD8173514
Probable space group: C M M 2
;
_chemical_formula_sum "Si O2"
_cell_formula_units_Z 48
_cell_length_a 31.340925
_cell_length_b 8.789157
_cell_length_c 9.723932
_cell_angle_alpha 90.000000
_cell_angle_beta 90.000000
_cell_angle_gamma 90.000000
_cell_volume 2678.557327
_symmetry_space_group_name_H-M "C M M 2"
_symmetry_group_IT_number 35
_symmetry_cell_setting 'orthorhombic'
loop_
_space_group_symop_operation_xyz
x,y,z
-x,-y,z
-x,y,z
x,-y,z
1/2+x,1/2+y,z
1/2-x,1/2-y,z
1/2-x,1/2+y,z
1/2+x,1/2-y,z
loop_
_atom_site_type_symbol
_atom_site_label
_atom_site_fract_x
_atom_site_fract_y
_atom_site_fract_z
Si Si1 0.046230 0.176721 0.412390
Si Si2 0.045625 0.327234 0.698573
Si Si3 0.362444 0.825212 0.727153
Si Si4 0.205422 0.179518 0.916408
Si Si5 0.204988 0.681503 0.208303
Si Si6 0.368522 0.177207 0.407163
O O1 0.045246 0.210367 0.574079
O O2 0.086880 0.259705 0.345364
O O3 0.000000 0.227774 0.348924
O O4 0.053000 0.000000 0.389059
O O5 0.049078 0.500000 0.638987
O O6 0.088970 0.299041 0.786301
O O7 0.000000 0.308988 0.780683
O O8 0.330807 0.713254 0.804895
O O9 0.361711 0.779446 0.566437
O O10 0.347977 0.000000 0.748550
O O11 0.250000 0.250000 0.864051
O O12 0.210795 0.000000 0.935702
O O13 0.191719 0.255756 0.059435
O O14 0.208070 0.500000 0.202310
O O15 0.250000 0.750000 0.255545
O O16 0.170513 0.742328 0.317881
O O17 0.370460 0.000000 0.386025
#
# Coordination Sequence:
#
# PCOD8173514 Si02
#       6
#     8   8   8   8   8   8
#     4   9  16  25  41  68 100 131 162 197 237 281
#     4   8  14  26  45  68  96 130 163 195 235 284
#     4   9  17  31  50  75 104 129 159 201 242 281
#     4  11  22  36  53  72  95 128 166 200 241 292
#     4  10  20  36  55  74  96 125 162 201 243 292
#     4   9  19  33  51  75 101 129 162 200 242 288
#
# _framework density 17.920095
#
# number of rings (size 3 to 8) (size 9 to 14) (size 15 to 20)
#    0.000    2.667    0.000    4.500    0.000    5.667 
#    0.000    1.667    0.000    1.000    0.000    2.333 
#    0.000    0.000    0.000    0.000    0.000    0.000 
#
# Total GULP energy -297349.672460 kJ/mol
# GULP energy per Si atom -12389.569686 kJ/mol
# Density = 1.787931 g / cm^3
# Si number density = 17.920095 Si / 1000 Ang^3
#
#
#
# Elastic Constant Matrix: (Units=GPa)
#
#
# Indices 1 2 3 4 5 6 
#
# 1 177.5943 47.7080 65.1404 0.0000 0.0000 0.0000
# 2 47.7080 58.8130 25.0804 0.0000 0.0000 0.0000
# 3 65.1404 25.0804 48.4025 0.0000 0.0000 0.0000
# 4 0.0000 0.0000 0.0000 20.1390 0.0000 0.0000
# 5 0.0000 0.0000 0.0000 0.0000 3.8672 0.0000
# 6 0.0000 0.0000 0.0000 0.0000 0.0000 31.4430
#
#
#
# Elastic Compliance Matrix: (Units=1/GPa)
#
#
# Indices 1 2 3 4 5 6 
#
# 1 0.011672 -0.003555 -0.013866 0.000000 0.000000 0.000000
# 2 -0.003555 0.022909 -0.007086 0.000000 0.000000 0.000000
# 3 -0.013866 -0.007086 0.042993 0.000000 0.000000 0.000000
# 4 0.000000 0.000000 0.000000 0.049655 0.000000 0.000000
# 5 0.000000 0.000000 0.000000 0.000000 0.258584 0.000000
# 6 0.000000 0.000000 0.000000 0.000000 0.000000 0.031804
#
#
# Mechanical properties :
#
#
# Convention : Reuss Voigt Hill
#
# Bulk Modulus (GPa) = 35.01521 62.29639 48.65580
# Shear Modulus (GPa) = 10.50092 20.88192 15.69142
#
# Velocity S-wave (km/s) = 2.42334 3.41732 2.96232
# Velocity P-wave (km/s) = 5.23566 7.09998 6.23786
#
# Compressibility (1/GPa) = 0.02855902
#
# Stress axis : x y z
#
# Youngs Moduli (GPa) = 85.67774 43.65183 23.25982
#
# Poissons Ratio (x) = 0.15518 0.32252
# Poissons Ratio (y) = 0.30457 0.16483
# Poissons Ratio (z) = 1.18799 0.30933
#
# Static dielectric constant tensor:
#      x y z
#    x 3.925210 0.000000 0.000000 
#    y 0.000000 3.255710 0.000000 
#    z 0.000000 0.000000 2.932040 
# 
# 
# High freq. dielectric constant tensor:
#      x y z
#    x 1.721870 0.000000 0.000000 
#    y 0.000000 1.695100 0.000000 
#    z 0.000000 0.000000 1.634560 
# 
# From -- ./inp_files/11477.got.cif
#   From: 2010.03.12/outbox.cif.g09.slc.cpg/sg35_6_cif.got.tgz:11477.got - 2010.04.14 02:02:04.
