data_PCOD8173880
_publ_section_title
;
Structure prediction by ZEFSAII (Michael W. Deem and Ramdas Pophale) SiO2 
 PCOD8173880
Probable space group: C M M 2
;
_chemical_formula_sum "Si O2"
_cell_formula_units_Z 64
_cell_length_a 23.078794
_cell_length_b 15.129310
_cell_length_c 9.236132
_cell_angle_alpha 90.000000
_cell_angle_beta 90.000000
_cell_angle_gamma 90.000000
_cell_volume 3224.945380
_symmetry_space_group_name_H-M "C M M 2"
_symmetry_group_IT_number 35
_symmetry_cell_setting 'orthorhombic'
loop_
_space_group_symop_operation_xyz
x,y,z
-x,-y,z
-x,y,z
x,-y,z
1/2+x,1/2+y,z
1/2-x,1/2-y,z
1/2-x,1/2+y,z
1/2+x,1/2-y,z
loop_
_atom_site_type_symbol
_atom_site_label
_atom_site_fract_x
_atom_site_fract_y
_atom_site_fract_z
Si Si1 0.246663 0.351766 0.204390
Si Si2 0.144419 0.902128 0.386528
Si Si3 0.432048 0.758476 0.441221
Si Si4 0.563028 0.901917 0.960341
Si Si5 0.219107 0.400277 0.879137
Si Si6 0.378417 0.901545 0.250658
Si Si7 0.163061 0.096894 0.716885
Si Si8 0.117561 0.719722 0.752544
O O1 0.250000 0.250000 0.240549
O O2 0.304394 0.395641 0.268464
O O3 0.189251 0.387401 0.285816
O O4 0.242373 0.368307 0.033935
O O5 0.093563 0.830138 0.366352
O O6 0.170284 0.888570 0.545950
O O7 0.116905 0.000000 0.369805
O O8 0.500000 0.744071 0.473596
O O9 0.422577 0.837361 0.330071
O O10 0.396894 0.787643 0.583615
O O11 0.500000 0.894986 0.035466
O O12 0.613504 0.886574 0.078064
O O13 0.570146 0.000000 0.890216
O O14 0.565160 0.824474 0.840833
O O15 0.193470 0.500000 0.892836
O O16 0.272576 0.399130 0.772850
O O17 0.173663 0.335342 0.802751
O O18 0.396861 0.000000 0.295290
O O19 0.124900 0.175588 0.788586
O O20 0.134848 0.000000 0.751417
#
# Coordination Sequence:
#
# PCOD8173880 Si02
#       8
#     8   8   8   8   8   8   8   8
#     4  12  22  37  62  93 125 160 197 250 307 370
#     4  10  22  41  63  88 119 157 202 254 311 364
#     4  11  25  42  61  89 121 161 213 257 303 364
#     4  10  21  38  59  83 115 158 204 247 297 362
#     4  11  22  36  56  89 126 157 195 242 301 370
#     4  11  23  40  60  86 123 160 199 250 307 366
#     4   9  21  37  56  83 118 154 193 246 306 363
#     4  11  21  37  60  84 118 157 203 252 301 360
#
# _framework density 19.845296000000001
#
# number of rings (size 3 to 8) (size 9 to 14) (size 15 to 20)
#    0.000    1.375    2.500    3.375    1.750    2.000 
#    0.000    0.000    0.000    1.125    0.000    0.000 
#    0.000    0.000    0.000    0.000    0.000    0.000 
#
# Total GULP energy -396643.806121 kJ/mol
# GULP energy per Si atom -12395.118941 kJ/mol
# Density = 1.980013 g / cm^3
# Si number density = 19.845296 Si / 1000 Ang^3
#
#
#
# Elastic Constant Matrix: (Units=GPa)
#
#
# Indices 1 2 3 4 5 6 
#
# 1 90.3788 49.1864 37.2516 0.0000 0.0000 0.0000
# 2 49.1864 170.6280 53.4794 0.0000 0.0000 0.0000
# 3 37.2516 53.4794 64.8985 0.0000 0.0000 0.0000
# 4 0.0000 0.0000 0.0000 28.5140 0.0000 0.0000
# 5 0.0000 0.0000 0.0000 0.0000 28.7792 0.0000
# 6 0.0000 0.0000 0.0000 0.0000 0.0000 21.0778
#
#
#
# Elastic Compliance Matrix: (Units=1/GPa)
#
#
# Indices 1 2 3 4 5 6 
#
# 1 0.015084 -0.002204 -0.006842 0.000000 0.000000 0.000000
# 2 -0.002204 0.008223 -0.005512 0.000000 0.000000 0.000000
# 3 -0.006842 -0.005512 0.023878 0.000000 0.000000 0.000000
# 4 0.000000 0.000000 0.000000 0.035071 0.000000 0.000000
# 5 0.000000 0.000000 0.000000 0.000000 0.034747 0.000000
# 6 0.000000 0.000000 0.000000 0.000000 0.000000 0.047443
#
#
# Mechanical properties :
#
#
# Convention : Reuss Voigt Hill
#
# Bulk Modulus (GPa) = 55.33938 67.30449 61.32193
# Shear Modulus (GPa) = 25.05200 28.07340 26.56270
#
# Velocity S-wave (km/s) = 3.55683 3.76521 3.66250
# Velocity P-wave (km/s) = 6.69433 7.27260 6.98944
#
# Compressibility (1/GPa) = 0.01807032
#
# Stress axis : x y z
#
# Youngs Moduli (GPa) = 66.29530 121.60383 41.87972
#
# Poissons Ratio (x) = 0.26798 0.28655
# Poissons Ratio (y) = 0.14609 0.23082
# Poissons Ratio (z) = 0.45361 0.67023
#
# Static dielectric constant tensor:
#      x y z
#    x 3.523700 0.000000 0.000000 
#    y 0.000000 4.068990 0.000000 
#    z 0.000000 0.000000 3.517870 
# 
# 
# High freq. dielectric constant tensor:
#      x y z
#    x 1.765460 0.000000 0.000000 
#    y 0.000000 1.792860 0.000000 
#    z 0.000000 0.000000 1.763030 
# 
# From -- ./inp_files/7872.got.cif
#   From: 2010.03.12/outbox.cif.g09.slc.cpg/sg35_4_cif.got.tgz:7872.got - 2010.04.14 02:02:04.
