data_PCOD8173610
_publ_section_title
;
Structure prediction by ZEFSAII (Michael W. Deem and Ramdas Pophale) SiO2 
 PCOD8173610
Probable space group: C M M 2
;
_chemical_formula_sum "Si O2"
_cell_formula_units_Z 56
_cell_length_a 8.770598
_cell_length_b 20.290279
_cell_length_c 14.648398
_cell_angle_alpha 90.000000
_cell_angle_beta 90.000000
_cell_angle_gamma 90.000000
_cell_volume 2606.797860
_symmetry_space_group_name_H-M "C M M 2"
_symmetry_group_IT_number 35
_symmetry_cell_setting 'orthorhombic'
loop_
_space_group_symop_operation_xyz
x,y,z
-x,-y,z
-x,y,z
x,-y,z
1/2+x,1/2+y,z
1/2-x,1/2-y,z
1/2-x,1/2+y,z
1/2+x,1/2-y,z
loop_
_atom_site_type_symbol
_atom_site_label
_atom_site_fract_x
_atom_site_fract_y
_atom_site_fract_z
Si Si1 0.819323 0.000000 0.054660
Si Si2 0.680528 0.576962 0.612065
Si Si3 0.679655 0.678902 0.767818
Si Si4 0.824381 0.136297 0.307995
Si Si5 0.180482 0.135082 0.967324
Si Si6 0.672904 0.500000 0.257199
Si Si7 0.679667 0.184994 0.140142
Si Si8 0.179176 0.682193 0.482818
O O1 0.742939 0.000000 0.156677
O O2 0.763131 0.937569 0.995427
O O3 0.000000 0.000000 0.056854
O O4 0.500000 0.577650 0.599875
O O5 0.736685 0.500000 0.619352
O O6 0.730992 0.619979 0.700149
O O7 0.753378 0.615646 0.526895
O O8 0.500000 0.688115 0.764782
O O9 0.750000 0.750000 0.741533
O O10 0.736214 0.654571 0.866656
O O11 0.799679 0.059340 0.328485
O O12 0.762173 0.131849 0.203711
O O13 0.721903 0.179762 0.375637
O O14 0.000000 0.159681 0.314574
O O15 0.000000 0.143928 0.977801
O O16 0.266389 0.183836 0.035852
O O17 0.500000 0.500000 0.223038
O O18 0.500000 0.181362 0.148718
O O19 0.750000 0.250000 0.186156
O O20 0.250000 0.750000 0.524503
O O21 0.000000 0.684904 0.497707
#
# Coordination Sequence:
#
# PCOD8173610 Si02
#       8
#     4   8   8   8   8   4   8   8
#     4   9  16  32  58  87 118 159 209 254 302 364
#     4  10  23  44  69  99 131 166 210 261 319 385
#     4  10  22  39  64  95 126 165 212 264 317 376
#     4  11  22  40  64  92 124 163 208 258 314 376
#     4  10  20  36  60  89 122 163 210 258 309 370
#     4   9  18  34  60  89 118 161 209 252 306 368
#     4  12  24  38  56  83 120 163 208 259 310 369
#     4  12  26  45  68  97 129 168 213 262 321 383
#
# _framework density 21.482292999999999
#
# number of rings (size 3 to 8) (size 9 to 14) (size 15 to 20)
#    0.000    1.429    1.429    4.286    2.000    3.714 
#    0.000    2.143    0.000    0.000    0.000    0.000 
#    0.000    0.000    0.000    0.000    0.000    0.000 
#
# Total GULP energy -346963.948266 kJ/mol
# GULP energy per Si atom -12391.569581 kJ/mol
# Density = 2.143340 g / cm^3
# Si number density = 21.482293 Si / 1000 Ang^3
#
#
#
# Elastic Constant Matrix: (Units=GPa)
#
#
# Indices 1 2 3 4 5 6 
#
# 1 67.9426 40.8509 28.9307 0.0000 0.0000 0.0000
# 2 40.8509 147.7157 40.9899 0.0000 0.0000 0.0000
# 3 28.9307 40.9899 104.7471 0.0000 0.0000 0.0000
# 4 0.0000 0.0000 0.0000 48.9209 0.0000 0.0000
# 5 0.0000 0.0000 0.0000 0.0000 26.9827 0.0000
# 6 0.0000 0.0000 0.0000 0.0000 0.0000 27.2784
#
#
#
# Elastic Compliance Matrix: (Units=1/GPa)
#
#
# Indices 1 2 3 4 5 6 
#
# 1 0.018751 -0.004205 -0.003533 0.000000 0.000000 0.000000
# 2 -0.004205 0.008537 -0.002179 0.000000 0.000000 0.000000
# 3 -0.003533 -0.002179 0.011376 0.000000 0.000000 0.000000
# 4 0.000000 0.000000 0.000000 0.020441 0.000000 0.000000
# 5 0.000000 0.000000 0.000000 0.000000 0.037061 0.000000
# 6 0.000000 0.000000 0.000000 0.000000 0.000000 0.036659
#
#
# Mechanical properties :
#
#
# Convention : Reuss Voigt Hill
#
# Bulk Modulus (GPa) = 53.11179 60.21646 56.66413
# Shear Modulus (GPa) = 31.45890 34.61199 33.03545
#
# Velocity S-wave (km/s) = 3.83091 4.01831 3.92573
# Velocity P-wave (km/s) = 6.65921 7.04420 6.85441
#
# Compressibility (1/GPa) = 0.01882821
#
# Stress axis : x y z
#
# Youngs Moduli (GPa) = 53.32971 117.13052 87.90751
#
# Poissons Ratio (x) = 0.49255 0.31062
# Poissons Ratio (y) = 0.22426 0.19159
# Poissons Ratio (z) = 0.18844 0.25528
#
# Static dielectric constant tensor:
#      x y z
#    x 3.476080 0.000000 0.000000 
#    y 0.000000 4.329660 0.000000 
#    z 0.000000 0.000000 3.860040 
# 
# 
# High freq. dielectric constant tensor:
#      x y z
#    x 1.812380 0.000000 0.000000 
#    y 0.000000 1.865600 0.000000 
#    z 0.000000 0.000000 1.845880 
# 
# From -- ./inp_files/15794.got.cif
#   From: 2010.03.12/outbox.cif.g09.slc.cpg/sg35_8_cif.got.tgz:15794.got - 2010.04.14 02:02:04.
