data_PCOD8173586
_publ_section_title
;
Structure prediction by ZEFSAII (Michael W. Deem and Ramdas Pophale) SiO2 
 PCOD8173586
Probable space group: C M M 2
;
_chemical_formula_sum "Si O2"
_cell_formula_units_Z 48
_cell_length_a 9.012484
_cell_length_b 28.015191
_cell_length_c 10.008336
_cell_angle_alpha 90.000000
_cell_angle_beta 90.000000
_cell_angle_gamma 90.000000
_cell_volume 2526.969334
_symmetry_space_group_name_H-M "C M M 2"
_symmetry_group_IT_number 35
_symmetry_cell_setting 'orthorhombic'
loop_
_space_group_symop_operation_xyz
x,y,z
-x,-y,z
-x,y,z
x,-y,z
1/2+x,1/2+y,z
1/2-x,1/2-y,z
1/2-x,1/2+y,z
1/2+x,1/2-y,z
loop_
_atom_site_type_symbol
_atom_site_label
_atom_site_fract_x
_atom_site_fract_y
_atom_site_fract_z
Si Si1 0.671381 0.701955 0.040190
Si Si2 0.172425 0.446046 0.859310
Si Si3 0.671227 0.643879 0.777477
Si Si4 0.173360 0.700347 0.547189
Si Si5 0.175894 0.551561 0.162898
Si Si6 0.173059 0.350483 0.275328
O O1 0.500000 0.713200 0.064304
O O2 0.750000 0.750000 0.990747
O O3 0.739992 0.685162 0.179491
O O4 0.695314 0.661918 0.928133
O O5 0.199685 0.500000 0.807789
O O6 0.264888 0.409749 0.767010
O O7 0.000000 0.432418 0.848030
O O8 0.229794 0.440864 0.011129
O O9 0.500000 0.643844 0.735218
O O10 0.759241 0.678998 0.681125
O O11 0.250000 0.750000 0.510742
O O12 0.203982 0.663385 0.427583
O O13 0.000000 0.709498 0.569171
O O14 0.236741 0.500000 0.215834
O O15 0.232452 0.595183 0.254725
O O16 0.000000 0.549604 0.162962
O O17 0.000000 0.346683 0.238665
#
# Coordination Sequence:
#
# PCOD8173586 Si02
#       6
#     8   8   8   8   8   8
#     4  11  23  36  54  81 109 141 185 235 286 338
#     4   9  17  32  58  88 116 149 188 232 282 335
#     4  11  23  38  57  83 114 152 191 233 286 339
#     4  11  24  40  58  81 111 152 195 236 287 345
#     4   8  14  28  54  86 115 144 180 224 275 327
#     4  10  20  36  59  85 113 147 186 232 285 335
#
# _framework density 18.995086000000001
#
# number of rings (size 3 to 8) (size 9 to 14) (size 15 to 20)
#    0.000    2.000    1.667    3.500    0.000    6.333 
#    0.000    0.833    0.000    3.500    0.000    0.000 
#    0.000    0.000    0.000    0.000    0.000    0.000 
#
# Total GULP energy -297617.813266 kJ/mol
# GULP energy per Si atom -12400.742219 kJ/mol
# Density = 1.895185 g / cm^3
# Si number density = 18.995086 Si / 1000 Ang^3
#
#
#
# Elastic Constant Matrix: (Units=GPa)
#
#
# Indices 1 2 3 4 5 6 
#
# 1 89.1810 46.0280 36.0897 0.0000 0.0000 0.0000
# 2 46.0280 131.3275 21.9667 0.0000 0.0000 0.0000
# 3 36.0897 21.9667 54.8176 0.0000 0.0000 0.0000
# 4 0.0000 0.0000 0.0000 30.0985 0.0000 0.0000
# 5 0.0000 0.0000 0.0000 0.0000 22.8938 0.0000
# 6 0.0000 0.0000 0.0000 0.0000 0.0000 30.0218
#
#
#
# Elastic Compliance Matrix: (Units=1/GPa)
#
#
# Indices 1 2 3 4 5 6 
#
# 1 0.017455 -0.004497 -0.009690 0.000000 0.000000 0.000000
# 2 -0.004497 0.009320 -0.000774 0.000000 0.000000 0.000000
# 3 -0.009690 -0.000774 0.024932 0.000000 0.000000 0.000000
# 4 0.000000 0.000000 0.000000 0.033224 0.000000 0.000000
# 5 0.000000 0.000000 0.000000 0.000000 0.043680 0.000000
# 6 0.000000 0.000000 0.000000 0.000000 0.000000 0.033309
#
#
# Mechanical properties :
#
#
# Convention : Reuss Voigt Hill
#
# Bulk Modulus (GPa) = 45.90220 53.72164 49.81192
# Shear Modulus (GPa) = 25.11238 28.01892 26.56565
#
# Velocity S-wave (km/s) = 3.63994 3.84482 3.74378
# Velocity P-wave (km/s) = 6.47173 6.93206 6.70585
#
# Compressibility (1/GPa) = 0.02178545
#
# Stress axis : x y z
#
# Youngs Moduli (GPa) = 57.28871 107.29412 40.10913
#
# Poissons Ratio (x) = 0.48251 0.38865
# Poissons Ratio (y) = 0.25763 0.03105
# Poissons Ratio (z) = 0.55512 0.08306
#
# Static dielectric constant tensor:
#      x y z
#    x 3.341250 0.000000 0.000000 
#    y 0.000000 3.958850 0.000000 
#    z 0.000000 0.000000 3.216440 
# 
# 
# High freq. dielectric constant tensor:
#      x y z
#    x 1.724400 0.000000 0.000000 
#    y 0.000000 1.756700 0.000000 
#    z 0.000000 0.000000 1.715930 
# 
# From -- ./inp_files/5310.got.cif
#   From: 2010.03.12/outbox.cif.g09.slc.cpg/sg35_3_cif.got.tgz:5310.got - 2010.04.14 02:02:04.
