data_PCOD8173433
_publ_section_title
;
Structure prediction by ZEFSAII (Michael W. Deem and Ramdas Pophale) SiO2 
 PCOD8173433
Probable space group: C M M 2
;
_chemical_formula_sum "Si O2"
_cell_formula_units_Z 64
_cell_length_a 8.658179
_cell_length_b 18.708245
_cell_length_c 20.251337
_cell_angle_alpha 90.000000
_cell_angle_beta 90.000000
_cell_angle_gamma 90.000000
_cell_volume 3280.298080
_symmetry_space_group_name_H-M "C M M 2"
_symmetry_group_IT_number 35
_symmetry_cell_setting 'orthorhombic'
loop_
_space_group_symop_operation_xyz
x,y,z
-x,-y,z
-x,y,z
x,-y,z
1/2+x,1/2+y,z
1/2-x,1/2-y,z
1/2-x,1/2+y,z
1/2+x,1/2-y,z
loop_
_atom_site_type_symbol
_atom_site_label
_atom_site_fract_x
_atom_site_fract_y
_atom_site_fract_z
Si Si1 0.683162 0.673380 0.055230
Si Si2 0.318111 0.917046 0.702701
Si Si3 0.817846 0.170953 0.822590
Si Si4 0.318216 0.324703 0.205039
Si Si5 0.181789 0.824701 0.440137
Si Si6 0.318138 0.082974 0.942461
Si Si7 0.815785 0.921043 0.322588
Si Si8 0.683157 0.673387 0.589942
O O1 0.500000 0.674044 0.045129
O O2 0.750000 0.750000 0.032787
O O3 0.732307 0.656298 0.130503
O O4 0.759664 0.610595 0.012994
O O5 0.500000 0.905876 0.709227
O O6 0.234683 0.871693 0.758512
O O7 0.259534 0.889421 0.632187
O O8 0.272969 0.000000 0.710184
O O9 0.750000 0.250000 0.822671
O O10 0.765657 0.128240 0.886686
O O11 0.000000 0.177755 0.822487
O O12 0.500000 0.318583 0.209385
O O13 0.250000 0.250000 0.228200
O O14 0.254164 0.383344 0.256067
O O15 0.250000 0.750000 0.416963
O O16 0.245832 0.883346 0.389112
O O17 0.232351 0.843687 0.514672
O O18 0.000000 0.818589 0.435807
O O19 0.500000 0.094257 0.935822
O O20 0.273199 0.000000 0.935031
O O21 0.000000 0.922267 0.322587
O O22 0.745634 0.000000 0.322588
O O23 0.500000 0.674080 0.600015
O O24 0.750000 0.750000 0.612405
#
# Coordination Sequence:
#
# PCOD8173433 Si02
#       8
#     8   8   8   8   8   8   8   8
#     4  10  20  35  56  82 111 144 186 231 275 327
#     4  11  24  41  60  84 116 150 183 224 275 327
#     4  12  25  42  65  89 115 147 185 228 271 320
#     4   9  18  32  53  78 104 139 180 225 272 321
#     4   9  18  32  53  78 104 139 180 225 272 321
#     4  11  24  41  60  84 116 150 183 224 275 327
#     4   9  17  30  49  75 106 139 178 224 274 325
#     4  10  20  35  56  82 111 144 186 231 275 327
#
# _framework density 19.510422999999999
#
# number of rings (size 3 to 8) (size 9 to 14) (size 15 to 20)
#    0.000    1.875    0.000    4.125    0.000    5.500 
#    0.000    2.500    0.000    1.500    0.000    0.000 
#    0.000    0.000    0.000    0.000    0.000    0.000 
#
# Total GULP energy -396876.563682 kJ/mol
# GULP energy per Si atom -12402.392615 kJ/mol
# Density = 1.946602 g / cm^3
# Si number density = 19.510423 Si / 1000 Ang^3
#
#
#
# Elastic Constant Matrix: (Units=GPa)
#
#
# Indices 1 2 3 4 5 6 
#
# 1 76.8294 59.2913 39.3398 0.0000 0.0000 0.0000
# 2 59.2913 179.8744 98.2332 0.0000 0.0000 0.0000
# 3 39.3398 98.2332 135.5518 0.0000 0.0000 0.0000
# 4 0.0000 0.0000 0.0000 27.0809 0.0000 0.0000
# 5 0.0000 0.0000 0.0000 0.0000 19.2361 0.0000
# 6 0.0000 0.0000 0.0000 0.0000 0.0000 30.2376
#
#
#
# Elastic Compliance Matrix: (Units=1/GPa)
#
#
# Indices 1 2 3 4 5 6 
#
# 1 0.017639 -0.004996 -0.001499 0.000000 0.000000 0.000000
# 2 -0.004996 0.010616 -0.006243 0.000000 0.000000 0.000000
# 3 -0.001499 -0.006243 0.012337 0.000000 0.000000 0.000000
# 4 0.000000 0.000000 0.000000 0.036926 0.000000 0.000000
# 5 0.000000 0.000000 0.000000 0.000000 0.051986 0.000000
# 6 0.000000 0.000000 0.000000 0.000000 0.000000 0.033071
#
#
# Mechanical properties :
#
#
# Convention : Reuss Voigt Hill
#
# Bulk Modulus (GPa) = 66.15691 87.33160 76.74426
# Shear Modulus (GPa) = 25.89491 28.33700 27.11596
#
# Velocity S-wave (km/s) = 3.64708 3.81518 3.73207
# Velocity P-wave (km/s) = 7.19145 8.01661 7.61522
#
# Compressibility (1/GPa) = 0.01511558
#
# Stress axis : x y z
#
# Youngs Moduli (GPa) = 56.69406 94.19998 81.05907
#
# Poissons Ratio (x) = 0.47059 0.12149
# Poissons Ratio (y) = 0.28322 0.50608
# Poissons Ratio (z) = 0.08497 0.58812
#
# Static dielectric constant tensor:
#      x y z
#    x 3.491170 0.000000 0.000000 
#    y 0.000000 3.597640 0.000000 
#    z 0.000000 0.000000 3.900780 
# 
# 
# High freq. dielectric constant tensor:
#      x y z
#    x 1.754090 0.000000 0.000000 
#    y 0.000000 1.762770 0.000000 
#    z 0.000000 0.000000 1.776780 
# 
# From -- ./inp_files/18384.got.cif
#   From: 2010.03.12/outbox.cif.g09.slc.cpg/sg35_10_cif.got.tgz:18384.got - 2010.04.14 02:02:04.
