data_PCOD8173736
_publ_section_title
;
Structure prediction by ZEFSAII (Michael W. Deem and Ramdas Pophale) SiO2 
 PCOD8173736
Probable space group: C M M 2
;
_chemical_formula_sum "Si O2"
_cell_formula_units_Z 64
_cell_length_a 9.311035
_cell_length_b 29.953959
_cell_length_c 12.328524
_cell_angle_alpha 90.000000
_cell_angle_beta 90.000000
_cell_angle_gamma 90.000000
_cell_volume 3438.454447
_symmetry_space_group_name_H-M "C M M 2"
_symmetry_group_IT_number 35
_symmetry_cell_setting 'orthorhombic'
loop_
_space_group_symop_operation_xyz
x,y,z
-x,-y,z
-x,y,z
x,-y,z
1/2+x,1/2+y,z
1/2-x,1/2-y,z
1/2-x,1/2+y,z
1/2+x,1/2-y,z
loop_
_atom_site_type_symbol
_atom_site_label
_atom_site_fract_x
_atom_site_fract_y
_atom_site_fract_z
Si Si1 0.832934 0.203867 0.165460
Si Si2 0.662621 0.294013 0.399788
Si Si3 0.840912 0.052883 0.420817
Si Si4 0.832085 0.796535 0.635860
Si Si5 0.333292 0.052632 0.627466
Si Si6 0.329355 0.623933 0.022237
Si Si7 0.670471 0.380459 0.775092
Si Si8 0.328751 0.549572 0.182343
O O1 0.750000 0.250000 0.152064
O O2 0.811446 0.180177 0.285498
O O3 0.000000 0.214105 0.145773
O O4 0.772156 0.169511 0.076503
O O5 0.500000 0.278359 0.407820
O O6 0.750000 0.250000 0.387520
O O7 0.702237 0.317267 0.514885
O O8 0.731239 0.069348 0.512734
O O9 0.782567 0.067297 0.302108
O O10 0.000000 0.073766 0.443214
O O11 0.854963 0.000000 0.422113
O O12 0.750000 0.750000 0.656529
O O13 0.780143 0.834103 0.719869
O O14 0.000000 0.786590 0.651762
O O15 0.500000 0.065471 0.629681
O O16 0.250237 0.077466 0.723303
O O17 0.309370 0.000000 0.644126
O O18 0.500000 0.623031 0.029163
O O19 0.277012 0.621512 0.899012
O O20 0.266260 0.582051 0.089743
O O21 0.500000 0.387681 0.764027
O O22 0.500000 0.548016 0.179640
O O23 0.266470 0.500000 0.160240
#
# Coordination Sequence:
#
# PCOD8173736 Si02
#       8
#     8   8   8   8   8   8   8   8
#     4   9  17  30  48  69  94 124 157 197 245 292
#     4   8  14  26  45  68  93 122 156 196 244 295
#     4   8  14  27  50  78 102 124 156 199 247 302
#     4   9  18  32  50  73 100 130 165 206 251 297
#     4  10  21  36  53  74 102 134 166 204 253 305
#     4   9  18  31  47  71 101 130 165 207 245 285
#     4  10  21  35  51  74 102 133 175 217 247 288
#     4   8  14  26  47  75 102 126 156 199 250 299
#
# _framework density 18.613015000000001
#
# number of rings (size 3 to 8) (size 9 to 14) (size 15 to 20)
#    0.000    3.125    0.000    1.125    0.000    3.250 
#    0.000    5.625    0.000    6.000    0.000    1.750 
#    0.000    0.000    0.000    0.000    0.000    0.000 
#
# Total GULP energy -396463.145058 kJ/mol
# GULP energy per Si atom -12389.473283 kJ/mol
# Density = 1.857065 g / cm^3
# Si number density = 18.613015 Si / 1000 Ang^3
#
#
#
# Elastic Constant Matrix: (Units=GPa)
#
#
# Indices 1 2 3 4 5 6 
#
# 1 45.3243 33.1295 44.2578 0.0000 0.0000 0.0000
# 2 33.1295 93.7895 77.6973 0.0000 0.0000 0.0000
# 3 44.2578 77.6973 185.6064 0.0000 0.0000 0.0000
# 4 0.0000 0.0000 0.0000 33.5799 0.0000 0.0000
# 5 0.0000 0.0000 0.0000 0.0000 12.3441 0.0000
# 6 0.0000 0.0000 0.0000 0.0000 0.0000 21.2132
#
#
#
# Elastic Compliance Matrix: (Units=1/GPa)
#
#
# Indices 1 2 3 4 5 6 
#
# 1 0.031959 -0.007617 -0.004432 0.000000 0.000000 0.000000
# 2 -0.007617 0.018138 -0.005777 0.000000 0.000000 0.000000
# 3 -0.004432 -0.005777 0.008863 0.000000 0.000000 0.000000
# 4 0.000000 0.000000 0.000000 0.029780 0.000000 0.000000
# 5 0.000000 0.000000 0.000000 0.000000 0.081010 0.000000
# 6 0.000000 0.000000 0.000000 0.000000 0.000000 0.047140
#
#
# Mechanical properties :
#
#
# Convention : Reuss Voigt Hill
#
# Bulk Modulus (GPa) = 42.90367 70.54326 56.72347
# Shear Modulus (GPa) = 19.20781 24.73649 21.97215
#
# Velocity S-wave (km/s) = 3.21589 3.64948 3.43953
# Velocity P-wave (km/s) = 6.07369 7.46596 6.80552
#
# Compressibility (1/GPa) = 0.02330803
#
# Stress axis : x y z
#
# Youngs Moduli (GPa) = 31.29051 55.13183 112.83308
#
# Poissons Ratio (x) = 0.41996 0.50005
# Poissons Ratio (y) = 0.23835 0.65179
# Poissons Ratio (z) = 0.13867 0.31847
#
# Static dielectric constant tensor:
#      x y z
#    x 3.120920 0.000000 0.000000 
#    y 0.000000 3.195760 0.000000 
#    z 0.000000 0.000000 3.926410 
# 
# 
# High freq. dielectric constant tensor:
#      x y z
#    x 1.684510 0.000000 0.000000 
#    y 0.000000 1.708430 0.000000 
#    z 0.000000 0.000000 1.735040 
# 
# From -- ./inp_files/11871.got.cif
#   From: 2010.03.12/outbox.cif.g09.slc.cpg/sg35_6_cif.got.tgz:11871.got - 2010.04.14 02:02:04.
