data_PCOD8173004
_publ_section_title
;
Structure prediction by ZEFSAII (Michael W. Deem and Ramdas Pophale) SiO2 
 PCOD8173004
Probable space group: C M M 2
;
_chemical_formula_sum "Si O2"
_cell_formula_units_Z 64
_cell_length_a 17.546604
_cell_length_b 14.251881
_cell_length_c 12.930859
_cell_angle_alpha 90.000000
_cell_angle_beta 90.000000
_cell_angle_gamma 90.000000
_cell_volume 3233.647222
_symmetry_space_group_name_H-M "C M M 2"
_symmetry_group_IT_number 35
_symmetry_cell_setting 'orthorhombic'
loop_
_space_group_symop_operation_xyz
x,y,z
-x,-y,z
-x,y,z
x,-y,z
1/2+x,1/2+y,z
1/2-x,1/2-y,z
1/2-x,1/2+y,z
1/2+x,1/2-y,z
loop_
_atom_site_type_symbol
_atom_site_label
_atom_site_fract_x
_atom_site_fract_y
_atom_site_fract_z
Si Si1 0.409418 0.106330 0.469320
Si Si2 0.910630 0.893436 0.782048
Si Si3 0.338659 0.391773 0.992553
Si Si4 0.824565 0.611362 0.062664
Si Si5 0.910295 0.283789 0.665207
Si Si6 0.087420 0.898827 0.200940
Si Si7 0.588725 0.108456 0.862294
Si Si8 0.590998 0.199130 0.256217
O O1 0.500000 0.106102 0.473774
O O2 0.375133 0.173859 0.559442
O O3 0.382600 0.147316 0.359921
O O4 0.378523 0.000000 0.482902
O O5 0.891447 0.826757 0.683263
O O6 0.000000 0.888615 0.808511
O O7 0.886535 0.000000 0.754092
O O8 0.866754 0.850726 0.882406
O O9 0.324588 0.500000 0.969236
O O10 0.260282 0.349701 0.039098
O O11 0.402535 0.375340 0.079567
O O12 0.827223 0.500000 0.076309
O O13 0.859734 0.655532 0.164902
O O14 0.873994 0.647673 0.966465
O O15 0.876132 0.340099 0.762652
O O16 0.000000 0.300795 0.660584
O O17 0.114861 0.809299 0.267735
O O18 0.000000 0.913734 0.224029
O O19 0.128694 0.000000 0.228216
O O20 0.500000 0.128383 0.872372
O O21 0.608170 0.000000 0.847867
O O22 0.500000 0.187878 0.234891
#
# Coordination Sequence:
#
# PCOD8173004 Si02
#       8
#     8   8   8   8   8   8   8   8
#     4   9  17  31  51  75 104 137 172 213 259 308
#     4   9  17  30  49  74 104 137 174 217 264 311
#     4   9  18  32  49  72 102 138 174 212 257 311
#     4  10  20  32  47  74 107 138 170 209 263 316
#     4   9  17  29  48  73  99 129 170 211 254 306
#     4   9  18  33  51  71  98 134 175 216 258 303
#     4   9  17  29  45  68 101 135 165 205 255 307
#     4  10  20  32  50  76 106 140 179 215 256 310
#
# _framework density 19.791892000000001
#
# number of rings (size 3 to 8) (size 9 to 14) (size 15 to 20)
#    0.000    2.750    0.000    1.500    1.750    4.750 
#    0.000    0.625    0.000    3.750    6.500    0.000 
#    0.000    0.000    0.000    0.000    0.000    0.000 
#
# Total GULP energy -396494.080610 kJ/mol
# GULP energy per Si atom -12390.440019 kJ/mol
# Density = 1.974684 g / cm^3
# Si number density = 19.791892 Si / 1000 Ang^3
#
#
#
# Elastic Constant Matrix: (Units=GPa)
#
#
# Indices 1 2 3 4 5 6 
#
# 1 31.4500 23.9751 28.8177 0.0000 0.0000 0.0000
# 2 23.9751 107.2975 70.7994 0.0000 0.0000 0.0000
# 3 28.8177 70.7994 140.6927 0.0000 0.0000 0.0000
# 4 0.0000 0.0000 0.0000 33.4719 0.0000 0.0000
# 5 0.0000 0.0000 0.0000 0.0000 9.8247 0.0000
# 6 0.0000 0.0000 0.0000 0.0000 0.0000 8.0493
#
#
#
# Elastic Compliance Matrix: (Units=1/GPa)
#
#
# Indices 1 2 3 4 5 6 
#
# 1 0.041160 -0.005441 -0.005693 0.000000 0.000000 0.000000
# 2 -0.005441 0.014672 -0.006269 0.000000 0.000000 0.000000
# 3 -0.005693 -0.006269 0.011428 0.000000 0.000000 0.000000
# 4 0.000000 0.000000 0.000000 0.029876 0.000000 0.000000
# 5 0.000000 0.000000 0.000000 0.000000 0.101785 0.000000
# 6 0.000000 0.000000 0.000000 0.000000 0.000000 0.124235
#
#
# Mechanical properties :
#
#
# Convention : Reuss Voigt Hill
#
# Bulk Modulus (GPa) = 30.81100 58.51386 44.66243
# Shear Modulus (GPa) = 13.55822 20.65903 17.10863
#
# Velocity S-wave (km/s) = 2.62017 3.23431 2.94330
# Velocity P-wave (km/s) = 4.97544 6.60125 5.84514
#
# Compressibility (1/GPa) = 0.03245594
#
# Stress axis : x y z
#
# Youngs Moduli (GPa) = 24.29517 68.15691 87.50144
#
# Poissons Ratio (x) = 0.37082 0.49814
# Poissons Ratio (y) = 0.13218 0.54854
# Poissons Ratio (z) = 0.13831 0.42727
#
# Static dielectric constant tensor:
#      x y z
#    x 3.329180 0.000000 0.000000 
#    y 0.000000 4.074260 0.000000 
#    z 0.000000 0.000000 3.662830 
# 
# 
# High freq. dielectric constant tensor:
#      x y z
#    x 1.727110 0.000000 0.000000 
#    y 0.000000 1.789810 0.000000 
#    z 0.000000 0.000000 1.753020 
# 
# From -- ./inp_files/13611.got.cif
#   From: 2010.03.12/outbox.cif.g09.slc.cpg/sg35_7_cif.got.tgz:13611.got - 2010.04.14 02:02:04.
