data_PCOD8173214
_publ_section_title
;
Structure prediction by ZEFSAII (Michael W. Deem and Ramdas Pophale) SiO2 
 PCOD8173214
Probable space group: C M M 2
;
_chemical_formula_sum "Si O2"
_cell_formula_units_Z 64
_cell_length_a 17.346959
_cell_length_b 15.885649
_cell_length_c 12.036178
_cell_angle_alpha 90.000000
_cell_angle_beta 90.000000
_cell_angle_gamma 90.000000
_cell_volume 3316.781911
_symmetry_space_group_name_H-M "C M M 2"
_symmetry_group_IT_number 35
_symmetry_cell_setting 'orthorhombic'
loop_
_space_group_symop_operation_xyz
x,y,z
-x,-y,z
-x,y,z
x,-y,z
1/2+x,1/2+y,z
1/2-x,1/2-y,z
1/2-x,1/2+y,z
1/2+x,1/2-y,z
loop_
_atom_site_type_symbol
_atom_site_label
_atom_site_fract_x
_atom_site_fract_y
_atom_site_fract_z
Si Si1 0.408552 0.407044 0.747080
Si Si2 0.340144 0.094526 0.220885
Si Si3 0.591670 0.750922 0.609844
Si Si4 0.908942 0.738186 0.356919
Si Si5 0.808260 0.826802 0.185274
Si Si6 0.407890 0.905625 0.754213
Si Si7 0.584915 0.900393 0.998104
Si Si8 0.588214 0.402531 0.000201
O O1 0.500000 0.409056 0.738176
O O2 0.376797 0.500000 0.711453
O O3 0.374515 0.333121 0.669019
O O4 0.385010 0.388050 0.873780
O O5 0.381873 0.146370 0.317526
O O6 0.246993 0.097119 0.225793
O O7 0.369513 0.000000 0.236415
O O8 0.363785 0.133301 0.100102
O O9 0.500000 0.751167 0.618888
O O10 0.619147 0.750224 0.483093
O O11 0.623841 0.836204 0.667843
O O12 0.868523 0.809738 0.283731
O O13 0.000000 0.747837 0.345498
O O14 0.750000 0.750000 0.164089
O O15 0.855170 0.847201 0.074584
O O16 0.500000 0.907773 0.756396
O O17 0.379032 0.877601 0.877580
O O18 0.377505 0.000000 0.723156
O O19 0.500000 0.859636 0.010735
O O20 0.578547 0.000000 0.005305
O O21 0.500000 0.372584 0.017189
O O22 0.595939 0.500000 0.033600
#
# Coordination Sequence:
#
# PCOD8173214 Si02
#       8
#     8   8   8   8   8   8   8   8
#     4   8  15  29  50  77 104 126 156 207 268 318
#     4  10  20  34  53  74 101 139 174 209 256 307
#     4   9  17  29  47  72 101 133 168 210 259 304
#     4  10  21  35  51  74 103 134 175 221 256 298
#     4  10  21  35  50  71 104 142 173 206 254 309
#     4   8  14  25  43  71 106 137 164 201 252 308
#     4   8  14  26  46  74 105 133 163 200 246 305
#     4   9  17  32  57  84 105 127 163 214 264 310
#
# _framework density 19.295812000000002
#
# number of rings (size 3 to 8) (size 9 to 14) (size 15 to 20)
#    0.000    3.000    0.000    2.625    0.000    3.250 
#    0.000    6.250    0.000    9.750    0.000    0.000 
#    0.000    0.000    0.000    0.000    0.000    0.000 
#
# Total GULP energy -396593.226089 kJ/mol
# GULP energy per Si atom -12393.538315 kJ/mol
# Density = 1.925189 g / cm^3
# Si number density = 19.295812 Si / 1000 Ang^3
#
#
#
# Elastic Constant Matrix: (Units=GPa)
#
#
# Indices 1 2 3 4 5 6 
#
# 1 62.2062 24.8185 46.2942 0.0000 0.0000 0.0000
# 2 24.8185 100.8296 80.0973 0.0000 0.0000 0.0000
# 3 46.2942 80.0973 159.4357 0.0000 0.0000 0.0000
# 4 0.0000 0.0000 0.0000 28.2355 0.0000 0.0000
# 5 0.0000 0.0000 0.0000 0.0000 2.4968 0.0000
# 6 0.0000 0.0000 0.0000 0.0000 0.0000 14.7470
#
#
#
# Elastic Compliance Matrix: (Units=1/GPa)
#
#
# Indices 1 2 3 4 5 6 
#
# 1 0.020524 -0.000529 -0.005694 0.000000 0.000000 0.000000
# 2 -0.000529 0.016518 -0.008145 0.000000 0.000000 0.000000
# 3 -0.005694 -0.008145 0.012017 0.000000 0.000000 0.000000
# 4 0.000000 0.000000 0.000000 0.035416 0.000000 0.000000
# 5 0.000000 0.000000 0.000000 0.000000 0.400515 0.000000
# 6 0.000000 0.000000 0.000000 0.000000 0.000000 0.067811
#
#
# Mechanical properties :
#
#
# Convention : Reuss Voigt Hill
#
# Bulk Modulus (GPa) = 49.20202 69.43239 59.31720
# Shear Modulus (GPa) = 8.49892 20.51328 14.50610
#
# Velocity S-wave (km/s) = 2.10098 3.26405 2.74483
# Velocity P-wave (km/s) = 5.60711 7.08990 6.39165
#
# Compressibility (1/GPa) = 0.02032437
#
# Stress axis : x y z
#
# Youngs Moduli (GPa) = 48.72385 60.54030 83.21476
#
# Poissons Ratio (x) = 0.03202 0.47380
# Poissons Ratio (y) = 0.02577 0.67776
# Poissons Ratio (z) = 0.27742 0.49308
#
# Static dielectric constant tensor:
#      x y z
#    x 3.353980 0.000000 0.000000 
#    y 0.000000 3.689040 0.000000 
#    z 0.000000 0.000000 3.621190 
# 
# 
# High freq. dielectric constant tensor:
#      x y z
#    x 1.714630 0.000000 0.000000 
#    y 0.000000 1.750270 0.000000 
#    z 0.000000 0.000000 1.746390 
# 
# From -- ./inp_files/13705.got.cif
#   From: 2010.03.12/outbox.cif.g09.slc.cpg/sg35_7_cif.got.tgz:13705.got - 2010.04.14 02:02:04.
