data_PCOD8173389
_publ_section_title
;
Structure prediction by ZEFSAII (Michael W. Deem and Ramdas Pophale) SiO2 
 PCOD8173389
Probable space group: C M M 2
;
_chemical_formula_sum "Si O2"
_cell_formula_units_Z 56
_cell_length_a 8.929798
_cell_length_b 19.094701
_cell_length_c 17.686887
_cell_angle_alpha 90.000000
_cell_angle_beta 90.000000
_cell_angle_gamma 90.000000
_cell_volume 3015.823342
_symmetry_space_group_name_H-M "C M M 2"
_symmetry_group_IT_number 35
_symmetry_cell_setting 'orthorhombic'
loop_
_space_group_symop_operation_xyz
x,y,z
-x,-y,z
-x,y,z
x,-y,z
1/2+x,1/2+y,z
1/2-x,1/2-y,z
1/2-x,1/2+y,z
1/2+x,1/2-y,z
loop_
_atom_site_type_symbol
_atom_site_label
_atom_site_fract_x
_atom_site_fract_y
_atom_site_fract_z
Si Si1 0.177110 0.673928 0.530190
Si Si2 0.824318 0.678843 0.115878
Si Si3 0.329035 0.417574 0.825905
Si Si4 0.674611 0.080291 0.672179
Si Si5 0.676693 0.822483 0.945208
Si Si6 0.175532 0.080973 0.403395
Si Si7 0.171130 0.419204 0.249179
O O1 0.250000 0.750000 0.534273
O O2 0.224253 0.630053 0.603897
O O3 0.234931 0.631485 0.458443
O O4 0.000000 0.682312 0.523657
O O5 0.750000 0.750000 0.143702
O O6 0.771700 0.619421 0.173949
O O7 0.000000 0.689745 0.117931
O O8 0.773024 0.659206 0.030902
O O9 0.500000 0.392597 0.831548
O O10 0.312434 0.500000 0.835067
O O11 0.265436 0.393647 0.745012
O O12 0.233556 0.384417 0.892689
O O13 0.500000 0.087615 0.690485
O O14 0.715058 0.000000 0.650986
O O15 0.500000 0.815438 0.937496
O O16 0.750000 0.750000 0.918368
O O17 0.223378 0.101874 0.318812
O O18 0.000000 0.093850 0.413256
O O19 0.218455 0.000000 0.420002
O O20 0.186257 0.500000 0.229583
O O21 0.000000 0.399232 0.269595
#
# Coordination Sequence:
#
# PCOD8173389 Si02
#       7
#     8   8   8   8   8   8   8
#     4  11  23  38  57  82 111 142 178 220 266 315
#     4   9  19  34  53  77 104 138 177 218 266 318
#     4  10  21  36  55  81 111 142 178 220 266 316
#     4   9  19  37  59  80 104 139 181 221 265 318
#     4  10  20  35  55  78 107 143 182 223 268 319
#     4  10  21  37  57  81 109 142 180 220 265 318
#     4   9  18  34  55  78 105 138 178 221 264 313
#
# _framework density 18.568726000000002
#
# number of rings (size 3 to 8) (size 9 to 14) (size 15 to 20)
#    0.000    2.286    0.000    2.143    0.000    6.286 
#    0.000    5.714    0.000    1.714    0.000    0.000 
#    0.000    0.000    0.000    0.000    0.000    0.000 
#
# Total GULP energy -347277.055038 kJ/mol
# GULP energy per Si atom -12402.751966 kJ/mol
# Density = 1.852646 g / cm^3
# Si number density = 18.568726 Si / 1000 Ang^3
#
#
#
# Elastic Constant Matrix: (Units=GPa)
#
#
# Indices 1 2 3 4 5 6 
#
# 1 69.4520 43.7043 49.2980 0.0000 0.0000 0.0000
# 2 43.7043 93.5376 76.5302 0.0000 0.0000 0.0000
# 3 49.2980 76.5302 127.0506 0.0000 0.0000 0.0000
# 4 0.0000 0.0000 0.0000 -3.1696 0.0000 0.0000
# 5 0.0000 0.0000 0.0000 0.0000 27.9492 0.0000
# 6 0.0000 0.0000 0.0000 0.0000 0.0000 31.5595
#
#
#
# Elastic Compliance Matrix: (Units=1/GPa)
#
#
# Indices 1 2 3 4 5 6 
#
# 1 0.021651 -0.006394 -0.004550 0.000000 0.000000 0.000000
# 2 -0.006394 0.022968 -0.011354 0.000000 0.000000 0.000000
# 3 -0.004550 -0.011354 0.016475 0.000000 0.000000 0.000000
# 4 0.000000 0.000000 0.000000 -0.315494 0.000000 0.000000
# 5 0.000000 0.000000 0.000000 0.000000 0.035779 0.000000
# 6 0.000000 0.000000 0.000000 0.000000 0.000000 0.031686
#
#
# Mechanical properties :
#
#
# Convention : Reuss Voigt Hill
#
# Bulk Modulus (GPa) = 60.60773 69.90057 65.25415
# Shear Modulus (GPa) = -36.53931 19.30167 -8.61882
#
# Velocity S-wave (km/s) = -4.44079 3.22758 -2.15677
# Velocity P-wave (km/s) = 2.53306 7.18441 5.38665
#
# Compressibility (1/GPa) = 0.01649955
#
# Stress axis : x y z
#
# Youngs Moduli (GPa) = 46.18642 43.53898 60.69632
#
# Poissons Ratio (x) = 0.27838 0.27615
# Poissons Ratio (y) = 0.29531 0.68915
# Poissons Ratio (z) = 0.21014 0.49434
#
# Static dielectric constant tensor:
#      x y z
#    x 3.452060 0.000000 0.000000 
#    y 0.000000 3.503340 0.000000 
#    z 0.000000 0.000000 3.541620 
# 
# 
# High freq. dielectric constant tensor:
#      x y z
#    x 1.725650 0.000000 0.000000 
#    y 0.000000 1.717240 0.000000 
#    z 0.000000 0.000000 1.728960 
# 
# From -- ./inp_files/15591.got.cif
#   From: 2010.03.12/outbox.cif.g09.slc.cpg/sg35_8_cif.got.tgz:15591.got - 2010.04.14 02:02:04.
