data_PCOD8173699
_publ_section_title
;
Structure prediction by ZEFSAII (Michael W. Deem and Ramdas Pophale) SiO2 
 PCOD8173699
Probable space group: C M M 2
;
_chemical_formula_sum "Si O2"
_cell_formula_units_Z 48
_cell_length_a 8.580057
_cell_length_b 30.261778
_cell_length_c 9.340303
_cell_angle_alpha 90.000000
_cell_angle_beta 90.000000
_cell_angle_gamma 90.000000
_cell_volume 2425.188940
_symmetry_space_group_name_H-M "C M M 2"
_symmetry_group_IT_number 35
_symmetry_cell_setting 'orthorhombic'
loop_
_space_group_symop_operation_xyz
x,y,z
-x,-y,z
-x,y,z
x,-y,z
1/2+x,1/2+y,z
1/2-x,1/2-y,z
1/2-x,1/2+y,z
1/2+x,1/2-y,z
loop_
_atom_site_type_symbol
_atom_site_label
_atom_site_fract_x
_atom_site_fract_y
_atom_site_fract_z
Si Si1 0.184709 0.796761 0.308930
Si Si2 0.318398 0.875857 0.491485
Si Si3 0.680555 0.448608 0.298779
Si Si4 0.682746 0.704166 0.980278
Si Si5 0.680372 0.050609 0.999126
Si Si6 0.316944 0.621344 0.801120
O O1 0.250000 0.750000 0.364896
O O2 0.269399 0.834900 0.394954
O O3 0.000000 0.799195 0.331982
O O4 0.233397 0.803571 0.144012
O O5 0.500000 0.873470 0.528102
O O6 0.282773 0.921548 0.411029
O O7 0.219185 0.873684 0.635255
O O8 0.500000 0.437966 0.325245
O O9 0.719941 0.500000 0.321797
O O10 0.722331 0.433952 0.137652
O O11 0.500000 0.707223 0.965679
O O12 0.750000 0.750000 0.920182
O O13 0.748293 0.664222 0.884669
O O14 0.500000 0.057874 0.034480
O O15 0.717232 0.000000 0.961145
O O16 0.730603 0.078420 0.861684
O O17 0.500000 0.615616 0.825031
#
# Coordination Sequence:
#
# PCOD8173699 Si02
#       6
#     8   8   8   8   8   8
#     4  10  20  38  62  88 116 148 191 239 289 347
#     4  12  25  39  57  84 118 156 195 240 295 348
#     4  10  21  39  63  88 114 149 193 239 289 347
#     4   9  20  37  60  86 111 143 185 233 281 334
#     4  10  21  38  61  89 118 149 189 237 287 342
#     4  11  23  39  58  83 117 156 195 236 286 345
#
# _framework density 19.792273000000002
#
# number of rings (size 3 to 8) (size 9 to 14) (size 15 to 20)
#    0.000    1.667    0.000    4.500    0.000    6.667 
#    0.000    1.667    0.000    0.000    0.000    0.000 
#    0.000    0.000    0.000    0.000    0.000    0.000 
#
# Total GULP energy -297749.597905 kJ/mol
# GULP energy per Si atom -12406.233246 kJ/mol
# Density = 1.974722 g / cm^3
# Si number density = 19.792273 Si / 1000 Ang^3
#
#
#
# Elastic Constant Matrix: (Units=GPa)
#
#
# Indices 1 2 3 4 5 6 
#
# 1 54.7964 33.3036 13.2047 0.0000 0.0000 0.0000
# 2 33.3036 120.2551 59.7327 0.0000 0.0000 0.0000
# 3 13.2047 59.7327 90.1321 0.0000 0.0000 0.0000
# 4 0.0000 0.0000 0.0000 5.6115 0.0000 0.0000
# 5 0.0000 0.0000 0.0000 0.0000 31.5340 0.0000
# 6 0.0000 0.0000 0.0000 0.0000 0.0000 36.4307
#
#
#
# Elastic Compliance Matrix: (Units=1/GPa)
#
#
# Indices 1 2 3 4 5 6 
#
# 1 0.022032 -0.006706 0.001216 0.000000 0.000000 0.000000
# 2 -0.006706 0.014437 -0.008586 0.000000 0.000000 0.000000
# 3 0.001216 -0.008586 0.016606 0.000000 0.000000 0.000000
# 4 0.000000 0.000000 0.000000 0.178204 0.000000 0.000000
# 5 0.000000 0.000000 0.000000 0.000000 0.031712 0.000000
# 6 0.000000 0.000000 0.000000 0.000000 0.000000 0.027449
#
#
# Mechanical properties :
#
#
# Convention : Reuss Voigt Hill
#
# Bulk Modulus (GPa) = 40.11928 53.07398 46.59663
# Shear Modulus (GPa) = 15.29524 25.31143 20.30334
#
# Velocity S-wave (km/s) = 2.78292 3.57999 3.20632
# Velocity P-wave (km/s) = 5.53538 6.63039 6.10748
#
# Compressibility (1/GPa) = 0.02492567
#
# Stress axis : x y z
#
# Youngs Moduli (GPa) = 45.38903 69.26498 60.21743
#
# Poissons Ratio (x) = 0.46447 -0.07324
# Poissons Ratio (y) = 0.30436 0.51700
# Poissons Ratio (z) = -0.05520 0.59468
#
# Static dielectric constant tensor:
#      x y z
#    x 3.597200 0.000000 0.000000 
#    y 0.000000 3.811640 0.000000 
#    z 0.000000 0.000000 3.530760 
# 
# 
# High freq. dielectric constant tensor:
#      x y z
#    x 1.779610 0.000000 0.000000 
#    y 0.000000 1.785400 0.000000 
#    z 0.000000 0.000000 1.765880 
# 
# From -- ./inp_files/5278.got.cif
#   From: 2010.03.12/outbox.cif.g09.slc.cpg/sg35_3_cif.got.tgz:5278.got - 2010.04.14 02:02:04.
