data_PCOD8173914
_publ_section_title
;
Structure prediction by ZEFSAII (Michael W. Deem and Ramdas Pophale) SiO2 
 PCOD8173914
Probable space group: C M M 2
;
_chemical_formula_sum "Si O2"
_cell_formula_units_Z 64
_cell_length_a 9.279591
_cell_length_b 27.132608
_cell_length_c 12.178000
_cell_angle_alpha 90.000000
_cell_angle_beta 90.000000
_cell_angle_gamma 90.000000
_cell_volume 3066.170812
_symmetry_space_group_name_H-M "C M M 2"
_symmetry_group_IT_number 35
_symmetry_cell_setting 'orthorhombic'
loop_
_space_group_symop_operation_xyz
x,y,z
-x,-y,z
-x,y,z
x,-y,z
1/2+x,1/2+y,z
1/2-x,1/2-y,z
1/2-x,1/2+y,z
1/2+x,1/2-y,z
loop_
_atom_site_type_symbol
_atom_site_label
_atom_site_fract_x
_atom_site_fract_y
_atom_site_fract_z
Si Si1 0.284479 0.194037 0.986450
Si Si2 0.655634 0.153731 0.756044
Si Si3 0.831723 0.557851 0.255897
Si Si4 0.837315 0.903746 0.048928
Si Si5 0.330615 0.369417 0.373353
Si Si6 0.167886 0.798935 0.572960
Si Si7 0.342290 0.797677 0.227530
Si Si8 0.165304 0.445226 0.852367
O O1 0.250000 0.250000 0.953154
O O2 0.364988 0.171916 0.881307
O O3 0.157731 0.154618 0.015106
O O4 0.376390 0.196571 0.098054
O O5 0.500000 0.161469 0.697936
O O6 0.776946 0.184274 0.692338
O O7 0.695765 0.095518 0.757649
O O8 0.808438 0.500000 0.245737
O O9 0.763390 0.585509 0.152284
O O10 0.746752 0.576977 0.366022
O O11 0.000000 0.571903 0.263553
O O12 0.000000 0.920466 0.074261
O O13 0.774668 0.937037 0.951556
O O14 0.500000 0.373295 0.349255
O O15 0.299959 0.343093 0.488792
O O16 0.252804 0.341656 0.273628
O O17 0.250000 0.750000 0.532694
O O18 0.000000 0.786697 0.582084
O O19 0.500000 0.794288 0.285225
O O20 0.250000 0.750000 0.255295
O O21 0.191200 0.500000 0.803501
O O22 0.000000 0.439642 0.894401
#
# Coordination Sequence:
#
# PCOD8173914 Si02
#       8
#     8   8   8   8   8   8   8   8
#     4  10  22  36  56  87 127 167 207 249 305 360
#     4  10  21  38  62  90 123 164 209 256 307 361
#     4  11  24  41  62  88 120 160 204 251 307 369
#     4  11  22  35  56  88 126 166 209 252 300 364
#     4  11  24  42  64  90 120 155 203 256 310 366
#     4  11  25  44  66  92 122 160 205 254 305 362
#     4  11  22  36  58  87 124 162 199 244 300 363
#     4   9  19  37  60  87 122 163 207 254 306 362
#
# _framework density 20.872941999999998
#
# number of rings (size 3 to 8) (size 9 to 14) (size 15 to 20)
#    0.000    1.500    1.250    3.375    0.000   11.250 
#    0.000    0.625    0.000    2.250    0.000    0.000 
#    0.000    0.000    0.000    0.000    0.000    0.000 
#
# Total GULP energy -396507.718128 kJ/mol
# GULP energy per Si atom -12390.866192 kJ/mol
# Density = 2.082543 g / cm^3
# Si number density = 20.872942 Si / 1000 Ang^3
#
#
#
# Elastic Constant Matrix: (Units=GPa)
#
#
# Indices 1 2 3 4 5 6 
#
# 1 144.9644 53.2284 39.0209 0.0000 0.0000 0.0000
# 2 53.2284 126.5430 27.6282 0.0000 0.0000 0.0000
# 3 39.0209 27.6282 62.7240 0.0000 0.0000 0.0000
# 4 0.0000 0.0000 0.0000 25.0934 0.0000 0.0000
# 5 0.0000 0.0000 0.0000 0.0000 21.1207 0.0000
# 6 0.0000 0.0000 0.0000 0.0000 0.0000 26.3376
#
#
#
# Elastic Compliance Matrix: (Units=1/GPa)
#
#
# Indices 1 2 3 4 5 6 
#
# 1 0.009146 -0.002882 -0.004421 0.000000 0.000000 0.000000
# 2 -0.002882 0.009651 -0.002458 0.000000 0.000000 0.000000
# 3 -0.004421 -0.002458 0.019776 0.000000 0.000000 0.000000
# 4 0.000000 0.000000 0.000000 0.039851 0.000000 0.000000
# 5 0.000000 0.000000 0.000000 0.000000 0.047347 0.000000
# 6 0.000000 0.000000 0.000000 0.000000 0.000000 0.037969
#
#
# Mechanical properties :
#
#
# Convention : Reuss Voigt Hill
#
# Bulk Modulus (GPa) = 52.48851 63.77625 58.13238
# Shear Modulus (GPa) = 26.36955 28.80059 27.58507
#
# Velocity S-wave (km/s) = 3.55820 3.71860 3.63929
# Velocity P-wave (km/s) = 6.48709 7.00415 6.75057
#
# Compressibility (1/GPa) = 0.01905179
#
# Stress axis : x y z
#
# Youngs Moduli (GPa) = 109.33237 103.61089 50.56729
#
# Poissons Ratio (x) = 0.29862 0.22353
# Poissons Ratio (y) = 0.31511 0.12430
# Poissons Ratio (z) = 0.48330 0.25470
#
# Static dielectric constant tensor:
#      x y z
#    x 3.888010 0.000000 0.000000 
#    y 0.000000 4.542920 0.000000 
#    z 0.000000 0.000000 3.526000 
# 
# 
# High freq. dielectric constant tensor:
#      x y z
#    x 1.819510 0.000000 0.000000 
#    y 0.000000 1.831610 0.000000 
#    z 0.000000 0.000000 1.789440 
# 
# From -- ./inp_files/11894.got.cif
#   From: 2010.03.12/outbox.cif.g09.slc.cpg/sg35_6_cif.got.tgz:11894.got - 2010.04.14 02:02:04.
