data_PCOD8173780
_publ_section_title
;
Structure prediction by ZEFSAII (Michael W. Deem and Ramdas Pophale) SiO2 
 PCOD8173780
Probable space group: C M M 2
;
_chemical_formula_sum "Si O2"
_cell_formula_units_Z 56
_cell_length_a 9.241089
_cell_length_b 18.723251
_cell_length_c 17.994130
_cell_angle_alpha 90.000000
_cell_angle_beta 90.000000
_cell_angle_gamma 90.000000
_cell_volume 3113.402473
_symmetry_space_group_name_H-M "C M M 2"
_symmetry_group_IT_number 35
_symmetry_cell_setting 'orthorhombic'
loop_
_space_group_symop_operation_xyz
x,y,z
-x,-y,z
-x,y,z
x,-y,z
1/2+x,1/2+y,z
1/2-x,1/2-y,z
1/2-x,1/2+y,z
1/2+x,1/2-y,z
loop_
_atom_site_type_symbol
_atom_site_label
_atom_site_fract_x
_atom_site_fract_y
_atom_site_fract_z
Si Si1 0.338980 0.585135 0.526090
Si Si2 0.833477 0.820951 0.068551
Si Si3 0.327623 0.578629 0.365034
Si Si4 0.329742 0.678246 0.235436
Si Si5 0.327721 0.826137 0.809739
Si Si6 0.167909 0.916821 0.931831
Si Si7 0.169605 0.418881 0.668357
O O1 0.500000 0.614402 0.542039
O O2 0.340573 0.500000 0.522412
O O3 0.281833 0.612581 0.445286
O O4 0.237835 0.612298 0.592699
O O5 0.750000 0.750000 0.042808
O O6 0.789364 0.846046 0.151594
O O7 0.000000 0.798814 0.065974
O O8 0.800594 0.886773 0.014126
O O9 0.500000 0.574488 0.363364
O O10 0.260242 0.500000 0.356704
O O11 0.268062 0.622207 0.294918
O O12 0.500000 0.689381 0.244487
O O13 0.250000 0.750000 0.256040
O O14 0.500000 0.815874 0.816992
O O15 0.250000 0.750000 0.811408
O O16 0.271722 0.874741 0.876540
O O17 0.283245 0.866998 0.734640
O O18 0.000000 0.905289 0.909651
O O19 0.209428 0.000000 0.930916
O O20 0.223920 0.500000 0.685184
O O21 0.000000 0.418689 0.657043
#
# Coordination Sequence:
#
# PCOD8173780 Si02
#       7
#     8   8   8   8   8   8   8
#     4   8  14  26  46  71  96 123 158 199 241 286
#     4   9  18  32  50  72  98 130 165 200 241 289
#     4   8  14  26  46  71  95 122 161 204 241 281
#     4   9  17  30  48  69  96 130 164 199 240 286
#     4  11  23  38  55  75 101 133 168 204 246 297
#     4  10  21  36  54  78 105 130 162 205 249 295
#     4   9  18  33  52  73  97 125 159 200 245 293
#
# _framework density 17.986753
#
# number of rings (size 3 to 8) (size 9 to 14) (size 15 to 20)
#    0.000    2.857    0.000    2.143    0.000    4.286 
#    0.000    5.714    0.000    4.714    0.000    4.000 
#    0.000    0.000    0.000    0.000    0.000    0.000 
#
# Total GULP energy -347070.192623 kJ/mol
# GULP energy per Si atom -12395.364022 kJ/mol
# Density = 1.794581 g / cm^3
# Si number density = 17.986753 Si / 1000 Ang^3
#
#
#
# Elastic Constant Matrix: (Units=GPa)
#
#
# Indices 1 2 3 4 5 6 
#
# 1 40.7830 39.6600 45.0858 0.0000 0.0000 0.0000
# 2 39.6600 109.9763 80.2270 0.0000 0.0000 0.0000
# 3 45.0858 80.2270 148.9225 0.0000 0.0000 0.0000
# 4 0.0000 0.0000 0.0000 18.4877 0.0000 0.0000
# 5 0.0000 0.0000 0.0000 0.0000 18.6484 0.0000
# 6 0.0000 0.0000 0.0000 0.0000 0.0000 21.3302
#
#
#
# Elastic Compliance Matrix: (Units=1/GPa)
#
#
# Indices 1 2 3 4 5 6 
#
# 1 0.042384 -0.009759 -0.007574 0.000000 0.000000 0.000000
# 2 -0.009759 0.017227 -0.006326 0.000000 0.000000 0.000000
# 3 -0.007574 -0.006326 0.012416 0.000000 0.000000 0.000000
# 4 0.000000 0.000000 0.000000 0.054090 0.000000 0.000000
# 5 0.000000 0.000000 0.000000 0.000000 0.053624 0.000000
# 6 0.000000 0.000000 0.000000 0.000000 0.000000 0.046882
#
#
# Mechanical properties :
#
#
# Convention : Reuss Voigt Hill
#
# Bulk Modulus (GPa) = 40.47261 69.95859 55.21560
# Shear Modulus (GPa) = 17.71939 20.67386 19.19663
#
# Velocity S-wave (km/s) = 3.14209 3.39395 3.27045
# Velocity P-wave (km/s) = 5.97611 7.37140 6.71012
#
# Compressibility (1/GPa) = 0.02470807
#
# Stress axis : x y z
#
# Youngs Moduli (GPa) = 23.59393 58.04854 80.54285
#
# Poissons Ratio (x) = 0.56652 0.61003
# Poissons Ratio (y) = 0.23026 0.50950
# Poissons Ratio (z) = 0.17870 0.36721
#
# Static dielectric constant tensor:
#      x y z
#    x 3.179640 0.000000 0.000000 
#    y 0.000000 3.385640 0.000000 
#    z 0.000000 0.000000 3.718800 
# 
# 
# High freq. dielectric constant tensor:
#      x y z
#    x 1.677260 0.000000 0.000000 
#    y 0.000000 1.676750 0.000000 
#    z 0.000000 0.000000 1.714640 
# 
# From -- ./inp_files/18191.got.cif
#   From: 2010.03.12/outbox.cif.g09.slc.cpg/sg35_10_cif.got.tgz:18191.got - 2010.04.14 02:02:04.
