data_PCOD8173175
_publ_section_title
;
Structure prediction by ZEFSAII (Michael W. Deem and Ramdas Pophale) SiO2 
 PCOD8173175
Probable space group: C M M 2
;
_chemical_formula_sum "Si O2"
_cell_formula_units_Z 64
_cell_length_a 8.734789
_cell_length_b 28.146240
_cell_length_c 15.587276
_cell_angle_alpha 90.000000
_cell_angle_beta 90.000000
_cell_angle_gamma 90.000000
_cell_volume 3832.154680
_symmetry_space_group_name_H-M "C M M 2"
_symmetry_group_IT_number 35
_symmetry_cell_setting 'orthorhombic'
loop_
_space_group_symop_operation_xyz
x,y,z
-x,-y,z
-x,y,z
x,-y,z
1/2+x,1/2+y,z
1/2-x,1/2-y,z
1/2-x,1/2+y,z
1/2+x,1/2-y,z
loop_
_atom_site_type_symbol
_atom_site_label
_atom_site_fract_x
_atom_site_fract_y
_atom_site_fract_z
Si Si1 0.680333 0.200936 0.916790
Si Si2 0.324276 0.055749 0.011586
Si Si3 0.675281 0.056618 0.703556
Si Si4 0.680672 0.051753 0.518432
Si Si5 0.177227 0.556383 0.332445
Si Si6 0.676369 0.398242 0.172224
Si Si7 0.678091 0.298162 0.101049
Si Si8 0.822428 0.890389 0.856868
O O1 0.500000 0.205543 0.920273
O O2 0.750000 0.250000 0.881628
O O3 0.729205 0.158797 0.853249
O O4 0.742643 0.188968 0.011301
O O5 0.500000 0.069252 0.992829
O O6 0.218583 0.079946 0.941126
O O7 0.297654 0.000000 0.006542
O O8 0.280700 0.073157 0.105962
O O9 0.500000 0.070186 0.725308
O O10 0.724669 0.077160 0.608756
O O11 0.786442 0.079648 0.772425
O O12 0.694934 0.000000 0.705403
O O13 0.500000 0.044495 0.518859
O O14 0.724773 0.076428 0.427743
O O15 0.759307 0.000000 0.518455
O O16 0.207869 0.500000 0.325879
O O17 0.282601 0.585116 0.267296
O O18 0.000000 0.567258 0.312545
O O19 0.500000 0.409848 0.152405
O O20 0.706746 0.341686 0.165832
O O21 0.500000 0.289423 0.083238
O O22 0.750000 0.250000 0.140769
O O23 0.000000 0.878136 0.860000
#
# Coordination Sequence:
#
# PCOD8173175 Si02
#       8
#     8   8   8   8   8   8   8   8
#     4  11  21  35  55  74  95 124 161 205 249 291
#     4  11  23  36  49  66  92 131 174 206 236 282
#     4   9  17  31  51  73  98 130 168 206 246 293
#     4   7  12  26  48  71  94 123 162 207 246 283
#     4   9  17  30  49  72  98 130 168 204 239 286
#     4  11  22  33  47  70 100 130 161 198 246 296
#     4  10  20  34  51  71  94 123 160 204 249 293
#     4  12  23  34  48  71 101 132 165 200 244 294
#
# _framework density 16.700786000000001
#
# number of rings (size 3 to 8) (size 9 to 14) (size 15 to 20)
#    0.000    2.000    1.250    6.375    0.000    6.000 
#    0.000    0.625    0.000    2.250    0.000    0.875 
#    0.000    2.000    0.000    0.000    0.000    0.000 
#
# Total GULP energy -396664.146089 kJ/mol
# GULP energy per Si atom -12395.754565 kJ/mol
# Density = 1.666277 g / cm^3
# Si number density = 16.700786 Si / 1000 Ang^3
#
#
#
# Elastic Constant Matrix: (Units=GPa)
#
#
# Indices 1 2 3 4 5 6 
#
# 1 86.8061 39.0611 24.2652 0.0000 0.0000 0.0000
# 2 39.0611 69.4071 33.5437 0.0000 0.0000 0.0000
# 3 24.2652 33.5437 100.4569 0.0000 0.0000 0.0000
# 4 0.0000 0.0000 0.0000 7.5118 0.0000 0.0000
# 5 0.0000 0.0000 0.0000 0.0000 15.5606 0.0000
# 6 0.0000 0.0000 0.0000 0.0000 0.0000 25.4760
#
#
#
# Elastic Compliance Matrix: (Units=1/GPa)
#
#
# Indices 1 2 3 4 5 6 
#
# 1 0.015509 -0.008249 -0.000992 0.000000 0.000000 0.000000
# 2 -0.008249 0.021568 -0.005209 0.000000 0.000000 0.000000
# 3 -0.000992 -0.005209 0.011933 0.000000 0.000000 0.000000
# 4 0.000000 0.000000 0.000000 0.133124 0.000000 0.000000
# 5 0.000000 0.000000 0.000000 0.000000 0.064265 0.000000
# 6 0.000000 0.000000 0.000000 0.000000 0.000000 0.039253
#
#
# Mechanical properties :
#
#
# Convention : Reuss Voigt Hill
#
# Bulk Modulus (GPa) = 49.72540 50.04555 49.88548
# Shear Modulus (GPa) = 15.56396 20.36302 17.96349
#
# Velocity S-wave (km/s) = 3.05606 3.49561 3.28320
# Velocity P-wave (km/s) = 6.50320 6.80613 6.65639
#
# Compressibility (1/GPa) = 0.02011044
#
# Stress axis : x y z
#
# Youngs Moduli (GPa) = 64.47869 46.36590 83.79785
#
# Poissons Ratio (x) = 0.38247 0.08311
# Poissons Ratio (y) = 0.53188 0.43652
# Poissons Ratio (z) = 0.06395 0.24153
#
# Static dielectric constant tensor:
#      x y z
#    x 3.090390 0.000000 0.000000 
#    y 0.000000 3.050080 0.000000 
#    z 0.000000 0.000000 3.259870 
# 
# 
# High freq. dielectric constant tensor:
#      x y z
#    x 1.644180 0.000000 0.000000 
#    y 0.000000 1.623310 0.000000 
#    z 0.000000 0.000000 1.634180 
# 
# From -- ./inp_files/16228.got.cif
#   From: 2010.03.12/outbox.cif.g09.slc.cpg/sg35_9_cif.got.tgz:16228.got - 2010.04.14 02:02:04.
