data_PCOD8173820
_publ_section_title
;
Structure prediction by ZEFSAII (Michael W. Deem and Ramdas Pophale) SiO2 
 PCOD8173820
Probable space group: C M M 2
;
_chemical_formula_sum "Si O2"
_cell_formula_units_Z 56
_cell_length_a 18.479696
_cell_length_b 8.832871
_cell_length_c 18.122467
_cell_angle_alpha 90.000000
_cell_angle_beta 90.000000
_cell_angle_gamma 90.000000
_cell_volume 2958.108014
_symmetry_space_group_name_H-M "C M M 2"
_symmetry_group_IT_number 35
_symmetry_cell_setting 'orthorhombic'
loop_
_space_group_symop_operation_xyz
x,y,z
-x,-y,z
-x,y,z
x,-y,z
1/2+x,1/2+y,z
1/2-x,1/2-y,z
1/2-x,1/2+y,z
1/2+x,1/2-y,z
loop_
_atom_site_type_symbol
_atom_site_label
_atom_site_fract_x
_atom_site_fract_y
_atom_site_fract_z
Si Si1 0.328429 0.677880 0.877330
Si Si2 0.328522 0.821425 0.444344
Si Si3 0.171046 0.321522 0.021476
Si Si4 0.916590 0.821866 0.575697
Si Si5 0.327531 0.676522 0.715619
Si Si6 0.414880 0.673092 0.150203
Si Si7 0.583258 0.823912 0.301425
O O1 0.324602 0.500000 0.892731
O O2 0.250000 0.750000 0.875637
O O3 0.362361 0.713731 0.796572
O O4 0.368460 0.756973 0.946864
O O5 0.250000 0.750000 0.448113
O O6 0.376024 0.767090 0.512249
O O7 0.367825 0.769907 0.369412
O O8 0.320867 0.000000 0.448595
O O9 0.178360 0.500000 0.015480
O O10 0.250000 0.250000 0.031530
O O11 0.122663 0.279409 0.090897
O O12 0.884146 0.768896 0.654211
O O13 0.000000 0.774449 0.574713
O O14 0.906275 0.000000 0.563223
O O15 0.312917 0.500000 0.709441
O O16 0.250000 0.750000 0.701870
O O17 0.500000 0.692454 0.140252
O O18 0.390131 0.500000 0.139557
O O19 0.391133 0.727424 0.231240
O O20 0.500000 0.789631 0.321723
O O21 0.594407 0.000000 0.283246
#
# Coordination Sequence:
#
# PCOD8173820 Si02
#       7
#     8   8   8   8   8   8   8
#     4   9  16  29  49  74 104 137 177 222 269 319
#     4  11  23  38  57  82 111 142 178 220 266 315
#     4  11  21  34  54  79 109 143 181 224 269 317
#     4  10  21  37  56  79 109 144 181 220 265 318
#     4   9  18  32  52  77 104 137 177 222 270 318
#     4  10  21  37  57  81 109 142 180 219 263 318
#     4   9  19  37  58  78 104 140 179 219 266 318
#
# _framework density 18.931018999999999
#
# number of rings (size 3 to 8) (size 9 to 14) (size 15 to 20)
#    0.000    2.143    0.000    4.286    0.000    5.714 
#    0.000    3.571    0.000    2.571    0.000    0.000 
#    0.000    0.000    0.000    0.000    0.000    0.000 
#
# Total GULP energy -347146.777389 kJ/mol
# GULP energy per Si atom -12398.099192 kJ/mol
# Density = 1.888793 g / cm^3
# Si number density = 18.931019 Si / 1000 Ang^3
#
#
#
# Elastic Constant Matrix: (Units=GPa)
#
#
# Indices 1 2 3 4 5 6 
#
# 1 87.5827 39.9484 75.0226 0.0000 0.0000 0.0000
# 2 39.9484 94.8428 68.1693 0.0000 0.0000 0.0000
# 3 75.0226 68.1693 178.1425 0.0000 0.0000 0.0000
# 4 0.0000 0.0000 0.0000 36.1843 0.0000 0.0000
# 5 0.0000 0.0000 0.0000 0.0000 38.4865 0.0000
# 6 0.0000 0.0000 0.0000 0.0000 0.0000 16.3422
#
#
#
# Elastic Compliance Matrix: (Units=1/GPa)
#
#
# Indices 1 2 3 4 5 6 
#
# 1 0.018467 -0.003019 -0.006622 0.000000 0.000000 0.000000
# 2 -0.003019 0.015038 -0.004483 0.000000 0.000000 0.000000
# 3 -0.006622 -0.004483 0.010118 0.000000 0.000000 0.000000
# 4 0.000000 0.000000 0.000000 0.027636 0.000000 0.000000
# 5 0.000000 0.000000 0.000000 0.000000 0.025983 0.000000
# 6 0.000000 0.000000 0.000000 0.000000 0.000000 0.061191
#
#
# Mechanical properties :
#
#
# Convention : Reuss Voigt Hill
#
# Bulk Modulus (GPa) = 65.04199 80.76097 72.90148
# Shear Modulus (GPa) = 26.06807 30.03111 28.04959
#
# Velocity S-wave (km/s) = 3.71483 3.98721 3.85343
# Velocity P-wave (km/s) = 7.26855 7.99690 7.64141
#
# Compressibility (1/GPa) = 0.01537468
#
# Stress axis : x y z
#
# Youngs Moduli (GPa) = 54.15049 66.50019 98.83611
#
# Poissons Ratio (x) = 0.20075 0.65449
# Poissons Ratio (y) = 0.16347 0.44309
# Poissons Ratio (z) = 0.35858 0.29812
#
# Static dielectric constant tensor:
#      x y z
#    x 3.255570 0.000000 0.000000 
#    y 0.000000 3.490680 0.000000 
#    z 0.000000 0.000000 4.174320 
# 
# 
# High freq. dielectric constant tensor:
#      x y z
#    x 1.710910 0.000000 0.000000 
#    y 0.000000 1.741530 0.000000 
#    z 0.000000 0.000000 1.759580 
# 
# From -- ./inp_files/17416.got.cif
#   From: 2010.03.12/outbox.cif.g09.slc.cpg/sg35_9_cif.got.tgz:17416.got - 2010.04.14 02:02:04.
