data_PCOD8173726
_publ_section_title
;
Structure prediction by ZEFSAII (Michael W. Deem and Ramdas Pophale) SiO2 
 PCOD8173726
Probable space group: C M M 2
;
_chemical_formula_sum "Si O2"
_cell_formula_units_Z 48
_cell_length_a 15.584658
_cell_length_b 8.974491
_cell_length_c 16.772715
_cell_angle_alpha 90.000000
_cell_angle_beta 90.000000
_cell_angle_gamma 90.000000
_cell_volume 2345.905266
_symmetry_space_group_name_H-M "C M M 2"
_symmetry_group_IT_number 35
_symmetry_cell_setting 'orthorhombic'
loop_
_space_group_symop_operation_xyz
x,y,z
-x,-y,z
-x,y,z
x,-y,z
1/2+x,1/2+y,z
1/2-x,1/2-y,z
1/2-x,1/2+y,z
1/2+x,1/2-y,z
loop_
_atom_site_type_symbol
_atom_site_label
_atom_site_fract_x
_atom_site_fract_y
_atom_site_fract_z
Si Si1 0.500000 0.829863 0.041340
Si Si2 0.000000 0.329454 0.230016
Si Si3 0.161689 0.823246 0.309294
Si Si4 0.597374 0.161814 0.633178
Si Si5 0.400366 0.671706 0.481368
Si Si6 0.158777 0.824119 0.958656
Si Si7 0.338542 0.326424 0.776863
O O1 0.500000 0.824997 0.135452
O O2 0.500000 0.000000 0.009694
O O3 0.414933 0.746383 0.012062
O O4 0.915693 0.245248 0.259330
O O5 0.000000 0.500000 0.261022
O O6 0.250000 0.750000 0.278635
O O7 0.150513 0.782322 0.402114
O O8 0.163270 0.000000 0.295080
O O9 0.500000 0.139543 0.608288
O O10 0.640871 0.241053 0.556747
O O11 0.595497 0.259329 0.713638
O O12 0.641057 0.000000 0.647612
O O13 0.500000 0.708840 0.465991
O O14 0.388235 0.500000 0.501752
O O15 0.250000 0.750000 0.979914
O O16 0.133158 0.790431 0.867030
O O17 0.165516 0.000000 0.974998
O O18 0.330044 0.500000 0.763148
O O19 0.250000 0.250000 0.755046
#
# Coordination Sequence:
#
# PCOD8173726 Si02
#       7
#     4   4   8   8   8   8   8
#     4  11  25  43  67  96 125 162 203 247 308 373
#     4  11  25  45  67  94 127 162 201 251 308 369
#     4  11  23  41  66  96 126 164 207 252 308 368
#     4  10  21  34  52  83 118 158 203 246 296 350
#     4   9  18  36  58  81 116 161 205 253 305 355
#     4  10  22  41  65  94 126 163 207 255 309 366
#     4  10  21  37  57  81 114 155 198 248 301 353
#
# _framework density 20.461183999999999
#
# number of rings (size 3 to 8) (size 9 to 14) (size 15 to 20)
#    0.000    1.833    0.833    2.500    1.167    7.000 
#    0.000    1.667    0.000    0.000    0.000    0.000 
#    0.000    0.000    0.000    0.000    0.000    0.000 
#
# Total GULP energy -297587.815809 kJ/mol
# GULP energy per Si atom -12399.492325 kJ/mol
# Density = 2.041461 g / cm^3
# Si number density = 20.461184 Si / 1000 Ang^3
#
#
#
# Elastic Constant Matrix: (Units=GPa)
#
#
# Indices 1 2 3 4 5 6 
#
# 1 110.9178 62.3747 49.8087 0.0000 0.0000 0.0000
# 2 62.3747 137.0781 61.6698 0.0000 0.0000 0.0000
# 3 49.8087 61.6698 92.2696 0.0000 0.0000 0.0000
# 4 0.0000 0.0000 0.0000 33.7839 0.0000 0.0000
# 5 0.0000 0.0000 0.0000 0.0000 -6.0844 0.0000
# 6 0.0000 0.0000 0.0000 0.0000 0.0000 33.1268
#
#
#
# Elastic Compliance Matrix: (Units=1/GPa)
#
#
# Indices 1 2 3 4 5 6 
#
# 1 0.013297 -0.004034 -0.004481 0.000000 0.000000 0.000000
# 2 -0.004034 0.011656 -0.005613 0.000000 0.000000 0.000000
# 3 -0.004481 -0.005613 0.017008 0.000000 0.000000 0.000000
# 4 0.000000 0.000000 0.000000 0.029600 0.000000 0.000000
# 5 0.000000 0.000000 0.000000 0.000000 -0.164354 0.000000
# 6 0.000000 0.000000 0.000000 0.000000 0.000000 0.030187
#
#
# Mechanical properties :
#
#
# Convention : Reuss Voigt Hill
#
# Bulk Modulus (GPa) = 72.97026 76.44132 74.70579
# Shear Modulus (GPa) = -167.89231 23.25941 -72.31645
#
# Velocity S-wave (km/s) = -9.06820 3.37524 -5.95147
# Velocity P-wave (km/s) = 8.59667 7.25465 3.26135
#
# Compressibility (1/GPa) = 0.01370421
#
# Stress axis : x y z
#
# Youngs Moduli (GPa) = 75.20590 85.79353 58.79497
#
# Poissons Ratio (x) = 0.34612 0.26349
# Poissons Ratio (y) = 0.30340 0.32999
# Poissons Ratio (z) = 0.33703 0.48153
#
# Static dielectric constant tensor:
#      x y z
#    x 3.554990 0.000000 0.000000 
#    y 0.000000 4.024840 0.000000 
#    z 0.000000 0.000000 3.701050 
# 
# 
# High freq. dielectric constant tensor:
#      x y z
#    x 1.793190 0.000000 0.000000 
#    y 0.000000 1.814990 0.000000 
#    z 0.000000 0.000000 1.800720 
# 
# From -- ./inp_files/17120.got.cif
#   From: 2010.03.12/outbox.cif.g09.slc.cpg/sg35_9_cif.got.tgz:17120.got - 2010.04.14 02:02:04.
