data_PCOD8173246
_publ_section_title
;
Structure prediction by ZEFSAII (Michael W. Deem and Ramdas Pophale) SiO2 
 PCOD8173246
Probable space group: C M M 2
;
_chemical_formula_sum "Si O2"
_cell_formula_units_Z 64
_cell_length_a 36.926111
_cell_length_b 9.089512
_cell_length_c 10.483532
_cell_angle_alpha 90.000000
_cell_angle_beta 90.000000
_cell_angle_gamma 90.000000
_cell_volume 3518.696130
_symmetry_space_group_name_H-M "C M M 2"
_symmetry_group_IT_number 35
_symmetry_cell_setting 'orthorhombic'
loop_
_space_group_symop_operation_xyz
x,y,z
-x,-y,z
-x,y,z
x,-y,z
1/2+x,1/2+y,z
1/2-x,1/2-y,z
1/2-x,1/2+y,z
1/2+x,1/2-y,z
loop_
_atom_site_type_symbol
_atom_site_label
_atom_site_fract_x
_atom_site_fract_y
_atom_site_fract_z
Si Si1 0.416671 0.824756 0.010800
Si Si2 0.040369 0.674878 0.764997
Si Si3 0.543093 0.835669 0.485266
Si Si4 0.212849 0.831020 0.518867
Si Si5 0.543007 0.667758 0.237389
Si Si6 0.788460 0.827734 0.793995
Si Si7 0.711601 0.328181 0.244082
Si Si8 0.839898 0.174139 0.018947
O O1 0.441079 0.765980 0.125293
O O2 0.376895 0.761315 0.022288
O O3 0.415859 0.000000 0.017866
O O4 0.433441 0.767921 0.876859
O O5 0.038214 0.500000 0.766028
O O6 0.055459 0.724458 0.625228
O O7 0.000000 0.739474 0.788742
O O8 0.500000 0.841917 0.485677
O O9 0.557296 0.728456 0.373761
O O10 0.558525 0.000000 0.460511
O O11 0.250000 0.750000 0.515208
O O12 0.193731 0.790533 0.653768
O O13 0.193227 0.793846 0.384124
O O14 0.223029 0.000000 0.521570
O O15 0.500000 0.679142 0.229758
O O16 0.556406 0.500000 0.223832
O O17 0.750000 0.750000 0.815167
O O18 0.781255 0.000000 0.812233
O O19 0.817639 0.772608 0.895577
O O20 0.719210 0.500000 0.225543
O O21 0.750000 0.250000 0.224027
O O22 0.682707 0.273318 0.141617
O O23 0.847473 0.000000 0.018747
#
# Coordination Sequence:
#
# PCOD8173246 Si02
#       8
#     8   8   8   8   8   8   8   8
#     4  11  22  35  52  73 100 137 176 212 249 293
#     4   8  15  30  53  78 100 124 161 209 254 294
#     4   8  14  28  52  78 101 126 159 202 249 296
#     4   8  14  26  45  70  94 117 150 192 240 291
#     4  10  20  34  53  78 106 133 163 203 250 300
#     4   9  17  30  50  72  94 121 154 195 242 293
#     4   9  17  30  50  72  95 124 158 199 244 291
#     4  10  21  35  47  65  98 134 164 201 248 293
#
# _framework density 18.188555000000001
#
# number of rings (size 3 to 8) (size 9 to 14) (size 15 to 20)
#    0.000    2.875    0.000    2.250    0.000    2.250 
#    0.000    2.500    0.000    4.500    0.000    0.000 
#    0.000    0.000    0.000    0.000    0.000    0.000 
#
# Total GULP energy -396477.611091 kJ/mol
# GULP energy per Si atom -12389.925347 kJ/mol
# Density = 1.814716 g / cm^3
# Si number density = 18.188555 Si / 1000 Ang^3
#
#
#
# Elastic Constant Matrix: (Units=GPa)
#
#
# Indices 1 2 3 4 5 6 
#
# 1 56.0372 26.9777 48.5672 0.0000 0.0000 0.0000
# 2 26.9777 50.4226 42.5692 0.0000 0.0000 0.0000
# 3 48.5672 42.5692 177.8872 0.0000 0.0000 0.0000
# 4 0.0000 0.0000 0.0000 7.5234 0.0000 0.0000
# 5 0.0000 0.0000 0.0000 0.0000 5.8940 0.0000
# 6 0.0000 0.0000 0.0000 0.0000 0.0000 25.0275
#
#
#
# Elastic Compliance Matrix: (Units=1/GPa)
#
#
# Indices 1 2 3 4 5 6 
#
# 1 0.027088 -0.010338 -0.004922 0.000000 0.000000 0.000000
# 2 -0.010338 0.028799 -0.004069 0.000000 0.000000 0.000000
# 3 -0.004922 -0.004069 0.007939 0.000000 0.000000 0.000000
# 4 0.000000 0.000000 0.000000 0.132918 0.000000 0.000000
# 5 0.000000 0.000000 0.000000 0.000000 0.169663 0.000000
# 6 0.000000 0.000000 0.000000 0.000000 0.000000 0.039956
#
#
# Mechanical properties :
#
#
# Convention : Reuss Voigt Hill
#
# Bulk Modulus (GPa) = 39.73245 57.84168 48.78706
# Shear Modulus (GPa) = 11.02757 18.77120 14.89938
#
# Velocity S-wave (km/s) = 2.46497 3.21601 2.86521
# Velocity P-wave (km/s) = 5.47664 6.75726 6.15037
#
# Compressibility (1/GPa) = 0.02516834
#
# Stress axis : x y z
#
# Youngs Moduli (GPa) = 36.91715 34.72367 125.95932
#
# Poissons Ratio (x) = 0.35896 0.61993
# Poissons Ratio (y) = 0.38164 0.51256
# Poissons Ratio (z) = 0.18170 0.14130
#
# Static dielectric constant tensor:
#      x y z
#    x 2.881810 0.000000 0.000000 
#    y 0.000000 3.271560 0.000000 
#    z 0.000000 0.000000 4.412100 
# 
# 
# High freq. dielectric constant tensor:
#      x y z
#    x 1.662290 0.000000 0.000000 
#    y 0.000000 1.691350 0.000000 
#    z 0.000000 0.000000 1.735440 
# 
# From -- ./inp_files/14597.got.cif
#   From: 2010.03.12/outbox.cif.g09.slc.cpg/sg35_8_cif.got.tgz:14597.got - 2010.04.14 02:02:04.
