data_PCOD8173839
_publ_section_title
;
Structure prediction by ZEFSAII (Michael W. Deem and Ramdas Pophale) SiO2 
 PCOD8173839
Probable space group: C M M 2
;
_chemical_formula_sum "Si O2"
_cell_formula_units_Z 48
_cell_length_a 15.607857
_cell_length_b 31.006018
_cell_length_c 5.047549
_cell_angle_alpha 90.000000
_cell_angle_beta 90.000000
_cell_angle_gamma 90.000000
_cell_volume 2442.698219
_symmetry_space_group_name_H-M "C M M 2"
_symmetry_group_IT_number 35
_symmetry_cell_setting 'orthorhombic'
loop_
_space_group_symop_operation_xyz
x,y,z
-x,-y,z
-x,y,z
x,-y,z
1/2+x,1/2+y,z
1/2-x,1/2-y,z
1/2-x,1/2+y,z
1/2+x,1/2-y,z
loop_
_atom_site_type_symbol
_atom_site_label
_atom_site_fract_x
_atom_site_fract_y
_atom_site_fract_z
Si Si1 0.241260 0.000000 0.679600
Si Si2 0.825258 0.907202 0.687005
Si Si3 0.099214 0.863903 0.188929
Si Si4 0.681988 0.841461 0.744705
Si Si5 0.500000 0.124469 0.653843
Si Si6 0.245528 0.200098 0.244996
Si Si7 0.500000 0.068742 0.156800
Si Si8 0.856834 0.500000 0.176591
O O1 0.181312 0.958456 0.723995
O O2 0.279593 0.000000 0.384472
O O3 0.319649 0.000000 0.882408
O O4 0.866988 0.897853 0.403761
O O5 0.729641 0.887242 0.703317
O O6 0.886384 0.885899 0.905412
O O7 0.149065 0.818333 0.214301
O O8 0.000000 0.853290 0.229273
O O9 0.581748 0.845713 0.698454
O O10 0.721207 0.806521 0.543104
O O11 0.693571 0.825726 0.044462
O O12 0.500000 0.109211 0.351179
O O13 0.500000 0.083944 0.852895
O O14 0.250000 0.250000 0.172595
O O15 0.414317 0.042160 0.214661
#
# Coordination Sequence:
#
# PCOD8173839 Si02
#       8
#     4   8   8   8   4   8   4   4
#     4  12  22  37  57  84 112 156 206 252 290 345
#     4  10  21  37  59  82 117 152 198 241 296 342
#     4  10  21  40  61  86 112 153 190 238 297 365
#     4  10  21  37  58  84 117 158 185 237 290 354
#     4  12  22  37  56  84 120 158 196 226 294 349
#     4  10  21  40  63  85 117 146 191 238 296 347
#     4  11  22  34  52  78 116 158 194 252 280 334
#     4  11  22  34  52  80 113 152 210 244 289 334
#
# _framework density 19.650400000000001
#
# number of rings (size 3 to 8) (size 9 to 14) (size 15 to 20)
#    0.000    1.500    0.000    6.000    0.000    4.000 
#    3.000    2.500    0.000    0.000    0.000    0.000 
#    0.000    0.000    0.000    0.000    0.000    0.000 
#
# Total GULP energy -297755.429167 kJ/mol
# GULP energy per Si atom -12406.476215 kJ/mol
# Density = 1.960567 g / cm^3
# Si number density = 19.650400 Si / 1000 Ang^3
#
#
#
# Elastic Constant Matrix: (Units=GPa)
#
#
# Indices 1 2 3 4 5 6 
#
# 1 120.6723 49.6543 7.3844 0.0000 0.0000 0.0000
# 2 49.6543 110.8992 9.0197 0.0000 0.0000 0.0000
# 3 7.3844 9.0197 73.7521 0.0000 0.0000 0.0000
# 4 0.0000 0.0000 0.0000 20.8477 0.0000 0.0000
# 5 0.0000 0.0000 0.0000 0.0000 20.3864 0.0000
# 6 0.0000 0.0000 0.0000 0.0000 0.0000 5.3228
#
#
#
# Elastic Compliance Matrix: (Units=1/GPa)
#
#
# Indices 1 2 3 4 5 6 
#
# 1 0.010174 -0.004518 -0.000466 0.000000 0.000000 0.000000
# 2 -0.004518 0.011114 -0.000907 0.000000 0.000000 0.000000
# 3 -0.000466 -0.000907 0.013717 0.000000 0.000000 0.000000
# 4 0.000000 0.000000 0.000000 0.047967 0.000000 0.000000
# 5 0.000000 0.000000 0.000000 0.000000 0.049052 0.000000
# 6 0.000000 0.000000 0.000000 0.000000 0.000000 0.187872
#
#
# Mechanical properties :
#
#
# Convention : Reuss Voigt Hill
#
# Bulk Modulus (GPa) = 43.06029 48.60448 45.83238
# Shear Modulus (GPa) = 14.73110 25.26241 19.99676
#
# Velocity S-wave (km/s) = 2.74096 3.58941 3.19349
# Velocity P-wave (km/s) = 5.65490 6.47817 6.08049
#
# Compressibility (1/GPa) = 0.02322325
#
# Stress axis : x y z
#
# Youngs Moduli (GPa) = 98.28671 89.97944 72.90482
#
# Poissons Ratio (x) = 0.40649 0.03399
# Poissons Ratio (y) = 0.44402 0.06611
# Poissons Ratio (z) = 0.04582 0.08160
#
# Static dielectric constant tensor:
#      x y z
#    x 3.441690 0.000000 0.000000 
#    y 0.000000 3.376140 0.000000 
#    z 0.000000 0.000000 3.731300 
# 
# 
# High freq. dielectric constant tensor:
#      x y z
#    x 1.757500 0.000000 0.000000 
#    y 0.000000 1.751870 0.000000 
#    z 0.000000 0.000000 1.787980 
# 
# From -- ./inp_files/1979.got.cif
#   From: 2010.03.12/outbox.cif.g09.slc.cpg/sg35_1_cif.got.tgz:1979.got - 2010.04.14 02:02:04.
