data_PCOD8173556
_publ_section_title
;
Structure prediction by ZEFSAII (Michael W. Deem and Ramdas Pophale) SiO2 
 PCOD8173556
Probable space group: C M M 2
;
_chemical_formula_sum "Si O2"
_cell_formula_units_Z 56
_cell_length_a 18.994941
_cell_length_b 8.662509
_cell_length_c 17.689995
_cell_angle_alpha 90.000000
_cell_angle_beta 90.000000
_cell_angle_gamma 90.000000
_cell_volume 2910.779837
_symmetry_space_group_name_H-M "C M M 2"
_symmetry_group_IT_number 35
_symmetry_cell_setting 'orthorhombic'
loop_
_space_group_symop_operation_xyz
x,y,z
-x,-y,z
-x,y,z
x,-y,z
1/2+x,1/2+y,z
1/2-x,1/2-y,z
1/2-x,1/2+y,z
1/2+x,1/2-y,z
loop_
_atom_site_type_symbol
_atom_site_label
_atom_site_fract_x
_atom_site_fract_y
_atom_site_fract_z
Si Si1 0.916881 0.322976 0.541100
Si Si2 0.675807 0.681178 0.986558
Si Si3 0.325067 0.817976 0.826387
Si Si4 0.581569 0.320904 0.127591
Si Si5 0.824220 0.318698 0.252750
Si Si6 0.416889 0.322833 0.698027
Si Si7 0.675611 0.318063 0.414080
O O1 0.892324 0.500000 0.536649
O O2 0.890457 0.252093 0.620000
O O3 0.883827 0.226137 0.473509
O O4 0.000000 0.306666 0.533275
O O5 0.685034 0.500000 0.974498
O O6 0.750000 0.750000 0.014283
O O7 0.651306 0.755263 0.907919
O O8 0.616971 0.721792 0.048034
O O9 0.250000 0.750000 0.801747
O O10 0.383472 0.769867 0.766629
O O11 0.318827 0.000000 0.830264
O O12 0.500000 0.278086 0.121207
O O13 0.593327 0.500000 0.147287
O O14 0.615089 0.218972 0.193366
O O15 0.815468 0.500000 0.261737
O O16 0.750000 0.250000 0.224273
O O17 0.846523 0.248737 0.333026
O O18 0.500000 0.306698 0.706247
O O19 0.392451 0.500000 0.700045
O O20 0.682187 0.500000 0.407385
O O21 0.750000 0.250000 0.441271
#
# Coordination Sequence:
#
# PCOD8173556 Si02
#       7
#     8   8   8   8   8   8   8
#     4  10  21  38  59  84 115 149 187 230 277 331
#     4  10  20  36  58  82 110 147 188 230 279 333
#     4  11  22  37  58  84 114 147 187 233 280 330
#     4  10  22  39  58  83 115 149 186 229 277 329
#     4  11  22  38  60  84 112 147 187 230 279 333
#     4  10  21  38  59  83 113 149 188 229 278 335
#     4  11  22  38  60  85 114 147 187 232 279 331
#
# _framework density 19.238831000000001
#
# number of rings (size 3 to 8) (size 9 to 14) (size 15 to 20)
#    0.000    1.571    0.000    7.286    0.000    6.000 
#    0.000    4.286    0.000    0.000    0.000    0.000 
#    0.000    0.000    0.000    0.000    0.000    0.000 
#
# Total GULP energy -347361.381678 kJ/mol
# GULP energy per Si atom -12405.763631 kJ/mol
# Density = 1.919504 g / cm^3
# Si number density = 19.238831 Si / 1000 Ang^3
#
#
#
# Elastic Constant Matrix: (Units=GPa)
#
#
# Indices 1 2 3 4 5 6 
#
# 1 80.1670 50.4462 67.6956 0.0000 0.0000 0.0000
# 2 50.4462 160.7791 69.4820 0.0000 0.0000 0.0000
# 3 67.6956 69.4820 126.3125 0.0000 0.0000 0.0000
# 4 0.0000 0.0000 0.0000 36.2109 0.0000 0.0000
# 5 0.0000 0.0000 0.0000 0.0000 763.1809 0.0000
# 6 0.0000 0.0000 0.0000 0.0000 0.0000 31.6587
#
#
#
# Elastic Compliance Matrix: (Units=1/GPa)
#
#
# Indices 1 2 3 4 5 6 
#
# 1 0.023550 -0.002538 -0.011225 0.000000 0.000000 0.000000
# 2 -0.002538 0.008433 -0.003279 0.000000 0.000000 0.000000
# 3 -0.011225 -0.003279 0.015736 0.000000 0.000000 0.000000
# 4 0.000000 0.000000 0.000000 0.027616 0.000000 0.000000
# 5 0.000000 0.000000 0.000000 0.000000 0.001310 0.000000
# 6 0.000000 0.000000 0.000000 0.000000 0.000000 0.031587
#
#
# Mechanical properties :
#
#
# Convention : Reuss Voigt Hill
#
# Bulk Modulus (GPa) = 73.33701 82.50070 77.91885
# Shear Modulus (GPa) = 34.04577 178.18575 106.11576
#
# Velocity S-wave (km/s) = 4.21127 9.63425 7.43484
# Velocity P-wave (km/s) = 7.86438 12.91255 10.69070
#
# Compressibility (1/GPa) = 0.01363568
#
# Stress axis : x y z
#
# Youngs Moduli (GPa) = 42.46295 118.58328 63.54706
#
# Poissons Ratio (x) = 0.30096 0.71333
# Poissons Ratio (y) = 0.10777 0.20834
# Poissons Ratio (z) = 0.47666 0.38878
#
# Static dielectric constant tensor:
#      x y z
#    x 3.248770 0.000000 0.000000 
#    y 0.000000 3.705330 0.000000 
#    z 0.000000 0.000000 3.584100 
# 
# 
# High freq. dielectric constant tensor:
#      x y z
#    x 1.742350 0.000000 0.000000 
#    y 0.000000 1.766650 0.000000 
#    z 0.000000 0.000000 1.759370 
# 
# From -- ./inp_files/17404.got.cif
#   From: 2010.03.12/outbox.cif.g09.slc.cpg/sg35_9_cif.got.tgz:17404.got - 2010.04.14 02:02:04.
