data_PCOD8173255
_publ_section_title
;
Structure prediction by ZEFSAII (Michael W. Deem and Ramdas Pophale) SiO2 
 PCOD8173255
Probable space group: C M M 2
;
_chemical_formula_sum "Si O2"
_cell_formula_units_Z 64
_cell_length_a 28.887372
_cell_length_b 8.754148
_cell_length_c 12.833939
_cell_angle_alpha 90.000000
_cell_angle_beta 90.000000
_cell_angle_gamma 90.000000
_cell_volume 3245.502063
_symmetry_space_group_name_H-M "C M M 2"
_symmetry_group_IT_number 35
_symmetry_cell_setting 'orthorhombic'
loop_
_space_group_symop_operation_xyz
x,y,z
-x,-y,z
-x,y,z
x,-y,z
1/2+x,1/2+y,z
1/2-x,1/2-y,z
1/2-x,1/2+y,z
1/2+x,1/2-y,z
loop_
_atom_site_type_symbol
_atom_site_label
_atom_site_fract_x
_atom_site_fract_y
_atom_site_fract_z
Si Si1 0.300999 0.680981 0.026770
Si Si2 0.146039 0.679555 0.835213
Si Si3 0.300118 0.680911 0.650583
Si Si4 0.298923 0.678725 0.415796
Si Si5 0.449077 0.819174 0.752692
Si Si6 0.142649 0.818697 0.223991
Si Si7 0.054492 0.332273 0.525429
Si Si8 0.551129 0.319926 0.316602
O O1 0.296276 0.500000 0.031275
O O2 0.250000 0.750000 0.029505
O O3 0.331137 0.748006 0.123017
O O4 0.327532 0.726373 0.922547
O O5 0.154481 0.500000 0.852021
O O6 0.164078 0.731430 0.723178
O O7 0.090917 0.721234 0.836629
O O8 0.299519 0.500000 0.673076
O O9 0.250000 0.750000 0.674003
O O10 0.315802 0.719627 0.532473
O O11 0.292872 0.500000 0.404005
O O12 0.250000 0.750000 0.390137
O O13 0.334149 0.743951 0.329900
O O14 0.500000 0.756065 0.788379
O O15 0.434568 0.754695 0.638091
O O16 0.452503 0.000000 0.738532
O O17 0.088477 0.766913 0.228819
O O18 0.145859 0.000000 0.219708
O O19 0.077821 0.500000 0.514863
O O20 0.071147 0.227338 0.429807
O O21 0.000000 0.350506 0.516977
O O22 0.500000 0.249822 0.291762
O O23 0.547571 0.500000 0.317933
#
# Coordination Sequence:
#
# PCOD8173255 Si02
#       8
#     8   8   8   8   8   8   8   8
#     4  11  23  41  62  81 105 138 181 232 281 329
#     4  11  22  36  57  82 109 141 183 226 271 326
#     4  10  20  34  53  78 110 143 175 218 271 330
#     4   9  18  33  52  75 105 137 170 213 265 320
#     4   8  16  32  53  77 108 146 184 221 264 316
#     4   9  19  35  55  78 106 140 177 218 268 319
#     4   8  14  27  47  72 104 141 178 215 255 299
#     4   9  17  30  50  77 109 144 179 212 255 316
#
# _framework density 19.719598999999999
#
# number of rings (size 3 to 8) (size 9 to 14) (size 15 to 20)
#    0.000    2.625    0.000    2.625    1.750    0.500 
#    0.000    3.750    0.000    3.000    0.000    0.000 
#    0.000    0.000    0.000    0.000    0.000    0.000 
#
# Total GULP energy -396537.074001 kJ/mol
# GULP energy per Si atom -12391.783563 kJ/mol
# Density = 1.967472 g / cm^3
# Si number density = 19.719599 Si / 1000 Ang^3
#
#
#
# Elastic Constant Matrix: (Units=GPa)
#
#
# Indices 1 2 3 4 5 6 
#
# 1 137.3124 25.3376 76.2963 0.0000 0.0000 0.0000
# 2 25.3376 34.5748 19.4672 0.0000 0.0000 0.0000
# 3 76.2963 19.4672 99.3614 0.0000 0.0000 0.0000
# 4 0.0000 0.0000 0.0000 17.8001 0.0000 0.0000
# 5 0.0000 0.0000 0.0000 0.0000 34.8976 0.0000
# 6 0.0000 0.0000 0.0000 0.0000 0.0000 12.8926
#
#
#
# Elastic Compliance Matrix: (Units=1/GPa)
#
#
# Indices 1 2 3 4 5 6 
#
# 1 0.013295 -0.004490 -0.009329 0.000000 0.000000 0.000000
# 2 -0.004490 0.034026 -0.003218 0.000000 0.000000 0.000000
# 3 -0.009329 -0.003218 0.017858 0.000000 0.000000 0.000000
# 4 0.000000 0.000000 0.000000 0.056179 0.000000 0.000000
# 5 0.000000 0.000000 0.000000 0.000000 0.028655 0.000000
# 6 0.000000 0.000000 0.000000 0.000000 0.000000 0.077564
#
#
# Mechanical properties :
#
#
# Convention : Reuss Voigt Hill
#
# Bulk Modulus (GPa) = 32.15090 57.05009 44.60049
# Shear Modulus (GPa) = 18.38100 23.12788 20.75444
#
# Velocity S-wave (km/s) = 3.05637 3.42839 3.24771
# Velocity P-wave (km/s) = 5.36606 6.68321 6.06052
#
# Compressibility (1/GPa) = 0.03110333
#
# Stress axis : x y z
#
# Youngs Moduli (GPa) = 75.21799 29.38962 55.99697
#
# Poissons Ratio (x) = 0.13197 0.52238
# Poissons Ratio (y) = 0.33775 0.18022
# Poissons Ratio (z) = 0.70169 0.09459
#
# Static dielectric constant tensor:
#      x y z
#    x 3.977740 0.000000 0.000000 
#    y 0.000000 3.402670 0.000000 
#    z 0.000000 0.000000 3.684880 
# 
# 
# High freq. dielectric constant tensor:
#      x y z
#    x 1.778770 0.000000 0.000000 
#    y 0.000000 1.741000 0.000000 
#    z 0.000000 0.000000 1.754690 
# 
# From -- ./inp_files/14607.got.cif
#   From: 2010.03.12/outbox.cif.g09.slc.cpg/sg35_8_cif.got.tgz:14607.got - 2010.04.14 02:02:04.
