data_PCOD8173990
_publ_section_title
;
Structure prediction by ZEFSAII (Michael W. Deem and Ramdas Pophale) SiO2 
 PCOD8173990
Probable space group: C M M 2
;
_chemical_formula_sum "Si O2"
_cell_formula_units_Z 48
_cell_length_a 27.724578
_cell_length_b 8.824392
_cell_length_c 10.107342
_cell_angle_alpha 90.000000
_cell_angle_beta 90.000000
_cell_angle_gamma 90.000000
_cell_volume 2472.786936
_symmetry_space_group_name_H-M "C M M 2"
_symmetry_group_IT_number 35
_symmetry_cell_setting 'orthorhombic'
loop_
_space_group_symop_operation_xyz
x,y,z
-x,-y,z
-x,y,z
x,-y,z
1/2+x,1/2+y,z
1/2-x,1/2-y,z
1/2-x,1/2+y,z
1/2+x,1/2-y,z
loop_
_atom_site_type_symbol
_atom_site_label
_atom_site_fract_x
_atom_site_fract_y
_atom_site_fract_z
Si Si1 0.198087 0.820617 0.211530
Si Si2 0.699392 0.824350 0.719728
Si Si3 0.642651 0.821022 0.974638
Si Si4 0.445007 0.674817 0.847934
Si Si5 0.645953 0.823884 0.452543
Si Si6 0.054479 0.176874 0.543951
O O1 0.250000 0.750000 0.179821
O O2 0.179644 0.770454 0.354763
O O3 0.202957 0.000000 0.206380
O O4 0.159259 0.764271 0.105662
O O5 0.750000 0.750000 0.690520
O O6 0.675727 0.761387 0.853933
O O7 0.663991 0.787982 0.599536
O O8 0.708867 0.000000 0.735230
O O9 0.587556 0.777779 0.943108
O O10 0.646623 0.000000 0.996279
O O11 0.500000 0.698361 0.893448
O O12 0.429774 0.500000 0.862773
O O13 0.438917 0.727372 0.696116
O O14 0.590379 0.769826 0.448473
O O15 0.649369 0.000000 0.414644
O O16 0.000000 0.212735 0.497584
O O17 0.065802 0.000000 0.528809
#
# Coordination Sequence:
#
# PCOD8173990 Si02
#       6
#     8   8   8   8   8   8
#     4  12  26  44  63  86 117 160 202 245 299 357
#     4  10  22  36  55  84 115 147 190 241 293 346
#     4  11  22  39  60  88 120 156 199 245 297 354
#     4   9  18  34  58  89 123 159 198 241 294 353
#     4  11  22  39  60  88 120 156 199 245 297 354
#     4   9  18  34  58  89 123 159 198 241 294 353
#
# _framework density 19.411297000000001
#
# number of rings (size 3 to 8) (size 9 to 14) (size 15 to 20)
#    0.000    1.667    1.667    4.500    0.000    6.000 
#    0.000    2.500    0.000    5.000    0.000    0.000 
#    0.000    0.000    0.000    0.000    0.000    0.000 
#
# Total GULP energy -297695.369474 kJ/mol
# GULP energy per Si atom -12403.973728 kJ/mol
# Density = 1.936712 g / cm^3
# Si number density = 19.411297 Si / 1000 Ang^3
#
#
#
# Elastic Constant Matrix: (Units=GPa)
#
#
# Indices 1 2 3 4 5 6 
#
# 1 105.8647 41.5301 13.7506 0.0000 0.0000 0.0000
# 2 41.5301 92.7623 36.0581 0.0000 0.0000 0.0000
# 3 13.7506 36.0581 51.2895 0.0000 0.0000 0.0000
# 4 0.0000 0.0000 0.0000 28.5370 0.0000 0.0000
# 5 0.0000 0.0000 0.0000 0.0000 33.4707 0.0000
# 6 0.0000 0.0000 0.0000 0.0000 0.0000 38.8802
#
#
#
# Elastic Compliance Matrix: (Units=1/GPa)
#
#
# Indices 1 2 3 4 5 6 
#
# 1 0.011479 -0.005426 0.000737 0.000000 0.000000 0.000000
# 2 -0.005426 0.017399 -0.010777 0.000000 0.000000 0.000000
# 3 0.000737 -0.010777 0.026876 0.000000 0.000000 0.000000
# 4 0.000000 0.000000 0.000000 0.035042 0.000000 0.000000
# 5 0.000000 0.000000 0.000000 0.000000 0.029877 0.000000
# 6 0.000000 0.000000 0.000000 0.000000 0.000000 0.025720
#
#
# Mechanical properties :
#
#
# Convention : Reuss Voigt Hill
#
# Bulk Modulus (GPa) = 40.28685 48.06601 44.17643
# Shear Modulus (GPa) = 26.93991 30.74941 28.84466
#
# Velocity S-wave (km/s) = 3.72942 3.98439 3.85901
# Velocity P-wave (km/s) = 6.27249 6.78106 6.53173
#
# Compressibility (1/GPa) = 0.02482200
#
# Stress axis : x y z
#
# Youngs Moduli (GPa) = 87.11788 57.47618 37.20749
#
# Poissons Ratio (x) = 0.31184 -0.02742
# Poissons Ratio (y) = 0.47266 0.40099
# Poissons Ratio (z) = -0.06420 0.61943
#
# Static dielectric constant tensor:
#      x y z
#    x 3.607750 0.000000 0.000000 
#    y 0.000000 3.513600 0.000000 
#    z 0.000000 0.000000 3.415170 
# 
# 
# High freq. dielectric constant tensor:
#      x y z
#    x 1.768140 0.000000 0.000000 
#    y 0.000000 1.756090 0.000000 
#    z 0.000000 0.000000 1.741390 
# 
# From -- ./inp_files/5328.got.cif
#   From: 2010.03.12/outbox.cif.g09.slc.cpg/sg35_3_cif.got.tgz:5328.got - 2010.04.14 02:02:04.
