data_PCOD8173981
_publ_section_title
;
Structure prediction by ZEFSAII (Michael W. Deem and Ramdas Pophale) SiO2 
 PCOD8173981
Probable space group: C M M 2
;
_chemical_formula_sum "Si O2"
_cell_formula_units_Z 48
_cell_length_a 14.875155
_cell_length_b 17.804768
_cell_length_c 8.758757
_cell_angle_alpha 90.000000
_cell_angle_beta 90.000000
_cell_angle_gamma 90.000000
_cell_volume 2319.745263
_symmetry_space_group_name_H-M "C M M 2"
_symmetry_group_IT_number 35
_symmetry_cell_setting 'orthorhombic'
loop_
_space_group_symop_operation_xyz
x,y,z
-x,-y,z
-x,y,z
x,-y,z
1/2+x,1/2+y,z
1/2-x,1/2-y,z
1/2-x,1/2+y,z
1/2+x,1/2-y,z
loop_
_atom_site_type_symbol
_atom_site_label
_atom_site_fract_x
_atom_site_fract_y
_atom_site_fract_z
Si Si1 0.902370 0.085105 0.873400
Si Si2 0.398532 0.701952 0.124319
Si Si3 0.898194 0.661426 0.910660
Si Si4 0.748141 0.669366 0.378615
Si Si5 0.235800 0.411565 0.683328
Si Si6 0.897882 0.583941 0.209929
O O1 0.827757 0.115569 0.759611
O O2 0.000000 0.095694 0.794185
O O3 0.881505 0.000000 0.914130
O O4 0.899584 0.124769 0.034539
O O5 0.500000 0.724353 0.178485
O O6 0.336673 0.680678 0.267388
O O7 0.361797 0.766359 0.007215
O O8 0.842026 0.639604 0.759383
O O9 0.000000 0.677789 0.855310
O O10 0.894145 0.590894 0.026289
O O11 0.750000 0.750000 0.463253
O O12 0.746125 0.604844 0.505375
O O13 0.837250 0.650219 0.280462
O O14 0.213813 0.500000 0.701137
O O15 0.864054 0.500000 0.253453
O O16 0.000000 0.595688 0.268439
#
# Coordination Sequence:
#
# PCOD8173981 Si02
#       6
#     8   8   8   8   8   8
#     4   9  20  39  62  88 119 160 210 263 319 382
#     4  10  22  41  65  93 124 164 218 273 323 383
#     4  10  21  40  66  94 124 163 218 275 327 382
#     4  12  25  39  60  92 132 173 211 261 322 398
#     4  11  25  40  60  93 131 169 210 258 324 396
#     4  10  21  40  66  93 126 169 218 273 328 387
#
# _framework density 20.691927
#
# number of rings (size 3 to 8) (size 9 to 14) (size 15 to 20)
#    0.000    1.667    1.667    2.000    2.333    5.000 
#    0.000    0.000    0.000    0.000    0.000    0.000 
#    0.000    0.000    0.000    0.000    0.000    0.000 
#
# Total GULP energy -297355.192280 kJ/mol
# GULP energy per Si atom -12389.799678 kJ/mol
# Density = 2.064483 g / cm^3
# Si number density = 20.691927 Si / 1000 Ang^3
#
#
#
# Elastic Constant Matrix: (Units=GPa)
#
#
# Indices 1 2 3 4 5 6 
#
# 1 111.3345 50.5968 56.4190 0.0000 0.0000 0.0000
# 2 50.5968 71.3107 35.1480 0.0000 0.0000 0.0000
# 3 56.4190 35.1480 98.9032 0.0000 0.0000 0.0000
# 4 0.0000 0.0000 0.0000 35.4511 0.0000 0.0000
# 5 0.0000 0.0000 0.0000 0.0000 9.7052 0.0000
# 6 0.0000 0.0000 0.0000 0.0000 0.0000 28.4684
#
#
#
# Elastic Compliance Matrix: (Units=1/GPa)
#
#
# Indices 1 2 3 4 5 6 
#
# 1 0.015801 -0.008206 -0.006097 0.000000 0.000000 0.000000
# 2 -0.008206 0.021263 -0.002875 0.000000 0.000000 0.000000
# 3 -0.006097 -0.002875 0.014611 0.000000 0.000000 0.000000
# 4 0.000000 0.000000 0.000000 0.028208 0.000000 0.000000
# 5 0.000000 0.000000 0.000000 0.000000 0.103038 0.000000
# 6 0.000000 0.000000 0.000000 0.000000 0.000000 0.035127
#
#
# Mechanical properties :
#
#
# Convention : Reuss Voigt Hill
#
# Bulk Modulus (GPa) = 57.74529 62.87511 60.31020
# Shear Modulus (GPa) = 19.36659 24.01724 21.69192
#
# Velocity S-wave (km/s) = 3.06265 3.41061 3.24130
# Velocity P-wave (km/s) = 6.36193 6.77952 6.57404
#
# Compressibility (1/GPa) = 0.01731743
#
# Stress axis : x y z
#
# Youngs Moduli (GPa) = 63.28673 47.03094 68.44166
#
# Poissons Ratio (x) = 0.38593 0.41732
# Poissons Ratio (y) = 0.51933 0.19678
# Poissons Ratio (z) = 0.38589 0.13522
#
# Static dielectric constant tensor:
#      x y z
#    x 4.000550 0.000000 0.000000 
#    y 0.000000 3.929620 0.000000 
#    z 0.000000 0.000000 3.442190 
# 
# 
# High freq. dielectric constant tensor:
#      x y z
#    x 1.815750 0.000000 0.000000 
#    y 0.000000 1.825170 0.000000 
#    z 0.000000 0.000000 1.783150 
# 
# From -- ./inp_files/7322.got.cif
#   From: 2010.03.12/outbox.cif.g09.slc.cpg/sg35_4_cif.got.tgz:7322.got - 2010.04.14 02:02:04.
