data_PCOD8173341
_publ_section_title
;
Structure prediction by ZEFSAII (Michael W. Deem and Ramdas Pophale) SiO2 
 PCOD8173341
Probable space group: C M M 2
;
_chemical_formula_sum "Si O2"
_cell_formula_units_Z 64
_cell_length_a 15.486137
_cell_length_b 16.914472
_cell_length_c 11.826288
_cell_angle_alpha 90.000000
_cell_angle_beta 90.000000
_cell_angle_gamma 90.000000
_cell_volume 3097.775876
_symmetry_space_group_name_H-M "C M M 2"
_symmetry_group_IT_number 35
_symmetry_cell_setting 'orthorhombic'
loop_
_space_group_symop_operation_xyz
x,y,z
-x,-y,z
-x,y,z
x,-y,z
1/2+x,1/2+y,z
1/2-x,1/2-y,z
1/2-x,1/2+y,z
1/2+x,1/2-y,z
loop_
_atom_site_type_symbol
_atom_site_label
_atom_site_fract_x
_atom_site_fract_y
_atom_site_fract_z
Si Si1 0.712391 0.410609 0.051590
Si Si2 0.596140 0.593339 0.257157
Si Si3 0.403613 0.087711 0.305099
Si Si4 0.598366 0.297493 0.918272
Si Si5 0.299573 0.825159 0.490303
Si Si6 0.634525 0.591400 0.511061
Si Si7 0.096817 0.359144 0.060097
Si Si8 0.904943 0.232525 0.665542
O O1 0.682320 0.500000 0.040404
O O2 0.673491 0.377636 0.172562
O O3 0.816124 0.407676 0.030386
O O4 0.664816 0.365042 0.951966
O O5 0.500000 0.621654 0.215389
O O6 0.599127 0.500000 0.263616
O O7 0.610257 0.623390 0.385442
O O8 0.500000 0.070205 0.342177
O O9 0.365434 0.140596 0.402249
O O10 0.400118 0.142882 0.195196
O O11 0.358781 0.000000 0.287040
O O12 0.500000 0.329453 0.916444
O O13 0.628554 0.272620 0.793649
O O14 0.607250 0.226811 0.007737
O O15 0.250000 0.750000 0.435661
O O16 0.236954 0.896996 0.525121
O O17 0.344376 0.795102 0.604130
O O18 0.608006 0.500000 0.530917
O O19 0.589620 0.646863 0.604234
O O20 0.000000 0.394265 0.024385
O O21 0.000000 0.269443 0.666814
#
# Coordination Sequence:
#
# PCOD8173341 Si02
#       8
#     8   8   8   8   8   8   8   8
#     4  11  22  36  60  90 118 150 192 246 301 349
#     4   9  18  33  53  81 118 153 185 228 287 351
#     4  10  20  36  60  87 114 144 183 234 284 331
#     4  10  23  42  61  81 111 154 201 248 293 343
#     4  10  21  35  55  84 117 153 188 227 279 343
#     4  10  20  34  56  85 116 151 189 234 288 342
#     4  10  22  39  59  84 117 157 194 231 286 357
#     4  10  22  40  59  80 110 150 196 241 286 341
#
# _framework density 20.659984999999999
#
# number of rings (size 3 to 8) (size 9 to 14) (size 15 to 20)
#    0.000    2.000    0.000    3.000    0.000    9.750 
#    0.000    5.000    0.000    2.250    0.000    8.750 
#    0.000    0.000    0.000    0.000    0.000    0.000 
#
# Total GULP energy -396431.926339 kJ/mol
# GULP energy per Si atom -12388.497698 kJ/mol
# Density = 2.061296 g / cm^3
# Si number density = 20.659985 Si / 1000 Ang^3
#
#
#
# Elastic Constant Matrix: (Units=GPa)
#
#
# Indices 1 2 3 4 5 6 
#
# 1 120.4641 36.6077 58.5367 0.0000 0.0000 0.0000
# 2 36.6077 68.5637 54.3399 0.0000 0.0000 0.0000
# 3 58.5367 54.3399 127.3554 0.0000 0.0000 0.0000
# 4 0.0000 0.0000 0.0000 11.8055 0.0000 0.0000
# 5 0.0000 0.0000 0.0000 0.0000 18.3364 0.0000
# 6 0.0000 0.0000 0.0000 0.0000 0.0000 24.7411
#
#
#
# Elastic Compliance Matrix: (Units=1/GPa)
#
#
# Indices 1 2 3 4 5 6 
#
# 1 0.011040 -0.002830 -0.003867 0.000000 0.000000 0.000000
# 2 -0.002830 0.022762 -0.008412 0.000000 0.000000 0.000000
# 3 -0.003867 -0.008412 0.013219 0.000000 0.000000 0.000000
# 4 0.000000 0.000000 0.000000 0.084707 0.000000 0.000000
# 5 0.000000 0.000000 0.000000 0.000000 0.054536 0.000000
# 6 0.000000 0.000000 0.000000 0.000000 0.000000 0.040419
#
#
# Mechanical properties :
#
#
# Convention : Reuss Voigt Hill
#
# Bulk Modulus (GPa) = 59.50851 68.37242 63.94047
# Shear Modulus (GPa) = 19.04755 22.10319 20.57537
#
# Velocity S-wave (km/s) = 3.03966 3.27441 3.15922
# Velocity P-wave (km/s) = 6.41761 6.88924 6.65760
#
# Compressibility (1/GPa) = 0.01680432
#
# Stress axis : x y z
#
# Youngs Moduli (GPa) = 90.57745 43.93200 75.65154
#
# Poissons Ratio (x) = 0.12432 0.29255
# Poissons Ratio (y) = 0.25632 0.63635
# Poissons Ratio (z) = 0.35027 0.36954
#
# Static dielectric constant tensor:
#      x y z
#    x 4.151620 0.000000 0.000000 
#    y 0.000000 3.831980 0.000000 
#    z 0.000000 0.000000 3.724100 
# 
# 
# High freq. dielectric constant tensor:
#      x y z
#    x 1.829040 0.000000 0.000000 
#    y 0.000000 1.786950 0.000000 
#    z 0.000000 0.000000 1.795690 
# 
# From -- ./inp_files/13216.got.cif
#   From: 2010.03.12/outbox.cif.g09.slc.cpg/sg35_7_cif.got.tgz:13216.got - 2010.04.14 02:02:04.
