data_PCOD8173122
_publ_section_title
;
Structure prediction by ZEFSAII (Michael W. Deem and Ramdas Pophale) SiO2 
 PCOD8173122
Probable space group: C M M 2
;
_chemical_formula_sum "Si O2"
_cell_formula_units_Z 64
_cell_length_a 9.123271
_cell_length_b 18.934485
_cell_length_c 20.347229
_cell_angle_alpha 90.000000
_cell_angle_beta 90.000000
_cell_angle_gamma 90.000000
_cell_volume 3514.870636
_symmetry_space_group_name_H-M "C M M 2"
_symmetry_group_IT_number 35
_symmetry_cell_setting 'orthorhombic'
loop_
_space_group_symop_operation_xyz
x,y,z
-x,-y,z
-x,y,z
x,-y,z
1/2+x,1/2+y,z
1/2-x,1/2-y,z
1/2-x,1/2+y,z
1/2+x,1/2-y,z
loop_
_atom_site_type_symbol
_atom_site_label
_atom_site_fract_x
_atom_site_fract_y
_atom_site_fract_z
Si Si1 0.328515 0.080492 0.573770
Si Si2 0.833650 0.916187 0.940548
Si Si3 0.328082 0.081830 0.213024
Si Si4 0.326004 0.674397 0.320353
Si Si5 0.661540 0.916362 0.065442
Si Si6 0.328120 0.580661 0.443987
Si Si7 0.327271 0.177327 0.839004
Si Si8 0.171015 0.679267 0.689655
O O1 0.500000 0.090147 0.562180
O O2 0.248378 0.110959 0.509437
O O3 0.275132 0.119260 0.639668
O O4 0.282730 0.000000 0.584326
O O5 0.733864 0.885745 0.882854
O O6 0.000000 0.889967 0.932499
O O7 0.822242 0.000000 0.936215
O O8 0.775292 0.888056 0.011054
O O9 0.500000 0.093711 0.227170
O O10 0.229370 0.131534 0.257632
O O11 0.288546 0.105209 0.138605
O O12 0.286384 0.000000 0.225379
O O13 0.500000 0.684104 0.315492
O O14 0.250000 0.750000 0.323902
O O15 0.278705 0.629892 0.384139
O O16 0.500000 0.884882 0.050176
O O17 0.651800 0.000000 0.062389
O O18 0.500000 0.584187 0.455404
O O19 0.277518 0.500000 0.429397
O O20 0.500000 0.185287 0.849777
O O21 0.250000 0.250000 0.859877
O O22 0.287569 0.157458 0.763887
O O23 0.250000 0.750000 0.667693
O O24 0.000000 0.693170 0.683505
#
# Coordination Sequence:
#
# PCOD8173122 Si02
#       8
#     8   8   8   8   8   8   8   8
#     4   9  18  33  53  77 103 130 164 207 251 297
#     4  10  20  33  51  78 109 137 170 214 258 303
#     4   9  18  34  57  82 106 134 170 211 255 307
#     4  11  23  37  53  75 106 140 174 215 259 304
#     4   8  15  30  52  77 104 134 169 209 254 305
#     4   9  19  36  55  75 100 132 170 209 252 304
#     4  10  20  35  54  74 101 138 176 215 259 308
#     4   9  19  34  52  74 100 132 169 208 251 302
#
# _framework density 18.208352000000001
#
# number of rings (size 3 to 8) (size 9 to 14) (size 15 to 20)
#    0.000    2.625    0.000    2.250    0.000    5.000 
#    0.000    6.875    0.000    4.500    0.000    0.000 
#    0.000    0.000    0.000    0.000    0.000    0.000 
#
# Total GULP energy -396790.113706 kJ/mol
# GULP energy per Si atom -12399.691053 kJ/mol
# Density = 1.816691 g / cm^3
# Si number density = 18.208352 Si / 1000 Ang^3
#
#
#
# Elastic Constant Matrix: (Units=GPa)
#
#
# Indices 1 2 3 4 5 6 
#
# 1 73.6934 43.4625 58.9738 0.0000 0.0000 0.0000
# 2 43.4625 76.7879 64.6729 0.0000 0.0000 0.0000
# 3 58.9738 64.6729 139.9692 0.0000 0.0000 0.0000
# 4 0.0000 0.0000 0.0000 7.2652 0.0000 0.0000
# 5 0.0000 0.0000 0.0000 0.0000 32.9785 0.0000
# 6 0.0000 0.0000 0.0000 0.0000 0.0000 27.7441
#
#
#
# Elastic Compliance Matrix: (Units=1/GPa)
#
#
# Indices 1 2 3 4 5 6 
#
# 1 0.023126 -0.007994 -0.006050 0.000000 0.000000 0.000000
# 2 -0.007994 0.024083 -0.007759 0.000000 0.000000 0.000000
# 3 -0.006050 -0.007759 0.013279 0.000000 0.000000 0.000000
# 4 0.000000 0.000000 0.000000 0.137643 0.000000 0.000000
# 5 0.000000 0.000000 0.000000 0.000000 0.030323 0.000000
# 6 0.000000 0.000000 0.000000 0.000000 0.000000 0.036044
#
#
# Mechanical properties :
#
#
# Convention : Reuss Voigt Hill
#
# Bulk Modulus (GPa) = 59.23935 69.40765 64.32350
# Shear Modulus (GPa) = 15.93723 21.82029 18.87876
#
# Velocity S-wave (km/s) = 2.96171 3.46550 3.22346
# Velocity P-wave (km/s) = 6.65585 7.36303 7.01836
#
# Compressibility (1/GPa) = 0.01688067
#
# Stress axis : x y z
#
# Youngs Moduli (GPa) = 43.24126 41.52379 75.30801
#
# Poissons Ratio (x) = 0.33193 0.45563
# Poissons Ratio (y) = 0.34566 0.58434
# Poissons Ratio (z) = 0.26162 0.32220
#
# Static dielectric constant tensor:
#      x y z
#    x 3.418530 0.000000 0.000000 
#    y 0.000000 3.256880 0.000000 
#    z 0.000000 0.000000 3.608340 
# 
# 
# High freq. dielectric constant tensor:
#      x y z
#    x 1.707160 0.000000 0.000000 
#    y 0.000000 1.686130 0.000000 
#    z 0.000000 0.000000 1.717320 
# 
# From -- ./inp_files/18313.got.cif
#   From: 2010.03.12/outbox.cif.g09.slc.cpg/sg35_10_cif.got.tgz:18313.got - 2010.04.14 02:02:04.
