data_PCOD8173366
_publ_section_title
;
Structure prediction by ZEFSAII (Michael W. Deem and Ramdas Pophale) SiO2 
 PCOD8173366
Probable space group: C M M 2
;
_chemical_formula_sum "Si O2"
_cell_formula_units_Z 48
_cell_length_a 8.938600
_cell_length_b 19.471880
_cell_length_c 15.414837
_cell_angle_alpha 90.000000
_cell_angle_beta 90.000000
_cell_angle_gamma 90.000000
_cell_volume 2682.973137
_symmetry_space_group_name_H-M "C M M 2"
_symmetry_group_IT_number 35
_symmetry_cell_setting 'orthorhombic'
loop_
_space_group_symop_operation_xyz
x,y,z
-x,-y,z
-x,y,z
x,-y,z
1/2+x,1/2+y,z
1/2-x,1/2-y,z
1/2-x,1/2+y,z
1/2+x,1/2-y,z
loop_
_atom_site_type_symbol
_atom_site_label
_atom_site_fract_x
_atom_site_fract_y
_atom_site_fract_z
Si Si1 0.665412 0.081534 0.294750
Si Si2 0.675630 0.922463 0.632735
Si Si3 0.166798 0.918156 0.460927
Si Si4 0.325721 0.919719 0.101311
Si Si5 0.321522 0.178089 0.785669
Si Si6 0.321909 0.322269 0.966708
O O1 0.500000 0.111738 0.308768
O O2 0.767801 0.112480 0.371165
O O3 0.723445 0.101747 0.198939
O O4 0.659573 0.000000 0.301020
O O5 0.500000 0.921149 0.620141
O O6 0.744069 0.891112 0.544657
O O7 0.725821 0.877422 0.714250
O O8 0.733332 0.000000 0.649221
O O9 0.000000 0.890182 0.469399
O O10 0.174028 0.000000 0.457779
O O11 0.500000 0.901608 0.085580
O O12 0.298498 0.000000 0.085353
O O13 0.218022 0.878899 0.037496
O O14 0.500000 0.185020 0.795654
O O15 0.250000 0.250000 0.756758
O O16 0.249572 0.153567 0.875890
O O17 0.500000 0.314703 0.957761
O O18 0.250000 0.250000 0.995112
#
# Coordination Sequence:
#
# PCOD8173366 Si02
#       6
#     8   8   8   8   8   8
#     4   8  14  26  45  68  96 131 165 195 233 286
#     4   9  18  32  50  72  97 127 163 200 240 288
#     4   9  16  25  41  68 100 130 159 196 240 283
#     4   9  18  33  53  77 104 133 166 206 251 296
#     4  10  20  35  54  73  95 127 165 203 246 296
#     4  11  22  36  54  74  99 132 169 207 249 300
#
# _framework density 17.890601
#
# number of rings (size 3 to 8) (size 9 to 14) (size 15 to 20)
#    0.000    2.667    0.000    4.500    0.000    5.000 
#    0.000    3.333    0.000    1.000    0.000    4.667 
#    0.000    0.000    0.000    0.000    0.000    0.000 
#
# Total GULP energy -297524.220040 kJ/mol
# GULP energy per Si atom -12396.842502 kJ/mol
# Density = 1.784988 g / cm^3
# Si number density = 17.890601 Si / 1000 Ang^3
#
#
#
# Elastic Constant Matrix: (Units=GPa)
#
#
# Indices 1 2 3 4 5 6 
#
# 1 86.5039 34.5675 65.7130 0.0000 0.0000 0.0000
# 2 34.5675 50.8698 62.9397 0.0000 0.0000 0.0000
# 3 65.7130 62.9397 156.0073 0.0000 0.0000 0.0000
# 4 0.0000 0.0000 0.0000 -0.6555 0.0000 0.0000
# 5 0.0000 0.0000 0.0000 0.0000 31.3353 0.0000
# 6 0.0000 0.0000 0.0000 0.0000 0.0000 22.8586
#
#
#
# Elastic Compliance Matrix: (Units=1/GPa)
#
#
# Indices 1 2 3 4 5 6 
#
# 1 0.017769 -0.005619 -0.005218 0.000000 0.000000 0.000000
# 2 -0.005619 0.041027 -0.014185 0.000000 0.000000 0.000000
# 3 -0.005218 -0.014185 0.014331 0.000000 0.000000 0.000000
# 4 0.000000 0.000000 0.000000 -1.525489 0.000000 0.000000
# 5 0.000000 0.000000 0.000000 0.000000 0.031913 0.000000
# 6 0.000000 0.000000 0.000000 0.000000 0.000000 0.043747
#
#
# Mechanical properties :
#
#
# Convention : Reuss Voigt Hill
#
# Bulk Modulus (GPa) = 43.32149 68.86904 56.09527
# Shear Modulus (GPa) = -3.79086 19.38506 7.79710
#
# Velocity S-wave (km/s) = -1.45723 3.29528 2.08990
# Velocity P-wave (km/s) = 4.62989 7.28399 6.10297
#
# Compressibility (1/GPa) = 0.02308323
#
# Stress axis : x y z
#
# Youngs Moduli (GPa) = 56.27696 24.37408 69.78014
#
# Poissons Ratio (x) = 0.13695 0.36410
# Poissons Ratio (y) = 0.31621 0.98985
# Poissons Ratio (z) = 0.29365 0.34575
#
# Static dielectric constant tensor:
#      x y z
#    x 3.377620 0.000000 0.000000 
#    y 0.000000 2.972760 0.000000 
#    z 0.000000 0.000000 3.528640 
# 
# 
# High freq. dielectric constant tensor:
#      x y z
#    x 1.695770 0.000000 0.000000 
#    y 0.000000 1.647620 0.000000 
#    z 0.000000 0.000000 1.707870 
# 
# From -- ./inp_files/14080.got.cif
#   From: 2010.03.12/outbox.cif.g09.slc.cpg/sg35_8_cif.got.tgz:14080.got - 2010.04.14 02:02:04.
