data_PCOD8173703
_publ_section_title
;
Structure prediction by ZEFSAII (Michael W. Deem and Ramdas Pophale) SiO2 
 PCOD8173703
Probable space group: C M M 2
;
_chemical_formula_sum "Si O2"
_cell_formula_units_Z 56
_cell_length_a 22.144703
_cell_length_b 8.521207
_cell_length_c 14.816040
_cell_angle_alpha 90.000000
_cell_angle_beta 90.000000
_cell_angle_gamma 90.000000
_cell_volume 2795.780795
_symmetry_space_group_name_H-M "C M M 2"
_symmetry_group_IT_number 35
_symmetry_cell_setting 'orthorhombic'
loop_
_space_group_symop_operation_xyz
x,y,z
-x,-y,z
-x,y,z
x,-y,z
1/2+x,1/2+y,z
1/2-x,1/2-y,z
1/2-x,1/2+y,z
1/2+x,1/2-y,z
loop_
_atom_site_type_symbol
_atom_site_label
_atom_site_fract_x
_atom_site_fract_y
_atom_site_fract_z
Si Si1 0.000000 0.179553 0.723390
Si Si2 0.687490 0.681424 0.328730
Si Si3 0.372010 0.823822 0.494070
Si Si4 0.929933 0.313270 0.015385
Si Si5 0.889098 0.316691 0.819816
Si Si6 0.684999 0.314832 0.669385
Si Si7 0.500000 0.169218 0.547315
Si Si8 0.182804 0.684268 0.137010
O O1 0.056793 0.277341 0.754413
O O2 0.000000 0.184002 0.615443
O O3 0.000000 0.000000 0.757611
O O4 0.692016 0.500000 0.302277
O O5 0.750000 0.750000 0.363078
O O6 0.645656 0.706428 0.414479
O O7 0.666804 0.774834 0.239845
O O8 0.358190 0.759988 0.594064
O O9 0.443336 0.824818 0.481553
O O10 0.344700 0.000000 0.482035
O O11 0.932809 0.500000 0.016520
O O12 0.906812 0.250912 0.918277
O O13 0.000000 0.252504 0.035026
O O14 0.876451 0.251661 0.082203
O O15 0.875452 0.500000 0.824821
O O16 0.831718 0.233844 0.772472
O O17 0.682341 0.500000 0.660538
O O18 0.750000 0.250000 0.645718
O O19 0.500000 0.000000 0.599844
O O20 0.187505 0.500000 0.122483
O O21 0.250000 0.750000 0.108780
#
# Coordination Sequence:
#
# PCOD8173703 Si02
#       8
#     4   8   8   8   8   8   4   8
#     4  12  22  34  56  85 116 153 198 243 286 340
#     4  11  22  39  62  87 117 153 195 242 295 355
#     4  11  22  39  61  87 117 155 199 242 293 350
#     4   9  19  37  63  92 118 155 203 250 300 361
#     4  11  21  38  62  85 116 157 200 244 294 352
#     4  12  25  40  57  85 121 158 200 247 298 351
#     4  10  22  38  60  83 114 157 200 239 288 352
#     4  10  20  38  64  90 119 153 198 249 303 365
#
# _framework density 20.030180999999999
#
# number of rings (size 3 to 8) (size 9 to 14) (size 15 to 20)
#    0.000    1.286    2.143    5.786    0.000    1.143 
#    1.286    4.286    0.000    0.000    0.000    0.000 
#    0.000    0.000    0.000    0.000    0.000    0.000 
#
# Total GULP energy -346940.853836 kJ/mol
# GULP energy per Si atom -12390.744780 kJ/mol
# Density = 1.998459 g / cm^3
# Si number density = 20.030181 Si / 1000 Ang^3
#
#
#
# Elastic Constant Matrix: (Units=GPa)
#
#
# Indices 1 2 3 4 5 6 
#
# 1 128.4473 27.2614 60.1599 0.0000 0.0000 0.0000
# 2 27.2614 77.8547 15.8422 0.0000 0.0000 0.0000
# 3 60.1599 15.8422 104.8105 0.0000 0.0000 0.0000
# 4 0.0000 0.0000 0.0000 22.8480 0.0000 0.0000
# 5 0.0000 0.0000 0.0000 0.0000 33.1079 0.0000
# 6 0.0000 0.0000 0.0000 0.0000 0.0000 23.5009
#
#
#
# Elastic Compliance Matrix: (Units=1/GPa)
#
#
# Indices 1 2 3 4 5 6 
#
# 1 0.011168 -0.002689 -0.006004 0.000000 0.000000 0.000000
# 2 -0.002689 0.013899 -0.000558 0.000000 0.000000 0.000000
# 3 -0.006004 -0.000558 0.013071 0.000000 0.000000 0.000000
# 4 0.000000 0.000000 0.000000 0.043767 0.000000 0.000000
# 5 0.000000 0.000000 0.000000 0.000000 0.030204 0.000000
# 6 0.000000 0.000000 0.000000 0.000000 0.000000 0.042552
#
#
# Mechanical properties :
#
#
# Convention : Reuss Voigt Hill
#
# Bulk Modulus (GPa) = 50.92086 57.51551 54.21818
# Shear Modulus (GPa) = 27.82280 29.74796 28.78538
#
# Velocity S-wave (km/s) = 3.73103 3.85795 3.79502
# Velocity P-wave (km/s) = 6.63612 6.97294 6.80661
#
# Compressibility (1/GPa) = 0.01963832
#
# Stress axis : x y z
#
# Youngs Moduli (GPa) = 89.54197 71.94549 76.50273
#
# Poissons Ratio (x) = 0.19345 0.45931
# Poissons Ratio (y) = 0.24076 0.04265
# Poissons Ratio (z) = 0.53760 0.04011
#
# Static dielectric constant tensor:
#      x y z
#    x 3.817230 0.000000 0.000000 
#    y 0.000000 3.609770 0.000000 
#    z 0.000000 0.000000 3.596690 
# 
# 
# High freq. dielectric constant tensor:
#      x y z
#    x 1.790880 0.000000 0.000000 
#    y 0.000000 1.776270 0.000000 
#    z 0.000000 0.000000 1.773540 
# 
# From -- ./inp_files/17441.got.cif
#   From: 2010.03.12/outbox.cif.g09.slc.cpg/sg35_9_cif.got.tgz:17441.got - 2010.04.14 02:02:04.
