data_PCOD8173378
_publ_section_title
;
Structure prediction by ZEFSAII (Michael W. Deem and Ramdas Pophale) SiO2 
 PCOD8173378
Probable space group: C M M 2
;
_chemical_formula_sum "Si O2"
_cell_formula_units_Z 48
_cell_length_a 19.096575
_cell_length_b 8.811452
_cell_length_c 15.642680
_cell_angle_alpha 90.000000
_cell_angle_beta 90.000000
_cell_angle_gamma 90.000000
_cell_volume 2632.171144
_symmetry_space_group_name_H-M "C M M 2"
_symmetry_group_IT_number 35
_symmetry_cell_setting 'orthorhombic'
loop_
_space_group_symop_operation_xyz
x,y,z
-x,-y,z
-x,y,z
x,-y,z
1/2+x,1/2+y,z
1/2-x,1/2-y,z
1/2-x,1/2+y,z
1/2+x,1/2-y,z
loop_
_atom_site_type_symbol
_atom_site_label
_atom_site_fract_x
_atom_site_fract_y
_atom_site_fract_z
Si Si1 0.174614 0.822571 0.675370
Si Si2 0.326872 0.820752 0.319751
Si Si3 0.917629 0.175751 0.174476
Si Si4 0.080199 0.820975 0.829283
Si Si5 0.174231 0.177934 0.488083
Si Si6 0.083160 0.329242 0.001387
O O1 0.250000 0.750000 0.687412
O O2 0.122271 0.759190 0.747206
O O3 0.140170 0.789502 0.581408
O O4 0.185718 0.000000 0.686736
O O5 0.250000 0.750000 0.306604
O O6 0.377287 0.775479 0.243155
O O7 0.363554 0.759165 0.407723
O O8 0.319557 0.000000 0.323880
O O9 0.891313 0.229040 0.081288
O O10 0.000000 0.205402 0.185745
O O11 0.898630 0.000000 0.186125
O O12 0.000000 0.773142 0.815113
O O13 0.087524 0.000000 0.840831
O O14 0.112373 0.743087 0.913843
O O15 0.250000 0.250000 0.492708
O O16 0.178530 0.000000 0.468695
O O17 0.112113 0.500000 0.011105
O O18 0.000000 0.327468 0.997838
#
# Coordination Sequence:
#
# PCOD8173378 Si02
#       6
#     8   8   8   8   8   8
#     4   9  18  31  49  72  97 127 163 203 244 288
#     4  11  21  34  53  76 103 133 167 207 250 297
#     4  10  20  35  55  77 101 131 167 206 249 298
#     4   9  17  31  50  71  96 127 163 201 242 290
#     4   9  16  29  48  70  96 128 167 203 241 292
#     4   9  17  30  49  73  99 128 163 201 243 293
#
# _framework density 18.235896
#
# number of rings (size 3 to 8) (size 9 to 14) (size 15 to 20)
#    0.000    2.500    0.000    4.000    0.000    4.333 
#    0.000    1.667    0.000    5.000    0.000    0.000 
#    0.000    0.000    0.000    0.000    0.000    0.000 
#
# Total GULP energy -297475.946237 kJ/mol
# GULP energy per Si atom -12394.831093 kJ/mol
# Density = 1.819439 g / cm^3
# Si number density = 18.235896 Si / 1000 Ang^3
#
#
#
# Elastic Constant Matrix: (Units=GPa)
#
#
# Indices 1 2 3 4 5 6 
#
# 1 42.9541 28.9642 50.5841 0.0000 0.0000 0.0000
# 2 28.9642 103.4843 62.8287 0.0000 0.0000 0.0000
# 3 50.5841 62.8287 182.2586 0.0000 0.0000 0.0000
# 4 0.0000 0.0000 0.0000 32.2699 0.0000 0.0000
# 5 0.0000 0.0000 0.0000 0.0000 30.0832 0.0000
# 6 0.0000 0.0000 0.0000 0.0000 0.0000 20.8990
#
#
#
# Elastic Compliance Matrix: (Units=1/GPa)
#
#
# Indices 1 2 3 4 5 6 
#
# 1 0.036642 -0.005162 -0.008390 0.000000 0.000000 0.000000
# 2 -0.005162 0.012948 -0.003031 0.000000 0.000000 0.000000
# 3 -0.008390 -0.003031 0.008860 0.000000 0.000000 0.000000
# 4 0.000000 0.000000 0.000000 0.030989 0.000000 0.000000
# 5 0.000000 0.000000 0.000000 0.000000 0.033241 0.000000
# 6 0.000000 0.000000 0.000000 0.000000 0.000000 0.047849
#
#
# Mechanical properties :
#
#
# Convention : Reuss Voigt Hill
#
# Bulk Modulus (GPa) = 39.54999 68.16121 53.85560
# Shear Modulus (GPa) = 23.57123 29.07177 26.32150
#
# Velocity S-wave (km/s) = 3.59914 3.99708 3.80332
# Velocity P-wave (km/s) = 6.24554 7.66556 6.99170
#
# Compressibility (1/GPa) = 0.02528446
#
# Stress axis : x y z
#
# Youngs Moduli (GPa) = 27.29122 77.23086 112.86456
#
# Poissons Ratio (x) = 0.39864 0.94696
# Poissons Ratio (y) = 0.14087 0.34209
# Poissons Ratio (z) = 0.22898 0.23408
#
# Static dielectric constant tensor:
#      x y z
#    x 3.055860 0.000000 0.000000 
#    y 0.000000 3.464240 0.000000 
#    z 0.000000 0.000000 4.132670 
# 
# 
# High freq. dielectric constant tensor:
#      x y z
#    x 1.655600 0.000000 0.000000 
#    y 0.000000 1.715960 0.000000 
#    z 0.000000 0.000000 1.731910 
# 
# From -- ./inp_files/11380.got.cif
#   From: 2010.03.12/outbox.cif.g09.slc.cpg/sg35_6_cif.got.tgz:11380.got - 2010.04.14 02:02:04.
