data_PCOD8173910
_publ_section_title
;
Structure prediction by ZEFSAII (Michael W. Deem and Ramdas Pophale) SiO2 
 PCOD8173910
Probable space group: C M M 2
;
_chemical_formula_sum "Si O2"
_cell_formula_units_Z 64
_cell_length_a 19.819273
_cell_length_b 17.184797
_cell_length_c 8.729157
_cell_angle_alpha 90.000000
_cell_angle_beta 90.000000
_cell_angle_gamma 90.000000
_cell_volume 2973.065182
_symmetry_space_group_name_H-M "C M M 2"
_symmetry_group_IT_number 35
_symmetry_cell_setting 'orthorhombic'
loop_
_space_group_symop_operation_xyz
x,y,z
-x,-y,z
-x,y,z
x,-y,z
1/2+x,1/2+y,z
1/2-x,1/2-y,z
1/2-x,1/2+y,z
1/2+x,1/2-y,z
loop_
_atom_site_type_symbol
_atom_site_label
_atom_site_fract_x
_atom_site_fract_y
_atom_site_fract_z
Si Si1 0.073806 0.248871 0.376110
Si Si2 0.205847 0.179960 0.775022
Si Si3 0.380753 0.415788 0.329897
Si Si4 0.792279 0.911512 0.066515
Si Si5 0.666481 0.859333 0.221390
Si Si6 0.577291 0.776050 0.718878
Si Si7 0.922425 0.587006 0.948342
Si Si8 0.259364 0.084524 0.502040
O O1 0.076376 0.155134 0.398073
O O2 0.131231 0.276030 0.256510
O O3 0.082147 0.293408 0.537795
O O4 0.000000 0.269157 0.308800
O O5 0.250000 0.250000 0.845215
O O6 0.128675 0.205455 0.748155
O O7 0.247872 0.152374 0.625896
O O8 0.199820 0.107749 0.888895
O O9 0.417490 0.500000 0.356224
O O10 0.365279 0.402902 0.148578
O O11 0.307536 0.419212 0.402805
O O12 0.738458 0.850658 0.138702
O O13 0.764883 0.000000 0.083282
O O14 0.677790 0.899123 0.387817
O O15 0.617860 0.906242 0.107361
O O16 0.500000 0.752015 0.761266
O O17 0.600694 0.851781 0.816779
O O18 0.910608 0.500000 0.882451
O O19 0.000000 0.601196 0.989179
O O20 0.271894 0.000000 0.579892
#
# Coordination Sequence:
#
# PCOD8173910 Si02
#       8
#     8   8   8   8   8   8   8   8
#     4  11  23  40  63  91 127 166 210 262 314 386
#     4  12  23  37  62  96 125 167 213 263 321 380
#     4   9  20  39  61  87 119 160 203 254 315 370
#     4  10  23  40  61  88 125 163 205 260 320 383
#     4  11  22  38  62  93 125 161 211 264 323 376
#     4  10  23  43  62  92 130 168 214 264 327 391
#     4  10  21  40  64  89 126 172 217 262 313 385
#     4  10  21  38  62  87 125 164 204 265 319 374
#
# _framework density 21.526605
#
# number of rings (size 3 to 8) (size 9 to 14) (size 15 to 20)
#    0.000    1.625    1.250    4.125    3.500    1.250 
#    0.000    5.000    0.000    6.000    0.000    0.000 
#    0.000    0.000    0.000    0.000    0.000    0.000 
#
# Total GULP energy -396537.785041 kJ/mol
# GULP energy per Si atom -12391.805783 kJ/mol
# Density = 2.147761 g / cm^3
# Si number density = 21.526605 Si / 1000 Ang^3
#
#
#
# Elastic Constant Matrix: (Units=GPa)
#
#
# Indices 1 2 3 4 5 6 
#
# 1 77.9390 38.0834 28.7043 0.0000 0.0000 0.0000
# 2 38.0834 117.8915 52.9710 0.0000 0.0000 0.0000
# 3 28.7043 52.9710 100.8387 0.0000 0.0000 0.0000
# 4 0.0000 0.0000 0.0000 33.7469 0.0000 0.0000
# 5 0.0000 0.0000 0.0000 0.0000 26.1519 0.0000
# 6 0.0000 0.0000 0.0000 0.0000 0.0000 19.6281
#
#
#
# Elastic Compliance Matrix: (Units=1/GPa)
#
#
# Indices 1 2 3 4 5 6 
#
# 1 0.015651 -0.003998 -0.002355 0.000000 0.000000 0.000000
# 2 -0.003998 0.012124 -0.005231 0.000000 0.000000 0.000000
# 3 -0.002355 -0.005231 0.013335 0.000000 0.000000 0.000000
# 4 0.000000 0.000000 0.000000 0.029632 0.000000 0.000000
# 5 0.000000 0.000000 0.000000 0.000000 0.038238 0.000000
# 6 0.000000 0.000000 0.000000 0.000000 0.000000 0.050947
#
#
# Mechanical properties :
#
#
# Convention : Reuss Voigt Hill
#
# Bulk Modulus (GPa) = 55.73242 59.57631 57.65436
# Shear Modulus (GPa) = 26.44422 27.69940 27.07181
#
# Velocity S-wave (km/s) = 3.50872 3.59102 3.55011
# Velocity P-wave (km/s) = 6.50854 6.70296 6.60646
#
# Compressibility (1/GPa) = 0.01794288
#
# Stress axis : x y z
#
# Youngs Moduli (GPa) = 63.89219 82.48008 74.99025
#
# Poissons Ratio (x) = 0.32973 0.17662
# Poissons Ratio (y) = 0.25542 0.39227
# Poissons Ratio (z) = 0.15048 0.43144
#
# Static dielectric constant tensor:
#      x y z
#    x 3.817200 0.000000 0.000000 
#    y 0.000000 3.979680 0.000000 
#    z 0.000000 0.000000 3.888530 
# 
# 
# High freq. dielectric constant tensor:
#      x y z
#    x 1.835070 0.000000 0.000000 
#    y 0.000000 1.841320 0.000000 
#    z 0.000000 0.000000 1.839900 
# 
# From -- ./inp_files/9881.got.cif
#   From: 2010.03.12/outbox.cif.g09.slc.cpg/sg35_5_cif.got.tgz:9881.got - 2010.04.14 02:02:04.
