data_PCOD8173541
_publ_section_title
;
Structure prediction by ZEFSAII (Michael W. Deem and Ramdas Pophale) SiO2 
 PCOD8173541
Probable space group: C M M 2
;
_chemical_formula_sum "Si O2"
_cell_formula_units_Z 64
_cell_length_a 8.890664
_cell_length_b 28.330277
_cell_length_c 12.674274
_cell_angle_alpha 90.000000
_cell_angle_beta 90.000000
_cell_angle_gamma 90.000000
_cell_volume 3192.332432
_symmetry_space_group_name_H-M "C M M 2"
_symmetry_group_IT_number 35
_symmetry_cell_setting 'orthorhombic'
loop_
_space_group_symop_operation_xyz
x,y,z
-x,-y,z
-x,y,z
x,-y,z
1/2+x,1/2+y,z
1/2-x,1/2-y,z
1/2-x,1/2+y,z
1/2+x,1/2-y,z
loop_
_atom_site_type_symbol
_atom_site_label
_atom_site_fract_x
_atom_site_fract_y
_atom_site_fract_z
Si Si1 0.173259 0.799249 0.419510
Si Si2 0.678910 0.698926 0.031988
Si Si3 0.176376 0.199394 0.658676
Si Si4 0.664795 0.555612 0.535297
Si Si5 0.678536 0.856576 0.840347
Si Si6 0.678190 0.553878 0.770914
Si Si7 0.323668 0.946447 0.326254
Si Si8 0.176802 0.863011 0.231367
O O1 0.250000 0.750000 0.398165
O O2 0.201144 0.817502 0.538292
O O3 0.237269 0.836490 0.335755
O O4 0.000000 0.790391 0.396615
O O5 0.500000 0.703838 0.022015
O O6 0.750000 0.750000 0.050501
O O7 0.727790 0.665694 0.128729
O O8 0.745149 0.676014 0.927387
O O9 0.250000 0.250000 0.678778
O O10 0.263941 0.161540 0.727817
O O11 0.000000 0.201676 0.688069
O O12 0.500000 0.579339 0.517580
O O13 0.645025 0.500000 0.531540
O O14 0.726787 0.568238 0.651530
O O15 0.773545 0.572621 0.441791
O O16 0.500000 0.853508 0.850411
O O17 0.733793 0.911038 0.850253
O O18 0.500000 0.560329 0.784712
O O19 0.725137 0.500000 0.797261
O O20 0.500000 0.942807 0.319624
O O21 0.252864 0.914617 0.233403
O O22 0.267967 0.000000 0.308068
O O23 0.000000 0.870461 0.232542
#
# Coordination Sequence:
#
# PCOD8173541 Si02
#       8
#     8   8   8   8   8   8   8   8
#     4   9  19  35  56  84 116 148 184 231 289 352
#     4  11  24  44  68  91 117 150 197 251 302 358
#     4  10  20  36  57  83 118 154 191 237 293 356
#     4   8  15  30  53  79 111 154 197 237 284 340
#     4  12  25  39  59  87 120 156 200 245 297 357
#     4   9  19  37  60  86 118 157 201 247 296 351
#     4  10  21  35  53  83 122 160 199 244 291 341
#     4  10  22  39  61  88 115 151 198 242 293 356
#
# _framework density 20.048037000000001
#
# number of rings (size 3 to 8) (size 9 to 14) (size 15 to 20)
#    0.000    2.125    0.000    3.750    1.750    3.500 
#    0.000    1.875    0.000    0.750    0.000    0.000 
#    0.000    0.000    0.000    0.000    0.000    0.000 
#
# Total GULP energy -396783.051731 kJ/mol
# GULP energy per Si atom -12399.470367 kJ/mol
# Density = 2.000241 g / cm^3
# Si number density = 20.048037 Si / 1000 Ang^3
#
#
#
# Elastic Constant Matrix: (Units=GPa)
#
#
# Indices 1 2 3 4 5 6 
#
# 1 77.6952 44.4383 35.3424 0.0000 0.0000 0.0000
# 2 44.4383 94.2214 46.5194 0.0000 0.0000 0.0000
# 3 35.3424 46.5194 69.8271 0.0000 0.0000 0.0000
# 4 0.0000 0.0000 0.0000 35.6880 0.0000 0.0000
# 5 0.0000 0.0000 0.0000 0.0000 20.5807 0.0000
# 6 0.0000 0.0000 0.0000 0.0000 0.0000 34.1543
#
#
#
# Elastic Compliance Matrix: (Units=1/GPa)
#
#
# Indices 1 2 3 4 5 6 
#
# 1 0.018902 -0.006246 -0.005406 0.000000 0.000000 0.000000
# 2 -0.006246 0.017879 -0.008750 0.000000 0.000000 0.000000
# 3 -0.005406 -0.008750 0.022887 0.000000 0.000000 0.000000
# 4 0.000000 0.000000 0.000000 0.028021 0.000000 0.000000
# 5 0.000000 0.000000 0.000000 0.000000 0.048589 0.000000
# 6 0.000000 0.000000 0.000000 0.000000 0.000000 0.029279
#
#
# Mechanical properties :
#
#
# Convention : Reuss Voigt Hill
#
# Bulk Modulus (GPa) = 53.01066 54.92710 53.96888
# Shear Modulus (GPa) = 23.51292 25.78086 24.64689
#
# Velocity S-wave (km/s) = 3.42837 3.58991 3.51007
# Velocity P-wave (km/s) = 6.49391 6.68135 6.58830
#
# Compressibility (1/GPa) = 0.01886413
#
# Stress axis : x y z
#
# Youngs Moduli (GPa) = 52.90334 55.93108 43.69352
#
# Poissons Ratio (x) = 0.34934 0.23622
# Poissons Ratio (y) = 0.33043 0.38232
# Poissons Ratio (z) = 0.28601 0.48939
#
# Static dielectric constant tensor:
#      x y z
#    x 3.569090 0.000000 0.000000 
#    y 0.000000 4.321140 0.000000 
#    z 0.000000 0.000000 3.666750 
# 
# 
# High freq. dielectric constant tensor:
#      x y z
#    x 1.775330 0.000000 0.000000 
#    y 0.000000 1.793850 0.000000 
#    z 0.000000 0.000000 1.768320 
# 
# From -- ./inp_files/11907.got.cif
#   From: 2010.03.12/outbox.cif.g09.slc.cpg/sg35_6_cif.got.tgz:11907.got - 2010.04.14 02:02:04.
