data_PCOD8173054
_publ_section_title
;
Structure prediction by ZEFSAII (Michael W. Deem and Ramdas Pophale) SiO2 
 PCOD8173054
Probable space group: C M M 2
;
_chemical_formula_sum "Si O2"
_cell_formula_units_Z 64
_cell_length_a 8.725833
_cell_length_b 28.429763
_cell_length_c 15.464624
_cell_angle_alpha 90.000000
_cell_angle_beta 90.000000
_cell_angle_gamma 90.000000
_cell_volume 3836.361301
_symmetry_space_group_name_H-M "C M M 2"
_symmetry_group_IT_number 35
_symmetry_cell_setting 'orthorhombic'
loop_
_space_group_symop_operation_xyz
x,y,z
-x,-y,z
-x,y,z
x,-y,z
1/2+x,1/2+y,z
1/2-x,1/2-y,z
1/2-x,1/2+y,z
1/2+x,1/2-y,z
loop_
_atom_site_type_symbol
_atom_site_label
_atom_site_fract_x
_atom_site_fract_y
_atom_site_fract_z
Si Si1 0.176872 0.444740 0.502930
Si Si2 0.680410 0.200506 0.612118
Si Si3 0.824105 0.444728 0.820260
Si Si4 0.820344 0.106444 0.664231
Si Si5 0.670177 0.555812 0.993570
Si Si6 0.319189 0.608761 0.345989
Si Si7 0.178719 0.701202 0.411969
Si Si8 0.317528 0.552437 0.182005
O O1 0.203113 0.500000 0.509730
O O2 0.228948 0.422098 0.592166
O O3 0.275491 0.425045 0.424567
O O4 0.000000 0.431441 0.487374
O O5 0.500000 0.200247 0.629597
O O6 0.750000 0.250000 0.642692
O O7 0.762381 0.160078 0.667304
O O8 0.719887 0.191215 0.511766
O O9 0.792497 0.500000 0.808934
O O10 0.713534 0.416918 0.756187
O O11 0.784296 0.428027 0.917640
O O12 0.000000 0.432285 0.800579
O O13 0.000000 0.104715 0.644308
O O14 0.500000 0.576309 0.975204
O O15 0.659848 0.500000 0.998109
O O16 0.732629 0.572763 0.087682
O O17 0.500000 0.614414 0.344474
O O18 0.245918 0.659896 0.353879
O O19 0.254963 0.586346 0.257219
O O20 0.250000 0.750000 0.380212
O O21 0.000000 0.704252 0.397240
O O22 0.500000 0.549846 0.185136
O O23 0.250034 0.500000 0.197393
#
# Coordination Sequence:
#
# PCOD8173054 Si02
#       8
#     8   8   8   8   8   8   8   8
#     4  11  23  36  47  64  97 137 171 204 243 285
#     4  10  20  35  54  73  98 127 161 205 251 293
#     4  10  20  33  49  71 101 133 165 205 251 295
#     4  12  23  34  51  73  97 129 169 205 244 294
#     4   8  14  28  49  70  94 126 165 206 245 287
#     4  11  20  31  50  74 100 131 168 204 244 294
#     4  10  20  34  52  71  96 127 163 207 253 294
#     4   8  15  28  47  72 101 132 166 204 242 284
#
# _framework density 16.682473999999999
#
# number of rings (size 3 to 8) (size 9 to 14) (size 15 to 20)
#    0.000    2.000    1.250    4.500    0.000    4.750 
#    0.000    1.250    0.000    3.000    0.000    0.875 
#    0.000    2.000    0.000    0.000    0.000    0.000 
#
# Total GULP energy -396834.097765 kJ/mol
# GULP energy per Si atom -12401.065555 kJ/mol
# Density = 1.664450 g / cm^3
# Si number density = 16.682474 Si / 1000 Ang^3
#
#
#
# Elastic Constant Matrix: (Units=GPa)
#
#
# Indices 1 2 3 4 5 6 
#
# 1 48.7551 35.6537 12.7608 0.0000 0.0000 0.0000
# 2 35.6537 95.5832 44.5042 0.0000 0.0000 0.0000
# 3 12.7608 44.5042 95.9745 0.0000 0.0000 0.0000
# 4 0.0000 0.0000 0.0000 7.9389 0.0000 0.0000
# 5 0.0000 0.0000 0.0000 0.0000 16.5537 0.0000
# 6 0.0000 0.0000 0.0000 0.0000 0.0000 26.7985
#
#
#
# Elastic Compliance Matrix: (Units=1/GPa)
#
#
# Indices 1 2 3 4 5 6 
#
# 1 0.028361 -0.011253 0.001447 0.000000 0.000000 0.000000
# 2 -0.011253 0.017808 -0.006761 0.000000 0.000000 0.000000
# 3 0.001447 -0.006761 0.013362 0.000000 0.000000 0.000000
# 4 0.000000 0.000000 0.000000 0.125963 0.000000 0.000000
# 5 0.000000 0.000000 0.000000 0.000000 0.060409 0.000000
# 6 0.000000 0.000000 0.000000 0.000000 0.000000 0.037315
#
#
# Mechanical properties :
#
#
# Convention : Reuss Voigt Hill
#
# Bulk Modulus (GPa) = 37.88332 47.34999 42.61666
# Shear Modulus (GPa) = 15.37747 20.08451 17.73099
#
# Velocity S-wave (km/s) = 3.03937 3.47353 3.26368
# Velocity P-wave (km/s) = 5.92239 6.67322 6.30899
#
# Compressibility (1/GPa) = 0.02639684
#
# Stress axis : x y z
#
# Youngs Moduli (GPa) = 35.25993 56.15576 74.83720
#
# Poissons Ratio (x) = 0.63190 -0.10830
# Poissons Ratio (y) = 0.39677 0.50600
# Poissons Ratio (z) = -0.05103 0.37969
#
# Static dielectric constant tensor:
#      x y z
#    x 3.134770 0.000000 0.000000 
#    y 0.000000 3.080240 0.000000 
#    z 0.000000 0.000000 3.301480 
# 
# 
# High freq. dielectric constant tensor:
#      x y z
#    x 1.646500 0.000000 0.000000 
#    y 0.000000 1.625520 0.000000 
#    z 0.000000 0.000000 1.631790 
# 
# From -- ./inp_files/16205.got.cif
#   From: 2010.03.12/outbox.cif.g09.slc.cpg/sg35_9_cif.got.tgz:16205.got - 2010.04.14 02:02:04.
