data_PCOD8173272
_publ_section_title
;
Structure prediction by ZEFSAII (Michael W. Deem and Ramdas Pophale) SiO2 
 PCOD8173272
Probable space group: C M M 2
;
_chemical_formula_sum "Si O2"
_cell_formula_units_Z 48
_cell_length_a 8.768587
_cell_length_b 18.584597
_cell_length_c 15.312866
_cell_angle_alpha 90.000000
_cell_angle_beta 90.000000
_cell_angle_gamma 90.000000
_cell_volume 2495.394683
_symmetry_space_group_name_H-M "C M M 2"
_symmetry_group_IT_number 35
_symmetry_cell_setting 'orthorhombic'
loop_
_space_group_symop_operation_xyz
x,y,z
-x,-y,z
-x,y,z
x,-y,z
1/2+x,1/2+y,z
1/2-x,1/2-y,z
1/2-x,1/2+y,z
1/2+x,1/2-y,z
loop_
_atom_site_type_symbol
_atom_site_label
_atom_site_fract_x
_atom_site_fract_y
_atom_site_fract_z
Si Si1 0.178996 0.671821 0.486310
Si Si2 0.178589 0.173359 0.164049
Si Si3 0.180779 0.327273 0.984835
Si Si4 0.821582 0.917135 0.639709
Si Si5 0.674070 0.916550 0.819099
Si Si6 0.823271 0.916566 0.333356
O O1 0.250000 0.750000 0.474633
O O2 0.233503 0.634696 0.574793
O O3 0.221807 0.622234 0.405053
O O4 0.000000 0.681396 0.490260
O O5 0.250000 0.250000 0.190037
O O6 0.214502 0.116290 0.239224
O O7 0.000000 0.184663 0.149461
O O8 0.252157 0.142044 0.075441
O O9 0.250000 0.250000 0.965546
O O10 0.234069 0.377290 0.905470
O O11 0.000000 0.323029 0.992723
O O12 0.778206 0.893541 0.737592
O O13 0.000000 0.906837 0.625131
O O14 0.772642 0.000000 0.622818
O O15 0.500000 0.895386 0.797347
O O16 0.690411 0.000000 0.839193
O O17 0.000000 0.905527 0.358014
O O18 0.778884 0.000000 0.331259
#
# Coordination Sequence:
#
# PCOD8173272 Si02
#       6
#     8   8   8   8   8   8
#     4  12  25  40  60  85 113 147 186 229 277 330
#     4  10  20  35  56  80 109 146 185 227 275 327
#     4  10  20  34  54  79 109 145 183 228 278 327
#     4  10  21  38  60  85 114 148 185 228 278 331
#     4   9  19  36  56  79 109 146 187 229 274 325
#     4  10  22  40  60  84 115 148 183 227 278 331
#
# _framework density 19.235434000000001
#
# number of rings (size 3 to 8) (size 9 to 14) (size 15 to 20)
#    0.000    1.833    0.000    5.000    0.000    8.667 
#    0.000    1.667    0.000    0.000    0.000    0.000 
#    0.000    0.000    0.000    0.000    0.000    0.000 
#
# Total GULP energy -297690.563221 kJ/mol
# GULP energy per Si atom -12403.773468 kJ/mol
# Density = 1.919165 g / cm^3
# Si number density = 19.235434 Si / 1000 Ang^3
#
#
#
# Elastic Constant Matrix: (Units=GPa)
#
#
# Indices 1 2 3 4 5 6 
#
# 1 106.8616 53.5072 63.6274 0.0000 0.0000 0.0000
# 2 53.5072 109.4709 81.5105 0.0000 0.0000 0.0000
# 3 63.6274 81.5105 145.3863 0.0000 0.0000 0.0000
# 4 0.0000 0.0000 0.0000 45.1890 0.0000 0.0000
# 5 0.0000 0.0000 0.0000 0.0000 47.0606 0.0000
# 6 0.0000 0.0000 0.0000 0.0000 0.0000 26.0316
#
#
#
# Elastic Compliance Matrix: (Units=1/GPa)
#
#
# Indices 1 2 3 4 5 6 
#
# 1 0.013508 -0.003778 -0.003794 0.000000 0.000000 0.000000
# 2 -0.003778 0.016737 -0.007730 0.000000 0.000000 0.000000
# 3 -0.003794 -0.007730 0.012873 0.000000 0.000000 0.000000
# 4 0.000000 0.000000 0.000000 0.022129 0.000000 0.000000
# 5 0.000000 0.000000 0.000000 0.000000 0.021249 0.000000
# 6 0.000000 0.000000 0.000000 0.000000 0.000000 0.038415
#
#
# Mechanical properties :
#
#
# Convention : Reuss Voigt Hill
#
# Bulk Modulus (GPa) = 79.90901 84.33431 82.12166
# Shear Modulus (GPa) = 31.31123 34.52785 32.91954
#
# Velocity S-wave (km/s) = 4.03896 4.24136 4.14140
# Velocity P-wave (km/s) = 7.96139 8.24159 8.10270
#
# Compressibility (1/GPa) = 0.01251423
#
# Stress axis : x y z
#
# Youngs Moduli (GPa) = 74.02782 59.74677 77.68425
#
# Poissons Ratio (x) = 0.22571 0.29472
# Poissons Ratio (y) = 0.27966 0.60053
# Poissons Ratio (z) = 0.28085 0.46187
#
# Static dielectric constant tensor:
#      x y z
#    x 3.523420 0.000000 0.000000 
#    y 0.000000 3.506320 0.000000 
#    z 0.000000 0.000000 3.729480 
# 
# 
# High freq. dielectric constant tensor:
#      x y z
#    x 1.755270 0.000000 0.000000 
#    y 0.000000 1.746740 0.000000 
#    z 0.000000 0.000000 1.763670 
# 
# From -- ./inp_files/15126.got.cif
#   From: 2010.03.12/outbox.cif.g09.slc.cpg/sg35_8_cif.got.tgz:15126.got - 2010.04.14 02:02:04.
