data_PCOD8173312
_publ_section_title
;
Structure prediction by ZEFSAII (Michael W. Deem and Ramdas Pophale) SiO2 
 PCOD8173312
Probable space group: C M M 2
;
_chemical_formula_sum "Si O2"
_cell_formula_units_Z 56
_cell_length_a 18.550104
_cell_length_b 9.085058
_cell_length_c 17.660655
_cell_angle_alpha 90.000000
_cell_angle_beta 90.000000
_cell_angle_gamma 90.000000
_cell_volume 2976.328478
_symmetry_space_group_name_H-M "C M M 2"
_symmetry_group_IT_number 35
_symmetry_cell_setting 'orthorhombic'
loop_
_space_group_symop_operation_xyz
x,y,z
-x,-y,z
-x,y,z
x,-y,z
1/2+x,1/2+y,z
1/2-x,1/2-y,z
1/2-x,1/2+y,z
1/2+x,1/2-y,z
loop_
_atom_site_type_symbol
_atom_site_label
_atom_site_fract_x
_atom_site_fract_y
_atom_site_fract_z
Si Si1 0.915158 0.670405 0.100530
Si Si2 0.822105 0.671157 0.670231
Si Si3 0.915139 0.833275 0.786367
Si Si4 0.416883 0.670586 0.378289
Si Si5 0.414539 0.663645 0.953717
Si Si6 0.826992 0.173653 0.230141
Si Si7 0.823619 0.327281 0.496698
O O1 0.895774 0.500000 0.111131
O O2 0.871774 0.767238 0.159643
O O3 0.000000 0.699838 0.111818
O O4 0.889057 0.720171 0.016919
O O5 0.809863 0.500000 0.680012
O O6 0.750000 0.750000 0.697719
O O7 0.886308 0.722645 0.723548
O O8 0.840618 0.712013 0.583679
O O9 0.886197 0.788923 0.870343
O O10 0.000000 0.818711 0.783932
O O11 0.891129 0.000000 0.767569
O O12 0.500000 0.708706 0.362140
O O13 0.406707 0.500000 0.398851
O O14 0.371342 0.714761 0.304917
O O15 0.390344 0.767032 0.448702
O O16 0.500000 0.658330 0.950533
O O17 0.385575 0.500000 0.974135
O O18 0.750000 0.250000 0.235015
O O19 0.816436 0.000000 0.221006
O O20 0.814666 0.500000 0.483183
O O21 0.750000 0.250000 0.469523
#
# Coordination Sequence:
#
# PCOD8173312 Si02
#       7
#     8   8   8   8   8   8   8
#     4  10  20  34  55  83 111 140 178 222 267 316
#     4  10  21  36  54  77 107 143 182 223 268 319
#     4   9  18  33  54  80 109 142 180 221 267 319
#     4  10  22  39  59  84 111 140 176 217 263 316
#     4   8  15  30  52  77 106 141 179 219 266 318
#     4  11  23  39  58  80 109 143 179 219 265 317
#     4  10  21  37  57  80 107 142 181 221 268 319
#
# _framework density 18.815127
#
# number of rings (size 3 to 8) (size 9 to 14) (size 15 to 20)
#    0.000    2.286    0.000    3.429    0.000    7.143 
#    0.000    5.000    0.000    3.429    0.000    0.000 
#    0.000    0.000    0.000    0.000    0.000    0.000 
#
# Total GULP energy -347229.866636 kJ/mol
# GULP energy per Si atom -12401.066666 kJ/mol
# Density = 1.877230 g / cm^3
# Si number density = 18.815127 Si / 1000 Ang^3
#
#
#
# Elastic Constant Matrix: (Units=GPa)
#
#
# Indices 1 2 3 4 5 6 
#
# 1 74.8275 48.0578 55.7203 0.0000 0.0000 0.0000
# 2 48.0578 90.0882 60.9290 0.0000 0.0000 0.0000
# 3 55.7203 60.9290 118.9125 0.0000 0.0000 0.0000
# 4 0.0000 0.0000 0.0000 32.0670 0.0000 0.0000
# 5 0.0000 0.0000 0.0000 0.0000 9.8978 0.0000
# 6 0.0000 0.0000 0.0000 0.0000 0.0000 33.3410
#
#
#
# Elastic Compliance Matrix: (Units=1/GPa)
#
#
# Indices 1 2 3 4 5 6 
#
# 1 0.023667 -0.007842 -0.007071 0.000000 0.000000 0.000000
# 2 -0.007842 0.019586 -0.006361 0.000000 0.000000 0.000000
# 3 -0.007071 -0.006361 0.014982 0.000000 0.000000 0.000000
# 4 0.000000 0.000000 0.000000 0.031185 0.000000 0.000000
# 5 0.000000 0.000000 0.000000 0.000000 0.101032 0.000000
# 6 0.000000 0.000000 0.000000 0.000000 0.000000 0.029993
#
#
# Mechanical properties :
#
#
# Convention : Reuss Voigt Hill
#
# Bulk Modulus (GPa) = 63.75291 68.13804 65.94547
# Shear Modulus (GPa) = 18.64132 23.00258 20.82195
#
# Velocity S-wave (km/s) = 3.15105 3.50030 3.33026
# Velocity P-wave (km/s) = 6.86995 7.25460 7.06490
#
# Compressibility (1/GPa) = 0.01568556
#
# Stress axis : x y z
#
# Youngs Moduli (GPa) = 42.25368 51.05798 66.74620
#
# Poissons Ratio (x) = 0.40042 0.47199
# Poissons Ratio (y) = 0.33137 0.42454
# Poissons Ratio (z) = 0.29879 0.32476
#
# Static dielectric constant tensor:
#      x y z
#    x 3.272910 0.000000 0.000000 
#    y 0.000000 3.510260 0.000000 
#    z 0.000000 0.000000 3.673410 
# 
# 
# High freq. dielectric constant tensor:
#      x y z
#    x 1.713160 0.000000 0.000000 
#    y 0.000000 1.736030 0.000000 
#    z 0.000000 0.000000 1.742400 
# 
# From -- ./inp_files/15637.got.cif
#   From: 2010.03.12/outbox.cif.g09.slc.cpg/sg35_8_cif.got.tgz:15637.got - 2010.04.14 02:02:04.
