data_PCOD8173959
_publ_section_title
;
Structure prediction by ZEFSAII (Michael W. Deem and Ramdas Pophale) SiO2 
 PCOD8173959
Probable space group: C M M 2
;
_chemical_formula_sum "Si O2"
_cell_formula_units_Z 56
_cell_length_a 30.018513
_cell_length_b 15.359964
_cell_length_c 5.203889
_cell_angle_alpha 90.000000
_cell_angle_beta 90.000000
_cell_angle_gamma 90.000000
_cell_volume 2399.426204
_symmetry_space_group_name_H-M "C M M 2"
_symmetry_group_IT_number 35
_symmetry_cell_setting 'orthorhombic'
loop_
_space_group_symop_operation_xyz
x,y,z
-x,-y,z
-x,y,z
x,-y,z
1/2+x,1/2+y,z
1/2-x,1/2-y,z
1/2-x,1/2+y,z
1/2+x,1/2-y,z
loop_
_atom_site_type_symbol
_atom_site_label
_atom_site_fract_x
_atom_site_fract_y
_atom_site_fract_z
Si Si1 0.549838 0.268106 0.802200
Si Si2 0.763165 0.599416 0.313750
Si Si3 0.950760 0.596512 0.468942
Si Si4 0.832317 0.161393 0.242340
Si Si5 0.378631 0.402008 0.724614
Si Si6 0.680855 0.097989 0.796682
Si Si7 0.614299 0.815749 0.126006
O O1 0.500000 0.302576 0.841552
O O2 0.551568 0.173796 0.671987
O O3 0.577906 0.343486 0.662457
O O4 0.573744 0.252285 0.075808
O O5 0.747470 0.500000 0.368306
O O6 0.721065 0.660556 0.254899
O O7 0.789974 0.636502 0.562364
O O8 0.793815 0.601811 0.065608
O O9 0.946541 0.500000 0.596163
O O10 0.908058 0.604674 0.279622
O O11 0.000000 0.602732 0.331876
O O12 0.849232 0.098949 0.467968
O O13 0.848579 0.261442 0.286732
O O14 0.848842 0.130754 0.962368
O O15 0.394459 0.500000 0.780094
O O16 0.667554 0.000000 0.721695
O O17 0.635436 0.151748 0.852969
#
# Coordination Sequence:
#
# PCOD8173959 Si02
#       7
#     8   8   8   8   8   8   8
#     4  10  23  42  63  93 132 170 217 277 338 400
#     4  10  21  40  61  90 126 167 215 268 320 384
#     4  10  21  39  65  94 128 174 224 275 336 402
#     4  11  23  40  67  95 133 176 221 275 325 393
#     4  11  22  40  67 100 131 175 225 271 329 393
#     4  10  23  39  63  93 127 169 216 266 326 386
#     4  11  23  40  62  94 131 173 219 280 333 397
#
# _framework density 23.338915
#
# number of rings (size 3 to 8) (size 9 to 14) (size 15 to 20)
#    0.000    1.571    1.429    3.000    2.000    3.143 
#    0.000    2.857    0.000    1.714    0.000    0.000 
#    0.000    0.000    0.000    0.000    0.000    0.000 
#
# Total GULP energy -347034.409017 kJ/mol
# GULP energy per Si atom -12394.086036 kJ/mol
# Density = 2.328579 g / cm^3
# Si number density = 23.338915 Si / 1000 Ang^3
#
#
#
# Elastic Constant Matrix: (Units=GPa)
#
#
# Indices 1 2 3 4 5 6 
#
# 1 120.0414 35.3406 33.4759 0.0000 0.0000 0.0000
# 2 35.3406 101.2785 11.4109 0.0000 0.0000 0.0000
# 3 33.4759 11.4109 105.8513 0.0000 0.0000 0.0000
# 4 0.0000 0.0000 0.0000 25.7523 0.0000 0.0000
# 5 0.0000 0.0000 0.0000 0.0000 33.7674 0.0000
# 6 0.0000 0.0000 0.0000 0.0000 0.0000 31.3734
#
#
#
# Elastic Compliance Matrix: (Units=1/GPa)
#
#
# Indices 1 2 3 4 5 6 
#
# 1 0.010061 -0.003191 -0.002838 0.000000 0.000000 0.000000
# 2 -0.003191 0.011007 -0.000177 0.000000 0.000000 0.000000
# 3 -0.002838 -0.000177 0.010364 0.000000 0.000000 0.000000
# 4 0.000000 0.000000 0.000000 0.038831 0.000000 0.000000
# 5 0.000000 0.000000 0.000000 0.000000 0.029614 0.000000
# 6 0.000000 0.000000 0.000000 0.000000 0.000000 0.031874
#
#
# Mechanical properties :
#
#
# Convention : Reuss Voigt Hill
#
# Bulk Modulus (GPa) = 52.57738 54.18065 53.37902
# Shear Modulus (GPa) = 33.22145 34.64154 33.93150
#
# Velocity S-wave (km/s) = 3.77694 3.85682 3.81709
# Velocity P-wave (km/s) = 6.44958 6.56495 6.50752
#
# Compressibility (1/GPa) = 0.01901959
#
# Stress axis : x y z
#
# Youngs Moduli (GPa) = 99.39031 90.84901 96.48927
#
# Poissons Ratio (x) = 0.28991 0.27383
# Poissons Ratio (y) = 0.31716 0.01712
# Poissons Ratio (z) = 0.28206 0.01612
#
# Static dielectric constant tensor:
#      x y z
#    x 4.518980 0.000000 0.000000 
#    y 0.000000 4.267290 0.000000 
#    z 0.000000 0.000000 3.957990 
# 
# 
# High freq. dielectric constant tensor:
#      x y z
#    x 1.936480 0.000000 0.000000 
#    y 0.000000 1.918960 0.000000 
#    z 0.000000 0.000000 1.910560 
# 
# From -- ./inp_files/2067.got.cif
#   From: 2010.03.12/outbox.cif.g09.slc.cpg/sg35_2_cif.got.tgz:2067.got - 2010.04.14 02:02:04.
