data_PCOD8173211
_publ_section_title
;
Structure prediction by ZEFSAII (Michael W. Deem and Ramdas Pophale) SiO2 
 PCOD8173211
Probable space group: C M M 2
;
_chemical_formula_sum "Si O2"
_cell_formula_units_Z 64
_cell_length_a 8.994591
_cell_length_b 29.550659
_cell_length_c 12.274606
_cell_angle_alpha 90.000000
_cell_angle_beta 90.000000
_cell_angle_gamma 90.000000
_cell_volume 3262.542299
_symmetry_space_group_name_H-M "C M M 2"
_symmetry_group_IT_number 35
_symmetry_cell_setting 'orthorhombic'
loop_
_space_group_symop_operation_xyz
x,y,z
-x,-y,z
-x,y,z
x,-y,z
1/2+x,1/2+y,z
1/2-x,1/2-y,z
1/2-x,1/2+y,z
1/2+x,1/2-y,z
loop_
_atom_site_type_symbol
_atom_site_label
_atom_site_fract_x
_atom_site_fract_y
_atom_site_fract_z
Si Si1 0.669148 0.578008 0.340240
Si Si2 0.169973 0.207832 0.214799
Si Si3 0.330010 0.449773 0.579812
Si Si4 0.175274 0.048565 0.103301
Si Si5 0.169937 0.665338 0.398403
Si Si6 0.678063 0.299670 0.824269
Si Si7 0.172968 0.858136 0.025223
Si Si8 0.326099 0.859210 0.640912
O O1 0.500000 0.597617 0.331629
O O2 0.685665 0.548070 0.448801
O O3 0.709685 0.549998 0.232399
O O4 0.787863 0.617584 0.347073
O O5 0.250000 0.250000 0.156479
O O6 0.232274 0.202872 0.337364
O O7 0.201248 0.163524 0.143277
O O8 0.000000 0.220251 0.222182
O O9 0.500000 0.438913 0.612268
O O10 0.284184 0.500000 0.622635
O O11 0.228081 0.411430 0.635710
O O12 0.243708 0.091065 0.034850
O O13 0.000000 0.050336 0.086186
O O14 0.237994 0.000000 0.060240
O O15 0.202912 0.665617 0.526500
O O16 0.000000 0.675684 0.372774
O O17 0.500000 0.294254 0.823733
O O18 0.750000 0.250000 0.820614
O O19 0.729556 0.329924 0.723449
O O20 0.740615 0.326799 0.930139
O O21 0.000000 0.862025 0.999367
O O22 0.500000 0.859119 0.672302
#
# Coordination Sequence:
#
# PCOD8173211 Si02
#       8
#     8   8   8   8   8   8   8   8
#     4   9  15  27  49  78 113 152 189 229 271 319
#     4  11  21  35  55  81 113 146 181 223 277 340
#     4   9  17  30  52  85 120 154 195 237 278 328
#     4   9  15  26  50  83 115 147 183 222 268 323
#     4  10  20  34  52  78 112 150 185 224 275 334
#     4  11  23  41  64  85 108 140 189 244 294 347
#     4   9  19  35  55  83 115 145 182 231 280 333
#     4  10  22  39  58  82 114 150 192 237 287 342
#
# _framework density 19.616603999999999
#
# number of rings (size 3 to 8) (size 9 to 14) (size 15 to 20)
#    0.000    2.250    1.250    2.250    0.000    3.750 
#    0.000    2.500    0.000    3.375    0.000    0.000 
#    0.000    0.000    0.000    0.000    0.000    0.000 
#
# Total GULP energy -396553.031564 kJ/mol
# GULP energy per Si atom -12392.282236 kJ/mol
# Density = 1.957196 g / cm^3
# Si number density = 19.616604 Si / 1000 Ang^3
#
#
#
# Elastic Constant Matrix: (Units=GPa)
#
#
# Indices 1 2 3 4 5 6 
#
# 1 71.7095 45.6173 40.9663 0.0000 0.0000 0.0000
# 2 45.6173 146.4491 52.2015 0.0000 0.0000 0.0000
# 3 40.9663 52.2015 83.7387 0.0000 0.0000 0.0000
# 4 0.0000 0.0000 0.0000 20.2299 0.0000 0.0000
# 5 0.0000 0.0000 0.0000 0.0000 17.2047 0.0000
# 6 0.0000 0.0000 0.0000 0.0000 0.0000 26.7659
#
#
#
# Elastic Compliance Matrix: (Units=1/GPa)
#
#
# Indices 1 2 3 4 5 6 
#
# 1 0.020778 -0.003663 -0.007881 0.000000 0.000000 0.000000
# 2 -0.003663 0.009425 -0.004083 0.000000 0.000000 0.000000
# 3 -0.007881 -0.004083 0.018343 0.000000 0.000000 0.000000
# 4 0.000000 0.000000 0.000000 0.049432 0.000000 0.000000
# 5 0.000000 0.000000 0.000000 0.000000 0.058124 0.000000
# 6 0.000000 0.000000 0.000000 0.000000 0.000000 0.037361
#
#
# Mechanical properties :
#
#
# Convention : Reuss Voigt Hill
#
# Bulk Modulus (GPa) = 57.83542 64.38527 61.11034
# Shear Modulus (GPa) = 21.69380 23.71424 22.70402
#
# Velocity S-wave (km/s) = 3.32910 3.48068 3.40573
# Velocity P-wave (km/s) = 6.65763 7.00332 6.83267
#
# Compressibility (1/GPa) = 0.01729044
#
# Stress axis : x y z
#
# Youngs Moduli (GPa) = 48.12854 106.10402 54.51621
#
# Poissons Ratio (x) = 0.38863 0.42967
# Poissons Ratio (y) = 0.17628 0.22261
# Poissons Ratio (z) = 0.37932 0.43326
#
# Static dielectric constant tensor:
#      x y z
#    x 3.366050 0.000000 0.000000 
#    y 0.000000 3.891090 0.000000 
#    z 0.000000 0.000000 3.528930 
# 
# 
# High freq. dielectric constant tensor:
#      x y z
#    x 1.736060 0.000000 0.000000 
#    y 0.000000 1.776530 0.000000 
#    z 0.000000 0.000000 1.748440 
# 
# From -- ./inp_files/12002.got.cif
#   From: 2010.03.12/outbox.cif.g09.slc.cpg/sg35_7_cif.got.tgz:12002.got - 2010.04.14 02:02:04.
