data_PCOD8173105
_publ_section_title
;
Structure prediction by ZEFSAII (Michael W. Deem and Ramdas Pophale) SiO2 
 PCOD8173105
Probable space group: C M M 2
;
_chemical_formula_sum "Si O2"
_cell_formula_units_Z 48
_cell_length_a 15.792020
_cell_length_b 9.123493
_cell_length_c 16.985176
_cell_angle_alpha 90.000000
_cell_angle_beta 90.000000
_cell_angle_gamma 90.000000
_cell_volume 2447.196709
_symmetry_space_group_name_H-M "C M M 2"
_symmetry_group_IT_number 35
_symmetry_cell_setting 'orthorhombic'
loop_
_space_group_symop_operation_xyz
x,y,z
-x,-y,z
-x,y,z
x,-y,z
1/2+x,1/2+y,z
1/2-x,1/2-y,z
1/2-x,1/2+y,z
1/2+x,1/2-y,z
loop_
_atom_site_type_symbol
_atom_site_label
_atom_site_fract_x
_atom_site_fract_y
_atom_site_fract_z
Si Si1 0.665176 0.174659 0.322750
Si Si2 0.837316 0.327229 0.955606
Si Si3 0.000000 0.325513 0.050816
Si Si4 0.500000 0.173710 0.228367
Si Si5 0.165152 0.329346 0.776887
Si Si6 0.903697 0.157924 0.642071
Si Si7 0.097903 0.827951 0.470428
O O1 0.750000 0.250000 0.287594
O O2 0.584861 0.229547 0.271357
O O3 0.652978 0.229712 0.411622
O O4 0.674946 0.000000 0.320489
O O5 0.823897 0.500000 0.965913
O O6 0.750000 0.250000 0.981612
O O7 0.861105 0.286219 0.865535
O O8 0.915023 0.267374 0.007847
O O9 0.000000 0.500000 0.046642
O O10 0.000000 0.264627 0.139353
O O11 0.500000 0.000000 0.226634
O O12 0.177579 0.500000 0.769339
O O13 0.250000 0.250000 0.750686
O O14 0.098220 0.275173 0.712602
O O15 0.865597 0.210625 0.558120
O O16 0.000000 0.129450 0.620447
O O17 0.863649 0.000000 0.667986
O O18 0.000000 0.782355 0.459891
O O19 0.110796 0.000000 0.452191
#
# Coordination Sequence:
#
# PCOD8173105 Si02
#       7
#     8   8   4   4   8   8   8
#     4  11  22  37  58  86 114 147 188 228 276 333
#     4   9  19  35  57  82 112 146 185 228 274 327
#     4   9  18  36  61  84 109 148 182 219 279 337
#     4   9  20  38  59  84 115 144 180 227 277 335
#     4  10  20  33  51  75 106 143 184 228 272 321
#     4   9  19  34  52  77 108 143 182 225 274 322
#     4   9  18  35  57  79 108 146 186 230 279 328
#
# _framework density 19.614279
#
# number of rings (size 3 to 8) (size 9 to 14) (size 15 to 20)
#    0.000    2.500    0.833    2.000    1.167    3.000 
#    0.000    2.083    0.000    3.000    0.000    0.000 
#    0.000    0.000    0.000    0.000    0.000    0.000 
#
# Total GULP energy -297478.939320 kJ/mol
# GULP energy per Si atom -12394.955805 kJ/mol
# Density = 1.956964 g / cm^3
# Si number density = 19.614279 Si / 1000 Ang^3
#
#
#
# Elastic Constant Matrix: (Units=GPa)
#
#
# Indices 1 2 3 4 5 6 
#
# 1 125.6512 38.1351 67.8256 0.0000 0.0000 0.0000
# 2 38.1351 57.5803 40.6461 0.0000 0.0000 0.0000
# 3 67.8256 40.6461 134.9779 0.0000 0.0000 0.0000
# 4 0.0000 0.0000 0.0000 19.0969 0.0000 0.0000
# 5 0.0000 0.0000 0.0000 0.0000 17.9498 0.0000
# 6 0.0000 0.0000 0.0000 0.0000 0.0000 29.2915
#
#
#
# Elastic Compliance Matrix: (Units=1/GPa)
#
#
# Indices 1 2 3 4 5 6 
#
# 1 0.011813 -0.004614 -0.004547 0.000000 0.000000 0.000000
# 2 -0.004614 0.023858 -0.004866 0.000000 0.000000 0.000000
# 3 -0.004547 -0.004866 0.011158 0.000000 0.000000 0.000000
# 4 0.000000 0.000000 0.000000 0.052364 0.000000 0.000000
# 5 0.000000 0.000000 0.000000 0.000000 0.055711 0.000000
# 6 0.000000 0.000000 0.000000 0.000000 0.000000 0.034140
#
#
# Mechanical properties :
#
#
# Convention : Reuss Voigt Hill
#
# Bulk Modulus (GPa) = 53.25858 67.93591 60.59724
# Shear Modulus (GPa) = 22.38576 24.70781 23.54678
#
# Velocity S-wave (km/s) = 3.38198 3.55305 3.46857
# Velocity P-wave (km/s) = 6.51631 7.17937 6.85586
#
# Compressibility (1/GPa) = 0.01877632
#
# Stress axis : x y z
#
# Youngs Moduli (GPa) = 84.65117 41.91495 89.61847
#
# Poissons Ratio (x) = 0.19341 0.40745
# Poissons Ratio (y) = 0.39061 0.43605
# Poissons Ratio (z) = 0.38487 0.20394
#
# Static dielectric constant tensor:
#      x y z
#    x 3.601550 0.000000 0.000000 
#    y 0.000000 3.364900 0.000000 
#    z 0.000000 0.000000 3.658380 
# 
# 
# High freq. dielectric constant tensor:
#      x y z
#    x 1.760660 0.000000 0.000000 
#    y 0.000000 1.743010 0.000000 
#    z 0.000000 0.000000 1.765720 
# 
# From -- ./inp_files/15192.got.cif
#   From: 2010.03.12/outbox.cif.g09.slc.cpg/sg35_8_cif.got.tgz:15192.got - 2010.04.14 02:02:04.
