data_PCOD8173652
_publ_section_title
;
Structure prediction by ZEFSAII (Michael W. Deem and Ramdas Pophale) SiO2 
 PCOD8173652
Probable space group: C M M 2
;
_chemical_formula_sum "Si O2"
_cell_formula_units_Z 48
_cell_length_a 8.926789
_cell_length_b 14.924921
_cell_length_c 18.831520
_cell_angle_alpha 90.000000
_cell_angle_beta 90.000000
_cell_angle_gamma 90.000000
_cell_volume 2508.953928
_symmetry_space_group_name_H-M "C M M 2"
_symmetry_group_IT_number 35
_symmetry_cell_setting 'orthorhombic'
loop_
_space_group_symop_operation_xyz
x,y,z
-x,-y,z
-x,y,z
x,-y,z
1/2+x,1/2+y,z
1/2-x,1/2-y,z
1/2-x,1/2+y,z
1/2+x,1/2-y,z
loop_
_atom_site_type_symbol
_atom_site_label
_atom_site_fract_x
_atom_site_fract_y
_atom_site_fract_z
Si Si1 0.173120 0.500000 0.232540
Si Si2 0.670048 0.894467 0.840735
Si Si3 0.177989 0.342054 0.998113
Si Si4 0.321820 0.000000 0.450386
Si Si5 0.175693 0.838434 0.700576
Si Si6 0.823261 0.000000 0.602862
Si Si7 0.825415 0.652060 0.345307
Si Si8 0.677169 0.500000 0.084289
O O1 0.206476 0.408742 0.276083
O O2 0.285840 0.500000 0.167210
O O3 0.000000 0.500000 0.207765
O O4 0.500000 0.864713 0.824946
O O5 0.776139 0.852690 0.781666
O O6 0.686420 0.000000 0.840097
O O7 0.724346 0.859501 0.916803
O O8 0.250000 0.250000 0.023543
O O9 0.249806 0.414294 0.048908
O O10 0.000000 0.342746 0.007625
O O11 0.260904 0.000000 0.529175
O O12 0.266030 0.091386 0.411444
O O13 0.500000 0.000000 0.449209
O O14 0.250000 0.750000 0.668898
O O15 0.000000 0.828790 0.699453
O O16 0.231032 0.916202 0.648913
O O17 0.000000 0.000000 0.589342
O O18 0.750000 0.750000 0.341410
O O19 0.000000 0.671020 0.353807
O O20 0.500000 0.500000 0.072643
#
# Coordination Sequence:
#
# PCOD8173652 Si02
#       8
#     4   8   8   4   8   4   8   4
#     4   9  20  40  61  83 119 158 188 231 284 338
#     4  10  20  37  61  86 111 146 192 242 296 349
#     4  11  23  41  61  86 117 153 197 246 298 354
#     4   9  20  38  59  85 117 152 188 225 278 340
#     4  11  23  39  57  82 113 150 194 242 292 345
#     4  10  23  40  56  80 116 152 191 236 284 336
#     4   9  19  37  62  90 117 149 188 229 278 335
#     4  12  25  40  60  88 120 158 199 240 290 348
#
# _framework density 19.131478000000001
#
# number of rings (size 3 to 8) (size 9 to 14) (size 15 to 20)
#    0.000    1.833    1.667    3.250    0.000    6.667 
#    0.000    6.667    0.000    0.000    0.000    0.000 
#    0.000    0.000    0.000    0.000    0.000    0.000 
#
# Total GULP energy -297601.641469 kJ/mol
# GULP energy per Si atom -12400.068395 kJ/mol
# Density = 1.908793 g / cm^3
# Si number density = 19.131478 Si / 1000 Ang^3
#
#
#
# Elastic Constant Matrix: (Units=GPa)
#
#
# Indices 1 2 3 4 5 6 
#
# 1 69.0486 47.8213 51.4092 0.0000 0.0000 0.0000
# 2 47.8213 162.3750 71.1707 0.0000 0.0000 0.0000
# 3 51.4092 71.1707 119.1396 0.0000 0.0000 0.0000
# 4 0.0000 0.0000 0.0000 62.6019 0.0000 0.0000
# 5 0.0000 0.0000 0.0000 0.0000 41.3831 0.0000
# 6 0.0000 0.0000 0.0000 0.0000 0.0000 28.6556
#
#
#
# Elastic Compliance Matrix: (Units=1/GPa)
#
#
# Indices 1 2 3 4 5 6 
#
# 1 0.022511 -0.003214 -0.007794 0.000000 0.000000 0.000000
# 2 -0.003214 0.008802 -0.003871 0.000000 0.000000 0.000000
# 3 -0.007794 -0.003871 0.014069 0.000000 0.000000 0.000000
# 4 0.000000 0.000000 0.000000 0.015974 0.000000 0.000000
# 5 0.000000 0.000000 0.000000 0.000000 0.024164 0.000000
# 6 0.000000 0.000000 0.000000 0.000000 0.000000 0.034897
#
#
# Mechanical properties :
#
#
# Convention : Reuss Voigt Hill
#
# Bulk Modulus (GPa) = 64.00194 76.81840 70.41017
# Shear Modulus (GPa) = 32.17844 38.53892 35.35868
#
# Velocity S-wave (km/s) = 4.10562 4.49310 4.30373
# Velocity P-wave (km/s) = 7.48340 8.19496 7.84725
#
# Compressibility (1/GPa) = 0.01562453
#
# Stress axis : x y z
#
# Youngs Moduli (GPa) = 44.42263 113.61234 71.07717
#
# Poissons Ratio (x) = 0.36511 0.55397
# Poissons Ratio (y) = 0.14276 0.27516
# Poissons Ratio (z) = 0.34622 0.43983
#
# Static dielectric constant tensor:
#      x y z
#    x 3.421780 0.000000 0.000000 
#    y 0.000000 3.621120 0.000000 
#    z 0.000000 0.000000 3.503180 
# 
# 
# High freq. dielectric constant tensor:
#      x y z
#    x 1.741160 0.000000 0.000000 
#    y 0.000000 1.762410 0.000000 
#    z 0.000000 0.000000 1.742300 
# 
# From -- ./inp_files/17966.got.cif
#   From: 2010.03.12/outbox.cif.g09.slc.cpg/sg35_9_cif.got.tgz:17966.got - 2010.04.14 02:02:04.
