data_PCOD8173218
_publ_section_title
;
Structure prediction by ZEFSAII (Michael W. Deem and Ramdas Pophale) SiO2 
 PCOD8173218
Probable space group: C M M 2
;
_chemical_formula_sum "Si O2"
_cell_formula_units_Z 56
_cell_length_a 9.084322
_cell_length_b 19.429568
_cell_length_c 17.557674
_cell_angle_alpha 90.000000
_cell_angle_beta 90.000000
_cell_angle_gamma 90.000000
_cell_volume 3099.007628
_symmetry_space_group_name_H-M "C M M 2"
_symmetry_group_IT_number 35
_symmetry_cell_setting 'orthorhombic'
loop_
_space_group_symop_operation_xyz
x,y,z
-x,-y,z
-x,y,z
x,-y,z
1/2+x,1/2+y,z
1/2-x,1/2-y,z
1/2-x,1/2+y,z
1/2+x,1/2-y,z
loop_
_atom_site_type_symbol
_atom_site_label
_atom_site_fract_x
_atom_site_fract_y
_atom_site_fract_z
Si Si1 0.170537 0.079239 0.395620
Si Si2 0.671825 0.680488 0.954702
Si Si3 0.673198 0.679475 0.129689
Si Si4 0.670118 0.919064 0.243330
Si Si5 0.826608 0.179652 0.698906
Si Si6 0.827901 0.819238 0.526672
Si Si7 0.825313 0.076878 0.827584
O O1 0.266735 0.105193 0.324594
O O2 0.221271 0.119956 0.470593
O O3 0.000000 0.092327 0.375831
O O4 0.201803 0.000000 0.413731
O O5 0.500000 0.692832 0.942717
O O6 0.750000 0.750000 0.927391
O O7 0.728469 0.617179 0.903101
O O8 0.710102 0.663288 0.041898
O O9 0.500000 0.685907 0.144441
O O10 0.750000 0.750000 0.156014
O O11 0.738859 0.616737 0.176829
O O12 0.500000 0.897708 0.238487
O O13 0.693224 0.000000 0.232724
O O14 0.750000 0.250000 0.725282
O O15 0.780982 0.160537 0.612512
O O16 0.771114 0.117684 0.752602
O O17 0.000000 0.190795 0.707251
O O18 0.750000 0.750000 0.499236
O O19 0.000000 0.805677 0.522132
O O20 0.000000 0.071474 0.827352
O O21 0.756472 0.000000 0.827488
#
# Coordination Sequence:
#
# PCOD8173218 Si02
#       7
#     8   8   8   8   8   8   8
#     4   9  18  33  51  70  95 128 165 203 243 290
#     4   9  18  32  51  73  97 128 163 199 240 288
#     4  10  20  34  53  76 101 130 166 207 250 296
#     4  10  21  36  53  74 101 132 166 204 248 299
#     4   9  17  30  49  71  96 128 162 197 239 286
#     4   9  18  31  48  72  98 125 160 200 242 287
#     4   9  17  29  47  73 101 127 160 201 240 279
#
# _framework density 18.070301000000001
#
# number of rings (size 3 to 8) (size 9 to 14) (size 15 to 20)
#    0.000    2.714    0.000    1.286    0.000    3.714 
#    0.000    5.714    0.000    1.714    0.000    4.000 
#    0.000    0.000    0.000    0.000    0.000    0.000 
#
# Total GULP energy -347226.151614 kJ/mol
# GULP energy per Si atom -12400.933986 kJ/mol
# Density = 1.802917 g / cm^3
# Si number density = 18.070301 Si / 1000 Ang^3
#
#
#
# Elastic Constant Matrix: (Units=GPa)
#
#
# Indices 1 2 3 4 5 6 
#
# 1 51.7993 40.9308 41.1811 0.0000 0.0000 0.0000
# 2 40.9308 127.9305 84.1430 0.0000 0.0000 0.0000
# 3 41.1811 84.1430 120.4509 0.0000 0.0000 0.0000
# 4 0.0000 0.0000 0.0000 38.1744 0.0000 0.0000
# 5 0.0000 0.0000 0.0000 0.0000 19.9784 0.0000
# 6 0.0000 0.0000 0.0000 0.0000 0.0000 28.9826
#
#
#
# Elastic Compliance Matrix: (Units=1/GPa)
#
#
# Indices 1 2 3 4 5 6 
#
# 1 0.028105 -0.004943 -0.006156 0.000000 0.000000 0.000000
# 2 -0.004943 0.015331 -0.009019 0.000000 0.000000 0.000000
# 3 -0.006156 -0.009019 0.016707 0.000000 0.000000 0.000000
# 4 0.000000 0.000000 0.000000 0.026196 0.000000 0.000000
# 5 0.000000 0.000000 0.000000 0.000000 0.050054 0.000000
# 6 0.000000 0.000000 0.000000 0.000000 0.000000 0.034503
#
#
# Mechanical properties :
#
#
# Convention : Reuss Voigt Hill
#
# Bulk Modulus (GPa) = 50.23512 70.29895 60.26703
# Shear Modulus (GPa) = 22.96015 26.35548 24.65781
#
# Velocity S-wave (km/s) = 3.56842 3.82317 3.69799
# Velocity P-wave (km/s) = 6.69614 7.64698 7.18730
#
# Compressibility (1/GPa) = 0.01990639
#
# Stress axis : x y z
#
# Youngs Moduli (GPa) = 35.58047 65.22891 59.85415
#
# Poissons Ratio (x) = 0.32246 0.36844
# Poissons Ratio (y) = 0.17589 0.53984
# Poissons Ratio (z) = 0.21902 0.58832
#
# Static dielectric constant tensor:
#      x y z
#    x 3.211250 0.000000 0.000000 
#    y 0.000000 3.451630 0.000000 
#    z 0.000000 0.000000 3.521920 
# 
# 
# High freq. dielectric constant tensor:
#      x y z
#    x 1.683750 0.000000 0.000000 
#    y 0.000000 1.697140 0.000000 
#    z 0.000000 0.000000 1.709050 
# 
# From -- ./inp_files/15593.got.cif
#   From: 2010.03.12/outbox.cif.g09.slc.cpg/sg35_8_cif.got.tgz:15593.got - 2010.04.14 02:02:04.
