data_PCOD8173819
_publ_section_title
;
Structure prediction by ZEFSAII (Michael W. Deem and Ramdas Pophale) SiO2 
 PCOD8173819
Probable space group: C M M 2
;
_chemical_formula_sum "Si O2"
_cell_formula_units_Z 64
_cell_length_a 8.702294
_cell_length_b 20.015297
_cell_length_c 19.968979
_cell_angle_alpha 90.000000
_cell_angle_beta 90.000000
_cell_angle_gamma 90.000000
_cell_volume 3478.176773
_symmetry_space_group_name_H-M "C M M 2"
_symmetry_group_IT_number 35
_symmetry_cell_setting 'orthorhombic'
loop_
_space_group_symop_operation_xyz
x,y,z
-x,-y,z
-x,y,z
x,-y,z
1/2+x,1/2+y,z
1/2-x,1/2-y,z
1/2-x,1/2+y,z
1/2+x,1/2-y,z
loop_
_atom_site_type_symbol
_atom_site_label
_atom_site_fract_x
_atom_site_fract_y
_atom_site_fract_z
Si Si1 0.180585 0.819795 0.265100
Si Si2 0.318767 0.819669 0.770819
Si Si3 0.678270 0.422601 0.021133
Si Si4 0.817650 0.573567 0.515357
Si Si5 0.177729 0.577976 0.364531
Si Si6 0.182355 0.319880 0.619947
Si Si7 0.178487 0.423605 0.880816
Si Si8 0.318931 0.820053 0.121671
O O1 0.250000 0.750000 0.291798
O O2 0.215994 0.878907 0.316313
O O3 0.251587 0.839107 0.193729
O O4 0.000000 0.811298 0.256784
O O5 0.500000 0.813122 0.772241
O O6 0.250000 0.750000 0.796564
O O7 0.261851 0.836091 0.695487
O O8 0.262160 0.878532 0.819442
O O9 0.500000 0.406574 0.032212
O O10 0.716070 0.500000 0.035433
O O11 0.779113 0.378934 0.070940
O O12 0.723209 0.403932 0.945521
O O13 0.750086 0.500000 0.530735
O O14 0.772215 0.595740 0.440371
O O15 0.749275 0.624275 0.570113
O O16 0.000000 0.570713 0.520543
O O17 0.206198 0.500000 0.349848
O O18 0.000000 0.596292 0.352238
O O19 0.250000 0.250000 0.595305
O O20 0.000000 0.316813 0.615641
O O21 0.207105 0.500000 0.859670
O O22 0.000000 0.410587 0.897037
O O23 0.500000 0.812368 0.127597
O O24 0.250000 0.750000 0.095476
#
# Coordination Sequence:
#
# PCOD8173819 Si02
#       8
#     8   8   8   8   8   8   8   8
#     4  11  22  37  56  78 106 137 172 213 256 304
#     4   9  18  31  48  71  99 131 166 208 254 302
#     4  10  21  37  56  79 107 138 173 212 254 303
#     4   8  15  29  50  74  99 129 167 210 252 297
#     4   9  18  34  54  76 104 137 173 213 258 308
#     4   9  17  30  48  71  99 130 166 207 253 302
#     4   9  18  33  51  72  99 131 169 212 256 301
#     4  11  22  38  59  81 107 137 171 211 256 305
#
# _framework density 18.400445999999999
#
# number of rings (size 3 to 8) (size 9 to 14) (size 15 to 20)
#    0.000    2.500    0.000    4.125    0.000    3.500 
#    0.000    5.625    0.000    1.125    0.000    3.500 
#    0.000    0.000    0.000    0.000    0.000    0.000 
#
# Total GULP energy -396825.790274 kJ/mol
# GULP energy per Si atom -12400.805946 kJ/mol
# Density = 1.835857 g / cm^3
# Si number density = 18.400446 Si / 1000 Ang^3
#
#
#
# Elastic Constant Matrix: (Units=GPa)
#
#
# Indices 1 2 3 4 5 6 
#
# 1 78.2531 41.4873 40.0953 0.0000 0.0000 0.0000
# 2 41.4873 119.2344 88.8468 0.0000 0.0000 0.0000
# 3 40.0953 88.8468 114.0943 0.0000 0.0000 0.0000
# 4 0.0000 0.0000 0.0000 39.6321 0.0000 0.0000
# 5 0.0000 0.0000 0.0000 0.0000 22.1285 0.0000
# 6 0.0000 0.0000 0.0000 0.0000 0.0000 29.4001
#
#
#
# Elastic Compliance Matrix: (Units=1/GPa)
#
#
# Indices 1 2 3 4 5 6 
#
# 1 0.016114 -0.003305 -0.003089 0.000000 0.000000 0.000000
# 2 -0.003305 0.020659 -0.014926 0.000000 0.000000 0.000000
# 3 -0.003089 -0.014926 0.021473 0.000000 0.000000 0.000000
# 4 0.000000 0.000000 0.000000 0.025232 0.000000 0.000000
# 5 0.000000 0.000000 0.000000 0.000000 0.045191 0.000000
# 6 0.000000 0.000000 0.000000 0.000000 0.000000 0.034014
#
#
# Mechanical properties :
#
#
# Convention : Reuss Voigt Hill
#
# Bulk Modulus (GPa) = 64.07766 72.49342 68.28554
# Shear Modulus (GPa) = 23.75027 27.64228 25.69628
#
# Velocity S-wave (km/s) = 3.59659 3.88011 3.74104
# Velocity P-wave (km/s) = 7.22128 7.71731 7.47341
#
# Compressibility (1/GPa) = 0.01560606
#
# Stress axis : x y z
#
# Youngs Moduli (GPa) = 62.05752 48.40601 46.56965
#
# Poissons Ratio (x) = 0.15998 0.14387
# Poissons Ratio (y) = 0.20509 0.69509
# Poissons Ratio (z) = 0.19171 0.72250
#
# Static dielectric constant tensor:
#      x y z
#    x 3.220510 0.000000 0.000000 
#    y 0.000000 3.535400 0.000000 
#    z 0.000000 0.000000 3.502060 
# 
# 
# High freq. dielectric constant tensor:
#      x y z
#    x 1.701350 0.000000 0.000000 
#    y 0.000000 1.717060 0.000000 
#    z 0.000000 0.000000 1.716000 
# 
# From -- ./inp_files/18344.got.cif
#   From: 2010.03.12/outbox.cif.g09.slc.cpg/sg35_10_cif.got.tgz:18344.got - 2010.04.14 02:02:04.
