data_PCOD8173103
_publ_section_title
;
Structure prediction by ZEFSAII (Michael W. Deem and Ramdas Pophale) SiO2 
 PCOD8173103
Probable space group: C M M 2
;
_chemical_formula_sum "Si O2"
_cell_formula_units_Z 64
_cell_length_a 9.493496
_cell_length_b 18.200895
_cell_length_c 20.572814
_cell_angle_alpha 90.000000
_cell_angle_beta 90.000000
_cell_angle_gamma 90.000000
_cell_volume 3554.779080
_symmetry_space_group_name_H-M "C M M 2"
_symmetry_group_IT_number 35
_symmetry_cell_setting 'orthorhombic'
loop_
_space_group_symop_operation_xyz
x,y,z
-x,-y,z
-x,y,z
x,-y,z
1/2+x,1/2+y,z
1/2-x,1/2-y,z
1/2-x,1/2+y,z
1/2+x,1/2-y,z
loop_
_atom_site_type_symbol
_atom_site_label
_atom_site_fract_x
_atom_site_fract_y
_atom_site_fract_z
Si Si1 0.334518 0.324472 0.049870
Si Si2 0.163162 0.415513 0.800478
Si Si3 0.666104 0.174900 0.673356
Si Si4 0.333896 0.174900 0.426384
Si Si5 0.336838 0.915513 0.299262
Si Si6 0.163186 0.915282 0.175786
Si Si7 0.663186 0.415282 0.923954
Si Si8 0.166892 0.582180 0.549870
O O1 0.500000 0.307914 0.049870
O O2 0.250000 0.250000 0.049870
O O3 0.289228 0.370170 0.113001
O O4 0.289228 0.370170 0.986740
O O5 0.200249 0.500000 0.784658
O O6 0.206688 0.367467 0.738861
O O7 0.250192 0.386283 0.862115
O O8 0.000000 0.406225 0.817472
O O9 0.500000 0.190995 0.669035
O O10 0.750000 0.250000 0.671040
O O11 0.718641 0.125132 0.613587
O O12 0.500000 0.190995 0.430705
O O13 0.250000 0.250000 0.428700
O O14 0.293312 0.132532 0.360879
O O15 0.281359 0.125133 0.486153
O O16 0.500000 0.906224 0.282268
O O17 0.249807 0.886283 0.237625
O O18 0.299752 0.000000 0.315082
O O19 0.000000 0.903418 0.191631
O O20 0.197715 0.000000 0.161338
O O21 0.500000 0.403417 0.908108
O O22 0.697714 0.500000 0.938402
O O23 0.231916 0.500000 0.549870
O O24 0.000000 0.576231 0.549870
#
# Coordination Sequence:
#
# PCOD8173103 Si02
#       8
#     8   8   8   8   8   8   8   8
#     4  10  21  35  51  73 101 130 162 202 246 294
#     4   9  18  33  52  74  99 128 165 206 244 286
#     4  10  20  33  51  75 103 133 164 202 247 294
#     4  10  20  33  51  75 103 133 164 202 247 294
#     4   9  18  33  52  74  99 128 165 206 244 286
#     4   9  18  34  55  75  96 127 166 205 245 290
#     4   9  18  34  55  75  96 127 166 205 245 290
#     4   9  17  32  55  77  96 127 172 212 244 285
#
# _framework density 18.003931999999999
#
# number of rings (size 3 to 8) (size 9 to 14) (size 15 to 20)
#    0.000    2.625    0.000    1.500    0.000    7.500 
#    0.000    5.000    0.000    6.750    0.000    0.000 
#    0.000    0.000    0.000    0.000    0.000    0.000 
#
# Total GULP energy -396872.667823 kJ/mol
# GULP energy per Si atom -12402.270869 kJ/mol
# Density = 1.796295 g / cm^3
# Si number density = 18.003932 Si / 1000 Ang^3
#
#
#
# Elastic Constant Matrix: (Units=GPa)
#
#
# Indices 1 2 3 4 5 6 
#
# 1 44.5222 53.3908 65.3289 0.0000 0.0000 0.0000
# 2 53.3908 134.2948 103.6187 0.0000 0.0000 0.0000
# 3 65.3289 103.6187 196.3280 0.0000 0.0000 0.0000
# 4 0.0000 0.0000 0.0000 11.1241 0.0000 0.0000
# 5 0.0000 0.0000 0.0000 0.0000 27.9483 0.0000
# 6 0.0000 0.0000 0.0000 0.0000 0.0000 33.0030
#
#
#
# Elastic Compliance Matrix: (Units=1/GPa)
#
#
# Indices 1 2 3 4 5 6 
#
# 1 0.054671 -0.012988 -0.011337 0.000000 0.000000 0.000000
# 2 -0.012988 0.015647 -0.003937 0.000000 0.000000 0.000000
# 3 -0.011337 -0.003937 0.010944 0.000000 0.000000 0.000000
# 4 0.000000 0.000000 0.000000 0.089895 0.000000 0.000000
# 5 0.000000 0.000000 0.000000 0.000000 0.035780 0.000000
# 6 0.000000 0.000000 0.000000 0.000000 0.000000 0.030300
#
#
# Mechanical properties :
#
#
# Convention : Reuss Voigt Hill
#
# Bulk Modulus (GPa) = 40.42245 91.09132 65.75688
# Shear Modulus (GPa) = 16.55591 24.60217 20.57904
#
# Velocity S-wave (km/s) = 3.03573 3.70062 3.38454
# Velocity P-wave (km/s) = 5.89816 8.30449 7.20253
#
# Compressibility (1/GPa) = 0.02473873
#
# Stress axis : x y z
#
# Youngs Moduli (GPa) = 18.29123 63.90958 91.37633
#
# Poissons Ratio (x) = 0.83003 1.03597
# Poissons Ratio (y) = 0.23756 0.35971
# Poissons Ratio (z) = 0.20737 0.25159
#
# Static dielectric constant tensor:
#      x y z
#    x 3.144810 0.000000 0.000000 
#    y 0.000000 3.332700 0.000000 
#    z 0.000000 0.000000 3.548250 
# 
# 
# High freq. dielectric constant tensor:
#      x y z
#    x 1.676180 0.000000 0.000000 
#    y 0.000000 1.699060 0.000000 
#    z 0.000000 0.000000 1.713060 
# 
# From -- ./inp_files/16492.got.cif
#   From: 2010.03.12/outbox.cif.g09.slc.cpg/sg35_9_cif.got.tgz:16492.got - 2010.04.14 02:02:04.
