data_PCOD8173120
_publ_section_title
;
Structure prediction by ZEFSAII (Michael W. Deem and Ramdas Pophale) SiO2 
 PCOD8173120
Probable space group: C M M 2
;
_chemical_formula_sum "Si O2"
_cell_formula_units_Z 64
_cell_length_a 9.028779
_cell_length_b 27.662668
_cell_length_c 13.112058
_cell_angle_alpha 90.000000
_cell_angle_beta 90.000000
_cell_angle_gamma 90.000000
_cell_volume 3274.869126
_symmetry_space_group_name_H-M "C M M 2"
_symmetry_group_IT_number 35
_symmetry_cell_setting 'orthorhombic'
loop_
_space_group_symop_operation_xyz
x,y,z
-x,-y,z
-x,y,z
x,-y,z
1/2+x,1/2+y,z
1/2-x,1/2-y,z
1/2-x,1/2+y,z
1/2+x,1/2-y,z
loop_
_atom_site_type_symbol
_atom_site_label
_atom_site_fract_x
_atom_site_fract_y
_atom_site_fract_z
Si Si1 0.828986 0.602927 0.104300
Si Si2 0.833002 0.942541 0.914940
Si Si3 0.826403 0.198653 0.584294
Si Si4 0.671033 0.943492 0.714645
Si Si5 0.328243 0.800590 0.004685
Si Si6 0.326703 0.698434 0.811357
Si Si7 0.824472 0.608981 0.509517
Si Si8 0.823915 0.554427 0.309460
O O1 0.808559 0.661075 0.096678
O O2 0.765758 0.585280 0.213062
O O3 0.000000 0.588477 0.093865
O O4 0.746332 0.574779 0.015973
O O5 0.759419 0.921840 0.811248
O O6 0.000000 0.922923 0.915285
O O7 0.825115 0.000000 0.913174
O O8 0.750000 0.250000 0.568248
O O9 0.795671 0.177543 0.698707
O O10 0.754500 0.161090 0.505924
O O11 0.000000 0.204789 0.563712
O O12 0.500000 0.932214 0.734740
O O13 0.726596 0.919007 0.610769
O O14 0.700836 0.000000 0.701566
O O15 0.500000 0.790360 0.981613
O O16 0.250000 0.750000 0.034418
O O17 0.252785 0.828424 0.906497
O O18 0.500000 0.702834 0.832903
O O19 0.250000 0.750000 0.818452
O O20 0.765281 0.579218 0.412611
O O21 0.000000 0.616500 0.505980
O O22 0.760451 0.500000 0.302820
O O23 0.000000 0.553257 0.312007
#
# Coordination Sequence:
#
# PCOD8173120 Si02
#       8
#     8   8   8   8   8   8   8   8
#     4  10  21  36  57  83 109 144 189 232 276 331
#     4  10  21  35  52  78 112 146 180 223 279 339
#     4  10  21  36  54  79 112 150 189 230 278 331
#     4   9  18  33  53  79 111 145 182 224 274 335
#     4  10  20  33  51  77 109 144 184 226 272 324
#     4   9  17  30  49  73 103 142 181 220 266 318
#     4  10  20  34  57  85 111 143 186 234 282 331
#     4   9  18  36  62  87 110 141 186 236 281 329
#
# _framework density 19.542766
#
# number of rings (size 3 to 8) (size 9 to 14) (size 15 to 20)
#    0.000    2.375    0.000    3.000    1.750    5.750 
#    0.000    1.250    0.000    3.375    0.000    0.000 
#    0.000    0.000    0.000    0.000    0.000    0.000 
#
# Total GULP energy -396707.463126 kJ/mol
# GULP energy per Si atom -12397.108223 kJ/mol
# Density = 1.949829 g / cm^3
# Si number density = 19.542766 Si / 1000 Ang^3
#
#
#
# Elastic Constant Matrix: (Units=GPa)
#
#
# Indices 1 2 3 4 5 6 
#
# 1 84.6239 40.5613 54.1832 0.0000 0.0000 0.0000
# 2 40.5613 88.4208 73.8622 0.0000 0.0000 0.0000
# 3 54.1832 73.8622 156.6375 0.0000 0.0000 0.0000
# 4 0.0000 0.0000 0.0000 38.4453 0.0000 0.0000
# 5 0.0000 0.0000 0.0000 0.0000 11.3598 0.0000
# 6 0.0000 0.0000 0.0000 0.0000 0.0000 25.4702
#
#
#
# Elastic Compliance Matrix: (Units=1/GPa)
#
#
# Indices 1 2 3 4 5 6 
#
# 1 0.016214 -0.004542 -0.003467 0.000000 0.000000 0.000000
# 2 -0.004542 0.019932 -0.007828 0.000000 0.000000 0.000000
# 3 -0.003467 -0.007828 0.011275 0.000000 0.000000 0.000000
# 4 0.000000 0.000000 0.000000 0.026011 0.000000 0.000000
# 5 0.000000 0.000000 0.000000 0.000000 0.088030 0.000000
# 6 0.000000 0.000000 0.000000 0.000000 0.000000 0.039261
#
#
# Mechanical properties :
#
#
# Convention : Reuss Voigt Hill
#
# Bulk Modulus (GPa) = 63.50249 74.09952 68.80101
# Shear Modulus (GPa) = 21.03984 25.79344 23.41664
#
# Velocity S-wave (km/s) = 3.28473 3.63691 3.46529
# Velocity P-wave (km/s) = 6.85205 7.45889 7.16190
#
# Compressibility (1/GPa) = 0.01574741
#
# Stress axis : x y z
#
# Youngs Moduli (GPa) = 61.67637 50.17075 88.69441
#
# Poissons Ratio (x) = 0.22785 0.30750
# Poissons Ratio (y) = 0.28011 0.69429
# Poissons Ratio (z) = 0.21383 0.39273
#
# Static dielectric constant tensor:
#      x y z
#    x 3.465950 0.000000 0.000000 
#    y 0.000000 3.540030 0.000000 
#    z 0.000000 0.000000 3.817250 
# 
# 
# High freq. dielectric constant tensor:
#      x y z
#    x 1.747570 0.000000 0.000000 
#    y 0.000000 1.767750 0.000000 
#    z 0.000000 0.000000 1.750870 
# 
# From -- ./inp_files/11874.got.cif
#   From: 2010.03.12/outbox.cif.g09.slc.cpg/sg35_6_cif.got.tgz:11874.got - 2010.04.14 02:02:04.
