data_PCOD8173955
_publ_section_title
;
Structure prediction by ZEFSAII (Michael W. Deem and Ramdas Pophale) SiO2 
 PCOD8173955
Probable space group: C M M 2
;
_chemical_formula_sum "Si O2"
_cell_formula_units_Z 64
_cell_length_a 15.171714
_cell_length_b 16.676942
_cell_length_c 11.508656
_cell_angle_alpha 90.000000
_cell_angle_beta 90.000000
_cell_angle_gamma 90.000000
_cell_volume 2911.894758
_symmetry_space_group_name_H-M "C M M 2"
_symmetry_group_IT_number 35
_symmetry_cell_setting 'orthorhombic'
loop_
_space_group_symop_operation_xyz
x,y,z
-x,-y,z
-x,y,z
x,-y,z
1/2+x,1/2+y,z
1/2-x,1/2-y,z
1/2-x,1/2+y,z
1/2+x,1/2-y,z
loop_
_atom_site_type_symbol
_atom_site_label
_atom_site_fract_x
_atom_site_fract_y
_atom_site_fract_z
Si Si1 0.597588 0.307232 0.343010
Si Si2 0.602164 0.170546 0.768679
Si Si3 0.825917 0.589886 0.566141
Si Si4 0.264315 0.096608 0.939326
Si Si5 0.597853 0.125319 0.325176
Si Si6 0.348501 0.681579 0.602878
Si Si7 0.733604 0.588056 0.198738
Si Si8 0.905472 0.907692 0.804296
O O1 0.500000 0.339775 0.310715
O O2 0.610305 0.218413 0.294475
O O3 0.602651 0.302326 0.482605
O O4 0.671749 0.360774 0.283164
O O5 0.500000 0.182148 0.801150
O O6 0.616185 0.094835 0.683064
O O7 0.654933 0.148346 0.886744
O O8 0.639069 0.248330 0.699387
O O9 0.785346 0.500000 0.556271
O O10 0.890669 0.608895 0.461114
O O11 0.752571 0.660506 0.571125
O O12 0.176844 0.128106 0.874035
O O13 0.280225 0.000000 0.928785
O O14 0.248099 0.124730 0.071445
O O15 0.500000 0.096196 0.289603
O O16 0.670386 0.076686 0.254767
O O17 0.390087 0.604073 0.666245
O O18 0.690320 0.500000 0.188397
O O19 0.000000 0.868292 0.841520
O O20 0.910741 0.000000 0.833148
#
# Coordination Sequence:
#
# PCOD8173955 Si02
#       8
#     8   8   8   8   8   8   8   8
#     4  11  24  43  67  98 139 178 219 279 342 404
#     4  12  25  42  67 100 137 177 220 276 341 406
#     4  12  24  39  65  99 134 177 224 274 340 408
#     4  10  24  45  67  96 132 178 236 286 334 397
#     4  11  24  43  65  94 132 177 225 279 341 405
#     4  12  23  41  66  99 135 173 215 272 339 407
#     4  11  25  45  70  97 131 179 232 285 340 402
#     4  10  21  39  64  93 130 174 217 270 333 397
#
# _framework density 21.978815999999998
#
# number of rings (size 3 to 8) (size 9 to 14) (size 15 to 20)
#    0.000    0.875    3.750    3.375    0.000    4.250 
#    4.500    2.500    0.000    0.000    0.000    0.000 
#    0.000    0.000    0.000    0.000    0.000    0.000 
#
# Total GULP energy -396600.396814 kJ/mol
# GULP energy per Si atom -12393.762400 kJ/mol
# Density = 2.192879 g / cm^3
# Si number density = 21.978816 Si / 1000 Ang^3
#
#
#
# Elastic Constant Matrix: (Units=GPa)
#
#
# Indices 1 2 3 4 5 6 
#
# 1 142.4716 37.8423 38.4111 0.0000 0.0000 0.0000
# 2 37.8423 76.1859 28.9243 0.0000 0.0000 0.0000
# 3 38.4111 28.9243 121.4398 0.0000 0.0000 0.0000
# 4 0.0000 0.0000 0.0000 32.7616 0.0000 0.0000
# 5 0.0000 0.0000 0.0000 0.0000 11.1340 0.0000
# 6 0.0000 0.0000 0.0000 0.0000 0.0000 11.4091
#
#
#
# Elastic Compliance Matrix: (Units=1/GPa)
#
#
# Indices 1 2 3 4 5 6 
#
# 1 0.008443 -0.003496 -0.001838 0.000000 0.000000 0.000000
# 2 -0.003496 0.015878 -0.002676 0.000000 0.000000 0.000000
# 3 -0.001838 -0.002676 0.009453 0.000000 0.000000 0.000000
# 4 0.000000 0.000000 0.000000 0.030524 0.000000 0.000000
# 5 0.000000 0.000000 0.000000 0.000000 0.089815 0.000000
# 6 0.000000 0.000000 0.000000 0.000000 0.000000 0.087649
#
#
# Mechanical properties :
#
#
# Convention : Reuss Voigt Hill
#
# Bulk Modulus (GPa) = 56.32315 61.16141 58.74228
# Shear Modulus (GPa) = 18.96093 26.72225 22.84159
#
# Velocity S-wave (km/s) = 2.94035 3.49064 3.22724
# Velocity P-wave (km/s) = 6.09994 6.64334 6.37743
#
# Compressibility (1/GPa) = 0.01775469
#
# Stress axis : x y z
#
# Youngs Moduli (GPa) = 118.44116 62.97913 105.78402
#
# Poissons Ratio (x) = 0.22017 0.19441
# Poissons Ratio (y) = 0.41407 0.28309
# Poissons Ratio (z) = 0.21768 0.16854
#
# Static dielectric constant tensor:
#      x y z
#    x 4.243640 0.000000 0.000000 
#    y 0.000000 4.031560 0.000000 
#    z 0.000000 0.000000 3.899970 
# 
# 
# High freq. dielectric constant tensor:
#      x y z
#    x 1.871590 0.000000 0.000000 
#    y 0.000000 1.867330 0.000000 
#    z 0.000000 0.000000 1.850480 
# 
# From -- ./inp_files/13194.got.cif
#   From: 2010.03.12/outbox.cif.g09.slc.cpg/sg35_7_cif.got.tgz:13194.got - 2010.04.14 02:02:04.
