data_PCOD8173112
_publ_section_title
;
Structure prediction by ZEFSAII (Michael W. Deem and Ramdas Pophale) SiO2 
 PCOD8173112
Probable space group: C M M 2
;
_chemical_formula_sum "Si O2"
_cell_formula_units_Z 64
_cell_length_a 9.131546
_cell_length_b 18.615435
_cell_length_c 20.309256
_cell_angle_alpha 90.000000
_cell_angle_beta 90.000000
_cell_angle_gamma 90.000000
_cell_volume 3452.323737
_symmetry_space_group_name_H-M "C M M 2"
_symmetry_group_IT_number 35
_symmetry_cell_setting 'orthorhombic'
loop_
_space_group_symop_operation_xyz
x,y,z
-x,-y,z
-x,y,z
x,-y,z
1/2+x,1/2+y,z
1/2-x,1/2-y,z
1/2-x,1/2+y,z
1/2+x,1/2-y,z
loop_
_atom_site_type_symbol
_atom_site_label
_atom_site_fract_x
_atom_site_fract_y
_atom_site_fract_z
Si Si1 0.830596 0.583028 0.858810
Si Si2 0.829185 0.177281 0.112004
Si Si3 0.163084 0.414503 0.466724
Si Si4 0.172371 0.325431 0.731553
Si Si5 0.325568 0.080153 0.611523
Si Si6 0.335515 0.585655 0.341790
Si Si7 0.829923 0.177421 0.959042
Si Si8 0.666353 0.085155 0.213781
O O1 0.794929 0.500000 0.846485
O O2 0.786395 0.625262 0.793256
O O3 0.734021 0.610275 0.919545
O O4 0.000000 0.594908 0.876675
O O5 0.750000 0.250000 0.134427
O O6 0.758388 0.111976 0.151580
O O7 0.000000 0.183518 0.128426
O O8 0.801222 0.161679 0.035465
O O9 0.156316 0.500000 0.463523
O O10 0.223525 0.392022 0.538991
O O11 0.268447 0.383754 0.409858
O O12 0.000000 0.383398 0.455053
O O13 0.250000 0.250000 0.740238
O O14 0.234071 0.364978 0.666321
O O15 0.000000 0.312612 0.726413
O O16 0.500000 0.076162 0.614163
O O17 0.262827 0.000000 0.625227
O O18 0.500000 0.615379 0.334452
O O19 0.334744 0.500000 0.342803
O O20 0.239322 0.614376 0.280926
O O21 0.750000 0.250000 0.935923
O O22 0.000000 0.186901 0.943063
O O23 0.500000 0.113602 0.210451
O O24 0.670907 0.000000 0.211820
#
# Coordination Sequence:
#
# PCOD8173112 Si02
#       8
#     8   8   8   8   8   8   8   8
#     4  10  21  36  55  79 106 136 171 213 258 304
#     4  10  21  37  56  77 103 136 173 211 254 306
#     4   8  13  23  42  67  92 120 159 207 255 302
#     4  10  20  34  52  74 101 134 171 208 250 302
#     4   8  14  27  49  73  95 124 165 210 252 298
#     4   9  16  26  42  67 100 134 166 205 255 307
#     4  10  21  37  57  79 104 136 172 210 253 305
#     4  10  20  33  51  76 105 137 174 216 259 304
#
# _framework density 18.538236999999999
#
# number of rings (size 3 to 8) (size 9 to 14) (size 15 to 20)
#    0.000    2.625    0.000    3.000    0.000    7.500 
#    0.000    3.125    0.000    2.625    0.000    3.500 
#    0.000    0.000    0.000    0.000    0.000    0.000 
#
# Total GULP energy -396801.633102 kJ/mol
# GULP energy per Si atom -12400.051034 kJ/mol
# Density = 1.849604 g / cm^3
# Si number density = 18.538237 Si / 1000 Ang^3
#
#
#
# Elastic Constant Matrix: (Units=GPa)
#
#
# Indices 1 2 3 4 5 6 
#
# 1 103.5017 42.2432 67.0754 0.0000 0.0000 0.0000
# 2 42.2432 77.2555 55.3412 0.0000 0.0000 0.0000
# 3 67.0754 55.3412 124.7656 0.0000 0.0000 0.0000
# 4 0.0000 0.0000 0.0000 11.8490 0.0000 0.0000
# 5 0.0000 0.0000 0.0000 0.0000 22.8791 0.0000
# 6 0.0000 0.0000 0.0000 0.0000 0.0000 25.9607
#
#
#
# Elastic Compliance Matrix: (Units=1/GPa)
#
#
# Indices 1 2 3 4 5 6 
#
# 1 0.015508 -0.003675 -0.006707 0.000000 0.000000 0.000000
# 2 -0.003675 0.019843 -0.006826 0.000000 0.000000 0.000000
# 3 -0.006707 -0.006826 0.014649 0.000000 0.000000 0.000000
# 4 0.000000 0.000000 0.000000 0.084395 0.000000 0.000000
# 5 0.000000 0.000000 0.000000 0.000000 0.043708 0.000000
# 6 0.000000 0.000000 0.000000 0.000000 0.000000 0.038520
#
#
# Mechanical properties :
#
#
# Convention : Reuss Voigt Hill
#
# Bulk Modulus (GPa) = 64.17033 70.53804 67.35418
# Shear Modulus (GPa) = 19.51335 21.52864 20.52100
#
# Velocity S-wave (km/s) = 3.24790 3.41150 3.33070
# Velocity P-wave (km/s) = 6.98251 7.32464 7.15562
#
# Compressibility (1/GPa) = 0.01558353
#
# Stress axis : x y z
#
# Youngs Moduli (GPa) = 64.48100 50.39480 68.26582
#
# Poissons Ratio (x) = 0.18522 0.45788
# Poissons Ratio (y) = 0.23699 0.46597
# Poissons Ratio (z) = 0.43249 0.34399
#
# Static dielectric constant tensor:
#      x y z
#    x 3.400110 0.000000 0.000000 
#    y 0.000000 3.113030 0.000000 
#    z 0.000000 0.000000 3.652600 
# 
# 
# High freq. dielectric constant tensor:
#      x y z
#    x 1.711020 0.000000 0.000000 
#    y 0.000000 1.686250 0.000000 
#    z 0.000000 0.000000 1.733860 
# 
# From -- ./inp_files/18369.got.cif
#   From: 2010.03.12/outbox.cif.g09.slc.cpg/sg35_10_cif.got.tgz:18369.got - 2010.04.14 02:02:04.
