data_PCOD8173864
_publ_section_title
;
Structure prediction by ZEFSAII (Michael W. Deem and Ramdas Pophale) SiO2 
 PCOD8173864
Probable space group: C M M 2
;
_chemical_formula_sum "Si O2"
_cell_formula_units_Z 48
_cell_length_a 7.754767
_cell_length_b 18.550884
_cell_length_c 16.868941
_cell_angle_alpha 90.000000
_cell_angle_beta 90.000000
_cell_angle_gamma 90.000000
_cell_volume 2426.728455
_symmetry_space_group_name_H-M "C M M 2"
_symmetry_group_IT_number 35
_symmetry_cell_setting 'orthorhombic'
loop_
_space_group_symop_operation_xyz
x,y,z
-x,-y,z
-x,y,z
x,-y,z
1/2+x,1/2+y,z
1/2-x,1/2-y,z
1/2-x,1/2+y,z
1/2+x,1/2-y,z
loop_
_atom_site_type_symbol
_atom_site_label
_atom_site_fract_x
_atom_site_fract_y
_atom_site_fract_z
Si Si1 0.300565 0.829670 0.956520
Si Si2 0.500000 0.585018 0.404850
Si Si3 0.700524 0.915451 0.519937
Si Si4 0.702780 0.169050 0.139628
Si Si5 0.500000 0.414073 0.226116
Si Si6 0.807191 0.331240 0.669383
Si Si7 0.195348 0.080231 0.815032
O O1 0.500000 0.842320 0.941986
O O2 0.250000 0.750000 0.928436
O O3 0.200847 0.887331 0.903260
O O4 0.249675 0.841650 0.047573
O O5 0.500000 0.500000 0.400902
O O6 0.676215 0.610586 0.448166
O O7 0.500000 0.615654 0.315913
O O8 0.500000 0.897292 0.499396
O O9 0.780495 0.875072 0.597399
O O10 0.720943 0.000000 0.537070
O O11 0.500000 0.153495 0.156111
O O12 0.750000 0.250000 0.165904
O O13 0.823609 0.113908 0.186495
O O14 0.500000 0.500000 0.220496
O O15 0.750000 0.250000 0.679938
O O16 0.796802 0.370570 0.753495
O O17 0.000000 0.329474 0.640663
O O18 0.000000 0.077495 0.785776
O O19 0.275688 0.000000 0.816307
#
# Coordination Sequence:
#
# PCOD8173864 Si02
#       7
#     8   4   8   8   4   8   8
#     4  10  21  37  60  86 114 155 200 246 295 353
#     4   9  20  38  62  89 121 158 193 243 305 366
#     4   9  19  37  62  87 113 153 201 244 296 360
#     4  10  21  40  67  92 125 170 214 256 314 383
#     4  11  24  40  64  99 132 164 207 263 320 376
#     4  11  23  38  58  82 115 154 192 245 295 348
#     4  11  24  38  55  82 116 155 198 243 293 347
#
# _framework density 19.779714999999999
#
# number of rings (size 3 to 8) (size 9 to 14) (size 15 to 20)
#    0.000    1.833    0.833    2.500    4.667    3.667 
#    0.000    4.167    0.000    0.000    0.000    0.000 
#    0.000    0.000    0.000    0.000    0.000    0.000 
#
# Total GULP energy -297547.634521 kJ/mol
# GULP energy per Si atom -12397.818105 kJ/mol
# Density = 1.973470 g / cm^3
# Si number density = 19.779715 Si / 1000 Ang^3
#
#
#
# Elastic Constant Matrix: (Units=GPa)
#
#
# Indices 1 2 3 4 5 6 
#
# 1 94.8458 40.6246 46.8286 0.0000 0.0000 0.0000
# 2 40.6246 127.4586 68.5331 0.0000 0.0000 0.0000
# 3 46.8286 68.5331 126.1807 0.0000 0.0000 0.0000
# 4 0.0000 0.0000 0.0000 24.5083 0.0000 0.0000
# 5 0.0000 0.0000 0.0000 0.0000 31.7374 0.0000
# 6 0.0000 0.0000 0.0000 0.0000 0.0000 24.1923
#
#
#
# Elastic Compliance Matrix: (Units=1/GPa)
#
#
# Indices 1 2 3 4 5 6 
#
# 1 0.013349 -0.002247 -0.003734 0.000000 0.000000 0.000000
# 2 -0.002247 0.011460 -0.005391 0.000000 0.000000 0.000000
# 3 -0.003734 -0.005391 0.012239 0.000000 0.000000 0.000000
# 4 0.000000 0.000000 0.000000 0.040802 0.000000 0.000000
# 5 0.000000 0.000000 0.000000 0.000000 0.031509 0.000000
# 6 0.000000 0.000000 0.000000 0.000000 0.000000 0.041335
#
#
# Mechanical properties :
#
#
# Convention : Reuss Voigt Hill
#
# Bulk Modulus (GPa) = 69.90361 73.38419 71.64390
# Shear Modulus (GPa) = 28.05736 28.92086 28.48911
#
# Velocity S-wave (km/s) = 3.77037 3.82795 3.79927
# Velocity P-wave (km/s) = 7.37374 7.53119 7.45288
#
# Compressibility (1/GPa) = 0.01430541
#
# Stress axis : x y z
#
# Youngs Moduli (GPa) = 74.90948 87.25728 81.70881
#
# Poissons Ratio (x) = 0.19609 0.30508
# Poissons Ratio (y) = 0.16834 0.44045
# Poissons Ratio (z) = 0.27969 0.47036
#
# Static dielectric constant tensor:
#      x y z
#    x 3.724190 0.000000 0.000000 
#    y 0.000000 3.470450 0.000000 
#    z 0.000000 0.000000 3.643300 
# 
# 
# High freq. dielectric constant tensor:
#      x y z
#    x 1.782140 0.000000 0.000000 
#    y 0.000000 1.763240 0.000000 
#    z 0.000000 0.000000 1.768550 
# 
# From -- ./inp_files/15270.got.cif
#   From: 2010.03.12/outbox.cif.g09.slc.cpg/sg35_8_cif.got.tgz:15270.got - 2010.04.14 02:02:04.
