data_PCOD8173879
_publ_section_title
;
Structure prediction by ZEFSAII (Michael W. Deem and Ramdas Pophale) SiO2 
 PCOD8173879
Probable space group: C M M 2
;
_chemical_formula_sum "Si O2"
_cell_formula_units_Z 64
_cell_length_a 8.942504
_cell_length_b 29.542458
_cell_length_c 12.342143
_cell_angle_alpha 90.000000
_cell_angle_beta 90.000000
_cell_angle_gamma 90.000000
_cell_volume 3260.591138
_symmetry_space_group_name_H-M "C M M 2"
_symmetry_group_IT_number 35
_symmetry_cell_setting 'orthorhombic'
loop_
_space_group_symop_operation_xyz
x,y,z
-x,-y,z
-x,y,z
x,-y,z
1/2+x,1/2+y,z
1/2-x,1/2-y,z
1/2-x,1/2+y,z
1/2+x,1/2-y,z
loop_
_atom_site_type_symbol
_atom_site_label
_atom_site_fract_x
_atom_site_fract_y
_atom_site_fract_z
Si Si1 0.666730 0.343459 0.820830
Si Si2 0.674079 0.071069 0.761758
Si Si3 0.822579 0.548683 0.527711
Si Si4 0.173813 0.858828 0.062553
Si Si5 0.176380 0.356565 0.453662
Si Si6 0.168619 0.794543 0.615017
Si Si7 0.322205 0.799597 0.245447
Si Si8 0.176025 0.550091 0.997612
O O1 0.500000 0.364890 0.809389
O O2 0.790384 0.376197 0.771353
O O3 0.676766 0.298559 0.746310
O O4 0.698158 0.334080 0.946869
O O5 0.500000 0.062892 0.754787
O O6 0.745562 0.052241 0.650156
O O7 0.733103 0.047759 0.872506
O O8 0.769920 0.500000 0.478801
O O9 0.772793 0.590332 0.449919
O O10 0.000000 0.550216 0.536804
O O11 0.266046 0.827241 0.142437
O O12 0.000000 0.860355 0.096002
O O13 0.236012 0.910495 0.061912
O O14 0.253704 0.337364 0.560463
O O15 0.230126 0.329349 0.348279
O O16 0.000000 0.352174 0.468017
O O17 0.250000 0.750000 0.574075
O O18 0.000000 0.791526 0.573145
O O19 0.500000 0.794190 0.239576
O O20 0.250000 0.750000 0.251504
O O21 0.207566 0.500000 0.048277
O O22 0.000000 0.561718 0.003451
#
# Coordination Sequence:
#
# PCOD8173879 Si02
#       8
#     8   8   8   8   8   8   8   8
#     4   9  19  34  51  77 113 149 181 224 278 335
#     4   9  15  26  49  78 111 151 191 229 268 320
#     4   9  16  28  51  83 115 147 185 226 269 322
#     4  10  21  38  59  83 114 149 191 238 287 341
#     4  10  21  38  59  84 114 147 187 232 280 334
#     4  11  22  35  54  80 112 146 182 225 280 343
#     4  11  24  42  63  85 108 140 189 242 293 346
#     4   9  17  30  51  83 120 156 195 236 278 328
#
# _framework density 19.628343000000001
#
# number of rings (size 3 to 8) (size 9 to 14) (size 15 to 20)
#    0.000    2.250    1.250    1.875    0.000    5.250 
#    0.000    1.875    0.000    4.500    0.000    0.000 
#    0.000    0.000    0.000    0.000    0.000    0.000 
#
# Total GULP energy -396499.058981 kJ/mol
# GULP energy per Si atom -12390.595593 kJ/mol
# Density = 1.958367 g / cm^3
# Si number density = 19.628343 Si / 1000 Ang^3
#
#
#
# Elastic Constant Matrix: (Units=GPa)
#
#
# Indices 1 2 3 4 5 6 
#
# 1 40.4945 37.5880 31.2533 0.0000 0.0000 0.0000
# 2 37.5880 157.1713 64.4269 0.0000 0.0000 0.0000
# 3 31.2533 64.4269 96.0938 0.0000 0.0000 0.0000
# 4 0.0000 0.0000 0.0000 28.0749 0.0000 0.0000
# 5 0.0000 0.0000 0.0000 0.0000 22.2921 0.0000
# 6 0.0000 0.0000 0.0000 0.0000 0.0000 23.2149
#
#
#
# Elastic Compliance Matrix: (Units=1/GPa)
#
#
# Indices 1 2 3 4 5 6 
#
# 1 0.035840 -0.005231 -0.008150 0.000000 0.000000 0.000000
# 2 -0.005231 0.009537 -0.004693 0.000000 0.000000 0.000000
# 3 -0.008150 -0.004693 0.016204 0.000000 0.000000 0.000000
# 4 0.000000 0.000000 0.000000 0.035619 0.000000 0.000000
# 5 0.000000 0.000000 0.000000 0.000000 0.044859 0.000000
# 6 0.000000 0.000000 0.000000 0.000000 0.000000 0.043076
#
#
# Mechanical properties :
#
#
# Convention : Reuss Voigt Hill
#
# Bulk Modulus (GPa) = 39.31750 62.25513 50.78632
# Shear Modulus (GPa) = 21.76201 25.41581 23.58891
#
# Velocity S-wave (km/s) = 3.33333 3.60231 3.47043
# Velocity P-wave (km/s) = 5.90671 7.00628 6.47986
#
# Compressibility (1/GPa) = 0.02543396
#
# Stress axis : x y z
#
# Youngs Moduli (GPa) = 27.90213 104.85303 61.71486
#
# Poissons Ratio (x) = 0.54844 0.50295
# Poissons Ratio (y) = 0.14594 0.28963
# Poissons Ratio (z) = 0.22739 0.49209
#
# Static dielectric constant tensor:
#      x y z
#    x 3.436020 0.000000 0.000000 
#    y 0.000000 3.558780 0.000000 
#    z 0.000000 0.000000 3.557260 
# 
# 
# High freq. dielectric constant tensor:
#      x y z
#    x 1.746450 0.000000 0.000000 
#    y 0.000000 1.767250 0.000000 
#    z 0.000000 0.000000 1.750250 
# 
# From -- ./inp_files/11895.got.cif
#   From: 2010.03.12/outbox.cif.g09.slc.cpg/sg35_6_cif.got.tgz:11895.got - 2010.04.14 02:02:04.
