data_PCOD8173279
_publ_section_title
;
Structure prediction by ZEFSAII (Michael W. Deem and Ramdas Pophale) SiO2 
 PCOD8173279
Probable space group: C M M 2
;
_chemical_formula_sum "Si O2"
_cell_formula_units_Z 56
_cell_length_a 18.504806
_cell_length_b 9.073615
_cell_length_c 17.701830
_cell_angle_alpha 90.000000
_cell_angle_beta 90.000000
_cell_angle_gamma 90.000000
_cell_volume 2972.234357
_symmetry_space_group_name_H-M "C M M 2"
_symmetry_group_IT_number 35
_symmetry_cell_setting 'orthorhombic'
loop_
_space_group_symop_operation_xyz
x,y,z
-x,-y,z
-x,y,z
x,-y,z
1/2+x,1/2+y,z
1/2-x,1/2-y,z
1/2-x,1/2+y,z
1/2+x,1/2-y,z
loop_
_atom_site_type_symbol
_atom_site_label
_atom_site_fract_x
_atom_site_fract_y
_atom_site_fract_z
Si Si1 0.173248 0.326379 0.798120
Si Si2 0.176439 0.827864 0.359182
Si Si3 0.914293 0.667087 0.240020
Si Si4 0.323496 0.671551 0.534240
Si Si5 0.086004 0.833667 0.092749
Si Si6 0.583478 0.171531 0.652304
Si Si7 0.583354 0.172406 0.943125
O O1 0.184786 0.500000 0.798950
O O2 0.250000 0.250000 0.795659
O O3 0.127478 0.276645 0.725619
O O4 0.129858 0.274324 0.871964
O O5 0.250000 0.750000 0.333349
O O6 0.111154 0.757660 0.312721
O O7 0.160392 0.797026 0.446774
O O8 0.182447 0.000000 0.341596
O O9 0.885230 0.500000 0.243311
O O10 0.883457 0.743231 0.164179
O O11 0.000000 0.670312 0.240253
O O12 0.314646 0.500000 0.551442
O O13 0.250000 0.750000 0.560861
O O14 0.390564 0.736185 0.580276
O O15 0.000000 0.831243 0.094313
O O16 0.115864 0.000000 0.096658
O O17 0.113647 0.758277 0.015937
O O18 0.500000 0.206808 0.667282
O O19 0.595846 0.000000 0.635190
O O20 0.500000 0.211642 0.926554
O O21 0.592305 0.000000 0.959086
#
# Coordination Sequence:
#
# PCOD8173279 Si02
#       7
#     8   8   8   8   8   8   8
#     4  10  21  36  54  77 106 140 176 215 262 315
#     4  10  21  37  56  78 107 142 179 220 267 319
#     4  10  20  34  54  80 109 142 181 222 265 316
#     4  10  21  37  57  80 107 141 179 219 266 319
#     4   9  17  30  50  77 107 137 172 217 268 317
#     4  10  21  37  57  81 109 141 178 220 266 316
#     4   9  17  32  54  76 100 133 174 218 263 314
#
# _framework density 18.841044
#
# number of rings (size 3 to 8) (size 9 to 14) (size 15 to 20)
#    0.000    2.286    0.000    2.571    0.000    9.143 
#    0.000    3.571    0.000    4.286    0.000    0.000 
#    0.000    0.000    0.000    0.000    0.000    0.000 
#
# Total GULP energy -347306.772749 kJ/mol
# GULP energy per Si atom -12403.813312 kJ/mol
# Density = 1.879816 g / cm^3
# Si number density = 18.841044 Si / 1000 Ang^3
#
#
#
# Elastic Constant Matrix: (Units=GPa)
#
#
# Indices 1 2 3 4 5 6 
#
# 1 83.7940 46.0323 58.5414 0.0000 0.0000 0.0000
# 2 46.0323 105.2800 68.9353 0.0000 0.0000 0.0000
# 3 58.5414 68.9353 126.9665 0.0000 0.0000 0.0000
# 4 0.0000 0.0000 0.0000 31.5769 0.0000 0.0000
# 5 0.0000 0.0000 0.0000 0.0000 22.1693 0.0000
# 6 0.0000 0.0000 0.0000 0.0000 0.0000 32.0498
#
#
#
# Elastic Compliance Matrix: (Units=1/GPa)
#
#
# Indices 1 2 3 4 5 6 
#
# 1 0.018584 -0.003902 -0.006450 0.000000 0.000000 0.000000
# 2 -0.003902 0.015557 -0.006647 0.000000 0.000000 0.000000
# 3 -0.006450 -0.006647 0.014459 0.000000 0.000000 0.000000
# 4 0.000000 0.000000 0.000000 0.031669 0.000000 0.000000
# 5 0.000000 0.000000 0.000000 0.000000 0.045107 0.000000
# 6 0.000000 0.000000 0.000000 0.000000 0.000000 0.031201
#
#
# Mechanical properties :
#
#
# Convention : Reuss Voigt Hill
#
# Bulk Modulus (GPa) = 68.48800 73.67318 71.08059
# Shear Modulus (GPa) = 25.58274 26.66129 26.12202
#
# Velocity S-wave (km/s) = 3.68886 3.76582 3.72754
# Velocity P-wave (km/s) = 7.38735 7.62206 7.50562
#
# Compressibility (1/GPa) = 0.01460110
#
# Stress axis : x y z
#
# Youngs Moduli (GPa) = 53.81007 64.27833 69.16023
#
# Poissons Ratio (x) = 0.25083 0.44608
# Poissons Ratio (y) = 0.20998 0.45974
# Poissons Ratio (z) = 0.34707 0.42729
#
# Static dielectric constant tensor:
#      x y z
#    x 3.228410 0.000000 0.000000 
#    y 0.000000 3.536570 0.000000 
#    z 0.000000 0.000000 3.578590 
# 
# 
# High freq. dielectric constant tensor:
#      x y z
#    x 1.712210 0.000000 0.000000 
#    y 0.000000 1.737400 0.000000 
#    z 0.000000 0.000000 1.743810 
# 
# From -- ./inp_files/15585.got.cif
#   From: 2010.03.12/outbox.cif.g09.slc.cpg/sg35_8_cif.got.tgz:15585.got - 2010.04.14 02:02:04.
