data_PCOD8173987
_publ_section_title
;
Structure prediction by ZEFSAII (Michael W. Deem and Ramdas Pophale) SiO2 
 PCOD8173987
Probable space group: C M M 2
;
_chemical_formula_sum "Si O2"
_cell_formula_units_Z 48
_cell_length_a 15.513420
_cell_length_b 22.971895
_cell_length_c 5.372249
_cell_angle_alpha 90.000000
_cell_angle_beta 90.000000
_cell_angle_gamma 90.000000
_cell_volume 1914.522641
_symmetry_space_group_name_H-M "C M M 2"
_symmetry_group_IT_number 35
_symmetry_cell_setting 'orthorhombic'
loop_
_space_group_symop_operation_xyz
x,y,z
-x,-y,z
-x,y,z
x,-y,z
1/2+x,1/2+y,z
1/2-x,1/2-y,z
1/2-x,1/2+y,z
1/2+x,1/2-y,z
loop_
_atom_site_type_symbol
_atom_site_label
_atom_site_fract_x
_atom_site_fract_y
_atom_site_fract_z
Si Si1 0.750306 0.562897 0.202380
Si Si2 0.668615 0.844459 0.491025
Si Si3 0.167579 0.815009 0.716597
Si Si4 0.099630 0.241434 0.220644
Si Si5 0.400739 0.564457 0.845665
Si Si6 0.594414 0.065309 0.827370
O O1 0.769476 0.500000 0.323372
O O2 0.754796 0.612959 0.403166
O O3 0.654295 0.563653 0.097476
O O4 0.825835 0.577339 0.006053
O O5 0.727810 0.806331 0.682411
O O6 0.629540 0.808428 0.258926
O O7 0.595433 0.884370 0.616061
O O8 0.116059 0.783847 0.495732
O O9 0.136106 0.882153 0.687331
O O10 0.148228 0.790063 0.993511
O O11 0.000000 0.238923 0.151634
O O12 0.500000 0.575339 0.917952
O O13 0.389922 0.500000 0.714284
O O14 0.500000 0.070856 0.958540
O O15 0.603135 0.000000 0.712344
#
# Coordination Sequence:
#
# PCOD8173987 Si02
#       6
#     8   8   8   8   8   8
#     4  10  22  42  71 107 149 193 245 315 380 446
#     4  12  26  43  75 104 146 198 260 310 382 465
#     4  12  27  48  75 109 151 193 251 317 386 446
#     4  12  29  51  76 107 149 202 257 315 382 456
#     4  10  21  42  73 105 140 188 243 300 374 460
#     4  10  22  42  70 108 153 197 247 312 382 452
#
# _framework density 25.071525000000001
#
# number of rings (size 3 to 8) (size 9 to 14) (size 15 to 20)
#    0.000    1.000    1.667    4.000    2.333    4.667 
#    0.000    4.167    0.000    9.000    0.000    0.000 
#    0.000    0.000    0.000    0.000    0.000    0.000 
#
# Total GULP energy -297320.015530 kJ/mol
# GULP energy per Si atom -12388.333980 kJ/mol
# Density = 2.501446 g / cm^3
# Si number density = 25.071525 Si / 1000 Ang^3
#
#
#
# Elastic Constant Matrix: (Units=GPa)
#
#
# Indices 1 2 3 4 5 6 
#
# 1 137.5678 -0.2053 26.0943 0.0000 0.0000 0.0000
# 2 -0.2053 87.9978 29.6186 0.0000 0.0000 0.0000
# 3 26.0943 29.6186 95.7933 0.0000 0.0000 0.0000
# 4 0.0000 0.0000 0.0000 26.1289 0.0000 0.0000
# 5 0.0000 0.0000 0.0000 0.0000 22.5368 0.0000
# 6 0.0000 0.0000 0.0000 0.0000 0.0000 -295.3040
#
#
#
# Elastic Compliance Matrix: (Units=1/GPa)
#
#
# Indices 1 2 3 4 5 6 
#
# 1 0.007717 0.000810 -0.002352 0.000000 0.000000 0.000000
# 2 0.000810 0.012769 -0.004169 0.000000 0.000000 0.000000
# 3 -0.002352 -0.004169 0.012369 0.000000 0.000000 0.000000
# 4 0.000000 0.000000 0.000000 0.038272 0.000000 0.000000
# 5 0.000000 0.000000 0.000000 0.000000 0.044372 0.000000
# 6 0.000000 0.000000 0.000000 0.000000 0.000000 -0.003386
#
#
# Mechanical properties :
#
#
# Convention : Reuss Voigt Hill
#
# Bulk Modulus (GPa) = 46.65959 48.04157 47.35058
# Shear Modulus (GPa) = 38.26196 -31.60424 3.32886
#
# Velocity S-wave (km/s) = 3.91079 -3.55429 1.15353
# Velocity P-wave (km/s) = 6.24847 1.53604 4.54988
#
# Compressibility (1/GPa) = 0.02143182
#
# Stress axis : x y z
#
# Youngs Moduli (GPa) = 129.59149 78.31523 80.84828
#
# Poissons Ratio (x) = -0.06342 0.19019
# Poissons Ratio (y) = -0.10494 0.33703
# Poissons Ratio (z) = 0.30485 0.32647
#
# Static dielectric constant tensor:
#      x y z
#    x 4.494180 0.000000 0.000000 
#    y 0.000000 5.220020 0.000000 
#    z 0.000000 0.000000 4.083740 
# 
# 
# High freq. dielectric constant tensor:
#      x y z
#    x 2.009970 0.000000 0.000000 
#    y 0.000000 2.032950 0.000000 
#    z 0.000000 0.000000 1.967050 
# 
# From -- ./inp_files/1912.got.cif
#   From: 2010.03.12/outbox.cif.g09.slc.cpg/sg35_1_cif.got.tgz:1912.got - 2010.04.14 02:02:04.
