data_PCOD8173281
_publ_section_title
;
Structure prediction by ZEFSAII (Michael W. Deem and Ramdas Pophale) SiO2 
 PCOD8173281
Probable space group: C M M 2
;
_chemical_formula_sum "Si O2"
_cell_formula_units_Z 40
_cell_length_a 8.833542
_cell_length_b 18.325951
_cell_length_c 12.827845
_cell_angle_alpha 90.000000
_cell_angle_beta 90.000000
_cell_angle_gamma 90.000000
_cell_volume 2076.610774
_symmetry_space_group_name_H-M "C M M 2"
_symmetry_group_IT_number 35
_symmetry_cell_setting 'orthorhombic'
loop_
_space_group_symop_operation_xyz
x,y,z
-x,-y,z
-x,y,z
x,-y,z
1/2+x,1/2+y,z
1/2-x,1/2-y,z
1/2-x,1/2+y,z
1/2+x,1/2-y,z
loop_
_atom_site_type_symbol
_atom_site_label
_atom_site_fract_x
_atom_site_fract_y
_atom_site_fract_z
Si Si1 0.821002 0.671055 0.884420
Si Si2 0.323897 0.584464 0.068718
Si Si3 0.180079 0.581901 0.684942
Si Si4 0.174644 0.584074 0.283726
Si Si5 0.320697 0.171010 0.486484
O O1 0.750000 0.750000 0.874243
O O2 0.761146 0.622824 0.788025
O O3 0.000000 0.678755 0.883041
O O4 0.771963 0.633392 0.991023
O O5 0.500000 0.601234 0.053769
O O6 0.285197 0.500000 0.047396
O O7 0.276351 0.606185 0.185398
O O8 0.246715 0.500000 0.685120
O O9 0.241428 0.623887 0.583386
O O10 0.000000 0.579227 0.683504
O O11 0.198107 0.500000 0.314909
O O12 0.231395 0.632215 0.380264
O O13 0.000000 0.599637 0.256211
O O14 0.500000 0.177522 0.491843
O O15 0.250000 0.250000 0.492653
#
# Coordination Sequence:
#
# PCOD8173281 Si02
#       5
#     8   8   8   8   8
#     4  11  22  36  56  81 111 145 181 223 271 324
#     4  10  21  37  57  81 110 143 181 227 274 321
#     4   9  18  34  57  82 106 137 179 222 264 316
#     4   9  18  34  56  79 104 140 185 225 262 312
#     4  10  20  34  54  80 110 141 174 217 267 319
#
# _framework density 19.262156000000001
#
# number of rings (size 3 to 8) (size 9 to 14) (size 15 to 20)
#    0.000    2.200    0.000    3.000    0.000    6.000 
#    0.000    3.000    0.000    4.200    0.000    0.000 
#    0.000    0.000    0.000    0.000    0.000    0.000 
#
# Total GULP energy -248072.272489 kJ/mol
# GULP energy per Si atom -12403.613624 kJ/mol
# Density = 1.921831 g / cm^3
# Si number density = 19.262156 Si / 1000 Ang^3
#
#
#
# Elastic Constant Matrix: (Units=GPa)
#
#
# Indices 1 2 3 4 5 6 
#
# 1 47.4128 39.5079 36.8470 0.0000 0.0000 0.0000
# 2 39.5079 160.6823 99.2379 0.0000 0.0000 0.0000
# 3 36.8470 99.2379 148.3852 0.0000 0.0000 0.0000
# 4 0.0000 0.0000 0.0000 25.7249 0.0000 0.0000
# 5 0.0000 0.0000 0.0000 0.0000 18.0953 0.0000
# 6 0.0000 0.0000 0.0000 0.0000 0.0000 30.1553
#
#
#
# Elastic Compliance Matrix: (Units=1/GPa)
#
#
# Indices 1 2 3 4 5 6 
#
# 1 0.027840 -0.004388 -0.003979 0.000000 0.000000 0.000000
# 2 -0.004388 0.011295 -0.006464 0.000000 0.000000 0.000000
# 3 -0.003979 -0.006464 0.012050 0.000000 0.000000 0.000000
# 4 0.000000 0.000000 0.000000 0.038873 0.000000 0.000000
# 5 0.000000 0.000000 0.000000 0.000000 0.055263 0.000000
# 6 0.000000 0.000000 0.000000 0.000000 0.000000 0.033162
#
#
# Mechanical properties :
#
#
# Convention : Reuss Voigt Hill
#
# Bulk Modulus (GPa) = 46.46108 78.62955 62.54531
# Shear Modulus (GPa) = 23.22153 26.85427 25.03790
#
# Velocity S-wave (km/s) = 3.47587 3.73788 3.60925
# Velocity P-wave (km/s) = 6.34679 7.71611 7.06470
#
# Compressibility (1/GPa) = 0.02152339
#
# Stress axis : x y z
#
# Youngs Moduli (GPa) = 35.92001 88.53835 82.98607
#
# Poissons Ratio (x) = 0.38850 0.33017
# Poissons Ratio (y) = 0.15761 0.53642
# Poissons Ratio (z) = 0.14291 0.57231
#
# Static dielectric constant tensor:
#      x y z
#    x 3.278150 0.000000 0.000000 
#    y 0.000000 3.621190 0.000000 
#    z 0.000000 0.000000 3.689970 
# 
# 
# High freq. dielectric constant tensor:
#      x y z
#    x 1.727270 0.000000 0.000000 
#    y 0.000000 1.757150 0.000000 
#    z 0.000000 0.000000 1.765490 
# 
# From -- ./inp_files/10999.got.cif
#   From: 2010.03.12/outbox.cif.g09.slc.cpg/sg35_6_cif.got.tgz:10999.got - 2010.04.14 02:02:04.
