data_PCOD8173739
_publ_section_title
;
Structure prediction by ZEFSAII (Michael W. Deem and Ramdas Pophale) SiO2 
 PCOD8173739
Probable space group: C M M 2
;
_chemical_formula_sum "Si O2"
_cell_formula_units_Z 64
_cell_length_a 9.203744
_cell_length_b 18.899580
_cell_length_c 20.230487
_cell_angle_alpha 90.000000
_cell_angle_beta 90.000000
_cell_angle_gamma 90.000000
_cell_volume 3519.030419
_symmetry_space_group_name_H-M "C M M 2"
_symmetry_group_IT_number 35
_symmetry_cell_setting 'orthorhombic'
loop_
_space_group_symop_operation_xyz
x,y,z
-x,-y,z
-x,y,z
x,-y,z
1/2+x,1/2+y,z
1/2-x,1/2-y,z
1/2-x,1/2+y,z
1/2+x,1/2-y,z
loop_
_atom_site_type_symbol
_atom_site_label
_atom_site_fract_x
_atom_site_fract_y
_atom_site_fract_z
Si Si1 0.161498 0.084026 0.362150
Si Si2 0.831695 0.679514 0.119009
Si Si3 0.331913 0.081626 0.735666
Si Si4 0.330033 0.821546 0.966009
Si Si5 0.333645 0.416795 0.215939
Si Si6 0.671190 0.824684 0.610290
Si Si7 0.334204 0.583429 0.866519
Si Si8 0.328544 0.080542 0.488689
O O1 0.210726 0.110817 0.289459
O O2 0.267364 0.111639 0.419723
O O3 0.000000 0.112211 0.377874
O O4 0.161436 0.000000 0.360293
O O5 0.750000 0.750000 0.141259
O O6 0.773117 0.615264 0.162057
O O7 0.000000 0.690892 0.133360
O O8 0.801932 0.661773 0.042652
O O9 0.500000 0.092157 0.754856
O O10 0.286494 0.130218 0.674501
O O11 0.234217 0.106863 0.796841
O O12 0.301539 0.000000 0.716663
O O13 0.500000 0.814540 0.949792
O O14 0.250000 0.750000 0.944194
O O15 0.260097 0.885362 0.925774
O O16 0.500000 0.395452 0.200769
O O17 0.313668 0.500000 0.211336
O O18 0.500000 0.811589 0.606361
O O19 0.750000 0.750000 0.612574
O O20 0.727223 0.869396 0.547453
O O21 0.500000 0.610698 0.869778
O O22 0.325902 0.500000 0.874630
O O23 0.500000 0.081838 0.484003
O O24 0.274026 0.000000 0.501470
#
# Coordination Sequence:
#
# PCOD8173739 Si02
#       8
#     8   8   8   8   8   8   8   8
#     4   8  15  29  49  74 102 131 165 205 251 302
#     4  10  21  36  54  76 103 136 175 216 257 306
#     4   9  18  35  57  76  98 133 173 210 250 298
#     4  10  21  37  56  77 103 137 175 214 257 307
#     4   9  18  33  53  77 106 138 171 211 259 308
#     4  10  21  35  51  74 103 133 166 206 253 302
#     4  10  21  36  55  81 110 137 169 211 255 302
#     4   9  17  31  52  75  98 128 168 210 249 294
#
# _framework density 18.186826
#
# number of rings (size 3 to 8) (size 9 to 14) (size 15 to 20)
#    0.000    2.625    0.000    2.250    0.000    6.500 
#    0.000    5.625    0.000    5.250    0.000    0.000 
#    0.000    0.000    0.000    0.000    0.000    0.000 
#
# Total GULP energy -396799.910117 kJ/mol
# GULP energy per Si atom -12399.997191 kJ/mol
# Density = 1.814543 g / cm^3
# Si number density = 18.186826 Si / 1000 Ang^3
#
#
#
# Elastic Constant Matrix: (Units=GPa)
#
#
# Indices 1 2 3 4 5 6 
#
# 1 86.4795 43.2931 64.2292 0.0000 0.0000 0.0000
# 2 43.2931 66.0410 57.0433 0.0000 0.0000 0.0000
# 3 64.2292 57.0433 119.9930 0.0000 0.0000 0.0000
# 4 0.0000 0.0000 0.0000 9.0640 0.0000 0.0000
# 5 0.0000 0.0000 0.0000 0.0000 34.1628 0.0000
# 6 0.0000 0.0000 0.0000 0.0000 0.0000 32.3210
#
#
#
# Elastic Compliance Matrix: (Units=1/GPa)
#
#
# Indices 1 2 3 4 5 6 
#
# 1 0.020870 -0.006841 -0.007919 0.000000 0.000000 0.000000
# 2 -0.006841 0.027934 -0.009618 0.000000 0.000000 0.000000
# 3 -0.007919 -0.009618 0.017145 0.000000 0.000000 0.000000
# 4 0.000000 0.000000 0.000000 0.110326 0.000000 0.000000
# 5 0.000000 0.000000 0.000000 0.000000 0.029272 0.000000
# 6 0.000000 0.000000 0.000000 0.000000 0.000000 0.030940
#
#
# Mechanical properties :
#
#
# Convention : Reuss Voigt Hill
#
# Bulk Modulus (GPa) = 58.16247 66.84941 62.50594
# Shear Modulus (GPa) = 17.18379 22.30609 19.74494
#
# Velocity S-wave (km/s) = 3.07717 3.50594 3.29853
# Velocity P-wave (km/s) = 6.68396 7.29559 6.99646
#
# Compressibility (1/GPa) = 0.01719322
#
# Stress axis : x y z
#
# Youngs Moduli (GPa) = 47.91665 35.79846 58.32722
#
# Poissons Ratio (x) = 0.24490 0.46188
# Poissons Ratio (y) = 0.32781 0.56097
# Poissons Ratio (z) = 0.37944 0.34430
#
# Static dielectric constant tensor:
#      x y z
#    x 3.409970 0.000000 0.000000 
#    y 0.000000 3.169240 0.000000 
#    z 0.000000 0.000000 3.528610 
# 
# 
# High freq. dielectric constant tensor:
#      x y z
#    x 1.705360 0.000000 0.000000 
#    y 0.000000 1.686390 0.000000 
#    z 0.000000 0.000000 1.714770 
# 
# From -- ./inp_files/18307.got.cif
#   From: 2010.03.12/outbox.cif.g09.slc.cpg/sg35_10_cif.got.tgz:18307.got - 2010.04.14 02:02:04.
