data_PCOD8173963
_publ_section_title
;
Structure prediction by ZEFSAII (Michael W. Deem and Ramdas Pophale) SiO2 
 PCOD8173963
Probable space group: C M M 2
;
_chemical_formula_sum "Si O2"
_cell_formula_units_Z 40
_cell_length_a 8.674944
_cell_length_b 15.676476
_cell_length_c 14.341948
_cell_angle_alpha 90.000000
_cell_angle_beta 90.000000
_cell_angle_gamma 90.000000
_cell_volume 1950.398101
_symmetry_space_group_name_H-M "C M M 2"
_symmetry_group_IT_number 35
_symmetry_cell_setting 'orthorhombic'
loop_
_space_group_symop_operation_xyz
x,y,z
-x,-y,z
-x,y,z
x,-y,z
1/2+x,1/2+y,z
1/2-x,1/2-y,z
1/2-x,1/2+y,z
1/2+x,1/2-y,z
loop_
_atom_site_type_symbol
_atom_site_label
_atom_site_fract_x
_atom_site_fract_y
_atom_site_fract_z
Si Si1 0.182203 0.841595 0.661670
Si Si2 0.825374 0.903936 0.038381
Si Si3 0.182504 0.341158 0.859175
Si Si4 0.319408 0.500000 0.533612
Si Si5 0.317499 0.837326 0.219125
Si Si6 0.182007 0.500000 0.331413
O O1 0.250000 0.750000 0.629958
O O2 0.249758 0.871513 0.760571
O O3 0.000000 0.832189 0.671235
O O4 0.229183 0.914575 0.588627
O O5 0.739359 0.845062 0.112898
O O6 0.000000 0.870781 0.024965
O O7 0.823139 0.000000 0.076639
O O8 0.735984 0.904586 0.940173
O O9 0.250000 0.250000 0.886997
O O10 0.000000 0.338035 0.851431
O O11 0.500000 0.500000 0.513250
O O12 0.228374 0.500000 0.438156
O O13 0.500000 0.833820 0.220689
O O14 0.250000 0.750000 0.262072
O O15 0.252320 0.915411 0.281030
O O16 0.000000 0.500000 0.322599
#
# Coordination Sequence:
#
# PCOD8173963 Si02
#       6
#     8   8   8   4   8   4
#     4  10  21  40  62  90 123 161 203 251 302 359
#     4  11  23  38  59  88 123 164 205 250 300 357
#     4  11  22  37  58  86 121 162 204 249 297 355
#     4  10  24  42  65  90 121 158 199 250 310 368
#     4  11  23  42  65  92 124 161 203 251 304 361
#     4  10  24  44  65  90 123 156 199 254 306 364
#
# _framework density 20.508634000000001
#
# number of rings (size 3 to 8) (size 9 to 14) (size 15 to 20)
#    0.000    1.400    1.000    5.400    1.400    5.200 
#    0.000    4.000    0.000    0.000    0.000    0.000 
#    0.000    0.000    0.000    0.000    0.000    0.000 
#
# Total GULP energy -248073.462168 kJ/mol
# GULP energy per Si atom -12403.673108 kJ/mol
# Density = 2.046196 g / cm^3
# Si number density = 20.508634 Si / 1000 Ang^3
#
#
#
# Elastic Constant Matrix: (Units=GPa)
#
#
# Indices 1 2 3 4 5 6 
#
# 1 113.7956 49.4459 44.8814 0.0000 0.0000 0.0000
# 2 49.4459 141.8511 67.5838 0.0000 0.0000 0.0000
# 3 44.8814 67.5838 119.7191 0.0000 0.0000 0.0000
# 4 0.0000 0.0000 0.0000 22.8306 0.0000 0.0000
# 5 0.0000 0.0000 0.0000 0.0000 36.7831 0.0000
# 6 0.0000 0.0000 0.0000 0.0000 0.0000 32.7179
#
#
#
# Elastic Compliance Matrix: (Units=1/GPa)
#
#
# Indices 1 2 3 4 5 6 
#
# 1 0.010945 -0.002545 -0.002667 0.000000 0.000000 0.000000
# 2 -0.002545 0.010235 -0.004824 0.000000 0.000000 0.000000
# 3 -0.002667 -0.004824 0.012076 0.000000 0.000000 0.000000
# 4 0.000000 0.000000 0.000000 0.043801 0.000000 0.000000
# 5 0.000000 0.000000 0.000000 0.000000 0.027186 0.000000
# 6 0.000000 0.000000 0.000000 0.000000 0.000000 0.030564
#
#
# Mechanical properties :
#
#
# Convention : Reuss Voigt Hill
#
# Bulk Modulus (GPa) = 75.84156 77.68756 76.76456
# Shear Modulus (GPa) = 31.39262 32.69662 32.04462
#
# Velocity S-wave (km/s) = 3.91666 3.99718 3.95713
# Velocity P-wave (km/s) = 7.58382 7.69844 7.64134
#
# Compressibility (1/GPa) = 0.01318538
#
# Stress axis : x y z
#
# Youngs Moduli (GPa) = 91.36474 97.70438 82.81051
#
# Poissons Ratio (x) = 0.24863 0.22083
# Poissons Ratio (y) = 0.23250 0.39947
# Poissons Ratio (z) = 0.24364 0.47131
#
# Static dielectric constant tensor:
#      x y z
#    x 3.715200 0.000000 0.000000 
#    y 0.000000 4.009840 0.000000 
#    z 0.000000 0.000000 3.608560 
# 
# 
# High freq. dielectric constant tensor:
#      x y z
#    x 1.809500 0.000000 0.000000 
#    y 0.000000 1.812150 0.000000 
#    z 0.000000 0.000000 1.795920 
# 
# From -- ./inp_files/14721.got.cif
#   From: 2010.03.12/outbox.cif.g09.slc.cpg/sg35_8_cif.got.tgz:14721.got - 2010.04.14 02:02:04.
