data_PCOD8173055
_publ_section_title
;
Structure prediction by ZEFSAII (Michael W. Deem and Ramdas Pophale) SiO2 
 PCOD8173055
Probable space group: C M M 2
;
_chemical_formula_sum "Si O2"
_cell_formula_units_Z 64
_cell_length_a 9.038602
_cell_length_b 19.605554
_cell_length_c 20.470518
_cell_angle_alpha 90.000000
_cell_angle_beta 90.000000
_cell_angle_gamma 90.000000
_cell_volume 3627.514981
_symmetry_space_group_name_H-M "C M M 2"
_symmetry_group_IT_number 35
_symmetry_cell_setting 'orthorhombic'
loop_
_space_group_symop_operation_xyz
x,y,z
-x,-y,z
-x,y,z
x,-y,z
1/2+x,1/2+y,z
1/2-x,1/2-y,z
1/2-x,1/2+y,z
1/2+x,1/2-y,z
loop_
_atom_site_type_symbol
_atom_site_label
_atom_site_fract_x
_atom_site_fract_y
_atom_site_fract_z
Si Si1 0.672464 0.818277 0.979140
Si Si2 0.672007 0.580301 0.226283
Si Si3 0.826570 0.422144 0.869982
Si Si4 0.333112 0.081079 0.357029
Si Si5 0.325010 0.179667 0.128641
Si Si6 0.833056 0.081243 0.740595
Si Si7 0.667235 0.581361 0.484758
Si Si8 0.167073 0.418646 0.613078
O O1 0.500000 0.805395 0.972802
O O2 0.750000 0.750000 0.954120
O O3 0.724534 0.880411 0.933556
O O4 0.716334 0.835322 0.053445
O O5 0.500000 0.599986 0.225042
O O6 0.696014 0.500000 0.216856
O O7 0.740167 0.605917 0.294628
O O8 0.758255 0.616962 0.168265
O O9 0.780492 0.500000 0.883341
O O10 0.744163 0.392172 0.806553
O O11 0.000000 0.415535 0.856514
O O12 0.500000 0.110020 0.352835
O O13 0.254617 0.110071 0.421927
O O14 0.336020 0.000000 0.359812
O O15 0.500000 0.184477 0.140077
O O16 0.250000 0.250000 0.152035
O O17 0.746322 0.110296 0.677835
O O18 0.000000 0.108941 0.738339
O O19 0.829030 0.000000 0.739133
O O20 0.500000 0.609253 0.483070
O O21 0.667489 0.500000 0.484173
O O22 0.746707 0.609199 0.549756
O O23 0.168441 0.500000 0.613412
O O24 0.000000 0.390858 0.611166
#
# Coordination Sequence:
#
# PCOD8173055 Si02
#       8
#     8   8   8   8   8   8   8   8
#     4   9  19  34  52  72  94 122 154 191 234 280
#     4  10  20  33  49  71  99 129 161 199 243 289
#     4   9  17  30  47  67  92 122 155 190 230 277
#     4   9  16  26  40  59  85 118 155 193 234 281
#     4  10  20  35  54  74  97 126 160 198 241 289
#     4   9  16  25  37  56  83 114 148 187 231 275
#     4   9  15  22  33  51  78 113 151 190 231 275
#     4   9  15  22  33  50  75 111 152 189 226 272
#
# _framework density 17.642931999999998
#
# number of rings (size 3 to 8) (size 9 to 14) (size 15 to 20)
#    0.000    2.750    0.000    2.250    0.000    8.250 
#    0.000    1.250    0.000    1.500    0.000    0.000 
#    0.000    1.000    0.000    8.500    0.000   15.500 
#
# Total GULP energy -396799.586833 kJ/mol
# GULP energy per Si atom -12399.987089 kJ/mol
# Density = 1.760278 g / cm^3
# Si number density = 17.642932 Si / 1000 Ang^3
#
#
#
# Elastic Constant Matrix: (Units=GPa)
#
#
# Indices 1 2 3 4 5 6 
#
# 1 126.9869 31.9366 72.5065 0.0000 0.0000 0.0000
# 2 31.9366 37.2117 45.3208 0.0000 0.0000 0.0000
# 3 72.5065 45.3208 145.4321 0.0000 0.0000 0.0000
# 4 0.0000 0.0000 0.0000 1.8145 0.0000 0.0000
# 5 0.0000 0.0000 0.0000 0.0000 34.5136 0.0000
# 6 0.0000 0.0000 0.0000 0.0000 0.0000 18.0402
#
#
#
# Elastic Compliance Matrix: (Units=1/GPa)
#
#
# Indices 1 2 3 4 5 6 
#
# 1 0.011487 -0.004647 -0.004278 0.000000 0.000000 0.000000
# 2 -0.004647 0.045192 -0.011766 0.000000 0.000000 0.000000
# 3 -0.004278 -0.011766 0.012676 0.000000 0.000000 0.000000
# 4 0.000000 0.000000 0.000000 0.551103 0.000000 0.000000
# 5 0.000000 0.000000 0.000000 0.000000 0.028974 0.000000
# 6 0.000000 0.000000 0.000000 0.000000 0.000000 0.055432
#
#
# Mechanical properties :
#
#
# Convention : Reuss Voigt Hill
#
# Bulk Modulus (GPa) = 35.75214 67.68429 51.71821
# Shear Modulus (GPa) = 6.61752 21.53145 14.07448
#
# Velocity S-wave (km/s) = 1.93880 3.49721 2.82749
# Velocity P-wave (km/s) = 5.03192 7.39960 6.32749
#
# Compressibility (1/GPa) = 0.02797036
#
# Stress axis : x y z
#
# Youngs Moduli (GPa) = 87.05853 22.12780 78.89062
#
# Poissons Ratio (x) = 0.10284 0.33753
# Poissons Ratio (y) = 0.40460 0.92824
# Poissons Ratio (z) = 0.37247 0.26036
#
# Static dielectric constant tensor:
#      x y z
#    x 3.445350 0.000000 0.000000 
#    y 0.000000 2.736210 0.000000 
#    z 0.000000 0.000000 3.492220 
# 
# 
# High freq. dielectric constant tensor:
#      x y z
#    x 1.697630 0.000000 0.000000 
#    y 0.000000 1.612870 0.000000 
#    z 0.000000 0.000000 1.696930 
# 
# From -- ./inp_files/18298.got.cif
#   From: 2010.03.12/outbox.cif.g09.slc.cpg/sg35_10_cif.got.tgz:18298.got - 2010.04.14 02:02:04.
