data_PCOD8173761
_publ_section_title
;
Structure prediction by ZEFSAII (Michael W. Deem and Ramdas Pophale) SiO2 
 PCOD8173761
Probable space group: C M M 2
;
_chemical_formula_sum "Si O2"
_cell_formula_units_Z 64
_cell_length_a 24.561349
_cell_length_b 13.918937
_cell_length_c 9.369327
_cell_angle_alpha 90.000000
_cell_angle_beta 90.000000
_cell_angle_gamma 90.000000
_cell_volume 3203.071859
_symmetry_space_group_name_H-M "C M M 2"
_symmetry_group_IT_number 35
_symmetry_cell_setting 'orthorhombic'
loop_
_space_group_symop_operation_xyz
x,y,z
-x,-y,z
-x,y,z
x,-y,z
1/2+x,1/2+y,z
1/2-x,1/2-y,z
1/2-x,1/2+y,z
1/2+x,1/2-y,z
loop_
_atom_site_type_symbol
_atom_site_label
_atom_site_fract_x
_atom_site_fract_y
_atom_site_fract_z
Si Si1 0.437383 0.111525 0.339720
Si Si2 0.119121 0.704764 0.089234
Si Si3 0.938108 0.612052 0.841292
Si Si4 0.227259 0.604453 0.138470
Si Si5 0.732837 0.144269 0.461635
Si Si6 0.879304 0.696213 0.588600
Si Si7 0.834191 0.894657 0.648674
Si Si8 0.162734 0.889589 0.981522
O O1 0.500000 0.119700 0.295586
O O2 0.400127 0.185219 0.250163
O O3 0.429567 0.153521 0.498266
O O4 0.418136 0.000000 0.328317
O O5 0.182301 0.676523 0.078214
O O6 0.078507 0.635770 0.002545
O O7 0.115527 0.816438 0.038282
O O8 0.932334 0.500000 0.810139
O O9 0.894609 0.671669 0.750021
O O10 0.000000 0.645939 0.814305
O O11 0.212551 0.500000 0.076001
O O12 0.229348 0.592149 0.309976
O O13 0.285086 0.636621 0.076695
O O14 0.750000 0.250000 0.419970
O O15 0.675317 0.140846 0.542892
O O16 0.776343 0.098174 0.569054
O O17 0.871770 0.812035 0.577852
O O18 0.824157 0.870792 0.815172
O O19 0.862447 0.000000 0.632941
O O20 0.143670 0.000000 0.006482
#
# Coordination Sequence:
#
# PCOD8173761 Si02
#       8
#     8   8   8   8   8   8   8   8
#     4  11  24  42  64  90 121 156 196 245 302 358
#     4  12  22  39  63  87 121 158 197 243 296 355
#     4  11  24  40  60  88 117 150 198 251 302 354
#     4  11  22  35  57  90 124 159 196 238 290 355
#     4  10  21  35  56  88 122 158 197 239 288 353
#     4  11  22  39  63  88 120 160 196 244 297 354
#     4  10  22  40  60  88 123 160 200 243 292 347
#     4  10  23  40  60  87 122 161 199 242 291 347
#
# _framework density 19.980820000000001
#
# number of rings (size 3 to 8) (size 9 to 14) (size 15 to 20)
#    0.000    1.250    2.500    3.750    3.500    4.500 
#    0.000    0.000    0.000    4.500    0.000    0.000 
#    0.000    0.000    0.000    0.000    0.000    0.000 
#
# Total GULP energy -396720.887430 kJ/mol
# GULP energy per Si atom -12397.527732 kJ/mol
# Density = 1.993534 g / cm^3
# Si number density = 19.980820 Si / 1000 Ang^3
#
#
#
# Elastic Constant Matrix: (Units=GPa)
#
#
# Indices 1 2 3 4 5 6 
#
# 1 71.8043 46.3376 25.9311 0.0000 0.0000 0.0000
# 2 46.3376 126.2118 31.6856 0.0000 0.0000 0.0000
# 3 25.9311 31.6856 70.2416 0.0000 0.0000 0.0000
# 4 0.0000 0.0000 0.0000 31.9888 0.0000 0.0000
# 5 0.0000 0.0000 0.0000 0.0000 28.0805 0.0000
# 6 0.0000 0.0000 0.0000 0.0000 0.0000 22.3858
#
#
#
# Elastic Compliance Matrix: (Units=1/GPa)
#
#
# Indices 1 2 3 4 5 6 
#
# 1 0.019414 -0.006009 -0.004456 0.000000 0.000000 0.000000
# 2 -0.006009 0.010795 -0.002651 0.000000 0.000000 0.000000
# 3 -0.004456 -0.002651 0.017078 0.000000 0.000000 0.000000
# 4 0.000000 0.000000 0.000000 0.031261 0.000000 0.000000
# 5 0.000000 0.000000 0.000000 0.000000 0.035612 0.000000
# 6 0.000000 0.000000 0.000000 0.000000 0.000000 0.044671
#
#
# Mechanical properties :
#
#
# Convention : Reuss Voigt Hill
#
# Bulk Modulus (GPa) = 47.49825 52.90737 50.20281
# Shear Modulus (GPa) = 26.03064 27.44456 26.73760
#
# Velocity S-wave (km/s) = 3.61332 3.71016 3.66206
# Velocity P-wave (km/s) = 6.42119 6.70002 6.56208
#
# Compressibility (1/GPa) = 0.02105341
#
# Stress axis : x y z
#
# Youngs Moduli (GPa) = 51.50969 92.63655 58.55580
#
# Poissons Ratio (x) = 0.55664 0.26095
# Poissons Ratio (y) = 0.30951 0.15525
# Poissons Ratio (z) = 0.22955 0.24560
#
# Static dielectric constant tensor:
#      x y z
#    x 3.367810 0.000000 0.000000 
#    y 0.000000 3.712520 0.000000 
#    z 0.000000 0.000000 3.600530 
# 
# 
# High freq. dielectric constant tensor:
#      x y z
#    x 1.754590 0.000000 0.000000 
#    y 0.000000 1.788250 0.000000 
#    z 0.000000 0.000000 1.790420 
# 
# From -- ./inp_files/7857.got.cif
#   From: 2010.03.12/outbox.cif.g09.slc.cpg/sg35_4_cif.got.tgz:7857.got - 2010.04.14 02:02:04.
