data_PCOD8173023
_publ_section_title
;
Structure prediction by ZEFSAII (Michael W. Deem and Ramdas Pophale) SiO2 
 PCOD8173023
Probable space group: C M M 2
;
_chemical_formula_sum "Si O2"
_cell_formula_units_Z 48
_cell_length_a 8.790450
_cell_length_b 18.842210
_cell_length_c 15.383268
_cell_angle_alpha 90.000000
_cell_angle_beta 90.000000
_cell_angle_gamma 90.000000
_cell_volume 2547.953829
_symmetry_space_group_name_H-M "C M M 2"
_symmetry_group_IT_number 35
_symmetry_cell_setting 'orthorhombic'
loop_
_space_group_symop_operation_xyz
x,y,z
-x,-y,z
-x,y,z
x,-y,z
1/2+x,1/2+y,z
1/2-x,1/2-y,z
1/2-x,1/2+y,z
1/2+x,1/2-y,z
loop_
_atom_site_type_symbol
_atom_site_label
_atom_site_fract_x
_atom_site_fract_y
_atom_site_fract_z
Si Si1 0.180840 0.920554 0.609390
Si Si2 0.175507 0.081626 0.288097
Si Si3 0.823733 0.417644 0.108218
Si Si4 0.679694 0.672972 0.959565
Si Si5 0.680216 0.326972 0.452443
Si Si6 0.680732 0.579397 0.802341
O O1 0.246696 0.866394 0.537947
O O2 0.233686 0.896155 0.705933
O O3 0.000000 0.921714 0.604126
O O4 0.242070 0.000000 0.590351
O O5 0.277652 0.102863 0.205962
O O6 0.231454 0.128994 0.368235
O O7 0.000000 0.096213 0.264695
O O8 0.200059 0.000000 0.314789
O O9 0.788003 0.500000 0.090462
O O10 0.000000 0.399664 0.094363
O O11 0.722860 0.371685 0.043845
O O12 0.500000 0.680105 0.954853
O O13 0.750000 0.750000 0.965478
O O14 0.746275 0.633536 0.873946
O O15 0.500000 0.321251 0.457613
O O16 0.750000 0.250000 0.446532
O O17 0.500000 0.578089 0.807181
O O18 0.742679 0.500000 0.821799
#
# Coordination Sequence:
#
# PCOD8173023 Si02
#       6
#     8   8   8   8   8   8
#     4   8  14  28  51  76 100 129 170 214 249 290
#     4   9  18  34  55  76  98 130 174 216 251 294
#     4  10  21  37  57  80 104 132 169 214 263 312
#     4  11  22  35  52  76 107 141 175 212 257 308
#     4  10  20  32  49  75 105 136 167 204 252 302
#     4   8  15  29  51  77 101 129 169 214 256 299
#
# _framework density 18.838645
#
# number of rings (size 3 to 8) (size 9 to 14) (size 15 to 20)
#    0.000    2.667    0.000    3.000    0.000    5.667 
#    0.000    1.667    0.000    2.500    0.000    4.667 
#    0.000    0.000    0.000    0.000    0.000    0.000 
#
# Total GULP energy -297574.962598 kJ/mol
# GULP energy per Si atom -12398.956775 kJ/mol
# Density = 1.879577 g / cm^3
# Si number density = 18.838645 Si / 1000 Ang^3
#
#
#
# Elastic Constant Matrix: (Units=GPa)
#
#
# Indices 1 2 3 4 5 6 
#
# 1 35.2473 29.9238 30.6931 0.0000 0.0000 0.0000
# 2 29.9238 122.9977 93.6732 0.0000 0.0000 0.0000
# 3 30.6931 93.6732 151.6437 0.0000 0.0000 0.0000
# 4 0.0000 0.0000 0.0000 10.4731 0.0000 0.0000
# 5 0.0000 0.0000 0.0000 0.0000 14.1848 0.0000
# 6 0.0000 0.0000 0.0000 0.0000 0.0000 21.6566
#
#
#
# Elastic Compliance Matrix: (Units=1/GPa)
#
#
# Indices 1 2 3 4 5 6 
#
# 1 0.036779 -0.006191 -0.003620 0.000000 0.000000 0.000000
# 2 -0.006191 0.016395 -0.008874 0.000000 0.000000 0.000000
# 3 -0.003620 -0.008874 0.012809 0.000000 0.000000 0.000000
# 4 0.000000 0.000000 0.000000 0.095483 0.000000 0.000000
# 5 0.000000 0.000000 0.000000 0.000000 0.070498 0.000000
# 6 0.000000 0.000000 0.000000 0.000000 0.000000 0.046175
#
#
# Mechanical properties :
#
#
# Convention : Reuss Voigt Hill
#
# Bulk Modulus (GPa) = 34.94988 68.71877 51.83432
# Shear Modulus (GPa) = 15.38237 19.63614 17.50926
#
# Velocity S-wave (km/s) = 2.86060 3.23202 3.05197
# Velocity P-wave (km/s) = 5.43169 7.10526 6.32408
#
# Compressibility (1/GPa) = 0.02861240
#
# Stress axis : x y z
#
# Youngs Moduli (GPa) = 27.18937 60.99368 78.07001
#
# Poissons Ratio (x) = 0.37762 0.28260
# Poissons Ratio (y) = 0.16833 0.69283
# Poissons Ratio (z) = 0.09842 0.54129
#
# Static dielectric constant tensor:
#      x y z
#    x 3.084540 0.000000 0.000000 
#    y 0.000000 3.527490 0.000000 
#    z 0.000000 0.000000 3.756350 
# 
# 
# High freq. dielectric constant tensor:
#      x y z
#    x 1.695400 0.000000 0.000000 
#    y 0.000000 1.730400 0.000000 
#    z 0.000000 0.000000 1.747990 
# 
# From -- ./inp_files/15136.got.cif
#   From: 2010.03.12/outbox.cif.g09.slc.cpg/sg35_8_cif.got.tgz:15136.got - 2010.04.14 02:02:04.
