data_PCOD8173936
_publ_section_title
;
Structure prediction by ZEFSAII (Michael W. Deem and Ramdas Pophale) SiO2 
 PCOD8173936
Probable space group: C M M 2
;
_chemical_formula_sum "Si O2"
_cell_formula_units_Z 48
_cell_length_a 15.948067
_cell_length_b 24.612085
_cell_length_c 5.068150
_cell_angle_alpha 90.000000
_cell_angle_beta 90.000000
_cell_angle_gamma 90.000000
_cell_volume 1989.325813
_symmetry_space_group_name_H-M "C M M 2"
_symmetry_group_IT_number 35
_symmetry_cell_setting 'orthorhombic'
loop_
_space_group_symop_operation_xyz
x,y,z
-x,-y,z
-x,y,z
x,-y,z
1/2+x,1/2+y,z
1/2-x,1/2-y,z
1/2-x,1/2+y,z
1/2+x,1/2-y,z
loop_
_atom_site_type_symbol
_atom_site_label
_atom_site_fract_x
_atom_site_fract_y
_atom_site_fract_z
Si Si1 0.000000 0.699248 0.491951
Si Si2 0.757981 0.936350 0.365211
Si Si3 0.402001 0.665080 0.029628
Si Si4 0.000000 0.371085 0.992368
Si Si5 0.163839 0.435476 0.865569
Si Si6 0.842980 0.224900 0.514409
Si Si7 0.594346 0.561196 0.715084
O O1 0.000000 0.648890 0.292317
O O2 0.085360 0.732068 0.437848
O O3 0.000000 0.679542 0.793791
O O4 0.735555 0.915234 0.073557
O O5 0.851756 0.921631 0.459834
O O6 0.744384 0.000000 0.372341
O O7 0.693097 0.912295 0.583131
O O8 0.500000 0.680639 0.059850
O O9 0.360893 0.701525 0.801957
O O10 0.391806 0.601311 0.960997
O O11 0.350537 0.676658 0.297870
O O12 0.921833 0.409241 0.947570
O O13 0.153082 0.500000 0.869030
O O14 0.750000 0.250000 0.504561
O O15 0.500000 0.564604 0.608654
O O16 0.617589 0.500000 0.815582
#
# Coordination Sequence:
#
# PCOD8173936 Si02
#       7
#     4   8   8   4   8   8   8
#     4  12  26  46  65  96 137 160 224 290 346 404
#     4   9  19  36  58  87 133 179 216 270 317 381
#     4  11  22  44  72  99 139 184 224 287 360 420
#     4  12  25  40  68  96 130 168 211 288 346 392
#     4  10  21  39  61  90 130 178 224 263 336 415
#     4  12  26  47  73  99 131 183 235 290 351 418
#     4   9  20  39  67 104 141 181 230 278 336 418
#
# _framework density 24.128775999999998
#
# number of rings (size 3 to 8) (size 9 to 14) (size 15 to 20)
#    0.000    1.500    1.667    2.750    0.000    5.333 
#    0.000    8.333    0.000   13.000    0.000    1.167 
#    0.000    0.000    0.000    0.000    0.000    0.000 
#
# Total GULP energy -297607.540530 kJ/mol
# GULP energy per Si atom -12400.314189 kJ/mol
# Density = 2.407386 g / cm^3
# Si number density = 24.128776 Si / 1000 Ang^3
#
#
#
# Elastic Constant Matrix: (Units=GPa)
#
#
# Indices 1 2 3 4 5 6 
#
# 1 149.7748 47.0347 5.1153 0.0000 0.0000 0.0000
# 2 47.0347 74.4214 22.2213 0.0000 0.0000 0.0000
# 3 5.1153 22.2213 85.9973 0.0000 0.0000 0.0000
# 4 0.0000 0.0000 0.0000 34.2578 0.0000 0.0000
# 5 0.0000 0.0000 0.0000 0.0000 24.5547 0.0000
# 6 0.0000 0.0000 0.0000 0.0000 0.0000 27.2821
#
#
#
# Elastic Compliance Matrix: (Units=1/GPa)
#
#
# Indices 1 2 3 4 5 6 
#
# 1 0.008400 -0.005591 0.000945 0.000000 0.000000 0.000000
# 2 -0.005591 0.018282 -0.004391 0.000000 0.000000 0.000000
# 3 0.000945 -0.004391 0.012707 0.000000 0.000000 0.000000
# 4 0.000000 0.000000 0.000000 0.029190 0.000000 0.000000
# 5 0.000000 0.000000 0.000000 0.000000 0.040725 0.000000
# 6 0.000000 0.000000 0.000000 0.000000 0.000000 0.036654
#
#
# Mechanical properties :
#
#
# Convention : Reuss Voigt Hill
#
# Bulk Modulus (GPa) = 46.91772 50.99289 48.95531
# Shear Modulus (GPa) = 29.21611 32.94039 31.07825
#
# Velocity S-wave (km/s) = 3.48349 3.69886 3.59279
# Velocity P-wave (km/s) = 5.97215 6.27866 6.12732
#
# Compressibility (1/GPa) = 0.02131391
#
# Stress axis : x y z
#
# Youngs Moduli (GPa) = 119.04409 54.69902 78.69816
#
# Poissons Ratio (x) = 0.30583 -0.07438
# Poissons Ratio (y) = 0.66560 0.34559
# Poissons Ratio (z) = -0.11251 0.24020
#
# Static dielectric constant tensor:
#      x y z
#    x 4.638030 0.000000 0.000000 
#    y 0.000000 4.315660 0.000000 
#    z 0.000000 0.000000 4.579740 
# 
# 
# High freq. dielectric constant tensor:
#      x y z
#    x 1.970420 0.000000 0.000000 
#    y 0.000000 1.953660 0.000000 
#    z 0.000000 0.000000 1.967440 
# 
# From -- ./inp_files/1958.got.cif
#   From: 2010.03.12/outbox.cif.g09.slc.cpg/sg35_1_cif.got.tgz:1958.got - 2010.04.14 02:02:04.
