data_PCOD8173602
_publ_section_title
;
Structure prediction by ZEFSAII (Michael W. Deem and Ramdas Pophale) SiO2 
 PCOD8173602
Probable space group: C M M 2
;
_chemical_formula_sum "Si O2"
_cell_formula_units_Z 48
_cell_length_a 8.826659
_cell_length_b 16.036675
_cell_length_c 16.927285
_cell_angle_alpha 90.000000
_cell_angle_beta 90.000000
_cell_angle_gamma 90.000000
_cell_volume 2396.061622
_symmetry_space_group_name_H-M "C M M 2"
_symmetry_group_IT_number 35
_symmetry_cell_setting 'orthorhombic'
loop_
_space_group_symop_operation_xyz
x,y,z
-x,-y,z
-x,y,z
x,-y,z
1/2+x,1/2+y,z
1/2-x,1/2-y,z
1/2-x,1/2+y,z
1/2+x,1/2-y,z
loop_
_atom_site_type_symbol
_atom_site_label
_atom_site_fract_x
_atom_site_fract_y
_atom_site_fract_z
Si Si1 0.321033 0.835171 0.019320
Si Si2 0.168974 0.907887 0.166539
Si Si3 0.678824 0.663561 0.563920
Si Si4 0.333402 0.404780 0.875476
Si Si5 0.175859 0.598481 0.719111
Si Si6 0.821559 0.000000 0.465433
Si Si7 0.179096 0.500000 0.295471
O O1 0.500000 0.833429 0.020724
O O2 0.250000 0.750000 0.987565
O O3 0.263345 0.850079 0.108126
O O4 0.261535 0.902080 0.956641
O O5 0.254094 0.917153 0.251283
O O6 0.000000 0.870599 0.179061
O O7 0.157981 0.000000 0.127424
O O8 0.500000 0.673513 0.564081
O O9 0.750000 0.750000 0.530379
O O10 0.735866 0.648611 0.652201
O O11 0.727878 0.583612 0.511675
O O12 0.500000 0.361868 0.884115
O O13 0.358702 0.500000 0.854504
O O14 0.239231 0.366391 0.802470
O O15 0.203137 0.500000 0.708396
O O16 0.000000 0.620967 0.714029
O O17 0.729169 0.000000 0.384997
O O18 0.000000 0.000000 0.447882
O O19 0.000000 0.500000 0.288218
#
# Coordination Sequence:
#
# PCOD8173602 Si02
#       7
#     8   8   8   8   8   4   4
#     4  12  24  37  55  81 117 155 199 248 301 355
#     4   9  19  37  61  85 114 147 188 234 286 349
#     4  11  23  40  63  92 126 165 209 254 311 371
#     4  10  21  37  58  83 115 155 201 248 300 355
#     4  10  20  36  59  87 119 156 203 255 306 361
#     4  10  22  42  66  91 126 165 202 252 310 375
#     4  10  20  36  64  95 118 149 194 240 294 357
#
# _framework density 20.032874
#
# number of rings (size 3 to 8) (size 9 to 14) (size 15 to 20)
#    0.500    1.167    0.833    4.500    0.000    5.667 
#    0.000    4.167    0.000    2.000    0.000    0.000 
#    0.000    0.000    0.000    0.000    0.000    0.000 
#
# Total GULP energy -297520.950211 kJ/mol
# GULP energy per Si atom -12396.706259 kJ/mol
# Density = 1.998728 g / cm^3
# Si number density = 20.032874 Si / 1000 Ang^3
#
#
#
# Elastic Constant Matrix: (Units=GPa)
#
#
# Indices 1 2 3 4 5 6 
#
# 1 161.5330 42.3185 70.2239 0.0000 0.0000 0.0000
# 2 42.3185 73.7049 36.3996 0.0000 0.0000 0.0000
# 3 70.2239 36.3996 136.8532 0.0000 0.0000 0.0000
# 4 0.0000 0.0000 0.0000 11.4323 0.0000 0.0000
# 5 0.0000 0.0000 0.0000 0.0000 36.7844 0.0000
# 6 0.0000 0.0000 0.0000 0.0000 0.0000 30.1050
#
#
#
# Elastic Compliance Matrix: (Units=1/GPa)
#
#
# Indices 1 2 3 4 5 6 
#
# 1 0.008564 -0.003162 -0.003553 0.000000 0.000000 0.000000
# 2 -0.003162 0.016787 -0.002842 0.000000 0.000000 0.000000
# 3 -0.003553 -0.002842 0.009886 0.000000 0.000000 0.000000
# 4 0.000000 0.000000 0.000000 0.087472 0.000000 0.000000
# 5 0.000000 0.000000 0.000000 0.000000 0.027185 0.000000
# 6 0.000000 0.000000 0.000000 0.000000 0.000000 0.033217
#
#
# Mechanical properties :
#
#
# Convention : Reuss Voigt Hill
#
# Bulk Modulus (GPa) = 62.02873 74.44167 68.23520
# Shear Modulus (GPa) = 24.08468 30.54094 27.31281
#
# Velocity S-wave (km/s) = 3.47112 3.90877 3.69643
# Velocity P-wave (km/s) = 6.86262 7.59024 7.23558
#
# Compressibility (1/GPa) = 0.01612156
#
# Stress axis : x y z
#
# Youngs Moduli (GPa) = 116.76954 59.57022 101.14892
#
# Poissons Ratio (x) = 0.18837 0.35942
# Poissons Ratio (y) = 0.36925 0.28749
# Poissons Ratio (z) = 0.41492 0.16931
#
# Static dielectric constant tensor:
#      x y z
#    x 3.764620 0.000000 0.000000 
#    y 0.000000 3.547790 0.000000 
#    z 0.000000 0.000000 3.476990 
# 
# 
# High freq. dielectric constant tensor:
#      x y z
#    x 1.798350 0.000000 0.000000 
#    y 0.000000 1.761120 0.000000 
#    z 0.000000 0.000000 1.775160 
# 
# From -- ./inp_files/17892.got.cif
#   From: 2010.03.12/outbox.cif.g09.slc.cpg/sg35_9_cif.got.tgz:17892.got - 2010.04.14 02:02:04.
