data_PCOD8173144
_publ_section_title
;
Structure prediction by ZEFSAII (Michael W. Deem and Ramdas Pophale) SiO2 
 PCOD8173144
Probable space group: C M M 2
;
_chemical_formula_sum "Si O2"
_cell_formula_units_Z 64
_cell_length_a 17.002729
_cell_length_b 17.680736
_cell_length_c 11.241444
_cell_angle_alpha 90.000000
_cell_angle_beta 90.000000
_cell_angle_gamma 90.000000
_cell_volume 3379.411469
_symmetry_space_group_name_H-M "C M M 2"
_symmetry_group_IT_number 35
_symmetry_cell_setting 'orthorhombic'
loop_
_space_group_symop_operation_xyz
x,y,z
-x,-y,z
-x,y,z
x,-y,z
1/2+x,1/2+y,z
1/2-x,1/2-y,z
1/2-x,1/2+y,z
1/2+x,1/2-y,z
loop_
_atom_site_type_symbol
_atom_site_label
_atom_site_fract_x
_atom_site_fract_y
_atom_site_fract_z
Si Si1 0.589514 0.913534 0.246910
Si Si2 0.912811 0.146903 0.300745
Si Si3 0.092008 0.085703 0.548151
Si Si4 0.338664 0.269241 0.660353
Si Si5 0.412124 0.199195 0.438658
Si Si6 0.821035 0.412029 0.004092
Si Si7 0.811147 0.814160 0.083376
Si Si8 0.408879 0.781010 0.900221
O O1 0.500000 0.887468 0.219511
O O2 0.623397 0.869401 0.361247
O O3 0.641309 0.896205 0.132537
O O4 0.593157 0.000000 0.283018
O O5 0.887074 0.091016 0.407808
O O6 0.914016 0.230825 0.350643
O O7 0.851349 0.142893 0.193406
O O8 0.000000 0.124550 0.254318
O O9 0.146415 0.143359 0.623030
O O10 0.000000 0.108348 0.565470
O O11 0.108188 0.000000 0.591701
O O12 0.250000 0.250000 0.699618
O O13 0.357325 0.213170 0.551618
O O14 0.395210 0.252583 0.770197
O O15 0.500000 0.180604 0.484705
O O16 0.822174 0.500000 0.967956
O O17 0.732515 0.379884 0.008330
O O18 0.869871 0.364395 0.907220
O O19 0.750000 0.750000 0.127951
O O20 0.875082 0.775675 0.998946
O O21 0.500000 0.789815 0.925657
#
# Coordination Sequence:
#
# PCOD8173144 Si02
#       8
#     8   8   8   8   8   8   8   8
#     4   9  17  30  50  77 109 146 187 226 266 318
#     4   9  17  30  51  79 108 140 179 220 264 316
#     4   9  19  37  60  83 109 145 185 221 260 315
#     4  11  22  37  56  81 110 139 178 227 277 326
#     4   9  17  31  50  73 105 144 183 224 266 313
#     4  10  21  36  55  81 113 145 177 220 276 331
#     4  10  20  33  52  80 111 144 180 223 273 320
#     4  11  22  39  61  79 101 140 190 232 266 317
#
# _framework density 18.938207999999999
#
# number of rings (size 3 to 8) (size 9 to 14) (size 15 to 20)
#    0.000    2.250    0.000    5.250    0.000    6.250 
#    0.000    5.000    0.000    3.375    0.000    0.000 
#    0.000    0.000    0.000    0.000    0.000    0.000 
#
# Total GULP energy -396778.977314 kJ/mol
# GULP energy per Si atom -12399.343041 kJ/mol
# Density = 1.889510 g / cm^3
# Si number density = 18.938208 Si / 1000 Ang^3
#
#
#
# Elastic Constant Matrix: (Units=GPa)
#
#
# Indices 1 2 3 4 5 6 
#
# 1 90.1299 34.6995 25.0432 0.0000 0.0000 0.0000
# 2 34.6995 101.2303 37.8108 0.0000 0.0000 0.0000
# 3 25.0432 37.8108 64.9669 0.0000 0.0000 0.0000
# 4 0.0000 0.0000 0.0000 19.7569 0.0000 0.0000
# 5 0.0000 0.0000 0.0000 0.0000 29.6738 0.0000
# 6 0.0000 0.0000 0.0000 0.0000 0.0000 21.6981
#
#
#
# Elastic Compliance Matrix: (Units=1/GPa)
#
#
# Indices 1 2 3 4 5 6 
#
# 1 0.013269 -0.003371 -0.003153 0.000000 0.000000 0.000000
# 2 -0.003371 0.013479 -0.006545 0.000000 0.000000 0.000000
# 3 -0.003153 -0.006545 0.020417 0.000000 0.000000 0.000000
# 4 0.000000 0.000000 0.000000 0.050615 0.000000 0.000000
# 5 0.000000 0.000000 0.000000 0.000000 0.033700 0.000000
# 6 0.000000 0.000000 0.000000 0.000000 0.000000 0.046087
#
#
# Mechanical properties :
#
#
# Convention : Reuss Voigt Hill
#
# Bulk Modulus (GPa) = 47.55848 50.15934 48.85891
# Shear Modulus (GPa) = 23.72892 24.81069 24.26980
#
# Velocity S-wave (km/s) = 3.54357 3.62344 3.58372
# Velocity P-wave (km/s) = 6.47375 6.63694 6.55585
#
# Compressibility (1/GPa) = 0.02102674
#
# Stress axis : x y z
#
# Youngs Moduli (GPa) = 75.36444 74.19202 48.97815
#
# Poissons Ratio (x) = 0.25007 0.15444
# Poissons Ratio (y) = 0.25402 0.32057
# Poissons Ratio (z) = 0.23764 0.48561
#
# Static dielectric constant tensor:
#      x y z
#    x 3.485780 0.000000 0.000000 
#    y 0.000000 3.515100 0.000000 
#    z 0.000000 0.000000 3.309800 
# 
# 
# High freq. dielectric constant tensor:
#      x y z
#    x 1.733780 0.000000 0.000000 
#    y 0.000000 1.729980 0.000000 
#    z 0.000000 0.000000 1.721230 
# 
# From -- ./inp_files/13156.got.cif
#   From: 2010.03.12/outbox.cif.g09.slc.cpg/sg35_7_cif.got.tgz:13156.got - 2010.04.14 02:02:04.
