data_PCOD8173299
_publ_section_title
;
Structure prediction by ZEFSAII (Michael W. Deem and Ramdas Pophale) SiO2 
 PCOD8173299
Probable space group: C M M 2
;
_chemical_formula_sum "Si O2"
_cell_formula_units_Z 48
_cell_length_a 15.668560
_cell_length_b 8.773997
_cell_length_c 17.007741
_cell_angle_alpha 90.000000
_cell_angle_beta 90.000000
_cell_angle_gamma 90.000000
_cell_volume 2338.154474
_symmetry_space_group_name_H-M "C M M 2"
_symmetry_group_IT_number 35
_symmetry_cell_setting 'orthorhombic'
loop_
_space_group_symop_operation_xyz
x,y,z
-x,-y,z
-x,y,z
x,-y,z
1/2+x,1/2+y,z
1/2-x,1/2-y,z
1/2-x,1/2+y,z
1/2+x,1/2-y,z
loop_
_atom_site_type_symbol
_atom_site_label
_atom_site_fract_x
_atom_site_fract_y
_atom_site_fract_z
Si Si1 0.898322 0.826295 0.862030
Si Si2 0.339652 0.180354 0.706483
Si Si3 0.339165 0.679613 0.161759
Si Si4 0.500000 0.319669 0.436954
Si Si5 0.000000 0.818942 0.617578
Si Si6 0.160210 0.819806 0.339799
Si Si7 0.903464 0.333611 0.016100
O O1 0.853922 0.720587 0.797425
O O2 0.000000 0.814611 0.853620
O O3 0.868260 0.000000 0.850034
O O4 0.863142 0.769036 0.946662
O O5 0.250000 0.250000 0.676794
O O6 0.415234 0.251852 0.655540
O O7 0.338675 0.000000 0.694901
O O8 0.337245 0.500000 0.154409
O O9 0.250000 0.750000 0.135401
O O10 0.362275 0.729745 0.250472
O O11 0.405375 0.747629 0.099719
O O12 0.500000 0.500000 0.427153
O O13 0.500000 0.268964 0.526819
O O14 0.584953 0.254470 0.394791
O O15 0.000000 0.000000 0.628904
O O16 0.250000 0.750000 0.367473
O O17 0.168691 0.000000 0.346534
O O18 0.857996 0.500000 0.021876
O O19 0.000000 0.360389 0.991214
#
# Coordination Sequence:
#
# PCOD8173299 Si02
#       7
#     8   8   8   4   4   8   8
#     4  10  20  37  61  87 120 158 202 251 304 361
#     4  12  25  42  66  94 126 164 207 252 306 367
#     4  10  20  34  55  79 112 153 198 246 298 352
#     4   9  20  39  65  92 119 158 197 239 300 367
#     4  11  23  43  67  94 129 162 199 251 308 371
#     4   9  19  37  60  87 120 157 199 248 299 356
#     4  10  21  35  53  81 118 156 199 247 297 348
#
# _framework density 20.529011000000001
#
# number of rings (size 3 to 8) (size 9 to 14) (size 15 to 20)
#    0.000    1.833    0.833    3.250    1.167    3.667 
#    0.000    7.083    0.000    0.000    0.000    0.000 
#    0.000    0.000    0.000    0.000    0.000    0.000 
#
# Total GULP energy -297592.404938 kJ/mol
# GULP energy per Si atom -12399.683539 kJ/mol
# Density = 2.048229 g / cm^3
# Si number density = 20.529011 Si / 1000 Ang^3
#
#
#
# Elastic Constant Matrix: (Units=GPa)
#
#
# Indices 1 2 3 4 5 6 
#
# 1 119.0568 44.1281 69.1183 0.0000 0.0000 0.0000
# 2 44.1281 110.7217 47.9496 0.0000 0.0000 0.0000
# 3 69.1183 47.9496 140.9681 0.0000 0.0000 0.0000
# 4 0.0000 0.0000 0.0000 25.0130 0.0000 0.0000
# 5 0.0000 0.0000 0.0000 0.0000 2.1773 0.0000
# 6 0.0000 0.0000 0.0000 0.0000 0.0000 31.8835
#
#
#
# Elastic Compliance Matrix: (Units=1/GPa)
#
#
# Indices 1 2 3 4 5 6 
#
# 1 0.012397 -0.002707 -0.005158 0.000000 0.000000 0.000000
# 2 -0.002707 0.011183 -0.002476 0.000000 0.000000 0.000000
# 3 -0.005158 -0.002476 0.010465 0.000000 0.000000 0.000000
# 4 0.000000 0.000000 0.000000 0.039979 0.000000 0.000000
# 5 0.000000 0.000000 0.000000 0.000000 0.459290 0.000000
# 6 0.000000 0.000000 0.000000 0.000000 0.000000 0.031364
#
#
# Mechanical properties :
#
#
# Convention : Reuss Voigt Hill
#
# Bulk Modulus (GPa) = 74.83623 77.01543 75.92583
# Shear Modulus (GPa) = 8.47723 25.78478 17.13101
#
# Velocity S-wave (km/s) = 2.03429 3.54788 2.89187
# Velocity P-wave (km/s) = 6.48466 7.37429 6.94374
#
# Compressibility (1/GPa) = 0.01336251
#
# Stress axis : x y z
#
# Youngs Moduli (GPa) = 80.66471 89.42055 95.55703
#
# Poissons Ratio (x) = 0.24209 0.49284
# Poissons Ratio (y) = 0.21838 0.23664
# Poissons Ratio (z) = 0.41603 0.22145
#
# Static dielectric constant tensor:
#      x y z
#    x 3.696450 0.000000 0.000000 
#    y 0.000000 3.767510 0.000000 
#    z 0.000000 0.000000 3.803980 
# 
# 
# High freq. dielectric constant tensor:
#      x y z
#    x 1.797870 0.000000 0.000000 
#    y 0.000000 1.803510 0.000000 
#    z 0.000000 0.000000 1.803950 
# 
# From -- ./inp_files/17833.got.cif
#   From: 2010.03.12/outbox.cif.g09.slc.cpg/sg35_9_cif.got.tgz:17833.got - 2010.04.14 02:02:04.
