data_PCOD8173593
_publ_section_title
;
Structure prediction by ZEFSAII (Michael W. Deem and Ramdas Pophale) SiO2 
 PCOD8173593
Probable space group: C M M 2
;
_chemical_formula_sum "Si O2"
_cell_formula_units_Z 48
_cell_length_a 9.061882
_cell_length_b 28.044529
_cell_length_c 9.994896
_cell_angle_alpha 90.000000
_cell_angle_beta 90.000000
_cell_angle_gamma 90.000000
_cell_volume 2540.065014
_symmetry_space_group_name_H-M "C M M 2"
_symmetry_group_IT_number 35
_symmetry_cell_setting 'orthorhombic'
loop_
_space_group_symop_operation_xyz
x,y,z
-x,-y,z
-x,y,z
x,-y,z
1/2+x,1/2+y,z
1/2-x,1/2-y,z
1/2-x,1/2+y,z
1/2+x,1/2-y,z
loop_
_atom_site_type_symbol
_atom_site_label
_atom_site_fract_x
_atom_site_fract_y
_atom_site_fract_z
Si Si1 0.171143 0.445833 0.423860
Si Si2 0.832080 0.649204 0.016804
Si Si3 0.324683 0.051804 0.121485
Si Si4 0.831648 0.701489 0.294686
Si Si5 0.328487 0.357420 0.521468
Si Si6 0.829284 0.798937 0.783828
O O1 0.192805 0.500000 0.474501
O O2 0.232594 0.440440 0.272734
O O3 0.264925 0.410990 0.518511
O O4 0.000000 0.430829 0.431902
O O5 0.772734 0.594323 0.023061
O O6 0.822707 0.667728 0.167189
O O7 0.000000 0.651674 0.963251
O O8 0.729422 0.680362 0.922863
O O9 0.500000 0.052049 0.129802
O O10 0.269017 0.000000 0.067607
O O11 0.750000 0.750000 0.259047
O O12 0.755845 0.676171 0.418890
O O13 0.000000 0.712729 0.333819
O O14 0.500000 0.357669 0.484150
O O15 0.300693 0.337702 0.669662
O O16 0.750000 0.750000 0.744815
O O17 0.000000 0.787110 0.803024
#
# Coordination Sequence:
#
# PCOD8173593 Si02
#       6
#     8   8   8   8   8   8
#     4   9  17  33  59  88 117 149 187 233 282 334
#     4  10  20  36  59  86 113 147 186 231 285 336
#     4   8  14  29  55  86 116 144 179 225 275 326
#     4  11  22  36  56  84 113 143 186 238 290 341
#     4  11  23  38  57  83 115 152 191 233 285 339
#     4  11  25  42  58  79 110 152 194 236 284 339
#
# _framework density 18.897155000000001
#
# number of rings (size 3 to 8) (size 9 to 14) (size 15 to 20)
#    0.000    2.000    1.667    3.500    0.000    7.000 
#    0.000    0.833    0.000    3.500    0.000    0.000 
#    0.000    0.000    0.000    0.000    0.000    0.000 
#
# Total GULP energy -297600.366445 kJ/mol
# GULP energy per Si atom -12400.015269 kJ/mol
# Density = 1.885414 g / cm^3
# Si number density = 18.897155 Si / 1000 Ang^3
#
#
#
# Elastic Constant Matrix: (Units=GPa)
#
#
# Indices 1 2 3 4 5 6 
#
# 1 96.1131 45.5742 33.3207 0.0000 0.0000 0.0000
# 2 45.5742 119.5896 15.1328 0.0000 0.0000 0.0000
# 3 33.3207 15.1328 48.2855 0.0000 0.0000 0.0000
# 4 0.0000 0.0000 0.0000 26.8170 0.0000 0.0000
# 5 0.0000 0.0000 0.0000 0.0000 25.5002 0.0000
# 6 0.0000 0.0000 0.0000 0.0000 0.0000 31.7383
#
#
#
# Elastic Compliance Matrix: (Units=1/GPa)
#
#
# Indices 1 2 3 4 5 6 
#
# 1 0.016033 -0.004904 -0.009527 0.000000 0.000000 0.000000
# 2 -0.004904 0.010207 0.000185 0.000000 0.000000 0.000000
# 3 -0.009527 0.000185 0.027226 0.000000 0.000000 0.000000
# 4 0.000000 0.000000 0.000000 0.037290 0.000000 0.000000
# 5 0.000000 0.000000 0.000000 0.000000 0.039215 0.000000
# 6 0.000000 0.000000 0.000000 0.000000 0.000000 0.031508
#
#
# Mechanical properties :
#
#
# Convention : Reuss Voigt Hill
#
# Bulk Modulus (GPa) = 40.04025 50.22707 45.13366
# Shear Modulus (GPa) = 25.21485 28.14179 26.67832
#
# Velocity S-wave (km/s) = 3.65680 3.86321 3.76142
# Velocity P-wave (km/s) = 6.25013 6.82174 6.54218
#
# Compressibility (1/GPa) = 0.02497487
#
# Stress axis : x y z
#
# Youngs Moduli (GPa) = 62.37258 97.96750 36.72924
#
# Poissons Ratio (x) = 0.48047 0.34991
# Poissons Ratio (y) = 0.30590 -0.00681
# Poissons Ratio (z) = 0.59421 -0.01816
#
# Static dielectric constant tensor:
#      x y z
#    x 3.423740 0.000000 0.000000 
#    y 0.000000 3.985290 0.000000 
#    z 0.000000 0.000000 3.215720 
# 
# 
# High freq. dielectric constant tensor:
#      x y z
#    x 1.720460 0.000000 0.000000 
#    y 0.000000 1.755620 0.000000 
#    z 0.000000 0.000000 1.712410 
# 
# From -- ./inp_files/5307.got.cif
#   From: 2010.03.12/outbox.cif.g09.slc.cpg/sg35_3_cif.got.tgz:5307.got - 2010.04.14 02:02:04.
