data_PCOD8173157
_publ_section_title
;
Structure prediction by ZEFSAII (Michael W. Deem and Ramdas Pophale) SiO2 
 PCOD8173157
Probable space group: C M M 2
;
_chemical_formula_sum "Si O2"
_cell_formula_units_Z 64
_cell_length_a 32.660543
_cell_length_b 8.734451
_cell_length_c 11.438474
_cell_angle_alpha 90.000000
_cell_angle_beta 90.000000
_cell_angle_gamma 90.000000
_cell_volume 3263.075354
_symmetry_space_group_name_H-M "C M M 2"
_symmetry_group_IT_number 35
_symmetry_cell_setting 'orthorhombic'
loop_
_space_group_symop_operation_xyz
x,y,z
-x,-y,z
-x,y,z
x,-y,z
1/2+x,1/2+y,z
1/2-x,1/2-y,z
1/2-x,1/2+y,z
1/2+x,1/2-y,z
loop_
_atom_site_type_symbol
_atom_site_label
_atom_site_fract_x
_atom_site_fract_y
_atom_site_fract_z
Si Si1 0.455371 0.831297 0.478160
Si Si2 0.794126 0.818862 0.994483
Si Si3 0.790683 0.323761 0.748209
Si Si4 0.937546 0.172160 0.704878
Si Si5 0.849857 0.169073 0.592414
Si Si6 0.625411 0.821303 0.106539
Si Si7 0.386866 0.324875 0.348830
Si Si8 0.453147 0.180005 0.954354
O O1 0.500000 0.843569 0.421347
O O2 0.461057 0.776186 0.611548
O O3 0.431564 0.709323 0.399940
O O4 0.434223 0.000000 0.476196
O O5 0.750000 0.750000 0.036397
O O6 0.833412 0.764357 0.067023
O O7 0.790598 0.000000 0.005001
O O8 0.803850 0.769675 0.862535
O O9 0.785183 0.500000 0.782491
O O10 0.750000 0.250000 0.696440
O O11 0.822752 0.304494 0.644355
O O12 0.890574 0.173131 0.668373
O O13 0.944016 0.237716 0.833222
O O14 0.955099 0.000000 0.702225
O O15 0.855569 0.204643 0.455364
O O16 0.829849 0.000000 0.606005
O O17 0.622349 0.789303 0.243884
O O18 0.631796 0.000000 0.083730
O O19 0.582735 0.765919 0.044819
O O20 0.385229 0.500000 0.305347
O O21 0.500000 0.220563 0.997350
O O22 0.449490 0.000000 0.934489
#
# Coordination Sequence:
#
# PCOD8173157 Si02
#       8
#     8   8   8   8   8   8   8   8
#     4  10  20  34  54  79 108 144 185 231 283 338
#     4  11  22  39  63  90 120 151 189 235 286 343
#     4  11  21  34  56  86 117 146 178 219 272 333
#     4  10  20  33  53  81 111 143 181 231 287 339
#     4   9  19  36  55  78 110 144 179 223 278 337
#     4  11  23  40  61  84 114 153 197 242 289 341
#     4  10  22  39  58  80 108 144 187 235 283 333
#     4  10  22  38  55  79 114 155 195 235 282 340
#
# _framework density 19.613399000000001
#
# number of rings (size 3 to 8) (size 9 to 14) (size 15 to 20)
#    0.000    1.750    0.000    6.375    0.000    9.250 
#    0.000    1.875    0.000    3.000    0.000    0.000 
#    0.000    0.000    0.000    0.000    0.000    0.000 
#
# Total GULP energy -396618.258041 kJ/mol
# GULP energy per Si atom -12394.320564 kJ/mol
# Density = 1.956876 g / cm^3
# Si number density = 19.613399 Si / 1000 Ang^3
#
#
#
# Elastic Constant Matrix: (Units=GPa)
#
#
# Indices 1 2 3 4 5 6 
#
# 1 103.0044 41.6839 59.3257 0.0000 0.0000 0.0000
# 2 41.6839 94.4771 35.8317 0.0000 0.0000 0.0000
# 3 59.3257 35.8317 90.1360 0.0000 0.0000 0.0000
# 4 0.0000 0.0000 0.0000 33.5786 0.0000 0.0000
# 5 0.0000 0.0000 0.0000 0.0000 2.0818 0.0000
# 6 0.0000 0.0000 0.0000 0.0000 0.0000 23.3812
#
#
#
# Elastic Compliance Matrix: (Units=1/GPa)
#
#
# Indices 1 2 3 4 5 6 
#
# 1 0.016702 -0.003768 -0.009495 0.000000 0.000000 0.000000
# 2 -0.003768 0.013314 -0.002813 0.000000 0.000000 0.000000
# 3 -0.009495 -0.002813 0.018462 0.000000 0.000000 0.000000
# 4 0.000000 0.000000 0.000000 0.029781 0.000000 0.000000
# 5 0.000000 0.000000 0.000000 0.000000 0.480360 0.000000
# 6 0.000000 0.000000 0.000000 0.000000 0.000000 0.042769
#
#
# Mechanical properties :
#
#
# Convention : Reuss Voigt Hill
#
# Bulk Modulus (GPa) = 61.25044 62.36666 61.80855
# Shear Modulus (GPa) = 7.82496 21.86006 14.84251
#
# Velocity S-wave (km/s) = 1.99957 3.34211 2.75390
# Velocity P-wave (km/s) = 6.05208 6.83812 6.45707
#
# Compressibility (1/GPa) = 0.01632641
#
# Stress axis : x y z
#
# Youngs Moduli (GPa) = 59.87410 75.11057 54.16580
#
# Poissons Ratio (x) = 0.28300 0.51430
# Poissons Ratio (y) = 0.22559 0.15235
# Poissons Ratio (z) = 0.56850 0.21126
#
# Static dielectric constant tensor:
#      x y z
#    x 3.631490 0.000000 0.000000 
#    y 0.000000 3.738070 0.000000 
#    z 0.000000 0.000000 3.439070 
# 
# 
# High freq. dielectric constant tensor:
#      x y z
#    x 1.766780 0.000000 0.000000 
#    y 0.000000 1.775260 0.000000 
#    z 0.000000 0.000000 1.750370 
# 
# From -- ./inp_files/14556.got.cif
#   From: 2010.03.12/outbox.cif.g09.slc.cpg/sg35_8_cif.got.tgz:14556.got - 2010.04.14 02:02:04.
