data_PCOD8173133
_publ_section_title
;
Structure prediction by ZEFSAII (Michael W. Deem and Ramdas Pophale) SiO2 
 PCOD8173133
Probable space group: C M M 2
;
_chemical_formula_sum "Si O2"
_cell_formula_units_Z 48
_cell_length_a 8.987453
_cell_length_b 32.410625
_cell_length_c 9.145113
_cell_angle_alpha 90.000000
_cell_angle_beta 90.000000
_cell_angle_gamma 90.000000
_cell_volume 2663.870536
_symmetry_space_group_name_H-M "C M M 2"
_symmetry_group_IT_number 35
_symmetry_cell_setting 'orthorhombic'
loop_
_space_group_symop_operation_xyz
x,y,z
-x,-y,z
-x,y,z
x,-y,z
1/2+x,1/2+y,z
1/2-x,1/2-y,z
1/2-x,1/2+y,z
1/2+x,1/2-y,z
loop_
_atom_site_type_symbol
_atom_site_label
_atom_site_fract_x
_atom_site_fract_y
_atom_site_fract_z
Si Si1 0.833249 0.916800 0.582430
Si Si2 0.163830 0.832514 0.758385
Si Si3 0.675033 0.872717 0.335715
Si Si4 0.170833 0.547171 0.843379
Si Si5 0.672074 0.208977 0.514780
Si Si6 0.176740 0.116294 0.026541
O O1 0.842551 0.874386 0.668290
O O2 0.743636 0.909788 0.432001
O O3 0.745842 0.949264 0.683455
O O4 0.000000 0.933178 0.548135
O O5 0.274903 0.800695 0.680639
O O6 0.000000 0.812098 0.762191
O O7 0.216902 0.844875 0.921274
O O8 0.500000 0.880224 0.320081
O O9 0.711325 0.828558 0.407541
O O10 0.752920 0.872906 0.180415
O O11 0.181030 0.500000 0.895138
O O12 0.000000 0.562036 0.831633
O O13 0.254721 0.574059 0.964870
O O14 0.500000 0.218114 0.521425
O O15 0.750000 0.250000 0.453412
O O16 0.000000 0.110415 0.038364
#
# Coordination Sequence:
#
# PCOD8173133 Si02
#       6
#     8   8   8   8   8   8
#     4   9  17  31  52  75  99 130 168 208 248 296
#     4   8  16  31  50  72  97 127 164 203 245 296
#     4  10  20  34  53  77 105 138 173 210 256 309
#     4  10  20  34  53  77 105 136 170 212 259 305
#     4  10  20  33  52  76 101 132 169 211 257 303
#     4  10  20  34  54  78 104 137 173 211 256 307
#
# _framework density 18.018895000000001
#
# number of rings (size 3 to 8) (size 9 to 14) (size 15 to 20)
#    0.000    2.500    0.000    3.500    0.000    8.000 
#    0.000    1.667    0.000    7.000    0.000    0.000 
#    0.000    0.000    0.000    0.000    0.000    0.000 
#
# Total GULP energy -297560.470855 kJ/mol
# GULP energy per Si atom -12398.352952 kJ/mol
# Density = 1.797788 g / cm^3
# Si number density = 18.018895 Si / 1000 Ang^3
#
#
#
# Elastic Constant Matrix: (Units=GPa)
#
#
# Indices 1 2 3 4 5 6 
#
# 1 136.0312 50.5827 70.0082 0.0000 0.0000 0.0000
# 2 50.5827 65.3155 37.3075 0.0000 0.0000 0.0000
# 3 70.0082 37.3075 133.4285 0.0000 0.0000 0.0000
# 4 0.0000 0.0000 0.0000 16.1877 0.0000 0.0000
# 5 0.0000 0.0000 0.0000 0.0000 35.0809 0.0000
# 6 0.0000 0.0000 0.0000 0.0000 0.0000 28.4509
#
#
#
# Elastic Compliance Matrix: (Units=1/GPa)
#
#
# Indices 1 2 3 4 5 6 
#
# 1 0.012228 -0.006908 -0.004484 0.000000 0.000000 0.000000
# 2 -0.006908 0.022123 -0.002561 0.000000 0.000000 0.000000
# 3 -0.004484 -0.002561 0.010564 0.000000 0.000000 0.000000
# 4 0.000000 0.000000 0.000000 0.061775 0.000000 0.000000
# 5 0.000000 0.000000 0.000000 0.000000 0.028506 0.000000
# 6 0.000000 0.000000 0.000000 0.000000 0.000000 0.035148
#
#
# Mechanical properties :
#
#
# Convention : Reuss Voigt Hill
#
# Bulk Modulus (GPa) = 58.79797 72.28578 65.54187
# Shear Modulus (GPa) = 24.51940 27.73569 26.12755
#
# Velocity S-wave (km/s) = 3.69285 3.92759 3.81203
# Velocity P-wave (km/s) = 7.13337 7.79562 7.47184
#
# Compressibility (1/GPa) = 0.01700739
#
# Stress axis : x y z
#
# Youngs Moduli (GPa) = 81.78018 45.20129 94.66531
#
# Poissons Ratio (x) = 0.31227 0.42450
# Poissons Ratio (y) = 0.56497 0.24244
# Poissons Ratio (z) = 0.36672 0.11576
#
# Static dielectric constant tensor:
#      x y z
#    x 3.574250 0.000000 0.000000 
#    y 0.000000 3.152840 0.000000 
#    z 0.000000 0.000000 3.402630 
# 
# 
# High freq. dielectric constant tensor:
#      x y z
#    x 1.715920 0.000000 0.000000 
#    y 0.000000 1.673830 0.000000 
#    z 0.000000 0.000000 1.689220 
# 
# From -- ./inp_files/5268.got.cif
#   From: 2010.03.12/outbox.cif.g09.slc.cpg/sg35_3_cif.got.tgz:5268.got - 2010.04.14 02:02:04.
