data_PCOD8173867
_publ_section_title
;
Structure prediction by ZEFSAII (Michael W. Deem and Ramdas Pophale) SiO2 
 PCOD8173867
Probable space group: C M M 2
;
_chemical_formula_sum "Si O2"
_cell_formula_units_Z 56
_cell_length_a 14.016206
_cell_length_b 21.063837
_cell_length_c 10.074714
_cell_angle_alpha 90.000000
_cell_angle_beta 90.000000
_cell_angle_gamma 90.000000
_cell_volume 2974.408979
_symmetry_space_group_name_H-M "C M M 2"
_symmetry_group_IT_number 35
_symmetry_cell_setting 'orthorhombic'
loop_
_space_group_symop_operation_xyz
x,y,z
-x,-y,z
-x,y,z
x,-y,z
1/2+x,1/2+y,z
1/2-x,1/2-y,z
1/2-x,1/2+y,z
1/2+x,1/2-y,z
loop_
_atom_site_type_symbol
_atom_site_label
_atom_site_fract_x
_atom_site_fract_y
_atom_site_fract_z
Si Si1 0.733175 0.146500 0.065160
Si Si2 0.389163 0.743593 0.140226
Si Si3 0.801887 0.926283 0.297994
Si Si4 0.207582 0.075749 0.809433
Si Si5 0.000000 0.925814 0.896220
Si Si6 0.245314 0.853390 0.545120
Si Si7 0.000000 0.924462 0.192994
Si Si8 0.888209 0.253867 0.451229
O O1 0.638934 0.190379 0.067393
O O2 0.828674 0.188965 0.069410
O O3 0.726670 0.103129 0.195887
O O4 0.736564 0.100269 0.938849
O O5 0.500000 0.729621 0.118696
O O6 0.361873 0.747685 0.295925
O O7 0.771389 0.912134 0.446849
O O8 0.907438 0.897011 0.268648
O O9 0.804765 0.000000 0.272217
O O10 0.095096 0.093438 0.816432
O O11 0.251932 0.115455 0.689199
O O12 0.223181 0.000000 0.794041
O O13 0.000000 0.896443 0.043984
O O14 0.000000 0.000000 0.919674
O O15 0.157667 0.804425 0.531829
O O16 0.344380 0.818805 0.509658
O O17 0.000000 0.000000 0.196280
O O18 0.000000 0.255211 0.477470
#
# Coordination Sequence:
#
# PCOD8173867 Si02
#       8
#     8   8   8   8   4   8   4   8
#     4  11  20  37  59  87 115 155 193 235 293 343
#     4  10  21  37  62  91 115 146 196 254 293 330
#     4  11  20  32  56  84 114 150 195 239 282 345
#     4  11  24  38  57  85 126 160 186 234 290 351
#     4   9  18  33  49  77 117 155 183 219 282 343
#     4  11  22  39  58  87 118 155 195 234 292 348
#     4   9  18  29  49  83 113 149 191 225 274 341
#     4  10  21  39  62  87 116 151 193 251 296 330
#
# _framework density 18.827271
#
# number of rings (size 3 to 8) (size 9 to 14) (size 15 to 20)
#    0.000    1.571    4.286    1.714    4.000    2.286 
#    0.000    4.286    0.000    5.143    0.000    0.000 
#    0.000    0.000    0.000    0.000    0.000    0.000 
#
# Total GULP energy -347177.022606 kJ/mol
# GULP energy per Si atom -12399.179379 kJ/mol
# Density = 1.878442 g / cm^3
# Si number density = 18.827271 Si / 1000 Ang^3
#
#
#
# Elastic Constant Matrix: (Units=GPa)
#
#
# Indices 1 2 3 4 5 6 
#
# 1 69.9215 17.6225 17.6376 0.0000 0.0000 0.0000
# 2 17.6225 73.7885 29.9394 0.0000 0.0000 0.0000
# 3 17.6376 29.9394 84.8248 0.0000 0.0000 0.0000
# 4 0.0000 0.0000 0.0000 36.8909 0.0000 0.0000
# 5 0.0000 0.0000 0.0000 0.0000 18.9616 0.0000
# 6 0.0000 0.0000 0.0000 0.0000 0.0000 27.3455
#
#
#
# Elastic Compliance Matrix: (Units=1/GPa)
#
#
# Indices 1 2 3 4 5 6 
#
# 1 0.015576 -0.002808 -0.002248 0.000000 0.000000 0.000000
# 2 -0.002808 0.016324 -0.005178 0.000000 0.000000 0.000000
# 3 -0.002248 -0.005178 0.014084 0.000000 0.000000 0.000000
# 4 0.000000 0.000000 0.000000 0.027107 0.000000 0.000000
# 5 0.000000 0.000000 0.000000 0.000000 0.052738 0.000000
# 6 0.000000 0.000000 0.000000 0.000000 0.000000 0.036569
#
#
# Mechanical properties :
#
#
# Convention : Reuss Voigt Hill
#
# Bulk Modulus (GPa) = 39.18927 39.88154 39.53540
# Shear Modulus (GPa) = 26.12729 27.52862 26.82795
#
# Velocity S-wave (km/s) = 3.72927 3.82798 3.77895
# Velocity P-wave (km/s) = 6.27723 6.38488 6.33129
#
# Compressibility (1/GPa) = 0.02551719
#
# Stress axis : x y z
#
# Youngs Moduli (GPa) = 64.19945 61.26061 71.00327
#
# Poissons Ratio (x) = 0.17202 0.15959
# Poissons Ratio (y) = 0.18028 0.36763
# Poissons Ratio (z) = 0.14430 0.31719
#
# Static dielectric constant tensor:
#      x y z
#    x 3.380270 0.000000 0.000000 
#    y 0.000000 3.500040 0.000000 
#    z 0.000000 0.000000 3.306470 
# 
# 
# High freq. dielectric constant tensor:
#      x y z
#    x 1.708770 0.000000 0.000000 
#    y 0.000000 1.741390 0.000000 
#    z 0.000000 0.000000 1.720950 
# 
# From -- ./inp_files/7691.got.cif
#   From: 2010.03.12/outbox.cif.g09.slc.cpg/sg35_4_cif.got.tgz:7691.got - 2010.04.14 02:02:04.
