data_PCOD8173643
_publ_section_title
;
Structure prediction by ZEFSAII (Michael W. Deem and Ramdas Pophale) SiO2 
 PCOD8173643
Probable space group: C M M 2
;
_chemical_formula_sum "Si O2"
_cell_formula_units_Z 48
_cell_length_a 15.646602
_cell_length_b 9.164409
_cell_length_c 17.168601
_cell_angle_alpha 90.000000
_cell_angle_beta 90.000000
_cell_angle_gamma 90.000000
_cell_volume 2461.837634
_symmetry_space_group_name_H-M "C M M 2"
_symmetry_group_IT_number 35
_symmetry_cell_setting 'orthorhombic'
loop_
_space_group_symop_operation_xyz
x,y,z
-x,-y,z
-x,y,z
x,-y,z
1/2+x,1/2+y,z
1/2-x,1/2-y,z
1/2-x,1/2+y,z
1/2+x,1/2-y,z
loop_
_atom_site_type_symbol
_atom_site_label
_atom_site_fract_x
_atom_site_fract_y
_atom_site_fract_z
Si Si1 0.836229 0.169702 0.250000
Si Si2 0.164542 0.673016 0.778861
Si Si3 0.000000 0.330798 0.689262
Si Si4 0.901350 0.669181 0.944693
Si Si5 0.097987 0.159399 0.089597
Si Si6 0.000000 0.672517 0.506675
Si Si7 0.342141 0.325333 0.424150
O O1 0.750000 0.250000 0.233192
O O2 0.896262 0.220420 0.178318
O O3 0.872654 0.208554 0.335431
O O4 0.817508 0.000000 0.247885
O O5 0.174295 0.500000 0.769229
O O6 0.250000 0.750000 0.747655
O O7 0.085812 0.735411 0.727549
O O8 0.150168 0.719203 0.868524
O O9 0.000000 0.301334 0.598215
O O10 0.000000 0.500000 0.710847
O O11 0.891544 0.500000 0.959370
O O12 0.000000 0.711315 0.930946
O O13 0.859955 0.742504 0.022011
O O14 0.000000 0.148554 0.067964
O O15 0.141626 0.000000 0.085756
O O16 0.085632 0.750485 0.476316
O O17 0.000000 0.500000 0.485475
O O18 0.336234 0.500000 0.440274
O O19 0.250000 0.250000 0.440763
#
# Coordination Sequence:
#
# PCOD8173643 Si02
#       7
#     8   8   4   8   8   4   8
#     4   9  19  34  53  74 104 145 185 227 277 328
#     4  10  20  37  60  84 110 147 187 226 276 333
#     4   9  20  41  63  82 113 150 182 225 281 341
#     4   9  17  32  53  74 103 144 186 226 271 325
#     4   9  18  31  49  74 105 141 182 226 272 318
#     4  11  23  39  63  92 117 150 192 235 293 357
#     4  10  21  39  62  87 119 156 195 241 290 344
#
# _framework density 19.497629
#
# number of rings (size 3 to 8) (size 9 to 14) (size 15 to 20)
#    0.000    2.500    0.833    0.750    1.167    3.333 
#    0.000    7.083    0.000    0.000    0.000    0.000 
#    0.000    0.000    0.000    0.000    0.000    0.000 
#
# Total GULP energy -297394.618157 kJ/mol
# GULP energy per Si atom -12391.442423 kJ/mol
# Density = 1.945325 g / cm^3
# Si number density = 19.497629 Si / 1000 Ang^3
#
#
#
# Elastic Constant Matrix: (Units=GPa)
#
#
# Indices 1 2 3 4 5 6 
#
# 1 115.0291 50.6166 70.6104 0.0000 0.0000 0.0000
# 2 50.6166 61.2664 51.4341 0.0000 0.0000 0.0000
# 3 70.6104 51.4341 121.1085 0.0000 0.0000 0.0000
# 4 0.0000 0.0000 0.0000 54.6645 0.0000 0.0000
# 5 0.0000 0.0000 0.0000 0.0000 17.9454 0.0000
# 6 0.0000 0.0000 0.0000 0.0000 0.0000 30.1290
#
#
#
# Elastic Compliance Matrix: (Units=1/GPa)
#
#
# Indices 1 2 3 4 5 6 
#
# 1 0.015856 -0.008297 -0.005721 0.000000 0.000000 0.000000
# 2 -0.008297 0.029708 -0.007779 0.000000 0.000000 0.000000
# 3 -0.005721 -0.007779 0.014896 0.000000 0.000000 0.000000
# 4 0.000000 0.000000 0.000000 0.018293 0.000000 0.000000
# 5 0.000000 0.000000 0.000000 0.000000 0.055725 0.000000
# 6 0.000000 0.000000 0.000000 0.000000 0.000000 0.033191
#
#
# Mechanical properties :
#
#
# Convention : Reuss Voigt Hill
#
# Bulk Modulus (GPa) = 59.29180 71.41403 65.35291
# Shear Modulus (GPa) = 23.05360 28.86397 25.95878
#
# Velocity S-wave (km/s) = 3.44230 3.85175 3.65277
# Velocity P-wave (km/s) = 6.80258 7.51584 7.16809
#
# Compressibility (1/GPa) = 0.01686574
#
# Stress axis : x y z
#
# Youngs Moduli (GPa) = 63.06636 33.66117 67.13035
#
# Poissons Ratio (x) = 0.27929 0.38405
# Poissons Ratio (y) = 0.52327 0.52222
# Poissons Ratio (z) = 0.36080 0.26186
#
# Static dielectric constant tensor:
#      x y z
#    x 3.400720 0.000000 0.000000 
#    y 0.000000 3.414980 0.000000 
#    z 0.000000 0.000000 3.771940 
# 
# 
# High freq. dielectric constant tensor:
#      x y z
#    x 1.750820 0.000000 0.000000 
#    y 0.000000 1.745210 0.000000 
#    z 0.000000 0.000000 1.769480 
# 
# From -- ./inp_files/15211.got.cif
#   From: 2010.03.12/outbox.cif.g09.slc.cpg/sg35_8_cif.got.tgz:15211.got - 2010.04.14 02:02:04.
