data_PCOD8173239
_publ_section_title
;
Structure prediction by ZEFSAII (Michael W. Deem and Ramdas Pophale) SiO2 
 PCOD8173239
Probable space group: C M M 2
;
_chemical_formula_sum "Si O2"
_cell_formula_units_Z 64
_cell_length_a 9.098586
_cell_length_b 19.878985
_cell_length_c 19.551610
_cell_angle_alpha 90.000000
_cell_angle_beta 90.000000
_cell_angle_gamma 90.000000
_cell_volume 3536.312499
_symmetry_space_group_name_H-M "C M M 2"
_symmetry_group_IT_number 35
_symmetry_cell_setting 'orthorhombic'
loop_
_space_group_symop_operation_xyz
x,y,z
-x,-y,z
-x,y,z
x,-y,z
1/2+x,1/2+y,z
1/2-x,1/2-y,z
1/2-x,1/2+y,z
1/2+x,1/2-y,z
loop_
_atom_site_type_symbol
_atom_site_label
_atom_site_fract_x
_atom_site_fract_y
_atom_site_fract_z
Si Si1 0.827738 0.318201 0.193280
Si Si2 0.668159 0.422112 0.442377
Si Si3 0.829671 0.317007 0.352198
Si Si4 0.327330 0.817920 0.691837
Si Si5 0.171022 0.921447 0.097753
Si Si6 0.670251 0.077062 0.959557
Si Si7 0.671599 0.816917 0.847622
Si Si8 0.168245 0.078014 0.599363
O O1 0.750000 0.250000 0.167464
O O2 0.795430 0.329884 0.272914
O O3 0.758886 0.381661 0.155310
O O4 0.000000 0.312957 0.177223
O O5 0.500000 0.406096 0.423134
O O6 0.703112 0.500000 0.430029
O O7 0.774916 0.380797 0.393993
O O8 0.698552 0.402709 0.520844
O O9 0.750000 0.250000 0.378747
O O10 0.000000 0.306699 0.366198
O O11 0.500000 0.808253 0.683730
O O12 0.250000 0.750000 0.665657
O O13 0.281134 0.833294 0.770005
O O14 0.276884 0.880206 0.646587
O O15 0.000000 0.902811 0.101191
O O16 0.198699 0.000000 0.111441
O O17 0.232290 0.900499 0.023770
O O18 0.500000 0.088871 0.978419
O O19 0.719983 0.120780 0.894606
O O20 0.700372 0.000000 0.939598
O O21 0.500000 0.803409 0.852590
O O22 0.750000 0.750000 0.874911
O O23 0.000000 0.094321 0.618548
O O24 0.202504 0.000000 0.611857
#
# Coordination Sequence:
#
# PCOD8173239 Si02
#       8
#     8   8   8   8   8   8   8   8
#     4  10  21  37  56  78 105 137 173 213 258 307
#     4   9  19  36  56  77 104 138 173 211 257 308
#     4  10  21  36  55  79 106 136 172 214 257 305
#     4  10  20  34  53  77 105 137 174 215 258 306
#     4  10  21  36  54  78 107 138 174 214 254 302
#     4   9  18  34  54  74 100 135 172 211 256 304
#     4   9  19  34  52  75 102 133 169 210 256 306
#     4   9  19  36  55  76 104 137 173 213 258 308
#
# _framework density 18.097947999999999
#
# number of rings (size 3 to 8) (size 9 to 14) (size 15 to 20)
#    0.000    2.500    0.000    2.250    0.000    6.250 
#    0.000    6.250    0.000    1.500    0.000    0.000 
#    0.000    0.000    0.000    0.000    0.000    0.000 
#
# Total GULP energy -396910.333747 kJ/mol
# GULP energy per Si atom -12403.447930 kJ/mol
# Density = 1.805676 g / cm^3
# Si number density = 18.097948 Si / 1000 Ang^3
#
#
#
# Elastic Constant Matrix: (Units=GPa)
#
#
# Indices 1 2 3 4 5 6 
#
# 1 91.3069 57.8453 55.3973 0.0000 0.0000 0.0000
# 2 57.8453 99.2883 65.6475 0.0000 0.0000 0.0000
# 3 55.3973 65.6475 84.4277 0.0000 0.0000 0.0000
# 4 0.0000 0.0000 0.0000 29.0545 0.0000 0.0000
# 5 0.0000 0.0000 0.0000 0.0000 30.6531 0.0000
# 6 0.0000 0.0000 0.0000 0.0000 0.0000 37.5198
#
#
#
# Elastic Compliance Matrix: (Units=1/GPa)
#
#
# Indices 1 2 3 4 5 6 
#
# 1 0.019827 -0.006070 -0.008290 0.000000 0.000000 0.000000
# 2 -0.006070 0.022587 -0.013579 0.000000 0.000000 0.000000
# 3 -0.008290 -0.013579 0.027842 0.000000 0.000000 0.000000
# 4 0.000000 0.000000 0.000000 0.034418 0.000000 0.000000
# 5 0.000000 0.000000 0.000000 0.000000 0.032623 0.000000
# 6 0.000000 0.000000 0.000000 0.000000 0.000000 0.026653
#
#
# Mechanical properties :
#
#
# Convention : Reuss Voigt Hill
#
# Bulk Modulus (GPa) = 69.55238 70.31147 69.93193
# Shear Modulus (GPa) = 22.25967 25.85432 24.05700
#
# Velocity S-wave (km/s) = 3.51088 3.78375 3.64987
# Velocity P-wave (km/s) = 7.41279 7.61734 7.51576
#
# Compressibility (1/GPa) = 0.01437765
#
# Stress axis : x y z
#
# Youngs Moduli (GPa) = 50.43553 44.27380 35.91650
#
# Poissons Ratio (x) = 0.26876 0.29773
# Poissons Ratio (y) = 0.30617 0.48772
# Poissons Ratio (z) = 0.41809 0.60121
#
# Static dielectric constant tensor:
#      x y z
#    x 3.358480 0.000000 0.000000 
#    y 0.000000 3.337310 0.000000 
#    z 0.000000 0.000000 3.328460 
# 
# 
# High freq. dielectric constant tensor:
#      x y z
#    x 1.706630 0.000000 0.000000 
#    y 0.000000 1.704180 0.000000 
#    z 0.000000 0.000000 1.698970 
# 
# From -- ./inp_files/18303.got.cif
#   From: 2010.03.12/outbox.cif.g09.slc.cpg/sg35_10_cif.got.tgz:18303.got - 2010.04.14 02:02:04.
