data_PCOD8173032
_publ_section_title
;
Structure prediction by ZEFSAII (Michael W. Deem and Ramdas Pophale) SiO2 
 PCOD8173032
Probable space group: C M M 2
;
_chemical_formula_sum "Si O2"
_cell_formula_units_Z 64
_cell_length_a 23.149965
_cell_length_b 13.390208
_cell_length_c 10.837224
_cell_angle_alpha 90.000000
_cell_angle_beta 90.000000
_cell_angle_gamma 90.000000
_cell_volume 3359.353544
_symmetry_space_group_name_H-M "C M M 2"
_symmetry_group_IT_number 35
_symmetry_cell_setting 'orthorhombic'
loop_
_space_group_symop_operation_xyz
x,y,z
-x,-y,z
-x,y,z
x,-y,z
1/2+x,1/2+y,z
1/2-x,1/2-y,z
1/2-x,1/2+y,z
1/2+x,1/2-y,z
loop_
_atom_site_type_symbol
_atom_site_label
_atom_site_fract_x
_atom_site_fract_y
_atom_site_fract_z
Si Si1 0.162390 0.275756 0.926840
Si Si2 0.567293 0.116967 0.077383
Si Si3 0.237669 0.885291 0.029408
Si Si4 0.372834 0.115121 0.477821
Si Si5 0.818823 0.753393 0.653571
Si Si6 0.564834 0.245204 0.318645
Si Si7 0.157113 0.881134 0.424686
Si Si8 0.727442 0.116243 0.301488
O O1 0.180205 0.182150 0.015023
O O2 0.215299 0.356099 0.925265
O O3 0.155115 0.231514 0.789687
O O4 0.103743 0.329860 0.969056
O O5 0.500000 0.124620 0.041624
O O6 0.581747 0.176009 0.202130
O O7 0.585437 0.000000 0.093069
O O8 0.218617 0.000000 0.020058
O O9 0.271502 0.860596 0.156386
O O10 0.344148 0.147177 0.606552
O O11 0.430884 0.174704 0.441422
O O12 0.330120 0.155189 0.368173
O O13 0.386807 0.000000 0.481079
O O14 0.750000 0.750000 0.655008
O O15 0.843854 0.840679 0.565271
O O16 0.500000 0.285164 0.304773
O O17 0.604765 0.342272 0.338946
O O18 0.215395 0.837151 0.362703
O O19 0.153837 0.000000 0.427249
O O20 0.729663 0.000000 0.329448
#
# Coordination Sequence:
#
# PCOD8173032 Si02
#       8
#     8   8   8   8   8   8   8   8
#     4  11  22  36  52  80 115 151 195 236 278 332
#     4  10  21  39  63  86 112 150 191 236 293 350
#     4  10  20  32  51  80 113 147 182 234 295 347
#     4  10  20  33  54  79 110 145 179 228 286 342
#     4  11  21  36  51  81 116 152 193 232 278 331
#     4  10  21  36  58  87 115 143 185 236 286 345
#     4  10  21  37  59  83 114 152 191 235 287 346
#     4   9  17  30  51  79 104 133 175 223 283 345
#
# _framework density 19.051283999999999
#
# number of rings (size 3 to 8) (size 9 to 14) (size 15 to 20)
#    0.000    1.875    2.500    2.250    0.000    6.500 
#    0.000    2.500    0.000    1.125    0.000    0.000 
#    0.000    0.000    0.000    0.000    0.000    0.000 
#
# Total GULP energy -396646.890081 kJ/mol
# GULP energy per Si atom -12395.215315 kJ/mol
# Density = 1.900792 g / cm^3
# Si number density = 19.051284 Si / 1000 Ang^3
#
#
#
# Elastic Constant Matrix: (Units=GPa)
#
#
# Indices 1 2 3 4 5 6 
#
# 1 72.2977 24.6891 26.1470 0.0000 0.0000 0.0000
# 2 24.6891 90.6297 14.6141 0.0000 0.0000 0.0000
# 3 26.1470 14.6141 84.7863 0.0000 0.0000 0.0000
# 4 0.0000 0.0000 0.0000 25.8127 0.0000 0.0000
# 5 0.0000 0.0000 0.0000 0.0000 24.2963 0.0000
# 6 0.0000 0.0000 0.0000 0.0000 0.0000 25.8841
#
#
#
# Elastic Compliance Matrix: (Units=1/GPa)
#
#
# Indices 1 2 3 4 5 6 
#
# 1 0.016775 -0.003842 -0.004511 0.000000 0.000000 0.000000
# 2 -0.003842 0.012229 -0.000923 0.000000 0.000000 0.000000
# 3 -0.004511 -0.000923 0.013345 0.000000 0.000000 0.000000
# 4 0.000000 0.000000 0.000000 0.038741 0.000000 0.000000
# 5 0.000000 0.000000 0.000000 0.000000 0.041159 0.000000
# 6 0.000000 0.000000 0.000000 0.000000 0.000000 0.038634
#
#
# Mechanical properties :
#
#
# Convention : Reuss Voigt Hill
#
# Bulk Modulus (GPa) = 42.02294 42.06825 42.04560
# Shear Modulus (GPa) = 26.68554 27.34951 27.01752
#
# Velocity S-wave (km/s) = 3.74668 3.79301 3.76991
# Velocity P-wave (km/s) = 6.38925 6.42744 6.40838
#
# Compressibility (1/GPa) = 0.02379653
#
# Stress axis : x y z
#
# Youngs Moduli (GPa) = 59.61146 81.76953 74.93686
#
# Poissons Ratio (x) = 0.31420 0.33804
# Poissons Ratio (y) = 0.22906 0.06916
# Poissons Ratio (z) = 0.26891 0.07547
#
# Static dielectric constant tensor:
#      x y z
#    x 3.413090 0.000000 0.000000 
#    y 0.000000 3.489640 0.000000 
#    z 0.000000 0.000000 3.453740 
# 
# 
# High freq. dielectric constant tensor:
#      x y z
#    x 1.724070 0.000000 0.000000 
#    y 0.000000 1.747990 0.000000 
#    z 0.000000 0.000000 1.729560 
# 
# From -- ./inp_files/9896.got.cif
#   From: 2010.03.12/outbox.cif.g09.slc.cpg/sg35_5_cif.got.tgz:9896.got - 2010.04.14 02:02:04.
