data_PCOD8173012
_publ_section_title
;
Structure prediction by ZEFSAII (Michael W. Deem and Ramdas Pophale) SiO2 
 PCOD8173012
Probable space group: C M M 2
;
_chemical_formula_sum "Si O2"
_cell_formula_units_Z 64
_cell_length_a 32.541015
_cell_length_b 9.391325
_cell_length_c 11.371327
_cell_angle_alpha 90.000000
_cell_angle_beta 90.000000
_cell_angle_gamma 90.000000
_cell_volume 3475.114462
_symmetry_space_group_name_H-M "C M M 2"
_symmetry_group_IT_number 35
_symmetry_cell_setting 'orthorhombic'
loop_
_space_group_symop_operation_xyz
x,y,z
-x,-y,z
-x,y,z
x,-y,z
1/2+x,1/2+y,z
1/2-x,1/2-y,z
1/2-x,1/2+y,z
1/2+x,1/2-y,z
loop_
_atom_site_type_symbol
_atom_site_label
_atom_site_fract_x
_atom_site_fract_y
_atom_site_fract_z
Si Si1 0.453952 0.831302 0.636070
Si Si2 0.650257 0.845123 0.000362
Si Si3 0.454805 0.657171 0.118058
Si Si4 0.788201 0.161316 0.872660
Si Si5 0.371280 0.833133 0.504244
Si Si6 0.391153 0.160702 0.239837
Si Si7 0.208202 0.167879 0.598208
Si Si8 0.938160 0.658748 0.899010
O O1 0.500000 0.778739 0.593931
O O2 0.415226 0.776914 0.556896
O O3 0.446967 0.778263 0.769583
O O4 0.452985 0.000000 0.630919
O O5 0.674511 0.712216 0.951502
O O6 0.609899 0.849578 0.921615
O O7 0.672312 0.000000 0.986209
O O8 0.642326 0.815076 0.137792
O O9 0.500000 0.645390 0.171817
O O10 0.436116 0.500000 0.095410
O O11 0.429055 0.735675 0.218072
O O12 0.458124 0.738897 0.994705
O O13 0.750000 0.250000 0.917163
O O14 0.797291 0.186572 0.736639
O O15 0.778966 0.000000 0.902271
O O16 0.371181 0.808050 0.364931
O O17 0.332622 0.740487 0.546623
O O18 0.364412 0.000000 0.536257
O O19 0.408370 0.000000 0.233407
O O20 0.250000 0.250000 0.556593
O O21 0.211047 0.000000 0.563008
O O22 0.957325 0.500000 0.910082
#
# Coordination Sequence:
#
# PCOD8173012 Si02
#       8
#     8   8   8   8   8   8   8   8
#     4   9  17  29  49  79 110 140 177 220 265 315
#     4   9  17  31  50  73 100 130 168 213 260 308
#     4  10  20  32  48  72 101 133 171 218 267 310
#     4  10  20  33  52  79 107 134 163 200 251 311
#     4  10  20  36  57  79 106 141 182 226 267 309
#     4   9  20  36  53  73  98 135 179 217 255 305
#     4  10  21  37  58  84 111 138 172 214 262 318
#     4   9  17  30  50  74 101 134 170 211 261 317
#
# _framework density 18.41666
#
# number of rings (size 3 to 8) (size 9 to 14) (size 15 to 20)
#    0.000    2.500    0.000    3.000    0.000    7.000 
#    0.000    2.500    0.000    1.125    0.000    0.000 
#    0.000    0.000    0.000    0.000    0.000    0.000 
#
# Total GULP energy -396557.262738 kJ/mol
# GULP energy per Si atom -12392.414461 kJ/mol
# Density = 1.837474 g / cm^3
# Si number density = 18.416660 Si / 1000 Ang^3
#
#
#
# Elastic Constant Matrix: (Units=GPa)
#
#
# Indices 1 2 3 4 5 6 
#
# 1 126.4431 62.9508 51.2253 0.0000 0.0000 0.0000
# 2 62.9508 112.1778 44.4424 0.0000 0.0000 0.0000
# 3 51.2253 44.4424 67.0932 0.0000 0.0000 0.0000
# 4 0.0000 0.0000 0.0000 19.3991 0.0000 0.0000
# 5 0.0000 0.0000 0.0000 0.0000 11.1150 0.0000
# 6 0.0000 0.0000 0.0000 0.0000 0.0000 23.5118
#
#
#
# Elastic Compliance Matrix: (Units=1/GPa)
#
#
# Indices 1 2 3 4 5 6 
#
# 1 0.012961 -0.004546 -0.006884 0.000000 0.000000 0.000000
# 2 -0.004546 0.013681 -0.005591 0.000000 0.000000 0.000000
# 3 -0.006884 -0.005591 0.023865 0.000000 0.000000 0.000000
# 4 0.000000 0.000000 0.000000 0.051549 0.000000 0.000000
# 5 0.000000 0.000000 0.000000 0.000000 0.089968 0.000000
# 6 0.000000 0.000000 0.000000 0.000000 0.000000 0.042532
#
#
# Mechanical properties :
#
#
# Convention : Reuss Voigt Hill
#
# Bulk Modulus (GPa) = 60.74253 69.21679 64.97966
# Shear Modulus (GPa) = 18.24246 20.61154 19.42700
#
# Velocity S-wave (km/s) = 3.15070 3.34904 3.25138
# Velocity P-wave (km/s) = 6.80367 7.25398 7.03243
#
# Compressibility (1/GPa) = 0.01646293
#
# Stress axis : x y z
#
# Youngs Moduli (GPa) = 77.15488 73.09659 41.90321
#
# Poissons Ratio (x) = 0.33228 0.28848
# Poissons Ratio (y) = 0.35073 0.23429
# Poissons Ratio (z) = 0.53117 0.40870
#
# Static dielectric constant tensor:
#      x y z
#    x 3.579590 0.000000 0.000000 
#    y 0.000000 3.446110 0.000000 
#    z 0.000000 0.000000 3.354480 
# 
# 
# High freq. dielectric constant tensor:
#      x y z
#    x 1.714370 0.000000 0.000000 
#    y 0.000000 1.704940 0.000000 
#    z 0.000000 0.000000 1.702140 
# 
# From -- ./inp_files/11988.got.cif
#   From: 2010.03.12/outbox.cif.g09.slc.cpg/sg35_6_cif.got.tgz:11988.got - 2010.04.14 02:02:04.
