data_PCOD8173727
_publ_section_title
;
Structure prediction by ZEFSAII (Michael W. Deem and Ramdas Pophale) SiO2 
 PCOD8173727
Probable space group: C M M 2
;
_chemical_formula_sum "Si O2"
_cell_formula_units_Z 48
_cell_length_a 15.519759
_cell_length_b 10.142638
_cell_length_c 15.656625
_cell_angle_alpha 90.000000
_cell_angle_beta 90.000000
_cell_angle_gamma 90.000000
_cell_volume 2464.529654
_symmetry_space_group_name_H-M "C M M 2"
_symmetry_group_IT_number 35
_symmetry_cell_setting 'orthorhombic'
loop_
_space_group_symop_operation_xyz
x,y,z
-x,-y,z
-x,y,z
x,-y,z
1/2+x,1/2+y,z
1/2-x,1/2-y,z
1/2-x,1/2+y,z
1/2+x,1/2-y,z
loop_
_atom_site_type_symbol
_atom_site_label
_atom_site_fract_x
_atom_site_fract_y
_atom_site_fract_z
Si Si1 0.147657 0.265201 0.281440
Si Si2 0.093968 0.655612 0.932206
Si Si3 0.899788 0.344933 0.743372
Si Si4 0.597636 0.000000 0.402383
Si Si5 0.825106 0.653726 0.105573
Si Si6 0.403892 0.500000 0.361152
Si Si7 0.750000 0.750000 0.624219
Si Si8 0.237762 0.000000 0.510275
O O1 0.250000 0.250000 0.292125
O O2 0.113276 0.368442 0.349591
O O3 0.114661 0.321397 0.188557
O O4 0.104700 0.125081 0.299280
O O5 0.086534 0.500000 0.942280
O O6 0.133200 0.691614 0.839681
O O7 0.000000 0.719924 0.936705
O O8 0.143584 0.710328 0.014526
O O9 0.892209 0.500000 0.728322
O O10 0.835564 0.272224 0.680102
O O11 0.000000 0.301276 0.730240
O O12 0.663088 0.000000 0.481333
O O13 0.500000 0.000000 0.438401
O O14 0.798753 0.500000 0.099333
O O15 0.750000 0.750000 0.132217
O O16 0.500000 0.500000 0.402349
O O17 0.330743 0.500000 0.433591
O O18 0.777459 0.871824 0.566709
#
# Coordination Sequence:
#
# PCOD8173727 Si02
#       8
#     8   8   8   4   8   4   4   4
#     4  11  21  41  64  87 128 163 201 257 298 351
#     4   8  16  33  57  86 123 159 196 246 288 343
#     4   9  19  39  65  93 124 161 204 245 297 367
#     4  12  24  42  68  91 115 160 209 253 300 364
#     4  10  21  34  58  92 122 161 203 243 291 347
#     4  12  26  44  66  89 121 164 201 249 318 372
#     4  12  24  40  68  92 120 160 196 256 316 362
#     4  12  26  44  62  92 126 152 198 262 316 364
#
# _framework density 19.476333
#
# number of rings (size 3 to 8) (size 9 to 14) (size 15 to 20)
#    0.000    1.667    3.333    2.500    4.667    2.667 
#    0.000    0.000    0.000    0.000    0.000    0.000 
#    0.000    0.000    0.000    0.000    0.000    0.000 
#
# Total GULP energy -297364.782856 kJ/mol
# GULP energy per Si atom -12390.199286 kJ/mol
# Density = 1.943200 g / cm^3
# Si number density = 19.476333 Si / 1000 Ang^3
#
#
#
# Elastic Constant Matrix: (Units=GPa)
#
#
# Indices 1 2 3 4 5 6 
#
# 1 110.5552 28.7585 51.0801 0.0000 0.0000 0.0000
# 2 28.7585 111.7473 48.6614 0.0000 0.0000 0.0000
# 3 51.0801 48.6614 127.9989 0.0000 0.0000 0.0000
# 4 0.0000 0.0000 0.0000 79.0942 0.0000 0.0000
# 5 0.0000 0.0000 0.0000 0.0000 8.3975 0.0000
# 6 0.0000 0.0000 0.0000 0.0000 0.0000 5.4244
#
#
#
# Elastic Compliance Matrix: (Units=1/GPa)
#
#
# Indices 1 2 3 4 5 6 
#
# 1 0.011206 -0.001122 -0.004045 0.000000 0.000000 0.000000
# 2 -0.001122 0.010837 -0.003672 0.000000 0.000000 0.000000
# 3 -0.004045 -0.003672 0.010823 0.000000 0.000000 0.000000
# 4 0.000000 0.000000 0.000000 0.012643 0.000000 0.000000
# 5 0.000000 0.000000 0.000000 0.000000 0.119084 0.000000
# 6 0.000000 0.000000 0.000000 0.000000 0.000000 0.184352
#
#
# Mechanical properties :
#
#
# Convention : Reuss Voigt Hill
#
# Bulk Modulus (GPa) = 65.84772 67.47793 66.66282
# Shear Modulus (GPa) = 13.45222 33.36998 23.41110
#
# Velocity S-wave (km/s) = 2.63096 4.14377 3.47079
# Velocity P-wave (km/s) = 6.56595 7.59050 7.09674
#
# Compressibility (1/GPa) = 0.01518655
#
# Stress axis : x y z
#
# Youngs Moduli (GPa) = 89.23542 92.28037 92.39699
#
# Poissons Ratio (x) = 0.10357 0.37378
# Poissons Ratio (y) = 0.10016 0.33927
# Poissons Ratio (z) = 0.36099 0.33884
#
# Static dielectric constant tensor:
#      x y z
#    x 3.661490 0.000000 0.000000 
#    y 0.000000 3.461090 0.000000 
#    z 0.000000 0.000000 3.903400 
# 
# 
# High freq. dielectric constant tensor:
#      x y z
#    x 1.748880 0.000000 0.000000 
#    y 0.000000 1.745180 0.000000 
#    z 0.000000 0.000000 1.776630 
# 
# From -- ./inp_files/18813.got.cif
#   From: 2010.03.12/outbox.cif.g09.slc.cpg/sg35_10_cif.got.tgz:18813.got - 2010.04.14 02:02:04.
