data_PCOD8173843
_publ_section_title
;
Structure prediction by ZEFSAII (Michael W. Deem and Ramdas Pophale) SiO2 
 PCOD8173843
Probable space group: C M M 2
;
_chemical_formula_sum "Si O2"
_cell_formula_units_Z 56
_cell_length_a 18.060309
_cell_length_b 23.722571
_cell_length_c 6.339511
_cell_angle_alpha 90.000000
_cell_angle_beta 90.000000
_cell_angle_gamma 90.000000
_cell_volume 2716.080837
_symmetry_space_group_name_H-M "C M M 2"
_symmetry_group_IT_number 35
_symmetry_cell_setting 'orthorhombic'
loop_
_space_group_symop_operation_xyz
x,y,z
-x,-y,z
-x,y,z
x,-y,z
1/2+x,1/2+y,z
1/2-x,1/2-y,z
1/2-x,1/2+y,z
1/2+x,1/2-y,z
loop_
_atom_site_type_symbol
_atom_site_label
_atom_site_fract_x
_atom_site_fract_y
_atom_site_fract_z
Si Si1 0.083727 0.157923 0.419160
Si Si2 0.084350 0.624384 0.642756
Si Si3 0.916443 0.284360 0.304316
Si Si4 0.688912 0.382163 0.747229
Si Si5 0.703998 0.064728 0.407203
Si Si6 0.683890 0.856633 0.026083
Si Si7 0.914569 0.064358 0.078948
O O1 0.093374 0.217608 0.306775
O O2 0.134929 0.159991 0.624505
O O3 0.108046 0.107106 0.265462
O O4 0.000000 0.148776 0.495152
O O5 0.094273 0.686283 0.533733
O O6 0.122001 0.578056 0.492663
O O7 0.000000 0.606864 0.666873
O O8 0.119554 0.620977 0.873653
O O9 0.851217 0.303891 0.148151
O O10 0.000000 0.299201 0.222325
O O11 0.736068 0.417907 0.580966
O O12 0.743320 0.342452 0.886791
O O13 0.638741 0.425092 0.881150
O O14 0.713801 0.096203 0.185725
O O15 0.713184 0.000000 0.353979
O O16 0.000000 0.074628 0.011720
O O17 0.903313 0.000000 0.157696
#
# Coordination Sequence:
#
# PCOD8173843 Si02
#       7
#     8   8   8   8   8   8   8
#     4  10  22  40  62  88 116 149 192 240 288 339
#     4   9  19  37  60  85 113 149 193 238 286 340
#     4   9  19  39  63  85 114 151 193 239 285 337
#     4  11  22  38  58  83 117 154 191 233 287 349
#     4  10  22  39  57  81 116 155 193 236 289 345
#     4  10  21  37  58  85 116 155 193 232 287 345
#     4  10  22  40  62  87 113 146 192 242 290 340
#
# _framework density 20.617941999999999
#
# number of rings (size 3 to 8) (size 9 to 14) (size 15 to 20)
#    0.000    2.143    0.000    2.143    0.000    7.143 
#    0.000   22.857    0.000    0.000    0.000    0.000 
#    0.000    0.000    0.000    0.000    0.000    0.000 
#
# Total GULP energy -347130.975687 kJ/mol
# GULP energy per Si atom -12397.534846 kJ/mol
# Density = 2.057101 g / cm^3
# Si number density = 20.617942 Si / 1000 Ang^3
#
#
#
# Elastic Constant Matrix: (Units=GPa)
#
#
# Indices 1 2 3 4 5 6 
#
# 1 137.3342 49.4938 77.3348 0.0000 0.0000 0.0000
# 2 49.4938 109.5541 47.5430 0.0000 0.0000 0.0000
# 3 77.3348 47.5430 120.5522 0.0000 0.0000 0.0000
# 4 0.0000 0.0000 0.0000 17.9856 0.0000 0.0000
# 5 0.0000 0.0000 0.0000 0.0000 47.4100 0.0000
# 6 0.0000 0.0000 0.0000 0.0000 0.0000 12.4367
#
#
#
# Elastic Compliance Matrix: (Units=1/GPa)
#
#
# Indices 1 2 3 4 5 6 
#
# 1 0.011940 -0.002498 -0.006675 0.000000 0.000000 0.000000
# 2 -0.002498 0.011535 -0.002947 0.000000 0.000000 0.000000
# 3 -0.006675 -0.002947 0.013739 0.000000 0.000000 0.000000
# 4 0.000000 0.000000 0.000000 0.055600 0.000000 0.000000
# 5 0.000000 0.000000 0.000000 0.000000 0.021093 0.000000
# 6 0.000000 0.000000 0.000000 0.000000 0.000000 0.080407
#
#
# Mechanical properties :
#
#
# Convention : Reuss Voigt Hill
#
# Bulk Modulus (GPa) = 77.06530 79.57597 78.32064
# Shear Modulus (GPa) = 22.43375 28.43772 25.43574
#
# Velocity S-wave (km/s) = 3.30217 3.71788 3.51617
# Velocity P-wave (km/s) = 7.21097 7.55708 7.38605
#
# Compressibility (1/GPa) = 0.01297601
#
# Stress axis : x y z
#
# Youngs Moduli (GPa) = 83.75021 86.69130 72.78441
#
# Poissons Ratio (x) = 0.21653 0.48581
# Poissons Ratio (y) = 0.20918 0.21449
# Poissons Ratio (z) = 0.55901 0.25547
#
# Static dielectric constant tensor:
#      x y z
#    x 4.086690 0.000000 0.000000 
#    y 0.000000 3.449330 0.000000 
#    z 0.000000 0.000000 3.789740 
# 
# 
# High freq. dielectric constant tensor:
#      x y z
#    x 1.830060 0.000000 0.000000 
#    y 0.000000 1.782960 0.000000 
#    z 0.000000 0.000000 1.807790 
# 
# From -- ./inp_files/3094.got.cif
#   From: 2010.03.12/outbox.cif.g09.slc.cpg/sg35_2_cif.got.tgz:3094.got - 2010.04.14 02:02:04.
