data_PCOD8173209
_publ_section_title
;
Structure prediction by ZEFSAII (Michael W. Deem and Ramdas Pophale) SiO2 
 PCOD8173209
Probable space group: C M M 2
;
_chemical_formula_sum "Si O2"
_cell_formula_units_Z 64
_cell_length_a 27.805102
_cell_length_b 9.142386
_cell_length_c 13.116424
_cell_angle_alpha 90.000000
_cell_angle_beta 90.000000
_cell_angle_gamma 90.000000
_cell_volume 3334.260238
_symmetry_space_group_name_H-M "C M M 2"
_symmetry_group_IT_number 35
_symmetry_cell_setting 'orthorhombic'
loop_
_space_group_symop_operation_xyz
x,y,z
-x,-y,z
-x,y,z
x,-y,z
1/2+x,1/2+y,z
1/2-x,1/2-y,z
1/2-x,1/2+y,z
1/2+x,1/2-y,z
loop_
_atom_site_type_symbol
_atom_site_label
_atom_site_fract_x
_atom_site_fract_y
_atom_site_fract_z
Si Si1 0.800292 0.328681 0.334780
Si Si2 0.055494 0.327139 0.640732
Si Si3 0.103356 0.171102 0.829727
Si Si4 0.895904 0.668754 0.436912
Si Si5 0.701500 0.667987 0.916174
Si Si6 0.301157 0.327097 0.142304
Si Si7 0.057370 0.163950 0.254209
Si Si8 0.553362 0.674005 0.032120
O O1 0.790796 0.500000 0.313271
O O2 0.750000 0.250000 0.364155
O O3 0.838275 0.307397 0.427301
O O4 0.827906 0.252446 0.237139
O O5 0.060497 0.500000 0.651006
O O6 0.078939 0.257399 0.739611
O O7 0.084620 0.264724 0.543158
O O8 0.000000 0.278882 0.631571
O O9 0.160856 0.200200 0.831759
O O10 0.083896 0.233124 0.937189
O O11 0.091877 0.000000 0.816859
O O12 0.909438 0.500000 0.435577
O O13 0.924592 0.733995 0.343002
O O14 0.716352 0.500000 0.918321
O O15 0.750000 0.750000 0.886498
O O16 0.679657 0.708068 0.028585
O O17 0.298831 0.500000 0.162697
O O18 0.250000 0.250000 0.152138
O O19 0.000000 0.165699 0.250116
O O20 0.076410 0.000000 0.274868
O O21 0.076364 0.218243 0.142156
O O22 0.500000 0.740131 0.020724
O O23 0.551506 0.500000 0.029127
#
# Coordination Sequence:
#
# PCOD8173209 Si02
#       8
#     8   8   8   8   8   8   8   8
#     4  10  20  34  52  77 108 143 184 224 268 320
#     4  10  22  41  61  80 106 142 182 225 277 332
#     4  10  20  35  57  83 108 140 185 228 271 322
#     4  10  22  38  56  78 107 145 184 222 273 331
#     4   9  19  33  51  78 111 147 184 221 266 320
#     4   9  16  28  48  74 106 144 180 216 261 312
#     4   9  18  32  53  82 111 140 177 219 267 327
#     4   8  15  29  50  77 109 140 168 210 271 328
#
# _framework density 19.194662999999998
#
# number of rings (size 3 to 8) (size 9 to 14) (size 15 to 20)
#    0.000    2.625    0.000    3.000    1.750    4.000 
#    0.000    1.250    0.000    3.750    0.000    0.000 
#    0.000    0.000    0.000    0.000    0.000    0.000 
#
# Total GULP energy -396528.466242 kJ/mol
# GULP energy per Si atom -12391.514570 kJ/mol
# Density = 1.915098 g / cm^3
# Si number density = 19.194663 Si / 1000 Ang^3
#
#
#
# Elastic Constant Matrix: (Units=GPa)
#
#
# Indices 1 2 3 4 5 6 
#
# 1 83.4656 37.6761 67.9985 0.0000 0.0000 0.0000
# 2 37.6761 57.1717 40.9273 0.0000 0.0000 0.0000
# 3 67.9985 40.9273 139.9995 0.0000 0.0000 0.0000
# 4 0.0000 0.0000 0.0000 28.9602 0.0000 0.0000
# 5 0.0000 0.0000 0.0000 0.0000 40.7281 0.0000
# 6 0.0000 0.0000 0.0000 0.0000 0.0000 24.7871
#
#
#
# Elastic Compliance Matrix: (Units=1/GPa)
#
#
# Indices 1 2 3 4 5 6 
#
# 1 0.023025 -0.009065 -0.008533 0.000000 0.000000 0.000000
# 2 -0.009065 0.025689 -0.003107 0.000000 0.000000 0.000000
# 3 -0.008533 -0.003107 0.012196 0.000000 0.000000 0.000000
# 4 0.000000 0.000000 0.000000 0.034530 0.000000 0.000000
# 5 0.000000 0.000000 0.000000 0.000000 0.024553 0.000000
# 6 0.000000 0.000000 0.000000 0.000000 0.000000 0.040344
#
#
# Mechanical properties :
#
#
# Convention : Reuss Voigt Hill
#
# Bulk Modulus (GPa) = 51.28324 63.76005 57.52165
# Shear Modulus (GPa) = 24.01003 27.83074 25.92039
#
# Velocity S-wave (km/s) = 3.54060 3.81191 3.67876
# Velocity P-wave (km/s) = 6.59469 7.25699 6.93375
#
# Compressibility (1/GPa) = 0.01949955
#
# Stress axis : x y z
#
# Youngs Moduli (GPa) = 43.43174 38.92707 81.99479
#
# Poissons Ratio (x) = 0.35286 0.69968
# Poissons Ratio (y) = 0.39369 0.25478
# Poissons Ratio (z) = 0.37061 0.12095
#
# Static dielectric constant tensor:
#      x y z
#    x 3.506940 0.000000 0.000000 
#    y 0.000000 3.342390 0.000000 
#    z 0.000000 0.000000 3.832280 
# 
# 
# High freq. dielectric constant tensor:
#      x y z
#    x 1.752820 0.000000 0.000000 
#    y 0.000000 1.725390 0.000000 
#    z 0.000000 0.000000 1.739640 
# 
# From -- ./inp_files/14524.got.cif
#   From: 2010.03.12/outbox.cif.g09.slc.cpg/sg35_8_cif.got.tgz:14524.got - 2010.04.14 02:02:04.
