data_PCOD8173036
_publ_section_title
;
Structure prediction by ZEFSAII (Michael W. Deem and Ramdas Pophale) SiO2 
 PCOD8173036
Probable space group: C M M 2
;
_chemical_formula_sum "Si O2"
_cell_formula_units_Z 64
_cell_length_a 14.970375
_cell_length_b 23.306345
_cell_length_c 9.294586
_cell_angle_alpha 90.000000
_cell_angle_beta 90.000000
_cell_angle_gamma 90.000000
_cell_volume 3242.924968
_symmetry_space_group_name_H-M "C M M 2"
_symmetry_group_IT_number 35
_symmetry_cell_setting 'orthorhombic'
loop_
_space_group_symop_operation_xyz
x,y,z
-x,-y,z
-x,y,z
x,-y,z
1/2+x,1/2+y,z
1/2-x,1/2-y,z
1/2-x,1/2+y,z
1/2+x,1/2-y,z
loop_
_atom_site_type_symbol
_atom_site_label
_atom_site_fract_x
_atom_site_fract_y
_atom_site_fract_z
Si Si1 0.395862 0.740344 0.089430
Si Si2 0.344231 0.271584 0.412669
Si Si3 0.100738 0.883632 0.025534
Si Si4 0.719672 0.384906 0.529565
Si Si5 0.251128 0.566913 0.838980
Si Si6 0.401754 0.563004 0.321525
Si Si7 0.596461 0.832612 0.561637
Si Si8 0.896820 0.344989 0.890060
O O1 0.500000 0.745946 0.123180
O O2 0.346112 0.733208 0.240504
O O3 0.377451 0.683388 0.993318
O O4 0.362045 0.796150 0.001275
O O5 0.250000 0.250000 0.470568
O O6 0.351184 0.335050 0.481356
O O7 0.415554 0.228664 0.483547
O O8 0.112104 0.890392 0.196838
O O9 0.000000 0.899102 0.977175
O O10 0.167526 0.926881 0.948256
O O11 0.714924 0.401758 0.695385
O O12 0.680421 0.436612 0.434944
O O13 0.823457 0.370277 0.491150
O O14 0.228640 0.500000 0.812898
O O15 0.163157 0.597702 0.904909
O O16 0.500000 0.573166 0.393921
O O17 0.399579 0.500000 0.250320
O O18 0.500000 0.864621 0.543063
O O19 0.614970 0.820565 0.729472
O O20 0.000000 0.361005 0.922506
#
# Coordination Sequence:
#
# PCOD8173036 Si02
#       8
#     8   8   8   8   8   8   8   8
#     4  10  20  35  56  86 116 148 187 232 294 354
#     4  10  20  32  52  85 115 147 182 227 288 349
#     4  10  22  38  56  82 115 152 195 238 291 355
#     4  10  21  37  55  84 116 148 201 241 287 349
#     4  11  24  39  59  84 115 159 202 246 293 339
#     4  10  20  36  58  81 112 154 195 240 292 350
#     4   9  19  36  56  80 116 153 186 234 296 350
#     4   9  21  39  60  86 115 150 193 240 294 351
#
# _framework density 19.73527
#
# number of rings (size 3 to 8) (size 9 to 14) (size 15 to 20)
#    0.000    2.125    1.250    1.125    3.500    2.000 
#    0.000    0.000    0.000    1.125    0.000    0.000 
#    0.000    4.000    0.000    0.000    0.000    0.000 
#
# Total GULP energy -396543.225871 kJ/mol
# GULP energy per Si atom -12391.975808 kJ/mol
# Density = 1.969035 g / cm^3
# Si number density = 19.735270 Si / 1000 Ang^3
#
#
#
# Elastic Constant Matrix: (Units=GPa)
#
#
# Indices 1 2 3 4 5 6 
#
# 1 104.4232 45.9544 43.5786 0.0000 0.0000 0.0000
# 2 45.9544 102.0210 43.1831 0.0000 0.0000 0.0000
# 3 43.5786 43.1831 72.3075 0.0000 0.0000 0.0000
# 4 0.0000 0.0000 0.0000 28.8769 0.0000 0.0000
# 5 0.0000 0.0000 0.0000 0.0000 30.7015 0.0000
# 6 0.0000 0.0000 0.0000 0.0000 0.0000 28.1968
#
#
#
# Elastic Compliance Matrix: (Units=1/GPa)
#
#
# Indices 1 2 3 4 5 6 
#
# 1 0.013708 -0.003584 -0.006122 0.000000 0.000000 0.000000
# 2 -0.003584 0.014055 -0.006234 0.000000 0.000000 0.000000
# 3 -0.006122 -0.006234 0.021242 0.000000 0.000000 0.000000
# 4 0.000000 0.000000 0.000000 0.034630 0.000000 0.000000
# 5 0.000000 0.000000 0.000000 0.000000 0.032572 0.000000
# 6 0.000000 0.000000 0.000000 0.000000 0.000000 0.035465
#
#
# Mechanical properties :
#
#
# Convention : Reuss Voigt Hill
#
# Bulk Modulus (GPa) = 58.38740 60.46488 59.42614
# Shear Modulus (GPa) = 26.41885 27.29073 26.85479
#
# Velocity S-wave (km/s) = 3.66274 3.72269 3.69284
# Velocity P-wave (km/s) = 6.89472 7.01302 6.95412
#
# Compressibility (1/GPa) = 0.01712698
#
# Stress axis : x y z
#
# Youngs Moduli (GPa) = 72.94922 71.15005 47.07622
#
# Poissons Ratio (x) = 0.25498 0.28818
# Poissons Ratio (y) = 0.26142 0.29347
# Poissons Ratio (z) = 0.44656 0.44355
#
# Static dielectric constant tensor:
#      x y z
#    x 3.661960 0.000000 0.000000 
#    y 0.000000 3.618150 0.000000 
#    z 0.000000 0.000000 3.354620 
# 
# 
# High freq. dielectric constant tensor:
#      x y z
#    x 1.774350 0.000000 0.000000 
#    y 0.000000 1.760940 0.000000 
#    z 0.000000 0.000000 1.754510 
# 
# From -- ./inp_files/7874.got.cif
#   From: 2010.03.12/outbox.cif.g09.slc.cpg/sg35_4_cif.got.tgz:7874.got - 2010.04.14 02:02:04.
