data_PCOD8173868
_publ_section_title
;
Structure prediction by ZEFSAII (Michael W. Deem and Ramdas Pophale) SiO2 
 PCOD8173868
Probable space group: C M M 2
;
_chemical_formula_sum "Si O2"
_cell_formula_units_Z 48
_cell_length_a 7.664557
_cell_length_b 16.043738
_cell_length_c 18.524644
_cell_angle_alpha 90.000000
_cell_angle_beta 90.000000
_cell_angle_gamma 90.000000
_cell_volume 2277.941098
_symmetry_space_group_name_H-M "C M M 2"
_symmetry_group_IT_number 35
_symmetry_cell_setting 'orthorhombic'
loop_
_space_group_symop_operation_xyz
x,y,z
-x,-y,z
-x,y,z
x,-y,z
1/2+x,1/2+y,z
1/2-x,1/2-y,z
1/2-x,1/2+y,z
1/2+x,1/2-y,z
loop_
_atom_site_type_symbol
_atom_site_label
_atom_site_fract_x
_atom_site_fract_y
_atom_site_fract_z
Si Si1 0.297524 0.906342 0.933900
Si Si2 0.198895 0.000000 0.717110
Si Si3 0.795342 0.656969 0.457040
Si Si4 0.500000 0.597285 0.188905
Si Si5 0.702394 0.000000 0.556107
Si Si6 0.193726 0.159830 0.789515
Si Si7 0.500000 0.599092 0.354911
Si Si8 0.295185 0.156753 0.086490
O O1 0.500000 0.885376 0.930344
O O2 0.205638 0.845747 0.876603
O O3 0.253063 0.000000 0.910312
O O4 0.234568 0.894568 0.016033
O O5 0.197398 0.000000 0.631051
O O6 0.295106 0.083042 0.749845
O O7 0.000000 0.000000 0.744819
O O8 0.750000 0.750000 0.487248
O O9 0.745384 0.584834 0.514241
O O10 0.675536 0.639663 0.387452
O O11 0.000000 0.650838 0.436024
O O12 0.500000 0.500000 0.179912
O O13 0.500000 0.624957 0.271617
O O14 0.678337 0.630937 0.154219
O O15 0.500000 0.000000 0.573338
O O16 0.250000 0.250000 0.762008
O O17 0.000000 0.152003 0.762106
O O18 0.500000 0.500000 0.366713
O O19 0.500000 0.143394 0.105372
O O20 0.250000 0.250000 0.065727
#
# Coordination Sequence:
#
# PCOD8173868 Si02
#       8
#     8   4   8   4   4   8   4   8
#     4  10  21  37  62  91 119 166 216 268 326 375
#     4  10  24  42  62  92 128 171 210 258 329 383
#     4  11  23  42  68 104 134 172 225 267 321 393
#     4  11  26  44  66  98 128 176 221 260 346 394
#     4  10  24  42  68  98 132 169 212 263 322 386
#     4  11  23  40  60  91 126 167 218 265 320 382
#     4  11  24  44  70  97 133 179 214 270 334 389
#     4  11  23  42  63  93 132 171 221 276 328 393
#
# _framework density 21.071659
#
# number of rings (size 3 to 8) (size 9 to 14) (size 15 to 20)
#    0.000    1.333    3.333    1.500    2.333    5.667 
#    0.000    5.000    0.000    0.000    0.000    0.000 
#    0.000    0.000    0.000    0.000    0.000    0.000 
#
# Total GULP energy -297512.382835 kJ/mol
# GULP energy per Si atom -12396.349285 kJ/mol
# Density = 2.102370 g / cm^3
# Si number density = 21.071659 Si / 1000 Ang^3
#
#
#
# Elastic Constant Matrix: (Units=GPa)
#
#
# Indices 1 2 3 4 5 6 
#
# 1 94.6911 35.5917 43.3985 0.0000 0.0000 0.0000
# 2 35.5917 167.4850 65.0924 0.0000 0.0000 0.0000
# 3 43.3985 65.0924 117.9932 0.0000 0.0000 0.0000
# 4 0.0000 0.0000 0.0000 18.1687 0.0000 0.0000
# 5 0.0000 0.0000 0.0000 0.0000 28.5020 0.0000
# 6 0.0000 0.0000 0.0000 0.0000 0.0000 20.9296
#
#
#
# Elastic Compliance Matrix: (Units=1/GPa)
#
#
# Indices 1 2 3 4 5 6 
#
# 1 0.012870 -0.001140 -0.004105 0.000000 0.000000 0.000000
# 2 -0.001140 0.007701 -0.003829 0.000000 0.000000 0.000000
# 3 -0.004105 -0.003829 0.012097 0.000000 0.000000 0.000000
# 4 0.000000 0.000000 0.000000 0.055040 0.000000 0.000000
# 5 0.000000 0.000000 0.000000 0.000000 0.035085 0.000000
# 6 0.000000 0.000000 0.000000 0.000000 0.000000 0.047779
#
#
# Mechanical properties :
#
#
# Convention : Reuss Voigt Hill
#
# Bulk Modulus (GPa) = 68.86599 74.25940 71.56269
# Shear Modulus (GPa) = 25.83161 29.25918 27.54540
#
# Velocity S-wave (km/s) = 3.50507 3.73038 3.61948
# Velocity P-wave (km/s) = 7.00953 7.33976 7.17655
#
# Compressibility (1/GPa) = 0.01452096
#
# Stress axis : x y z
#
# Youngs Moduli (GPa) = 77.69727 129.85196 82.66236
#
# Poissons Ratio (x) = 0.14798 0.33934
# Poissons Ratio (y) = 0.08854 0.31653
# Poissons Ratio (z) = 0.31896 0.49723
#
# Static dielectric constant tensor:
#      x y z
#    x 3.778960 0.000000 0.000000 
#    y 0.000000 4.559050 0.000000 
#    z 0.000000 0.000000 3.626300 
# 
# 
# High freq. dielectric constant tensor:
#      x y z
#    x 1.826370 0.000000 0.000000 
#    y 0.000000 1.846620 0.000000 
#    z 0.000000 0.000000 1.809170 
# 
# From -- ./inp_files/17971.got.cif
#   From: 2010.03.12/outbox.cif.g09.slc.cpg/sg35_9_cif.got.tgz:17971.got - 2010.04.14 02:02:04.
