data_PCOD8173982
_publ_section_title
;
Structure prediction by ZEFSAII (Michael W. Deem and Ramdas Pophale) SiO2 
 PCOD8173982
Probable space group: C M M 2
;
_chemical_formula_sum "Si O2"
_cell_formula_units_Z 48
_cell_length_a 15.424908
_cell_length_b 10.138783
_cell_length_c 15.663622
_cell_angle_alpha 90.000000
_cell_angle_beta 90.000000
_cell_angle_gamma 90.000000
_cell_volume 2449.630634
_symmetry_space_group_name_H-M "C M M 2"
_symmetry_group_IT_number 35
_symmetry_cell_setting 'orthorhombic'
loop_
_space_group_symop_operation_xyz
x,y,z
-x,-y,z
-x,y,z
x,-y,z
1/2+x,1/2+y,z
1/2-x,1/2-y,z
1/2-x,1/2+y,z
1/2+x,1/2-y,z
loop_
_atom_site_type_symbol
_atom_site_label
_atom_site_fract_x
_atom_site_fract_y
_atom_site_fract_z
Si Si1 0.146542 0.261577 0.279170
Si Si2 0.171769 0.649279 0.916838
Si Si3 0.903708 0.347615 0.739903
Si Si4 0.598282 0.000000 0.398853
Si Si5 0.829363 0.651276 0.102725
Si Si6 0.403714 0.500000 0.366363
Si Si7 0.750000 0.750000 0.628697
Si Si8 0.240195 0.000000 0.513378
O O1 0.250000 0.250000 0.281851
O O2 0.114597 0.370128 0.344698
O O3 0.113200 0.303182 0.184055
O O4 0.104368 0.124401 0.304410
O O5 0.208982 0.500000 0.908339
O O6 0.250000 0.750000 0.906823
O O7 0.103876 0.677486 0.841532
O O8 0.124025 0.663491 0.009796
O O9 0.888571 0.500000 0.717624
O O10 0.833667 0.265478 0.687970
O O11 0.000000 0.302520 0.712448
O O12 0.661749 0.000000 0.479392
O O13 0.500000 0.000000 0.433706
O O14 0.798632 0.500000 0.118279
O O15 0.750000 0.750000 0.098362
O O16 0.500000 0.500000 0.408136
O O17 0.330218 0.500000 0.438171
O O18 0.773533 0.872098 0.569781
#
# Coordination Sequence:
#
# PCOD8173982 Si02
#       8
#     8   8   8   4   8   4   4   4
#     4  11  20  39  64  89 125 165 205 253 298 354
#     4   9  17  33  59  90 125 163 202 245 293 351
#     4  10  21  40  66  95 125 161 201 244 302 369
#     4  12  24  42  66  91 119 158 205 255 304 364
#     4   9  18  30  55  94 123 162 210 247 290 348
#     4  12  26  44  64  89 123 162 203 251 312 372
#     4  12  24  42  70  90 122 156 198 258 312 364
#     4  12  26  44  66  92 120 156 200 258 318 364
#
# _framework density 19.594791000000001
#
# number of rings (size 3 to 8) (size 9 to 14) (size 15 to 20)
#    0.000    1.500    4.167    1.500    3.500    1.333 
#    0.000    1.667    0.000    0.000    0.000    0.000 
#    0.000    0.000    0.000    0.000    0.000    0.000 
#
# Total GULP energy -297467.476814 kJ/mol
# GULP energy per Si atom -12394.478201 kJ/mol
# Density = 1.955019 g / cm^3
# Si number density = 19.594791 Si / 1000 Ang^3
#
#
#
# Elastic Constant Matrix: (Units=GPa)
#
#
# Indices 1 2 3 4 5 6 
#
# 1 125.1302 38.1146 58.6529 0.0000 0.0000 0.0000
# 2 38.1146 138.8490 64.8431 0.0000 0.0000 0.0000
# 3 58.6529 64.8431 142.4228 0.0000 0.0000 0.0000
# 4 0.0000 0.0000 0.0000 42.4237 0.0000 0.0000
# 5 0.0000 0.0000 0.0000 0.0000 3.2261 0.0000
# 6 0.0000 0.0000 0.0000 0.0000 0.0000 27.5382
#
#
#
# Elastic Compliance Matrix: (Units=1/GPa)
#
#
# Indices 1 2 3 4 5 6 
#
# 1 0.010022 -0.001046 -0.003651 0.000000 0.000000 0.000000
# 2 -0.001046 0.009256 -0.003783 0.000000 0.000000 0.000000
# 3 -0.003651 -0.003783 0.010247 0.000000 0.000000 0.000000
# 4 0.000000 0.000000 0.000000 0.023572 0.000000 0.000000
# 5 0.000000 0.000000 0.000000 0.000000 0.309972 0.000000
# 6 0.000000 0.000000 0.000000 0.000000 0.000000 0.036313
#
#
# Mechanical properties :
#
#
# Convention : Reuss Voigt Hill
#
# Bulk Modulus (GPa) = 79.58936 81.06926 80.32931
# Shear Modulus (GPa) = 11.88974 30.95702 21.42338
#
# Velocity S-wave (km/s) = 2.46596 3.97906 3.31013
# Velocity P-wave (km/s) = 6.98668 7.91032 7.46281
#
# Compressibility (1/GPa) = 0.01256449
#
# Stress axis : x y z
#
# Youngs Moduli (GPa) = 99.78469 108.03738 97.58574
#
# Poissons Ratio (x) = 0.11300 0.35627
# Poissons Ratio (y) = 0.10437 0.36921
# Poissons Ratio (z) = 0.36430 0.40875
#
# Static dielectric constant tensor:
#      x y z
#    x 3.390420 0.000000 0.000000 
#    y 0.000000 3.687520 0.000000 
#    z 0.000000 0.000000 4.122120 
# 
# 
# High freq. dielectric constant tensor:
#      x y z
#    x 1.734190 0.000000 0.000000 
#    y 0.000000 1.774660 0.000000 
#    z 0.000000 0.000000 1.783140 
# 
# From -- ./inp_files/18814.got.cif
#   From: 2010.03.12/outbox.cif.g09.slc.cpg/sg35_10_cif.got.tgz:18814.got - 2010.04.14 02:02:04.
