data_PCOD8173168
_publ_section_title
;
Structure prediction by ZEFSAII (Michael W. Deem and Ramdas Pophale) SiO2 
 PCOD8173168
Probable space group: C M M 2
;
_chemical_formula_sum "Si O2"
_cell_formula_units_Z 64
_cell_length_a 14.063208
_cell_length_b 17.749553
_cell_length_c 15.569256
_cell_angle_alpha 90.000000
_cell_angle_beta 90.000000
_cell_angle_gamma 90.000000
_cell_volume 3886.330046
_symmetry_space_group_name_H-M "C M M 2"
_symmetry_group_IT_number 35
_symmetry_cell_setting 'orthorhombic'
loop_
_space_group_symop_operation_xyz
x,y,z
-x,-y,z
-x,y,z
x,-y,z
1/2+x,1/2+y,z
1/2-x,1/2-y,z
1/2-x,1/2+y,z
1/2+x,1/2-y,z
loop_
_atom_site_type_symbol
_atom_site_label
_atom_site_fract_x
_atom_site_fract_y
_atom_site_fract_z
Si Si1 0.893895 0.913334 0.628010
Si Si2 0.607480 0.676856 0.454164
Si Si3 0.729958 0.912638 0.377578
Si Si4 0.220975 0.664471 0.697258
Si Si5 0.611336 0.088022 0.848318
Si Si6 0.393576 0.090071 0.218339
Si Si7 0.612647 0.917400 0.034597
Si Si8 0.888005 0.657943 0.519246
O O1 0.878275 0.868206 0.541306
O O2 0.816818 0.885244 0.696072
O O3 0.000000 0.899041 0.665114
O O4 0.877274 0.000000 0.606041
O O5 0.500000 0.670792 0.419339
O O6 0.676850 0.639838 0.384235
O O7 0.635492 0.762521 0.474429
O O8 0.676468 0.882406 0.292816
O O9 0.660376 0.905093 0.459652
O O10 0.759639 0.000000 0.369293
O O11 0.250000 0.750000 0.708308
O O12 0.163704 0.639101 0.779889
O O13 0.156610 0.652752 0.613373
O O14 0.500000 0.098106 0.833092
O O15 0.639071 0.000000 0.838841
O O16 0.641224 0.120558 0.943425
O O17 0.500000 0.119821 0.239526
O O18 0.357598 0.122865 0.124931
O O19 0.395463 0.000000 0.213528
O O20 0.500000 0.926123 0.036905
O O21 0.659597 0.000000 0.033440
O O22 0.000000 0.643116 0.527079
#
# Coordination Sequence:
#
# PCOD8173168 Si02
#       8
#     8   8   8   8   8   8   8   8
#     4  10  20  34  50  65  83 116 165 208 230 254
#     4  10  20  35  49  61  85 127 170 198 222 259
#     4  11  20  30  47  74  99 119 150 195 240 276
#     4  12  21  32  48  68  95 128 156 190 234 282
#     4   9  18  31  49  74  99 121 150 189 234 283
#     4   8  14  25  43  69  99 124 147 181 230 284
#     4   7  11  24  45  67  93 123 150 180 222 276
#     4  11  22  35  48  63  93 130 160 186 226 285
#
# _framework density 16.467977999999999
#
# number of rings (size 3 to 8) (size 9 to 14) (size 15 to 20)
#    0.000    2.250    2.500    3.375    0.000    2.500 
#    0.000    0.000    0.000    1.500    0.000    0.875 
#    0.000    3.000    0.000    0.000    0.000    0.000 
#
# Total GULP energy -396557.794536 kJ/mol
# GULP energy per Si atom -12392.431079 kJ/mol
# Density = 1.643050 g / cm^3
# Si number density = 16.467978 Si / 1000 Ang^3
#
#
#
# Elastic Constant Matrix: (Units=GPa)
#
#
# Indices 1 2 3 4 5 6 
#
# 1 75.6313 8.5554 43.7848 0.0000 0.0000 0.0000
# 2 8.5554 21.5664 12.7083 0.0000 0.0000 0.0000
# 3 43.7848 12.7083 129.3478 0.0000 0.0000 0.0000
# 4 0.0000 0.0000 0.0000 8.2186 0.0000 0.0000
# 5 0.0000 0.0000 0.0000 0.0000 20.7288 0.0000
# 6 0.0000 0.0000 0.0000 0.0000 0.0000 20.1452
#
#
#
# Elastic Compliance Matrix: (Units=1/GPa)
#
#
# Indices 1 2 3 4 5 6 
#
# 1 0.016689 -0.003494 -0.005306 0.000000 0.000000 0.000000
# 2 -0.003494 0.049949 -0.003725 0.000000 0.000000 0.000000
# 3 -0.005306 -0.003725 0.009893 0.000000 0.000000 0.000000
# 4 0.000000 0.000000 0.000000 0.121675 0.000000 0.000000
# 5 0.000000 0.000000 0.000000 0.000000 0.048242 0.000000
# 6 0.000000 0.000000 0.000000 0.000000 0.000000 0.049640
#
#
# Mechanical properties :
#
#
# Convention : Reuss Voigt Hill
#
# Bulk Modulus (GPa) = 19.42421 39.62694 29.52558
# Shear Modulus (GPa) = 14.77986 20.58500 17.68243
#
# Velocity S-wave (km/s) = 2.99906 3.53937 3.28036
# Velocity P-wave (km/s) = 4.87988 6.38891 5.68469
#
# Compressibility (1/GPa) = 0.05148215
#
# Stress axis : x y z
#
# Youngs Moduli (GPa) = 59.91950 20.02029 101.07985
#
# Poissons Ratio (x) = 0.06995 0.53633
# Poissons Ratio (y) = 0.20935 0.37650
# Poissons Ratio (z) = 0.31794 0.07457
#
# Static dielectric constant tensor:
#      x y z
#    x 3.165590 0.000000 0.000000 
#    y 0.000000 3.029820 0.000000 
#    z 0.000000 0.000000 3.313630 
# 
# 
# High freq. dielectric constant tensor:
#      x y z
#    x 1.626950 0.000000 0.000000 
#    y 0.000000 1.611440 0.000000 
#    z 0.000000 0.000000 1.626500 
# 
# From -- ./inp_files/16882.got.cif
#   From: 2010.03.12/outbox.cif.g09.slc.cpg/sg35_9_cif.got.tgz:16882.got - 2010.04.14 02:02:04.
