data_PCOD8173747
_publ_section_title
;
Structure prediction by ZEFSAII (Michael W. Deem and Ramdas Pophale) SiO2 
 PCOD8173747
Probable space group: C M M 2
;
_chemical_formula_sum "Si O2"
_cell_formula_units_Z 56
_cell_length_a 9.059282
_cell_length_b 18.456428
_cell_length_c 17.998300
_cell_angle_alpha 90.000000
_cell_angle_beta 90.000000
_cell_angle_gamma 90.000000
_cell_volume 3009.351504
_symmetry_space_group_name_H-M "C M M 2"
_symmetry_group_IT_number 35
_symmetry_cell_setting 'orthorhombic'
loop_
_space_group_symop_operation_xyz
x,y,z
-x,-y,z
-x,y,z
x,-y,z
1/2+x,1/2+y,z
1/2-x,1/2-y,z
1/2-x,1/2+y,z
1/2+x,1/2-y,z
loop_
_atom_site_type_symbol
_atom_site_label
_atom_site_fract_x
_atom_site_fract_y
_atom_site_fract_z
Si Si1 0.174184 0.673132 0.567370
Si Si2 0.827560 0.583039 0.133129
Si Si3 0.166636 0.913817 0.279128
Si Si4 0.328747 0.415476 0.861003
Si Si5 0.674849 0.827324 0.988928
Si Si6 0.673301 0.083265 0.425404
Si Si7 0.669740 0.083614 0.710596
O O1 0.250000 0.750000 0.567167
O O2 0.229045 0.628312 0.496043
O O3 0.223176 0.630388 0.640847
O O4 0.000000 0.683305 0.565113
O O5 0.781352 0.500000 0.117867
O O6 0.744913 0.615692 0.204869
O O7 0.000000 0.589261 0.149063
O O8 0.778432 0.629165 0.062312
O O9 0.247910 0.884176 0.352437
O O10 0.000000 0.885053 0.279840
O O11 0.175755 0.000000 0.278861
O O12 0.500000 0.394407 0.868058
O O13 0.301972 0.500000 0.876752
O O14 0.232782 0.370559 0.918381
O O15 0.273257 0.394603 0.779115
O O16 0.500000 0.818644 0.982177
O O17 0.750000 0.750000 0.992560
O O18 0.500000 0.090854 0.412846
O O19 0.718218 0.000000 0.439040
O O20 0.500000 0.099860 0.731780
O O21 0.689818 0.000000 0.688612
#
# Coordination Sequence:
#
# PCOD8173747 Si02
#       7
#     8   8   8   8   8   8   8
#     4  10  21  35  52  76 105 138 174 213 260 311
#     4   9  18  34  56  79 103 135 175 216 260 313
#     4   9  17  29  49  79 108 132 165 213 265 310
#     4  10  21  37  58  84 111 139 175 219 266 316
#     4  11  23  38  56  79 109 144 181 220 265 317
#     4   9  17  32  54  76 100 133 174 216 256 304
#     4   9  18  35  58  80 103 135 177 220 260 307
#
# _framework density 18.60866
#
# number of rings (size 3 to 8) (size 9 to 14) (size 15 to 20)
#    0.000    2.429    0.000    2.143    0.000    7.714 
#    0.000    3.571    0.000    4.286    0.000    0.000 
#    0.000    0.000    0.000    0.000    0.000    0.000 
#
# Total GULP energy -347272.679682 kJ/mol
# GULP energy per Si atom -12402.595703 kJ/mol
# Density = 1.856631 g / cm^3
# Si number density = 18.608660 Si / 1000 Ang^3
#
#
#
# Elastic Constant Matrix: (Units=GPa)
#
#
# Indices 1 2 3 4 5 6 
#
# 1 71.8900 46.6189 67.8112 0.0000 0.0000 0.0000
# 2 46.6189 89.1085 83.7008 0.0000 0.0000 0.0000
# 3 67.8112 83.7008 174.7547 0.0000 0.0000 0.0000
# 4 0.0000 0.0000 0.0000 0.6996 0.0000 0.0000
# 5 0.0000 0.0000 0.0000 0.0000 25.9119 0.0000
# 6 0.0000 0.0000 0.0000 0.0000 0.0000 -82.3495
#
#
#
# Elastic Compliance Matrix: (Units=1/GPa)
#
#
# Indices 1 2 3 4 5 6 
#
# 1 0.024098 -0.006951 -0.006021 0.000000 0.000000 0.000000
# 2 -0.006951 0.022405 -0.008034 0.000000 0.000000 0.000000
# 3 -0.006021 -0.008034 0.011907 0.000000 0.000000 0.000000
# 4 0.000000 0.000000 0.000000 1.429356 0.000000 0.000000
# 5 0.000000 0.000000 0.000000 0.000000 0.038592 0.000000
# 6 0.000000 0.000000 0.000000 0.000000 0.000000 -0.012143
#
#
# Mechanical properties :
#
#
# Convention : Reuss Voigt Hill
#
# Bulk Modulus (GPa) = 60.98816 81.33499 71.16158
# Shear Modulus (GPa) = 3.20165 -1.97279 0.61443
#
# Velocity S-wave (km/s) = 1.31311 -1.03075 0.57524
# Velocity P-wave (km/s) = 5.92826 6.51049 6.22618
#
# Compressibility (1/GPa) = 0.01639662
#
# Stress axis : x y z
#
# Youngs Moduli (GPa) = 41.49797 44.63219 83.98549
#
# Poissons Ratio (x) = 0.31024 0.50571
# Poissons Ratio (y) = 0.28846 0.67474
# Poissons Ratio (z) = 0.24988 0.35858
#
# Static dielectric constant tensor:
#      x y z
#    x 3.405980 0.000000 0.000000 
#    y 0.000000 3.269790 0.000000 
#    z 0.000000 0.000000 3.608830 
# 
# 
# High freq. dielectric constant tensor:
#      x y z
#    x 1.721750 0.000000 0.000000 
#    y 0.000000 1.701790 0.000000 
#    z 0.000000 0.000000 1.738530 
# 
# From -- ./inp_files/15640.got.cif
#   From: 2010.03.12/outbox.cif.g09.slc.cpg/sg35_8_cif.got.tgz:15640.got - 2010.04.14 02:02:04.
