data_PCOD8173651
_publ_section_title
;
Structure prediction by ZEFSAII (Michael W. Deem and Ramdas Pophale) SiO2 
 PCOD8173651
Probable space group: C M M 2
;
_chemical_formula_sum "Si O2"
_cell_formula_units_Z 40
_cell_length_a 17.383921
_cell_length_b 20.604848
_cell_length_c 5.180397
_cell_angle_alpha 90.000000
_cell_angle_beta 90.000000
_cell_angle_gamma 90.000000
_cell_volume 1855.582201
_symmetry_space_group_name_H-M "C M M 2"
_symmetry_group_IT_number 35
_symmetry_cell_setting 'orthorhombic'
loop_
_space_group_symop_operation_xyz
x,y,z
-x,-y,z
-x,y,z
x,-y,z
1/2+x,1/2+y,z
1/2-x,1/2-y,z
1/2-x,1/2+y,z
1/2+x,1/2-y,z
loop_
_atom_site_type_symbol
_atom_site_label
_atom_site_fract_x
_atom_site_fract_y
_atom_site_fract_z
Si Si1 0.413954 0.729070 0.313510
Si Si2 0.089757 0.629078 0.463908
Si Si3 0.335085 0.924647 0.980702
Si Si4 0.667261 0.616788 0.085385
Si Si5 0.085815 0.103330 0.580437
O O1 0.500000 0.737527 0.194027
O O2 0.380565 0.798495 0.397234
O O3 0.358563 0.693005 0.104867
O O4 0.418524 0.682079 0.563976
O O5 0.104398 0.584320 0.213608
O O6 0.000000 0.628025 0.531948
O O7 0.134847 0.604437 0.713350
O O8 0.258517 0.887067 0.066127
O O9 0.318095 0.000000 0.938068
O O10 0.635441 0.577538 0.335583
O O11 0.628769 0.582357 0.839346
O O12 0.000000 0.073214 0.575298
#
# Coordination Sequence:
#
# PCOD8173651 Si02
#       5
#     8   8   8   8   8
#     4   8  19  37  63  95 127 156 194 252 319 380
#     4  11  25  44  68  93 121 163 218 272 324 382
#     4  12  27  45  63  89 128 175 220 264 314 371
#     4  10  20  37  60  92 127 166 200 255 316 377
#     4   9  17  33  60  92 128 164 194 238 311 384
#
# _framework density 21.556576
#
# number of rings (size 3 to 8) (size 9 to 14) (size 15 to 20)
#    1.200    0.800    0.000    3.600    2.800    3.200 
#    0.000    0.000    0.000    6.600    0.000    0.000 
#    0.000    0.000    0.000    0.000    0.000    0.000 
#
# Total GULP energy -247845.062320 kJ/mol
# GULP energy per Si atom -12392.253116 kJ/mol
# Density = 2.150751 g / cm^3
# Si number density = 21.556576 Si / 1000 Ang^3
#
#
#
# Elastic Constant Matrix: (Units=GPa)
#
#
# Indices 1 2 3 4 5 6 
#
# 1 102.8672 43.3917 45.4575 0.0000 0.0000 0.0000
# 2 43.3917 93.8987 28.2664 0.0000 0.0000 0.0000
# 3 45.4575 28.2664 158.9726 0.0000 0.0000 0.0000
# 4 0.0000 0.0000 0.0000 0.7831 0.0000 0.0000
# 5 0.0000 0.0000 0.0000 0.0000 41.3862 0.0000
# 6 0.0000 0.0000 0.0000 0.0000 0.0000 -20.0157
#
#
#
# Elastic Compliance Matrix: (Units=1/GPa)
#
#
# Indices 1 2 3 4 5 6 
#
# 1 0.013186 -0.005239 -0.002839 0.000000 0.000000 0.000000
# 2 -0.005239 0.013333 -0.000873 0.000000 0.000000 0.000000
# 3 -0.002839 -0.000873 0.007257 0.000000 0.000000 0.000000
# 4 0.000000 0.000000 0.000000 1.276997 0.000000 0.000000
# 5 0.000000 0.000000 0.000000 0.000000 0.024163 0.000000
# 6 0.000000 0.000000 0.000000 0.000000 0.000000 -0.049961
#
#
# Mechanical properties :
#
#
# Convention : Reuss Voigt Hill
#
# Bulk Modulus (GPa) = 62.98956 65.55218 64.27087
# Shear Modulus (GPa) = 3.82214 20.33891 12.08052
#
# Velocity S-wave (km/s) = 1.33301 3.07500 2.36987
# Velocity P-wave (km/s) = 5.62612 6.56375 6.11294
#
# Compressibility (1/GPa) = 0.01587565
#
# Stress axis : x y z
#
# Youngs Moduli (GPa) = 75.84058 75.00003 137.79130
#
# Poissons Ratio (x) = 0.39290 0.39117
# Poissons Ratio (y) = 0.39730 0.12026
# Poissons Ratio (z) = 0.21530 0.06546
#
# Static dielectric constant tensor:
#      x y z
#    x 3.769710 0.000000 0.000000 
#    y 0.000000 3.590530 0.000000 
#    z 0.000000 0.000000 3.744160 
# 
# 
# High freq. dielectric constant tensor:
#      x y z
#    x 1.845720 0.000000 0.000000 
#    y 0.000000 1.825180 0.000000 
#    z 0.000000 0.000000 1.846660 
# 
# From -- ./inp_files/1773.got.cif
#   From: 2010.03.12/outbox.cif.g09.slc.cpg/sg35_1_cif.got.tgz:1773.got - 2010.04.14 02:02:04.
