data_PCOD8173476
_publ_section_title
;
Structure prediction by ZEFSAII (Michael W. Deem and Ramdas Pophale) SiO2 
 PCOD8173476
Probable space group: C M M 2
;
_chemical_formula_sum "Si O2"
_cell_formula_units_Z 40
_cell_length_a 15.706481
_cell_length_b 8.707347
_cell_length_c 14.200179
_cell_angle_alpha 90.000000
_cell_angle_beta 90.000000
_cell_angle_gamma 90.000000
_cell_volume 1942.041759
_symmetry_space_group_name_H-M "C M M 2"
_symmetry_group_IT_number 35
_symmetry_cell_setting 'orthorhombic'
loop_
_space_group_symop_operation_xyz
x,y,z
-x,-y,z
-x,y,z
x,-y,z
1/2+x,1/2+y,z
1/2-x,1/2-y,z
1/2-x,1/2+y,z
1/2+x,1/2-y,z
loop_
_atom_site_type_symbol
_atom_site_label
_atom_site_fract_x
_atom_site_fract_y
_atom_site_fract_z
Si Si1 0.500000 0.182212 0.140930
Si Si2 0.095829 0.826720 0.653435
Si Si3 0.661685 0.181218 0.833107
Si Si4 0.339240 0.180597 0.264340
Si Si5 0.160401 0.681786 0.476928
Si Si6 0.000000 0.818843 0.937165
O O1 0.416334 0.233643 0.198387
O O2 0.500000 0.000000 0.121333
O O3 0.500000 0.278250 0.046462
O O4 0.153061 0.725793 0.723371
O O5 0.092966 0.753210 0.549290
O O6 0.000000 0.826967 0.692937
O O7 0.132017 0.000000 0.650189
O O8 0.750000 0.250000 0.872720
O O9 0.584601 0.249675 0.892310
O O10 0.662404 0.000000 0.845214
O O11 0.250000 0.250000 0.228217
O O12 0.360640 0.235829 0.370642
O O13 0.328373 0.000000 0.262443
O O14 0.159683 0.500000 0.485212
O O15 0.250000 0.750000 0.509549
O O16 0.000000 0.000000 0.921640
#
# Coordination Sequence:
#
# PCOD8173476 Si02
#       6
#     4   8   8   8   8   4
#     4  10  22  42  65  90 121 162 205 254 318 376
#     4  11  23  38  58  88 128 167 208 258 307 365
#     4  12  25  44  70  96 126 167 209 257 315 374
#     4   9  20  38  62  89 123 162 206 257 307 366
#     4  10  20  35  57  85 121 163 209 254 303 363
#     4  12  26  46  67  96 129 160 207 262 316 380
#
# _framework density 20.596881
#
# number of rings (size 3 to 8) (size 9 to 14) (size 15 to 20)
#    0.000    1.400    1.000    4.500    1.400    3.600 
#    0.000    2.000    0.000    0.000    0.000    0.000 
#    0.000    0.000    0.000    0.000    0.000    0.000 
#
# Total GULP energy -248064.457097 kJ/mol
# GULP energy per Si atom -12403.222855 kJ/mol
# Density = 2.055000 g / cm^3
# Si number density = 20.596881 Si / 1000 Ang^3
#
#
#
# Elastic Constant Matrix: (Units=GPa)
#
#
# Indices 1 2 3 4 5 6 
#
# 1 154.0108 61.1192 67.4383 0.0000 0.0000 0.0000
# 2 61.1192 134.9880 50.9750 0.0000 0.0000 0.0000
# 3 67.4383 50.9750 114.7734 0.0000 0.0000 0.0000
# 4 0.0000 0.0000 0.0000 33.5107 0.0000 0.0000
# 5 0.0000 0.0000 0.0000 0.0000 22.4990 0.0000
# 6 0.0000 0.0000 0.0000 0.0000 0.0000 33.6600
#
#
#
# Elastic Compliance Matrix: (Units=1/GPa)
#
#
# Indices 1 2 3 4 5 6 
#
# 1 0.009457 -0.002624 -0.004392 0.000000 0.000000 0.000000
# 2 -0.002624 0.009629 -0.002735 0.000000 0.000000 0.000000
# 3 -0.004392 -0.002735 0.012508 0.000000 0.000000 0.000000
# 4 0.000000 0.000000 0.000000 0.029841 0.000000 0.000000
# 5 0.000000 0.000000 0.000000 0.000000 0.044446 0.000000
# 6 0.000000 0.000000 0.000000 0.000000 0.000000 0.029709
#
#
# Mechanical properties :
#
#
# Convention : Reuss Voigt Hill
#
# Bulk Modulus (GPa) = 82.68819 84.75970 83.72394
# Shear Modulus (GPa) = 31.42247 32.88326 32.15286
#
# Velocity S-wave (km/s) = 3.91012 3.99998 3.95531
# Velocity P-wave (km/s) = 7.78579 7.91038 7.84833
#
# Compressibility (1/GPa) = 0.01209363
#
# Stress axis : x y z
#
# Youngs Moduli (GPa) = 105.73919 103.85576 79.94943
#
# Poissons Ratio (x) = 0.27248 0.35111
# Poissons Ratio (y) = 0.27742 0.21865
# Poissons Ratio (z) = 0.46437 0.28404
#
# Static dielectric constant tensor:
#      x y z
#    x 3.789210 0.000000 0.000000 
#    y 0.000000 3.708090 0.000000 
#    z 0.000000 0.000000 3.797520 
# 
# 
# High freq. dielectric constant tensor:
#      x y z
#    x 1.813240 0.000000 0.000000 
#    y 0.000000 1.809570 0.000000 
#    z 0.000000 0.000000 1.805010 
# 
# From -- ./inp_files/14734.got.cif
#   From: 2010.03.12/outbox.cif.g09.slc.cpg/sg35_8_cif.got.tgz:14734.got - 2010.04.14 02:02:04.
