data_PCOD8173878
_publ_section_title
;
Structure prediction by ZEFSAII (Michael W. Deem and Ramdas Pophale) SiO2 
 PCOD8173878
Probable space group: C M M 2
;
_chemical_formula_sum "Si O2"
_cell_formula_units_Z 40
_cell_length_a 15.138758
_cell_length_b 8.927748
_cell_length_c 14.920505
_cell_angle_alpha 90.000000
_cell_angle_beta 90.000000
_cell_angle_gamma 90.000000
_cell_volume 2016.581099
_symmetry_space_group_name_H-M "C M M 2"
_symmetry_group_IT_number 35
_symmetry_cell_setting 'orthorhombic'
loop_
_space_group_symop_operation_xyz
x,y,z
-x,-y,z
-x,y,z
x,-y,z
1/2+x,1/2+y,z
1/2-x,1/2-y,z
1/2-x,1/2+y,z
1/2+x,1/2-y,z
loop_
_atom_site_type_symbol
_atom_site_label
_atom_site_fract_x
_atom_site_fract_y
_atom_site_fract_z
Si Si1 0.344071 0.825024 0.349520
Si Si2 0.845036 0.325547 0.151691
Si Si3 0.345655 0.675199 0.785994
Si Si4 0.000000 0.677892 0.676569
Si Si5 0.344271 0.326954 0.984504
Si Si6 0.500000 0.177500 0.470911
O O1 0.250000 0.750000 0.364496
O O2 0.385931 0.795215 0.250063
O O3 0.412705 0.758606 0.421726
O O4 0.328443 0.000000 0.363383
O O5 0.837540 0.500000 0.131841
O O6 0.750000 0.250000 0.152639
O O7 0.898422 0.250432 0.067476
O O8 0.336962 0.500000 0.762510
O O9 0.250000 0.750000 0.775842
O O10 0.411882 0.754650 0.718555
O O11 0.387159 0.695431 0.886228
O O12 0.000000 0.727945 0.573284
O O13 0.000000 0.500000 0.688531
O O14 0.333710 0.500000 0.007687
O O15 0.250000 0.250000 0.978385
O O16 0.500000 0.000000 0.460223
#
# Coordination Sequence:
#
# PCOD8173878 Si02
#       6
#     8   8   8   4   8   4
#     4   9  18  34  55  78 107 141 176 215 262 316
#     4   9  15  24  44  73 104 138 174 212 255 307
#     4  10  21  38  59  83 113 148 185 227 276 330
#     4  11  23  39  60  83 108 142 185 235 286 333
#     4   9  16  27  47  74 106 142 176 213 259 312
#     4   9  20  39  58  77 104 138 177 223 274 325
#
# _framework density 19.835552
#
# number of rings (size 3 to 8) (size 9 to 14) (size 15 to 20)
#    0.000    2.600    0.000    3.300    0.000    4.000 
#    0.000    5.500    0.000    1.200    0.000    0.000 
#    0.000    0.000    0.000    0.000    0.000    0.000 
#
# Total GULP energy -247774.725562 kJ/mol
# GULP energy per Si atom -12388.736278 kJ/mol
# Density = 1.979041 g / cm^3
# Si number density = 19.835552 Si / 1000 Ang^3
#
#
#
# Elastic Constant Matrix: (Units=GPa)
#
#
# Indices 1 2 3 4 5 6 
#
# 1 95.4439 41.4418 74.8269 0.0000 0.0000 0.0000
# 2 41.4418 114.6364 77.6935 0.0000 0.0000 0.0000
# 3 74.8269 77.6935 192.1555 0.0000 0.0000 0.0000
# 4 0.0000 0.0000 0.0000 28.4988 0.0000 0.0000
# 5 0.0000 0.0000 0.0000 0.0000 -11.8554 0.0000
# 6 0.0000 0.0000 0.0000 0.0000 0.0000 22.4978
#
#
#
# Elastic Compliance Matrix: (Units=1/GPa)
#
#
# Indices 1 2 3 4 5 6 
#
# 1 0.015432 -0.002074 -0.005170 0.000000 0.000000 0.000000
# 2 -0.002074 0.012295 -0.004163 0.000000 0.000000 0.000000
# 3 -0.005170 -0.004163 0.008901 0.000000 0.000000 0.000000
# 4 0.000000 0.000000 0.000000 0.035089 0.000000 0.000000
# 5 0.000000 0.000000 0.000000 0.000000 -0.084350 0.000000
# 6 0.000000 0.000000 0.000000 0.000000 0.000000 0.044449
#
#
# Mechanical properties :
#
#
# Convention : Reuss Voigt Hill
#
# Bulk Modulus (GPa) = 72.40647 87.79559 80.10103
# Shear Modulus (GPa) = 84.40878 21.71315 53.06097
#
# Velocity S-wave (km/s) = 6.53044 3.31215 5.17769
# Velocity P-wave (km/s) = 9.66669 7.68017 8.73011
#
# Compressibility (1/GPa) = 0.01381092
#
# Stress axis : x y z
#
# Youngs Moduli (GPa) = 64.80186 81.33529 112.34858
#
# Poissons Ratio (x) = 0.16872 0.58089
# Poissons Ratio (y) = 0.13443 0.46774
# Poissons Ratio (z) = 0.33506 0.33862
#
# Static dielectric constant tensor:
#      x y z
#    x 3.247630 0.000000 0.000000 
#    y 0.000000 3.602170 0.000000 
#    z 0.000000 0.000000 4.706870 
# 
# 
# High freq. dielectric constant tensor:
#      x y z
#    x 1.740210 0.000000 0.000000 
#    y 0.000000 1.772770 0.000000 
#    z 0.000000 0.000000 1.792550 
# 
# From -- ./inp_files/14807.got.cif
#   From: 2010.03.12/outbox.cif.g09.slc.cpg/sg35_8_cif.got.tgz:14807.got - 2010.04.14 02:02:04.
