data_PCOD8173753
_publ_section_title
;
Structure prediction by ZEFSAII (Michael W. Deem and Ramdas Pophale) SiO2 
 PCOD8173753
Probable space group: C M M 2
;
_chemical_formula_sum "Si O2"
_cell_formula_units_Z 48
_cell_length_a 7.980351
_cell_length_b 18.421342
_cell_length_c 17.074032
_cell_angle_alpha 90.000000
_cell_angle_beta 90.000000
_cell_angle_gamma 90.000000
_cell_volume 2510.032530
_symmetry_space_group_name_H-M "C M M 2"
_symmetry_group_IT_number 35
_symmetry_cell_setting 'orthorhombic'
loop_
_space_group_symop_operation_xyz
x,y,z
-x,-y,z
-x,y,z
x,-y,z
1/2+x,1/2+y,z
1/2-x,1/2-y,z
1/2-x,1/2+y,z
1/2+x,1/2-y,z
loop_
_atom_site_type_symbol
_atom_site_label
_atom_site_fract_x
_atom_site_fract_y
_atom_site_fract_z
Si Si1 0.811088 0.331561 0.549630
Si Si2 0.190906 0.920161 0.408160
Si Si3 0.500000 0.583701 0.823957
Si Si4 0.701923 0.165963 0.093931
Si Si5 0.000000 0.914304 0.007228
Si Si6 0.683319 0.326574 0.709685
Si Si7 0.807590 0.580638 0.244765
O O1 0.750000 0.250000 0.552071
O O2 0.703131 0.373762 0.486341
O O3 0.791359 0.361719 0.638681
O O4 0.000000 0.338783 0.521266
O O5 0.280034 0.885690 0.331567
O O6 0.000000 0.926140 0.384109
O O7 0.267890 0.000000 0.424843
O O8 0.500000 0.500000 0.803268
O O9 0.333062 0.618852 0.783674
O O10 0.500000 0.599462 0.914920
O O11 0.500000 0.154946 0.076118
O O12 0.750000 0.250000 0.088129
O O13 0.757300 0.136998 0.179674
O O14 0.824915 0.121360 0.036102
O O15 0.000000 0.000000 0.027739
O O16 0.500000 0.311508 0.672360
O O17 0.750000 0.250000 0.742010
O O18 0.721350 0.500000 0.238256
O O19 0.000000 0.569522 0.228229
#
# Coordination Sequence:
#
# PCOD8173753 Si02
#       7
#     8   8   4   8   4   8   8
#     4  11  21  35  56  80 114 151 197 244 294 350
#     4  10  21  35  53  81 115 156 202 245 293 350
#     4   9  22  40  62  91 122 154 193 245 306 364
#     4  11  23  41  64  95 131 164 209 267 313 368
#     4  11  24  44  68  95 128 170 207 251 320 390
#     4   9  18  35  59  84 113 151 197 237 294 359
#     4   9  19  36  57  81 115 160 205 249 303 363
#
# _framework density 19.123258
#
# number of rings (size 3 to 8) (size 9 to 14) (size 15 to 20)
#    0.500    1.500    0.833    4.000    1.167    4.000 
#    0.000    2.500    0.000    3.500    0.000    0.000 
#    0.000    0.000    0.000    0.000    0.000    0.000 
#
# Total GULP energy -297330.054303 kJ/mol
# GULP energy per Si atom -12388.752263 kJ/mol
# Density = 1.907973 g / cm^3
# Si number density = 19.123258 Si / 1000 Ang^3
#
#
#
# Elastic Constant Matrix: (Units=GPa)
#
#
# Indices 1 2 3 4 5 6 
#
# 1 80.0396 33.3083 29.4811 0.0000 0.0000 0.0000
# 2 33.3083 105.0849 78.8567 0.0000 0.0000 0.0000
# 3 29.4811 78.8567 143.1324 0.0000 0.0000 0.0000
# 4 0.0000 0.0000 0.0000 29.3579 0.0000 0.0000
# 5 0.0000 0.0000 0.0000 0.0000 29.3598 0.0000
# 6 0.0000 0.0000 0.0000 0.0000 0.0000 23.2799
#
#
#
# Elastic Compliance Matrix: (Units=1/GPa)
#
#
# Indices 1 2 3 4 5 6 
#
# 1 0.014442 -0.003999 -0.000772 0.000000 0.000000 0.000000
# 2 -0.003999 0.017330 -0.008724 0.000000 0.000000 0.000000
# 3 -0.000772 -0.008724 0.011952 0.000000 0.000000 0.000000
# 4 0.000000 0.000000 0.000000 0.034062 0.000000 0.000000
# 5 0.000000 0.000000 0.000000 0.000000 0.034060 0.000000
# 6 0.000000 0.000000 0.000000 0.000000 0.000000 0.042956
#
#
# Mechanical properties :
#
#
# Convention : Reuss Voigt Hill
#
# Bulk Modulus (GPa) = 59.75398 67.94990 63.85194
# Shear Modulus (GPa) = 26.68517 28.84023 27.76270
#
# Velocity S-wave (km/s) = 3.73960 3.88767 3.81435
# Velocity P-wave (km/s) = 7.06829 7.46738 7.27057
#
# Compressibility (1/GPa) = 0.01673529
#
# Stress axis : x y z
#
# Youngs Moduli (GPa) = 69.24224 57.70233 83.66786
#
# Poissons Ratio (x) = 0.23073 0.06457
# Poissons Ratio (y) = 0.27687 0.72994
# Poissons Ratio (z) = 0.05343 0.50341
#
# Static dielectric constant tensor:
#      x y z
#    x 3.577870 0.000000 0.000000 
#    y 0.000000 3.616490 0.000000 
#    z 0.000000 0.000000 3.497780 
# 
# 
# High freq. dielectric constant tensor:
#      x y z
#    x 1.743650 0.000000 0.000000 
#    y 0.000000 1.735000 0.000000 
#    z 0.000000 0.000000 1.743120 
# 
# From -- ./inp_files/17943.got.cif
#   From: 2010.03.12/outbox.cif.g09.slc.cpg/sg35_9_cif.got.tgz:17943.got - 2010.04.14 02:02:04.
