data_PCOD8173181
_publ_section_title
;
Structure prediction by ZEFSAII (Michael W. Deem and Ramdas Pophale) SiO2 
 PCOD8173181
Probable space group: C M M 2
;
_chemical_formula_sum "Si O2"
_cell_formula_units_Z 64
_cell_length_a 9.496434
_cell_length_b 19.527524
_cell_length_c 20.331173
_cell_angle_alpha 90.000000
_cell_angle_beta 90.000000
_cell_angle_gamma 90.000000
_cell_volume 3770.250188
_symmetry_space_group_name_H-M "C M M 2"
_symmetry_group_IT_number 35
_symmetry_cell_setting 'orthorhombic'
loop_
_space_group_symop_operation_xyz
x,y,z
-x,-y,z
-x,y,z
x,-y,z
1/2+x,1/2+y,z
1/2-x,1/2-y,z
1/2-x,1/2+y,z
1/2+x,1/2-y,z
loop_
_atom_site_type_symbol
_atom_site_label
_atom_site_fract_x
_atom_site_fract_y
_atom_site_fract_z
Si Si1 0.662785 0.921312 0.099600
Si Si2 0.655384 0.581354 0.604432
Si Si3 0.666096 0.817824 0.838553
Si Si4 0.341438 0.918585 0.343104
Si Si5 0.342822 0.918567 0.488247
Si Si6 0.163264 0.080349 0.751707
Si Si7 0.341086 0.581599 0.223483
Si Si8 0.838630 0.685370 0.990159
O O1 0.500000 0.912129 0.119808
O O2 0.757146 0.893031 0.159341
O O3 0.701904 0.879844 0.034115
O O4 0.697830 0.000000 0.083990
O O5 0.500000 0.611073 0.592878
O O6 0.652632 0.500000 0.598904
O O7 0.751441 0.614060 0.547149
O O8 0.707337 0.601540 0.677396
O O9 0.500000 0.809422 0.823313
O O10 0.750000 0.750000 0.816564
O O11 0.730251 0.881553 0.799824
O O12 0.694381 0.833529 0.914983
O O13 0.500000 0.891007 0.330781
O O14 0.287326 0.896186 0.415845
O O15 0.236107 0.888265 0.288275
O O16 0.344082 0.000000 0.338375
O O17 0.500000 0.890747 0.497875
O O18 0.340567 0.000000 0.493212
O O19 0.000000 0.100128 0.765117
O O20 0.184821 0.000000 0.762999
O O21 0.500000 0.610359 0.221239
O O22 0.340995 0.500000 0.225938
O O23 0.750000 0.750000 0.014515
O O24 0.000000 0.706105 0.999269
#
# Coordination Sequence:
#
# PCOD8173181 Si02
#       8
#     8   8   8   8   8   8   8   8
#     4   9  17  30  47  65  88 119 150 180 219 267
#     4   8  14  24  37  54  80 114 147 180 222 268
#     4  10  20  34  52  72  94 121 154 192 233 278
#     4   8  13  21  32  47  72 109 147 179 216 262
#     4   8  13  20  31  49  74 106 145 184 218 257
#     4   9  18  32  48  68  96 127 157 191 233 279
#     4   9  16  24  35  55  82 110 143 183 222 259
#     4   9  19  34  51  70  91 117 148 184 226 270
#
# _framework density 16.975000999999999
#
# number of rings (size 3 to 8) (size 9 to 14) (size 15 to 20)
#    0.000    3.250    0.000    2.250    0.000    4.250 
#    0.000    5.000    0.000    1.500    0.000    0.000 
#    0.000    1.000    0.000    5.500    0.000    9.250 
#
# Total GULP energy -396623.401753 kJ/mol
# GULP energy per Si atom -12394.481305 kJ/mol
# Density = 1.693636 g / cm^3
# Si number density = 16.975001 Si / 1000 Ang^3
#
#
#
# Elastic Constant Matrix: (Units=GPa)
#
#
# Indices 1 2 3 4 5 6 
#
# 1 104.4561 37.2232 76.8528 0.0000 0.0000 0.0000
# 2 37.2232 39.3491 43.6575 0.0000 0.0000 0.0000
# 3 76.8528 43.6575 128.0463 0.0000 0.0000 0.0000
# 4 0.0000 0.0000 0.0000 1.2832 0.0000 0.0000
# 5 0.0000 0.0000 0.0000 0.0000 31.9099 0.0000
# 6 0.0000 0.0000 0.0000 0.0000 0.0000 18.6568
#
#
#
# Elastic Compliance Matrix: (Units=1/GPa)
#
#
# Indices 1 2 3 4 5 6 
#
# 1 0.018739 -0.008441 -0.008369 0.000000 0.000000 0.000000
# 2 -0.008441 0.044679 -0.010167 0.000000 0.000000 0.000000
# 3 -0.008369 -0.010167 0.016299 0.000000 0.000000 0.000000
# 4 0.000000 0.000000 0.000000 0.779289 0.000000 0.000000
# 5 0.000000 0.000000 0.000000 0.000000 0.031338 0.000000
# 6 0.000000 0.000000 0.000000 0.000000 0.000000 0.053600
#
#
# Mechanical properties :
#
#
# Convention : Reuss Voigt Hill
#
# Bulk Modulus (GPa) = 38.81588 65.25761 52.03674
# Shear Modulus (GPa) = 4.96778 17.97785 11.47282
#
# Velocity S-wave (km/s) = 1.71257 3.25788 2.60256
# Velocity P-wave (km/s) = 5.17944 7.25800 6.30496
#
# Compressibility (1/GPa) = 0.02576265
#
# Stress axis : x y z
#
# Youngs Moduli (GPa) = 53.36521 22.38197 61.35311
#
# Poissons Ratio (x) = 0.18893 0.51346
# Poissons Ratio (y) = 0.45046 0.62377
# Poissons Ratio (z) = 0.44661 0.22756
#
# Static dielectric constant tensor:
#      x y z
#    x 3.378540 0.000000 0.000000 
#    y 0.000000 2.624250 0.000000 
#    z 0.000000 0.000000 3.428780 
# 
# 
# High freq. dielectric constant tensor:
#      x y z
#    x 1.658560 0.000000 0.000000 
#    y 0.000000 1.589860 0.000000 
#    z 0.000000 0.000000 1.667040 
# 
# From -- ./inp_files/18467.got.cif
#   From: 2010.03.12/outbox.cif.g09.slc.cpg/sg35_10_cif.got.tgz:18467.got - 2010.04.14 02:02:04.
