data_PCOD8173417
_publ_section_title
;
Structure prediction by ZEFSAII (Michael W. Deem and Ramdas Pophale) SiO2 
 PCOD8173417
Probable space group: C M M 2
;
_chemical_formula_sum "Si O2"
_cell_formula_units_Z 40
_cell_length_a 17.851523
_cell_length_b 8.987412
_cell_length_c 12.889252
_cell_angle_alpha 90.000000
_cell_angle_beta 90.000000
_cell_angle_gamma 90.000000
_cell_volume 2067.938599
_symmetry_space_group_name_H-M "C M M 2"
_symmetry_group_IT_number 35
_symmetry_cell_setting 'orthorhombic'
loop_
_space_group_symop_operation_xyz
x,y,z
-x,-y,z
-x,y,z
x,-y,z
1/2+x,1/2+y,z
1/2-x,1/2-y,z
1/2-x,1/2+y,z
1/2+x,1/2-y,z
loop_
_atom_site_type_symbol
_atom_site_label
_atom_site_fract_x
_atom_site_fract_y
_atom_site_fract_z
Si Si1 0.589345 0.333787 0.366460
Si Si2 0.086714 0.674795 0.936267
Si Si3 0.911113 0.667797 0.569426
Si Si4 0.329488 0.676333 0.752346
Si Si5 0.588911 0.164515 0.168192
O O1 0.500000 0.332939 0.364719
O O2 0.620320 0.500000 0.381954
O O3 0.619295 0.232163 0.460449
O O4 0.621269 0.272564 0.257033
O O5 0.100278 0.500000 0.916407
O O6 0.138327 0.771940 0.862282
O O7 0.000000 0.714030 0.915871
O O8 0.110983 0.719890 0.053149
O O9 0.880243 0.500000 0.583317
O O10 0.884938 0.772559 0.662042
O O11 0.000000 0.667911 0.570291
O O12 0.321704 0.500000 0.751668
O O13 0.250000 0.750000 0.731564
O O14 0.500000 0.156590 0.175154
O O15 0.621929 0.000000 0.187753
#
# Coordination Sequence:
#
# PCOD8173417 Si02
#       5
#     8   8   8   8   8
#     4   9  16  26  44  74 109 139 170 211 256 302
#     4   9  18  34  56  81 109 140 175 215 259 309
#     4  10  20  35  56  80 107 139 175 215 260 311
#     4  12  25  39  55  75 103 138 177 220 266 316
#     4   8  14  26  46  73 105 139 171 205 251 306
#
# _framework density 19.342935000000001
#
# number of rings (size 3 to 8) (size 9 to 14) (size 15 to 20)
#    0.000    2.400    0.000    4.800    0.000    7.200 
#    0.000    2.000    0.000    1.200    0.000    2.800 
#    0.000    0.000    0.000    0.000    0.000    0.000 
#
# Total GULP energy -247975.532896 kJ/mol
# GULP energy per Si atom -12398.776645 kJ/mol
# Density = 1.929891 g / cm^3
# Si number density = 19.342935 Si / 1000 Ang^3
#
#
#
# Elastic Constant Matrix: (Units=GPa)
#
#
# Indices 1 2 3 4 5 6 
#
# 1 18.3938 22.8873 16.4630 0.0000 0.0000 0.0000
# 2 22.8873 137.2538 67.2852 0.0000 0.0000 0.0000
# 3 16.4630 67.2852 146.2493 0.0000 0.0000 0.0000
# 4 0.0000 0.0000 0.0000 24.4747 0.0000 0.0000
# 5 0.0000 0.0000 0.0000 0.0000 -0.5347 0.0000
# 6 0.0000 0.0000 0.0000 0.0000 0.0000 22.3396
#
#
#
# Elastic Compliance Matrix: (Units=1/GPa)
#
#
# Indices 1 2 3 4 5 6 
#
# 1 0.069761 -0.010050 -0.003229 0.000000 0.000000 0.000000
# 2 -0.010050 0.010855 -0.003863 0.000000 0.000000 0.000000
# 3 -0.003229 -0.003863 0.008978 0.000000 0.000000 0.000000
# 4 0.000000 0.000000 0.000000 0.040859 0.000000 0.000000
# 5 0.000000 0.000000 0.000000 0.000000 -1.870128 0.000000
# 6 0.000000 0.000000 0.000000 0.000000 0.000000 0.044764
#
#
# Mechanical properties :
#
#
# Convention : Reuss Voigt Hill
#
# Bulk Modulus (GPa) = 18.07963 57.24088 37.66025
# Shear Modulus (GPa) = -3.04471 22.27334 9.61431
#
# Velocity S-wave (km/s) = -1.25598 3.39705 2.23187
# Velocity P-wave (km/s) = 2.69516 6.71145 5.11407
#
# Compressibility (1/GPa) = 0.05531087
#
# Stress axis : x y z
#
# Youngs Moduli (GPa) = 14.33466 92.12111 111.37865
#
# Poissons Ratio (x) = 0.92579 0.35967
# Poissons Ratio (y) = 0.14406 0.43025
# Poissons Ratio (z) = 0.04629 0.35586
#
# Static dielectric constant tensor:
#      x y z
#    x 3.037070 0.000000 0.000000 
#    y 0.000000 3.714080 0.000000 
#    z 0.000000 0.000000 3.813500 
# 
# 
# High freq. dielectric constant tensor:
#      x y z
#    x 1.697660 0.000000 0.000000 
#    y 0.000000 1.758110 0.000000 
#    z 0.000000 0.000000 1.772840 
# 
# From -- ./inp_files/11018.got.cif
#   From: 2010.03.12/outbox.cif.g09.slc.cpg/sg35_6_cif.got.tgz:11018.got - 2010.04.14 02:02:04.
