data_PCOD8173185
_publ_section_title
;
Structure prediction by ZEFSAII (Michael W. Deem and Ramdas Pophale) SiO2 
 PCOD8173185
Probable space group: C M M 2
;
_chemical_formula_sum "Si O2"
_cell_formula_units_Z 64
_cell_length_a 9.086328
_cell_length_b 19.031084
_cell_length_c 20.356942
_cell_angle_alpha 90.000000
_cell_angle_beta 90.000000
_cell_angle_gamma 90.000000
_cell_volume 3520.176793
_symmetry_space_group_name_H-M "C M M 2"
_symmetry_group_IT_number 35
_symmetry_cell_setting 'orthorhombic'
loop_
_space_group_symop_operation_xyz
x,y,z
-x,-y,z
-x,y,z
x,-y,z
1/2+x,1/2+y,z
1/2-x,1/2-y,z
1/2-x,1/2+y,z
1/2+x,1/2-y,z
loop_
_atom_site_type_symbol
_atom_site_label
_atom_site_fract_x
_atom_site_fract_y
_atom_site_fract_z
Si Si1 0.327482 0.321733 0.852200
Si Si2 0.827244 0.419841 0.457603
Si Si3 0.172407 0.820985 0.703699
Si Si4 0.825016 0.674117 0.334449
Si Si5 0.828650 0.917627 0.225336
Si Si6 0.327684 0.419957 0.588362
Si Si7 0.330461 0.918031 0.952117
Si Si8 0.662552 0.916928 0.097529
O O1 0.500000 0.310753 0.859501
O O2 0.250000 0.250000 0.873451
O O3 0.283494 0.342888 0.777696
O O4 0.275690 0.382928 0.899688
O O5 0.775689 0.500000 0.441984
O O6 0.777997 0.368718 0.399161
O O7 0.751690 0.390500 0.523482
O O8 0.000000 0.417391 0.468399
O O9 0.250000 0.750000 0.681913
O O10 0.227296 0.880196 0.653332
O O11 0.000000 0.808618 0.698092
O O12 0.750000 0.750000 0.335921
O O13 0.767947 0.628962 0.273598
O O14 0.000000 0.683004 0.328800
O O15 0.782192 0.894542 0.151738
O O16 0.000000 0.900943 0.235031
O O17 0.794528 0.000000 0.237540
O O18 0.500000 0.410472 0.577140
O O19 0.281975 0.500000 0.599713
O O20 0.500000 0.901282 0.935500
O O21 0.298051 0.000000 0.947638
O O22 0.291744 0.888891 0.025279
O O23 0.500000 0.887887 0.116885
O O24 0.652460 0.000000 0.092368
#
# Coordination Sequence:
#
# PCOD8173185 Si02
#       8
#     8   8   8   8   8   8   8   8
#     4  10  20  34  52  73 101 138 177 217 259 307
#     4   9  19  36  56  77 101 132 170 208 249 302
#     4   9  19  34  51  72  99 133 171 209 252 303
#     4  11  23  38  55  76 106 140 173 213 259 305
#     4  10  20  34  55  82 108 135 171 213 254 303
#     4   9  18  33  53  76 102 131 164 206 253 299
#     4   9  18  33  53  78 107 136 169 212 259 307
#     4   8  15  30  52  76 103 136 171 208 254 306
#
# _framework density 18.180904000000002
#
# number of rings (size 3 to 8) (size 9 to 14) (size 15 to 20)
#    0.000    2.625    0.000    2.250    0.000    5.000 
#    0.000    6.875    0.000    4.500    0.000    0.000 
#    0.000    0.000    0.000    0.000    0.000    0.000 
#
# Total GULP energy -396764.390811 kJ/mol
# GULP energy per Si atom -12398.887213 kJ/mol
# Density = 1.813952 g / cm^3
# Si number density = 18.180904 Si / 1000 Ang^3
#
#
#
# Elastic Constant Matrix: (Units=GPa)
#
#
# Indices 1 2 3 4 5 6 
#
# 1 61.9090 42.4921 50.9876 0.0000 0.0000 0.0000
# 2 42.4921 79.6041 67.0065 0.0000 0.0000 0.0000
# 3 50.9876 67.0065 134.4827 0.0000 0.0000 0.0000
# 4 0.0000 0.0000 0.0000 2.8268 0.0000 0.0000
# 5 0.0000 0.0000 0.0000 0.0000 34.0376 0.0000
# 6 0.0000 0.0000 0.0000 0.0000 0.0000 29.2555
#
#
#
# Elastic Compliance Matrix: (Units=1/GPa)
#
#
# Indices 1 2 3 4 5 6 
#
# 1 0.027578 -0.010196 -0.005376 0.000000 0.000000 0.000000
# 2 -0.010196 0.025406 -0.008793 0.000000 0.000000 0.000000
# 3 -0.005376 -0.008793 0.013855 0.000000 0.000000 0.000000
# 4 0.000000 0.000000 0.000000 0.353754 0.000000 0.000000
# 5 0.000000 0.000000 0.000000 0.000000 0.029379 0.000000
# 6 0.000000 0.000000 0.000000 0.000000 0.000000 0.034182
#
#
# Mechanical properties :
#
#
# Convention : Reuss Voigt Hill
#
# Bulk Modulus (GPa) = 55.21791 66.32978 60.77385
# Shear Modulus (GPa) = 9.27779 20.92462 15.10120
#
# Velocity S-wave (km/s) = 2.26144 3.39619 2.88515
# Velocity P-wave (km/s) = 6.10378 7.20703 6.67822
#
# Compressibility (1/GPa) = 0.01811007
#
# Stress axis : x y z
#
# Youngs Moduli (GPa) = 36.26025 39.36036 72.17493
#
# Poissons Ratio (x) = 0.40132 0.38800
# Poissons Ratio (y) = 0.36971 0.63464
# Poissons Ratio (z) = 0.19493 0.34610
#
# Static dielectric constant tensor:
#      x y z
#    x 3.321880 0.000000 0.000000 
#    y 0.000000 3.277270 0.000000 
#    z 0.000000 0.000000 3.618480 
# 
# 
# High freq. dielectric constant tensor:
#      x y z
#    x 1.704600 0.000000 0.000000 
#    y 0.000000 1.685400 0.000000 
#    z 0.000000 0.000000 1.716340 
# 
# From -- ./inp_files/18347.got.cif
#   From: 2010.03.12/outbox.cif.g09.slc.cpg/sg35_10_cif.got.tgz:18347.got - 2010.04.14 02:02:04.
