data_PCOD8173750
_publ_section_title
;
Structure prediction by ZEFSAII (Michael W. Deem and Ramdas Pophale) SiO2 
 PCOD8173750
Probable space group: C M M 2
;
_chemical_formula_sum "Si O2"
_cell_formula_units_Z 48
_cell_length_a 32.026473
_cell_length_b 14.332767
_cell_length_c 5.010926
_cell_angle_alpha 90.000000
_cell_angle_beta 90.000000
_cell_angle_gamma 90.000000
_cell_volume 2300.155216
_symmetry_space_group_name_H-M "C M M 2"
_symmetry_group_IT_number 35
_symmetry_cell_setting 'orthorhombic'
loop_
_space_group_symop_operation_xyz
x,y,z
-x,-y,z
-x,y,z
x,-y,z
1/2+x,1/2+y,z
1/2-x,1/2-y,z
1/2-x,1/2+y,z
1/2+x,1/2-y,z
loop_
_atom_site_type_symbol
_atom_site_label
_atom_site_fract_x
_atom_site_fract_y
_atom_site_fract_z
Si Si1 0.632901 0.229385 0.932190
Si Si2 0.843678 0.393343 0.430748
Si Si3 0.251019 0.357242 0.432537
Si Si4 0.546670 0.099331 0.268533
Si Si5 0.302960 0.397606 0.942244
Si Si6 0.952952 0.711679 0.758308
O O1 0.648831 0.159621 0.706450
O O2 0.661433 0.319953 0.948812
O O3 0.586012 0.272059 0.874192
O O4 0.632575 0.165503 0.199068
O O5 0.860431 0.500000 0.440127
O O6 0.794336 0.399521 0.383508
O O7 0.250000 0.250000 0.354768
O O8 0.266607 0.371716 0.733913
O O9 0.283022 0.406664 0.233749
O O10 0.500000 0.088035 0.377255
O O11 0.564487 0.177729 0.470233
O O12 0.570233 0.000000 0.299244
O O13 0.545968 0.124455 0.958290
O O14 0.321946 0.500000 0.873249
O O15 0.000000 0.759472 0.750456
#
# Coordination Sequence:
#
# PCOD8173750 Si02
#       6
#     8   8   8   8   8   8
#     4  12  24  40  58  85 121 152 197 251 285 343
#     4  12  25  39  59  88 123 159 190 232 293 349
#     4  12  22  43  64  87 123 157 193 241 285 346
#     4   9  17  30  49  73 100 136 185 230 271 336
#     4  12  24  41  65  89 117 158 200 242 291 341
#     4  10  21  35  53  75 105 148 189 234 294 339
#
# _framework density 20.868155999999999
#
# number of rings (size 3 to 8) (size 9 to 14) (size 15 to 20)
#    0.000    0.833    3.333    5.000    0.000    6.000 
#    0.000    0.000    0.000    0.500    0.000    0.000 
#    0.000    9.333    0.000    0.000    0.000    1.333 
#
# Total GULP energy -297330.573606 kJ/mol
# GULP energy per Si atom -12388.773900 kJ/mol
# Density = 2.082066 g / cm^3
# Si number density = 20.868156 Si / 1000 Ang^3
#
#
#
# Elastic Constant Matrix: (Units=GPa)
#
#
# Indices 1 2 3 4 5 6 
#
# 1 108.9584 30.6071 16.5283 0.0000 0.0000 0.0000
# 2 30.6071 95.0066 21.2920 0.0000 0.0000 0.0000
# 3 16.5283 21.2920 107.9957 0.0000 0.0000 0.0000
# 4 0.0000 0.0000 0.0000 21.4380 0.0000 0.0000
# 5 0.0000 0.0000 0.0000 0.0000 17.7792 0.0000
# 6 0.0000 0.0000 0.0000 0.0000 0.0000 -22.3541
#
#
#
# Elastic Compliance Matrix: (Units=1/GPa)
#
#
# Indices 1 2 3 4 5 6 
#
# 1 0.010184 -0.003067 -0.000954 0.000000 0.000000 0.000000
# 2 -0.003067 0.011936 -0.001884 0.000000 0.000000 0.000000
# 3 -0.000954 -0.001884 0.009777 0.000000 0.000000 0.000000
# 4 0.000000 0.000000 0.000000 0.046646 0.000000 0.000000
# 5 0.000000 0.000000 0.000000 0.000000 0.056246 0.000000
# 6 0.000000 0.000000 0.000000 0.000000 0.000000 -0.044734
#
#
# Mechanical properties :
#
#
# Convention : Reuss Voigt Hill
#
# Bulk Modulus (GPa) = 49.78278 49.86840 49.82559
# Shear Modulus (GPa) = 46.05762 19.60816 32.83289
#
# Velocity S-wave (km/s) = 4.70305 3.06865 3.97085
# Velocity P-wave (km/s) = 7.30748 6.04187 6.70461
#
# Compressibility (1/GPa) = 0.02008727
#
# Stress axis : x y z
#
# Youngs Moduli (GPa) = 98.19246 83.78121 102.28054
#
# Poissons Ratio (x) = 0.25696 0.09757
# Poissons Ratio (y) = 0.30116 0.19268
# Poissons Ratio (z) = 0.09367 0.15783
#
# Static dielectric constant tensor:
#      x y z
#    x 4.258050 0.000000 0.000000 
#    y 0.000000 3.435830 0.000000 
#    z 0.000000 0.000000 3.920000 
# 
# 
# High freq. dielectric constant tensor:
#      x y z
#    x 1.838010 0.000000 0.000000 
#    y 0.000000 1.769360 0.000000 
#    z 0.000000 0.000000 1.838460 
# 
# From -- ./inp_files/3997.got.cif
#   From: 2010.03.12/outbox.cif.g09.slc.cpg/sg35_2_cif.got.tgz:3997.got - 2010.04.14 02:02:04.
