data_PCOD8173626
_publ_section_title
;
Structure prediction by ZEFSAII (Michael W. Deem and Ramdas Pophale) SiO2 
 PCOD8173626
Probable space group: C M M 2
;
_chemical_formula_sum "Si O2"
_cell_formula_units_Z 48
_cell_length_a 8.967507
_cell_length_b 15.505085
_cell_length_c 18.550571
_cell_angle_alpha 90.000000
_cell_angle_beta 90.000000
_cell_angle_gamma 90.000000
_cell_volume 2579.307719
_symmetry_space_group_name_H-M "C M M 2"
_symmetry_group_IT_number 35
_symmetry_cell_setting 'orthorhombic'
loop_
_space_group_symop_operation_xyz
x,y,z
-x,-y,z
-x,y,z
x,-y,z
1/2+x,1/2+y,z
1/2-x,1/2-y,z
1/2-x,1/2+y,z
1/2+x,1/2-y,z
loop_
_atom_site_type_symbol
_atom_site_label
_atom_site_fract_x
_atom_site_fract_y
_atom_site_fract_z
Si Si1 0.177346 0.000000 0.178301
Si Si2 0.175968 0.162436 0.431973
Si Si3 0.826072 0.662824 0.933561
Si Si4 0.175157 0.162737 0.596864
Si Si5 0.176276 0.339392 0.100194
Si Si6 0.823880 0.000000 0.344385
Si Si7 0.823133 0.000000 0.688584
Si Si8 0.822673 0.500000 0.843446
O O1 0.247959 0.084543 0.144012
O O2 0.223716 0.000000 0.261652
O O3 0.000000 0.000000 0.167034
O O4 0.250000 0.250000 0.403414
O O5 0.222180 0.144087 0.514535
O O6 0.240611 0.084893 0.383525
O O7 0.000000 0.171902 0.423741
O O8 0.750000 0.750000 0.905685
O O9 0.764834 0.583705 0.886434
O O10 0.000000 0.675208 0.922564
O O11 0.787250 0.644015 0.016557
O O12 0.250000 0.250000 0.626003
O O13 0.000000 0.174437 0.603620
O O14 0.232166 0.083772 0.645210
O O15 0.250000 0.250000 0.126006
O O16 0.000000 0.337034 0.115084
O O17 0.000000 0.000000 0.354023
O O18 0.747023 0.000000 0.765356
O O19 0.000000 0.000000 0.697545
O O20 0.000000 0.500000 0.838197
#
# Coordination Sequence:
#
# PCOD8173626 Si02
#       8
#     4   8   8   8   8   4   4   4
#     4  11  22  35  52  79 112 145 178 214 260 317
#     4   9  17  33  55  76  98 130 170 212 254 298
#     4   9  19  36  57  78 101 131 171 214 257 303
#     4   9  18  33  54  76  99 129 169 212 253 297
#     4  10  20  37  59  81 105 137 177 222 266 312
#     4   9  19  34  52  74 104 139 172 206 252 307
#     4  10  21  35  50  73 103 136 170 204 246 302
#     4  10  21  36  52  74 105 138 166 202 254 306
#
# _framework density 18.609645
#
# number of rings (size 3 to 8) (size 9 to 14) (size 15 to 20)
#    0.000    2.500    0.000    1.750    0.000    6.667 
#    0.000    7.917    0.000    4.000    0.000    0.000 
#    0.000    0.000    0.000    0.000    0.000    0.000 
#
# Total GULP energy -297648.030160 kJ/mol
# GULP energy per Si atom -12402.001257 kJ/mol
# Density = 1.856729 g / cm^3
# Si number density = 18.609645 Si / 1000 Ang^3
#
#
#
# Elastic Constant Matrix: (Units=GPa)
#
#
# Indices 1 2 3 4 5 6 
#
# 1 44.6559 55.9178 41.5630 0.0000 0.0000 0.0000
# 2 55.9178 216.2101 108.6554 0.0000 0.0000 0.0000
# 3 41.5630 108.6554 116.6995 0.0000 0.0000 0.0000
# 4 0.0000 0.0000 0.0000 16.4225 0.0000 0.0000
# 5 0.0000 0.0000 0.0000 0.0000 25.8848 0.0000
# 6 0.0000 0.0000 0.0000 0.0000 0.0000 37.0253
#
#
#
# Elastic Compliance Matrix: (Units=1/GPa)
#
#
# Indices 1 2 3 4 5 6 
#
# 1 0.036663 -0.005488 -0.007948 0.000000 0.000000 0.000000
# 2 -0.005488 0.009514 -0.006903 0.000000 0.000000 0.000000
# 3 -0.007948 -0.006903 0.017827 0.000000 0.000000 0.000000
# 4 0.000000 0.000000 0.000000 0.060892 0.000000 0.000000
# 5 0.000000 0.000000 0.000000 0.000000 0.038633 0.000000
# 6 0.000000 0.000000 0.000000 0.000000 0.000000 0.027009
#
#
# Mechanical properties :
#
#
# Convention : Reuss Voigt Hill
#
# Bulk Modulus (GPa) = 42.87202 87.75975 65.31589
# Shear Modulus (GPa) = 20.92131 27.29515 24.10823
#
# Velocity S-wave (km/s) = 3.35657 3.83393 3.60317
# Velocity P-wave (km/s) = 6.17330 8.17675 7.24462
#
# Compressibility (1/GPa) = 0.02332524
#
# Stress axis : x y z
#
# Youngs Moduli (GPa) = 27.27563 105.11173 56.09339
#
# Poissons Ratio (x) = 0.57682 0.44584
# Poissons Ratio (y) = 0.14968 0.38724
# Poissons Ratio (z) = 0.21679 0.72563
#
# Static dielectric constant tensor:
#      x y z
#    x 3.272790 0.000000 0.000000 
#    y 0.000000 3.536320 0.000000 
#    z 0.000000 0.000000 3.434320 
# 
# 
# High freq. dielectric constant tensor:
#      x y z
#    x 1.708560 0.000000 0.000000 
#    y 0.000000 1.740280 0.000000 
#    z 0.000000 0.000000 1.717870 
# 
# From -- ./inp_files/17142.got.cif
#   From: 2010.03.12/outbox.cif.g09.slc.cpg/sg35_9_cif.got.tgz:17142.got - 2010.04.14 02:02:04.
