data_PCOD8173267
_publ_section_title
;
Structure prediction by ZEFSAII (Michael W. Deem and Ramdas Pophale) SiO2 
 PCOD8173267
Probable space group: C M M 2
;
_chemical_formula_sum "Si O2"
_cell_formula_units_Z 56
_cell_length_a 19.243800
_cell_length_b 8.897314
_cell_length_c 17.513123
_cell_angle_alpha 90.000000
_cell_angle_beta 90.000000
_cell_angle_gamma 90.000000
_cell_volume 2998.564191
_symmetry_space_group_name_H-M "C M M 2"
_symmetry_group_IT_number 35
_symmetry_cell_setting 'orthorhombic'
loop_
_space_group_symop_operation_xyz
x,y,z
-x,-y,z
-x,y,z
x,-y,z
1/2+x,1/2+y,z
1/2-x,1/2-y,z
1/2-x,1/2+y,z
1/2+x,1/2-y,z
loop_
_atom_site_type_symbol
_atom_site_label
_atom_site_fract_x
_atom_site_fract_y
_atom_site_fract_z
Si Si1 0.079776 0.174460 0.986010
Si Si2 0.177142 0.677450 0.282976
Si Si3 0.579922 0.824828 0.422993
Si Si4 0.178803 0.823886 0.539413
Si Si5 0.918287 0.672598 0.832128
Si Si6 0.322857 0.678228 0.124575
Si Si7 0.820840 0.176144 0.714886
O O1 0.108385 0.266223 0.913520
O O2 0.000000 0.214342 0.002777
O O3 0.090036 0.000000 0.967156
O O4 0.121906 0.223437 0.060488
O O5 0.187502 0.500000 0.272283
O O6 0.250000 0.750000 0.309138
O O7 0.118959 0.716751 0.344961
O O8 0.151408 0.750489 0.203980
O O9 0.500000 0.775823 0.414253
O O10 0.612979 0.734579 0.492814
O O11 0.587028 0.000000 0.441524
O O12 0.250000 0.750000 0.508761
O O13 0.165809 0.779046 0.627148
O O14 0.186490 0.000000 0.527876
O O15 0.896585 0.500000 0.825220
O O16 0.884978 0.764012 0.763239
O O17 0.000000 0.697664 0.825148
O O18 0.315108 0.500000 0.133961
O O19 0.250000 0.750000 0.099941
O O20 0.750000 0.250000 0.745266
O O21 0.814144 0.000000 0.725776
#
# Coordination Sequence:
#
# PCOD8173267 Si02
#       7
#     8   8   8   8   8   8   8
#     4   9  19  36  55  75 103 140 179 218 263 314
#     4  10  20  35  55  77 104 139 177 216 262 316
#     4  10  22  38  55  79 111 144 178 219 267 316
#     4  10  21  37  58  82 107 140 180 220 266 319
#     4  10  21  36  55  80 109 143 182 220 263 318
#     4  10  20  34  54  79 105 135 173 217 265 315
#     4  10  21  37  57  81 109 140 177 222 269 317
#
# _framework density 18.675605999999998
#
# number of rings (size 3 to 8) (size 9 to 14) (size 15 to 20)
#    0.000    2.143    0.000    3.429    0.000    8.000 
#    0.000    4.286    0.000    0.000    0.000    0.000 
#    0.000    0.000    0.000    0.000    0.000    0.000 
#
# Total GULP energy -347319.720351 kJ/mol
# GULP energy per Si atom -12404.275727 kJ/mol
# Density = 1.863310 g / cm^3
# Si number density = 18.675606 Si / 1000 Ang^3
#
#
#
# Elastic Constant Matrix: (Units=GPa)
#
#
# Indices 1 2 3 4 5 6 
#
# 1 106.0160 49.3544 77.5412 0.0000 0.0000 0.0000
# 2 49.3544 89.0014 60.2451 0.0000 0.0000 0.0000
# 3 77.5412 60.2451 120.6678 0.0000 0.0000 0.0000
# 4 0.0000 0.0000 0.0000 33.2949 0.0000 0.0000
# 5 0.0000 0.0000 0.0000 0.0000 36.4828 0.0000
# 6 0.0000 0.0000 0.0000 0.0000 0.0000 30.9413
#
#
#
# Elastic Compliance Matrix: (Units=1/GPa)
#
#
# Indices 1 2 3 4 5 6 
#
# 1 0.018428 -0.003328 -0.010180 0.000000 0.000000 0.000000
# 2 -0.003328 0.017572 -0.006635 0.000000 0.000000 0.000000
# 3 -0.010180 -0.006635 0.018141 0.000000 0.000000 0.000000
# 4 0.000000 0.000000 0.000000 0.030035 0.000000 0.000000
# 5 0.000000 0.000000 0.000000 0.000000 0.027410 0.000000
# 6 0.000000 0.000000 0.000000 0.000000 0.000000 0.032319
#
#
# Mechanical properties :
#
#
# Convention : Reuss Voigt Hill
#
# Bulk Modulus (GPa) = 72.17122 76.66297 74.41709
# Shear Modulus (GPa) = 26.48175 28.71346 27.59760
#
# Velocity S-wave (km/s) = 3.76970 3.92533 3.84830
# Velocity P-wave (km/s) = 7.59448 7.85387 7.72526
#
# Compressibility (1/GPa) = 0.01385594
#
# Stress axis : x y z
#
# Youngs Moduli (GPa) = 54.26635 56.90802 55.12236
#
# Poissons Ratio (x) = 0.18938 0.56115
# Poissons Ratio (y) = 0.18059 0.36572
# Poissons Ratio (z) = 0.55244 0.37757
#
# Static dielectric constant tensor:
#      x y z
#    x 3.404590 0.000000 0.000000 
#    y 0.000000 3.510850 0.000000 
#    z 0.000000 0.000000 3.502720 
# 
# 
# High freq. dielectric constant tensor:
#      x y z
#    x 1.721200 0.000000 0.000000 
#    y 0.000000 1.735420 0.000000 
#    z 0.000000 0.000000 1.732470 
# 
# From -- ./inp_files/15642.got.cif
#   From: 2010.03.12/outbox.cif.g09.slc.cpg/sg35_8_cif.got.tgz:15642.got - 2010.04.14 02:02:04.
