data_PCOD8173439
_publ_section_title
;
Structure prediction by ZEFSAII (Michael W. Deem and Ramdas Pophale) SiO2 
 PCOD8173439
Probable space group: C M M 2
;
_chemical_formula_sum "Si O2"
_cell_formula_units_Z 40
_cell_length_a 14.906062
_cell_length_b 17.402134
_cell_length_c 7.537920
_cell_angle_alpha 90.000000
_cell_angle_beta 90.000000
_cell_angle_gamma 90.000000
_cell_volume 1955.316008
_symmetry_space_group_name_H-M "C M M 2"
_symmetry_group_IT_number 35
_symmetry_cell_setting 'orthorhombic'
loop_
_space_group_symop_operation_xyz
x,y,z
-x,-y,z
-x,y,z
x,-y,z
1/2+x,1/2+y,z
1/2-x,1/2-y,z
1/2-x,1/2+y,z
1/2+x,1/2-y,z
loop_
_atom_site_type_symbol
_atom_site_label
_atom_site_fract_x
_atom_site_fract_y
_atom_site_fract_z
Si Si1 0.398888 0.801959 0.850960
Si Si2 0.731327 0.913424 0.695244
Si Si3 0.353512 0.241640 0.215797
Si Si4 0.401095 0.677492 0.563263
Si Si5 0.100436 0.416111 0.367315
O O1 0.500000 0.836634 0.865583
O O2 0.319239 0.865845 0.851233
O O3 0.387704 0.756919 0.667017
O O4 0.381736 0.741161 0.012502
O O5 0.827415 0.882110 0.631293
O O6 0.666668 0.909181 0.529446
O O7 0.745839 0.000000 0.764263
O O8 0.250000 0.250000 0.251610
O O9 0.398571 0.300399 0.354238
O O10 0.382407 0.152378 0.230826
O O11 0.500000 0.642284 0.600994
O O12 0.113375 0.500000 0.273902
O O13 0.000000 0.408854 0.443989
#
# Coordination Sequence:
#
# PCOD8173439 Si02
#       5
#     8   8   8   8   8
#     4  11  23  38  61  92 120 154 200 249 306 365
#     4  11  22  39  60  86 121 160 201 248 306 366
#     4  12  21  37  62  89 123 159 201 247 301 362
#     4  11  22  40  61  86 121 157 203 255 297 354
#     4  10  20  35  56  83 117 154 191 240 301 359
#
# _framework density 20.457052000000001
#
# number of rings (size 3 to 8) (size 9 to 14) (size 15 to 20)
#    0.000    1.000    4.000    4.200    0.000    2.400 
#    0.000    0.000    0.000    0.000    0.000    2.800 
#    0.000    0.000    0.000    0.000    0.000    0.000 
#
# Total GULP energy -247896.100655 kJ/mol
# GULP energy per Si atom -12394.805033 kJ/mol
# Density = 2.041049 g / cm^3
# Si number density = 20.457052 Si / 1000 Ang^3
#
#
#
# Elastic Constant Matrix: (Units=GPa)
#
#
# Indices 1 2 3 4 5 6 
#
# 1 170.2920 59.0376 26.0447 0.0000 0.0000 0.0000
# 2 59.0376 79.6487 15.0923 0.0000 0.0000 0.0000
# 3 26.0447 15.0923 81.3469 0.0000 0.0000 0.0000
# 4 0.0000 0.0000 0.0000 39.5031 0.0000 0.0000
# 5 0.0000 0.0000 0.0000 0.0000 25.8897 0.0000
# 6 0.0000 0.0000 0.0000 0.0000 0.0000 30.7114
#
#
#
# Elastic Compliance Matrix: (Units=1/GPa)
#
#
# Indices 1 2 3 4 5 6 
#
# 1 0.008083 -0.005701 -0.001530 0.000000 0.000000 0.000000
# 2 -0.005701 0.017034 -0.001335 0.000000 0.000000 0.000000
# 3 -0.001530 -0.001335 0.013031 0.000000 0.000000 0.000000
# 4 0.000000 0.000000 0.000000 0.025314 0.000000 0.000000
# 5 0.000000 0.000000 0.000000 0.000000 0.038625 0.000000
# 6 0.000000 0.000000 0.000000 0.000000 0.000000 0.032561
#
#
# Mechanical properties :
#
#
# Convention : Reuss Voigt Hill
#
# Bulk Modulus (GPa) = 47.58559 59.07077 53.32818
# Shear Modulus (GPa) = 31.48892 34.62838 33.05865
#
# Velocity S-wave (km/s) = 3.92761 4.11875 4.02431
# Velocity P-wave (km/s) = 6.62419 7.18032 6.90785
#
# Compressibility (1/GPa) = 0.02101476
#
# Stress axis : x y z
#
# Youngs Moduli (GPa) = 123.71924 58.70611 76.74249
#
# Poissons Ratio (x) = 0.33470 0.11742
# Poissons Ratio (y) = 0.70535 0.10245
# Poissons Ratio (z) = 0.18930 0.07837
#
# Static dielectric constant tensor:
#      x y z
#    x 4.031280 0.000000 0.000000 
#    y 0.000000 3.742780 0.000000 
#    z 0.000000 0.000000 3.626400 
# 
# 
# High freq. dielectric constant tensor:
#      x y z
#    x 1.820370 0.000000 0.000000 
#    y 0.000000 1.770810 0.000000 
#    z 0.000000 0.000000 1.791800 
# 
# From -- ./inp_files/7003.got.cif
#   From: 2010.03.12/outbox.cif.g09.slc.cpg/sg35_4_cif.got.tgz:7003.got - 2010.04.14 02:02:04.
