data_PCOD8173721
_publ_section_title
;
Structure prediction by ZEFSAII (Michael W. Deem and Ramdas Pophale) SiO2 
 PCOD8173721
Probable space group: C M M 2
;
_chemical_formula_sum "Si O2"
_cell_formula_units_Z 38
_cell_length_a 15.319745
_cell_length_b 10.733401
_cell_length_c 11.306769
_cell_angle_alpha 90.000000
_cell_angle_beta 90.000000
_cell_angle_gamma 90.000000
_cell_volume 1859.205566
_symmetry_space_group_name_H-M "C M M 2"
_symmetry_group_IT_number 35
_symmetry_cell_setting 'orthorhombic'
loop_
_space_group_symop_operation_xyz
x,y,z
-x,-y,z
-x,y,z
x,-y,z
1/2+x,1/2+y,z
1/2-x,1/2-y,z
1/2-x,1/2+y,z
1/2+x,1/2-y,z
loop_
_atom_site_type_symbol
_atom_site_label
_atom_site_fract_x
_atom_site_fract_y
_atom_site_fract_z
Si Si1 0.350213 0.247772 0.522360
Si Si2 0.406306 0.000000 0.632638
Si Si3 0.821903 0.145091 0.031948
Si Si4 0.899823 0.858045 0.283185
Si Si5 0.000000 0.138086 0.666250
Si Si6 0.000000 0.767207 0.918046
Si Si7 0.500000 0.000000 0.862081
O O1 0.250000 0.250000 0.550244
O O2 0.360860 0.115826 0.578330
O O3 0.369281 0.261037 0.382987
O O4 0.412820 0.346144 0.588179
O O5 0.500000 0.000000 0.572816
O O6 0.413394 0.000000 0.777005
O O7 0.750000 0.250000 0.992323
O O8 0.839291 0.165049 0.170271
O O9 0.791682 0.000000 0.008066
O O10 0.912899 0.165569 0.963532
O O11 0.000000 0.831869 0.247529
O O12 0.888732 0.000000 0.329305
O O13 0.000000 0.233601 0.774827
O O14 0.000000 0.000000 0.719265
O O15 0.000000 0.619882 0.949234
#
# Coordination Sequence:
#
# PCOD8173721 Si02
#       7
#     8   4   8   8   4   4   2
#     4  12  24  39  65 100 129 173 215 267 331 389
#     4  10  20  46  61  85 138 175 201 273 334 387
#     4  11  25  46  71 102 134 174 225 279 338 400
#     4  10  20  41  68  95 132 172 214 269 326 390
#     4  12  24  43  64  94 129 169 229 266 320 404
#     4  12  24  47  70  94 132 182 224 280 336 395
#     4  10  22  46  68  88 138 180 220 282 344 382
#
# _framework density 20.438838000000001
#
# number of rings (size 3 to 8) (size 9 to 14) (size 15 to 20)
#    0.316    0.632    5.263    2.211    4.421    0.842 
#    1.895    0.000    0.000    0.000    0.000    0.000 
#    0.000    0.000    0.000    0.000    0.000    0.000 
#
# Total GULP energy -235390.287443 kJ/mol
# GULP energy per Si atom -12388.962497 kJ/mol
# Density = 2.039232 g / cm^3
# Si number density = 20.438838 Si / 1000 Ang^3
#
#
#
# Elastic Constant Matrix: (Units=GPa)
#
#
# Indices 1 2 3 4 5 6 
#
# 1 146.1662 32.9507 20.6885 0.0000 0.0000 0.0000
# 2 32.9507 100.8664 7.3749 0.0000 0.0000 0.0000
# 3 20.6885 7.3749 70.2979 0.0000 0.0000 0.0000
# 4 0.0000 0.0000 0.0000 37.1922 0.0000 0.0000
# 5 0.0000 0.0000 0.0000 0.0000 9.4105 0.0000
# 6 0.0000 0.0000 0.0000 0.0000 0.0000 30.5937
#
#
#
# Elastic Compliance Matrix: (Units=1/GPa)
#
#
# Indices 1 2 3 4 5 6 
#
# 1 0.007656 -0.002354 -0.002006 0.000000 0.000000 0.000000
# 2 -0.002354 0.010715 -0.000431 0.000000 0.000000 0.000000
# 3 -0.002006 -0.000431 0.014861 0.000000 0.000000 0.000000
# 4 0.000000 0.000000 0.000000 0.026887 0.000000 0.000000
# 5 0.000000 0.000000 0.000000 0.000000 0.106264 0.000000
# 6 0.000000 0.000000 0.000000 0.000000 0.000000 0.032686
#
#
# Mechanical properties :
#
#
# Convention : Reuss Voigt Hill
#
# Bulk Modulus (GPa) = 42.28650 48.81762 45.55206
# Shear Modulus (GPa) = 23.09083 32.52705 27.80894
#
# Velocity S-wave (km/s) = 3.36483 3.99361 3.69262
# Velocity P-wave (km/s) = 5.98584 6.72323 6.36522
#
# Compressibility (1/GPa) = 0.02364821
#
# Stress axis : x y z
#
# Youngs Moduli (GPa) = 130.61213 93.32913 67.29097
#
# Poissons Ratio (x) = 0.21974 0.13500
# Poissons Ratio (y) = 0.30752 0.02901
# Poissons Ratio (z) = 0.26204 0.04024
#
# Static dielectric constant tensor:
#      x y z
#    x 3.669470 0.000000 0.000000 
#    y 0.000000 3.649700 0.000000 
#    z 0.000000 0.000000 3.586980 
# 
# 
# High freq. dielectric constant tensor:
#      x y z
#    x 1.800740 0.000000 0.000000 
#    y 0.000000 1.806180 0.000000 
#    z 0.000000 0.000000 1.791850 
# 
# From -- ./inp_files/12781.got.cif
#   From: 2010.03.12/outbox.cif.g09.slc.cpg/sg35_7_cif.got.tgz:12781.got - 2010.04.14 02:02:04.
