data_PCOD8173692
_publ_section_title
;
Structure prediction by ZEFSAII (Michael W. Deem and Ramdas Pophale) SiO2 
 PCOD8173692
Probable space group: C M M 2
;
_chemical_formula_sum "Si O2"
_cell_formula_units_Z 32
_cell_length_a 18.915593
_cell_length_b 7.441638
_cell_length_c 12.064521
_cell_angle_alpha 90.000000
_cell_angle_beta 90.000000
_cell_angle_gamma 90.000000
_cell_volume 1698.238117
_symmetry_space_group_name_H-M "C M M 2"
_symmetry_group_IT_number 35
_symmetry_cell_setting 'orthorhombic'
loop_
_space_group_symop_operation_xyz
x,y,z
-x,-y,z
-x,y,z
x,-y,z
1/2+x,1/2+y,z
1/2-x,1/2-y,z
1/2-x,1/2+y,z
1/2+x,1/2-y,z
loop_
_atom_site_type_symbol
_atom_site_label
_atom_site_fract_x
_atom_site_fract_y
_atom_site_fract_z
Si Si1 0.084617 0.500000 0.833451
Si Si2 0.916440 0.500000 0.582670
Si Si3 0.330056 0.711213 0.962666
Si Si4 0.328129 0.291579 0.210826
Si Si5 0.583041 0.705605 0.413646
O O1 0.112638 0.500000 0.707054
O O2 0.114644 0.680959 0.888036
O O3 0.000000 0.500000 0.843090
O O4 0.890155 0.678084 0.518017
O O5 0.000000 0.500000 0.586988
O O6 0.347108 0.500000 0.952246
O O7 0.250000 0.750000 0.923252
O O8 0.339511 0.789017 0.087918
O O9 0.341610 0.500000 0.199321
O O10 0.250000 0.250000 0.254758
O O11 0.382289 0.213780 0.301518
O O12 0.500000 0.723575 0.396527
O O13 0.606227 0.500000 0.435583
#
# Coordination Sequence:
#
# PCOD8173692 Si02
#       5
#     4   4   8   8   8
#     4  11  24  39  59  89 116 149 207 252 277 336
#     4   9  20  37  55  77 109 149 187 230 282 328
#     4  10  20  38  62  84 116 159 191 231 297 355
#     4   9  19  32  54  83 110 142 179 223 280 345
#     4   9  18  34  55  78 108 144 180 223 277 336
#
# _framework density 18.843059
#
# number of rings (size 3 to 8) (size 9 to 14) (size 15 to 20)
#    0.000    2.500    1.250    0.000    3.500    2.500 
#    0.000    7.500    0.000    0.000    0.000    0.000 
#    0.000    0.000    0.000    0.000    0.000    0.000 
#
# Total GULP energy -198347.943019 kJ/mol
# GULP energy per Si atom -12396.746439 kJ/mol
# Density = 1.880017 g / cm^3
# Si number density = 18.843059 Si / 1000 Ang^3
#
#
#
# Elastic Constant Matrix: (Units=GPa)
#
#
# Indices 1 2 3 4 5 6 
#
# 1 76.6816 38.3803 63.5796 0.0000 0.0000 0.0000
# 2 38.3803 102.4653 60.0504 0.0000 0.0000 0.0000
# 3 63.5796 60.0504 147.6760 0.0000 0.0000 0.0000
# 4 0.0000 0.0000 0.0000 30.6739 0.0000 0.0000
# 5 0.0000 0.0000 0.0000 0.0000 16.9889 0.0000
# 6 0.0000 0.0000 0.0000 0.0000 0.0000 23.9704
#
#
#
# Elastic Compliance Matrix: (Units=1/GPa)
#
#
# Indices 1 2 3 4 5 6 
#
# 1 0.021143 -0.003393 -0.007723 0.000000 0.000000 0.000000
# 2 -0.003393 0.013357 -0.003971 0.000000 0.000000 0.000000
# 3 -0.007723 -0.003971 0.011711 0.000000 0.000000 0.000000
# 4 0.000000 0.000000 0.000000 0.032601 0.000000 0.000000
# 5 0.000000 0.000000 0.000000 0.000000 0.058862 0.000000
# 6 0.000000 0.000000 0.000000 0.000000 0.000000 0.041718
#
#
# Mechanical properties :
#
#
# Convention : Reuss Voigt Hill
#
# Bulk Modulus (GPa) = 62.35353 72.31595 67.33474
# Shear Modulus (GPa) = 23.26536 25.31414 24.28975
#
# Velocity S-wave (km/s) = 3.51763 3.66925 3.59424
# Velocity P-wave (km/s) = 7.04706 7.51083 7.28264
#
# Compressibility (1/GPa) = 0.01603758
#
# Stress axis : x y z
#
# Youngs Moduli (GPa) = 47.29786 74.86437 85.38905
#
# Poissons Ratio (x) = 0.25405 0.65944
# Poissons Ratio (y) = 0.16050 0.33905
# Poissons Ratio (z) = 0.36527 0.29726
#
# Static dielectric constant tensor:
#      x y z
#    x 3.283380 0.000000 0.000000 
#    y 0.000000 3.562480 0.000000 
#    z 0.000000 0.000000 3.826670 
# 
# 
# High freq. dielectric constant tensor:
#      x y z
#    x 1.712430 0.000000 0.000000 
#    y 0.000000 1.741010 0.000000 
#    z 0.000000 0.000000 1.729670 
# 
# From -- ./inp_files/10875.got.cif
#   From: 2010.03.12/outbox.cif.g09.slc.cpg/sg35_6_cif.got.tgz:10875.got - 2010.04.14 02:02:04.
