data_PCOD8173294
_publ_section_title
;
Structure prediction by ZEFSAII (Michael W. Deem and Ramdas Pophale) SiO2 
 PCOD8173294
Probable space group: C M M 2
;
_chemical_formula_sum "Si O2"
_cell_formula_units_Z 46
_cell_length_a 7.669068
_cell_length_b 24.759487
_cell_length_c 13.356001
_cell_angle_alpha 90.000000
_cell_angle_beta 90.000000
_cell_angle_gamma 90.000000
_cell_volume 2536.066712
_symmetry_space_group_name_H-M "C M M 2"
_symmetry_group_IT_number 35
_symmetry_cell_setting 'orthorhombic'
loop_
_space_group_symop_operation_xyz
x,y,z
-x,-y,z
-x,y,z
x,-y,z
1/2+x,1/2+y,z
1/2-x,1/2-y,z
1/2-x,1/2+y,z
1/2+x,1/2-y,z
loop_
_atom_site_type_symbol
_atom_site_label
_atom_site_fract_x
_atom_site_fract_y
_atom_site_fract_z
Si Si1 0.308449 0.000000 0.988821
Si Si2 0.195521 0.437953 0.634514
Si Si3 0.799727 0.192121 0.982669
Si Si4 0.804071 0.311432 0.201664
Si Si5 0.297244 0.406126 0.846908
Si Si6 0.500000 0.563662 0.488039
Si Si7 0.500000 0.500000 0.145996
Si Si8 0.000000 0.110810 0.271300
O O1 0.294911 0.948479 0.918272
O O2 0.500000 0.000000 0.038867
O O3 0.170438 0.000000 0.077625
O O4 0.234094 0.500000 0.662039
O O5 0.218190 0.404484 0.736170
O O6 0.328986 0.418527 0.549762
O O7 0.000000 0.429815 0.592794
O O8 0.750000 0.250000 0.938074
O O9 0.757457 0.151941 0.893119
O O10 0.000000 0.188723 0.016617
O O11 0.690061 0.179781 0.082170
O O12 0.750000 0.250000 0.227953
O O13 0.672859 0.354555 0.249700
O O14 0.000000 0.322125 0.242397
O O15 0.500000 0.420589 0.841483
O O16 0.500000 0.500000 0.464216
O O17 0.500000 0.597681 0.387757
O O18 0.500000 0.554602 0.210608
#
# Coordination Sequence:
#
# PCOD8173294 Si02
#       8
#     4   8   8   8   8   4   2   4
#     4  12  24  36  55  85 124 165 201 234 289 360
#     4  10  20  35  58  86 114 149 200 245 287 354
#     4  10  20  34  54  84 120 158 195 234 283 347
#     4  11  21  39  65  91 118 159 212 256 294 354
#     4  11  20  34  56  85 118 158 196 238 288 350
#     4  10  22  41  62  84 118 157 193 248 313 365
#     4  12  26  40  54  86 136 170 190 244 322 382
#     4  12  24  42  63  92 121 157 208 259 316 368
#
# _framework density 18.138324999999998
#
# number of rings (size 3 to 8) (size 9 to 14) (size 15 to 20)
#    0.000    1.217    4.783    3.130    0.000    5.565 
#    0.000    0.000    0.000    1.043    0.000    0.000 
#    0.000    0.000    0.000    0.000    0.000    0.000 
#
# Total GULP energy -285239.587764 kJ/mol
# GULP energy per Si atom -12401.721207 kJ/mol
# Density = 1.809704 g / cm^3
# Si number density = 18.138325 Si / 1000 Ang^3
#
#
#
# Elastic Constant Matrix: (Units=GPa)
#
#
# Indices 1 2 3 4 5 6 
#
# 1 151.4764 57.8627 58.8399 0.0000 0.0000 0.0000
# 2 57.8627 104.2554 63.8912 0.0000 0.0000 0.0000
# 3 58.8399 63.8912 122.3156 0.0000 0.0000 0.0000
# 4 0.0000 0.0000 0.0000 14.5216 0.0000 0.0000
# 5 0.0000 0.0000 0.0000 0.0000 2.0850 0.0000
# 6 0.0000 0.0000 0.0000 0.0000 0.0000 58.7838
#
#
#
# Elastic Compliance Matrix: (Units=1/GPa)
#
#
# Indices 1 2 3 4 5 6 
#
# 1 0.008866 -0.003393 -0.002493 0.000000 0.000000 0.000000
# 2 -0.003393 0.015407 -0.006415 0.000000 0.000000 0.000000
# 3 -0.002493 -0.006415 0.012726 0.000000 0.000000 0.000000
# 4 0.000000 0.000000 0.000000 0.068863 0.000000 0.000000
# 5 0.000000 0.000000 0.000000 0.000000 0.479615 0.000000
# 6 0.000000 0.000000 0.000000 0.000000 0.000000 0.017011
#
#
# Mechanical properties :
#
#
# Convention : Reuss Voigt Hill
#
# Bulk Modulus (GPa) = 80.67031 82.13723 81.40377
# Shear Modulus (GPa) = 7.92114 28.24166 18.08140
#
# Velocity S-wave (km/s) = 2.09202 3.95019 3.16074
# Velocity P-wave (km/s) = 7.09979 8.13556 7.63526
#
# Compressibility (1/GPa) = 0.01239613
#
# Stress axis : x y z
#
# Youngs Moduli (GPa) = 112.78923 64.90728 78.58154
#
# Poissons Ratio (x) = 0.22024 0.19587
# Poissons Ratio (y) = 0.38272 0.50412
# Poissons Ratio (z) = 0.28114 0.41640
#
# Static dielectric constant tensor:
#      x y z
#    x 3.586760 0.000000 0.000000 
#    y 0.000000 3.373490 0.000000 
#    z 0.000000 0.000000 3.126710 
# 
# 
# High freq. dielectric constant tensor:
#      x y z
#    x 1.723590 0.000000 0.000000 
#    y 0.000000 1.694350 0.000000 
#    z 0.000000 0.000000 1.679030 
# 
# From -- ./inp_files/11439.got.cif
#   From: 2010.03.12/outbox.cif.g09.slc.cpg/sg35_6_cif.got.tgz:11439.got - 2010.04.14 02:02:04.
