data_PCOD8173027
_publ_section_title
;
Structure prediction by ZEFSAII (Michael W. Deem and Ramdas Pophale) SiO2 
 PCOD8173027
Probable space group: C M M 2
;
_chemical_formula_sum "Si O2"
_cell_formula_units_Z 36
_cell_length_a 13.090663
_cell_length_b 13.635162
_cell_length_c 11.343642
_cell_angle_alpha 90.000000
_cell_angle_beta 90.000000
_cell_angle_gamma 90.000000
_cell_volume 2024.764216
_symmetry_space_group_name_H-M "C M M 2"
_symmetry_group_IT_number 35
_symmetry_cell_setting 'orthorhombic'
loop_
_space_group_symop_operation_xyz
x,y,z
-x,-y,z
-x,y,z
x,-y,z
1/2+x,1/2+y,z
1/2-x,1/2-y,z
1/2-x,1/2+y,z
1/2+x,1/2-y,z
loop_
_atom_site_type_symbol
_atom_site_label
_atom_site_fract_x
_atom_site_fract_y
_atom_site_fract_z
Si Si1 0.207317 0.113509 0.021000
Si Si2 0.382831 0.209070 0.897931
Si Si3 0.618712 0.614843 0.521522
Si Si4 0.612102 0.615587 0.260391
Si Si5 0.250000 0.750000 0.687307
O O1 0.191368 0.144264 0.157709
O O2 0.180810 0.000000 0.998904
O O3 0.324795 0.137471 0.989790
O O4 0.132499 0.177800 0.938258
O O5 0.500000 0.178476 0.895151
O O6 0.334122 0.195299 0.768513
O O7 0.500000 0.638451 0.549404
O O8 0.640035 0.500000 0.535916
O O9 0.646654 0.653003 0.389409
O O10 0.693330 0.669491 0.609949
O O11 0.500000 0.658989 0.228089
O O12 0.601755 0.500000 0.270545
#
# Coordination Sequence:
#
# PCOD8173027 Si02
#       5
#     8   8   8   8   4
#     4   9  18  33  53  74  97 127 159 196 244 292
#     4  10  22  35  47  71 101 128 166 206 237 280
#     4   9  18  33  53  75  98 126 160 198 241 289
#     4   8  14  27  50  78 101 121 153 197 242 289
#     4  10  20  32  50  72  98 128 166 206 238 276
#
# _framework density 17.779848000000001
#
# number of rings (size 3 to 8) (size 9 to 14) (size 15 to 20)
#    0.000    3.111    0.000    2.667    0.000    7.111 
#    0.000    0.000    0.000    3.333    0.000    6.222 
#    0.000    0.000    0.000    0.000    0.000    0.000 
#
# Total GULP energy -223068.238616 kJ/mol
# GULP energy per Si atom -12392.679923 kJ/mol
# Density = 1.773938 g / cm^3
# Si number density = 17.779848 Si / 1000 Ang^3
#
#
#
# Elastic Constant Matrix: (Units=GPa)
#
#
# Indices 1 2 3 4 5 6 
#
# 1 125.1073 20.8244 82.0611 0.0000 0.0000 0.0000
# 2 20.8244 59.9008 43.6332 0.0000 0.0000 0.0000
# 3 82.0611 43.6332 149.3869 0.0000 0.0000 0.0000
# 4 0.0000 0.0000 0.0000 27.8481 0.0000 0.0000
# 5 0.0000 0.0000 0.0000 0.0000 30.6163 0.0000
# 6 0.0000 0.0000 0.0000 0.0000 0.0000 24.3315
#
#
#
# Elastic Compliance Matrix: (Units=1/GPa)
#
#
# Indices 1 2 3 4 5 6 
#
# 1 0.012528 0.000835 -0.007126 0.000000 0.000000 0.000000
# 2 0.000835 0.021262 -0.006669 0.000000 0.000000 0.000000
# 3 -0.007126 -0.006669 0.012556 0.000000 0.000000 0.000000
# 4 0.000000 0.000000 0.000000 0.035909 0.000000 0.000000
# 5 0.000000 0.000000 0.000000 0.000000 0.032662 0.000000
# 6 0.000000 0.000000 0.000000 0.000000 0.000000 0.041099
#
#
# Mechanical properties :
#
#
# Convention : Reuss Voigt Hill
#
# Bulk Modulus (GPa) = 48.95486 69.71471 59.33478
# Shear Modulus (GPa) = 26.49074 29.08425 27.78750
#
# Velocity S-wave (km/s) = 3.86415 4.04889 3.95760
# Velocity P-wave (km/s) = 6.89221 7.82004 7.37074
#
# Compressibility (1/GPa) = 0.02042698
#
# Stress axis : x y z
#
# Youngs Moduli (GPa) = 79.81991 47.03276 79.64087
#
# Poissons Ratio (x) = -0.03929 0.56752
# Poissons Ratio (y) = -0.06668 0.53113
# Poissons Ratio (z) = 0.56879 0.31366
#
# Static dielectric constant tensor:
#      x y z
#    x 3.218390 0.000000 0.000000 
#    y 0.000000 3.035920 0.000000 
#    z 0.000000 0.000000 3.613910 
# 
# 
# High freq. dielectric constant tensor:
#      x y z
#    x 1.676240 0.000000 0.000000 
#    y 0.000000 1.659060 0.000000 
#    z 0.000000 0.000000 1.701920 
# 
# From -- ./inp_files/6897.got.cif
#   From: 2010.03.12/outbox.cif.g09.slc.cpg/sg35_4_cif.got.tgz:6897.got - 2010.04.14 02:02:04.
