data_PCOD8173283
_publ_section_title
;
Structure prediction by ZEFSAII (Michael W. Deem and Ramdas Pophale) SiO2 
 PCOD8173283
Probable space group: C M M 2
;
_chemical_formula_sum "Si O2"
_cell_formula_units_Z 64
_cell_length_a 28.655824
_cell_length_b 9.256204
_cell_length_c 12.580017
_cell_angle_alpha 90.000000
_cell_angle_beta 90.000000
_cell_angle_gamma 90.000000
_cell_volume 3336.775951
_symmetry_space_group_name_H-M "C M M 2"
_symmetry_group_IT_number 35
_symmetry_cell_setting 'orthorhombic'
loop_
_space_group_symop_operation_xyz
x,y,z
-x,-y,z
-x,y,z
x,-y,z
1/2+x,1/2+y,z
1/2-x,1/2-y,z
1/2-x,1/2+y,z
1/2+x,1/2-y,z
loop_
_atom_site_type_symbol
_atom_site_label
_atom_site_fract_x
_atom_site_fract_y
_atom_site_fract_z
Si Si1 0.794978 0.663753 0.760060
Si Si2 0.051712 0.165717 0.074862
Si Si3 0.297432 0.830029 0.999358
Si Si4 0.645419 0.334407 0.167938
Si Si5 0.353457 0.166617 0.556896
Si Si6 0.051275 0.671638 0.641738
Si Si7 0.054751 0.341625 0.874646
Si Si8 0.298932 0.329424 0.377891
O O1 0.777990 0.500000 0.762448
O O2 0.750000 0.750000 0.720771
O O3 0.836766 0.687636 0.677953
O O4 0.811892 0.709347 0.878074
O O5 0.088960 0.186800 0.170841
O O6 0.000000 0.223438 0.109222
O O7 0.047686 0.000000 0.042542
O O8 0.072926 0.243423 0.970735
O O9 0.250000 0.750000 0.030831
O O10 0.336736 0.771624 0.077126
O O11 0.290820 0.000000 0.017074
O O12 0.658394 0.500000 0.140163
O O13 0.666926 0.291054 0.280870
O O14 0.408256 0.213774 0.557368
O O15 0.323998 0.271381 0.482834
O O16 0.347189 0.000000 0.520056
O O17 0.049151 0.500000 0.653869
O O18 0.064420 0.731380 0.759388
O O19 0.000000 0.729399 0.604124
O O20 0.079218 0.500000 0.883531
O O21 0.000000 0.361118 0.887948
O O22 0.290041 0.500000 0.389941
O O23 0.250000 0.250000 0.359778
#
# Coordination Sequence:
#
# PCOD8173283 Si02
#       8
#     8   8   8   8   8   8   8   8
#     4   9  19  33  50  76 108 139 171 214 268 326
#     4   9  18  33  52  76 109 147 184 221 265 318
#     4  10  20  34  54  80 111 142 175 218 271 331
#     4  10  22  38  56  79 108 143 184 226 272 325
#     4  10  20  35  57  82 110 143 184 225 270 324
#     4   8  15  29  51  79 112 149 185 220 262 315
#     4   8  14  26  47  75 107 144 182 219 259 306
#     4  11  24  42  61  81 106 137 181 232 281 330
#
# _framework density 19.180191000000001
#
# number of rings (size 3 to 8) (size 9 to 14) (size 15 to 20)
#    0.000    2.625    0.000    2.250    1.750    4.500 
#    0.000    1.250    0.000    1.875    0.000    0.000 
#    0.000    0.000    0.000    0.000    0.000    0.000 
#
# Total GULP energy -396607.294500 kJ/mol
# GULP energy per Si atom -12393.977953 kJ/mol
# Density = 1.913654 g / cm^3
# Si number density = 19.180191 Si / 1000 Ang^3
#
#
#
# Elastic Constant Matrix: (Units=GPa)
#
#
# Indices 1 2 3 4 5 6 
#
# 1 109.3922 41.4295 47.9703 0.0000 0.0000 0.0000
# 2 41.4295 65.0628 34.4041 0.0000 0.0000 0.0000
# 3 47.9703 34.4041 72.6542 0.0000 0.0000 0.0000
# 4 0.0000 0.0000 0.0000 23.7481 0.0000 0.0000
# 5 0.0000 0.0000 0.0000 0.0000 31.6744 0.0000
# 6 0.0000 0.0000 0.0000 0.0000 0.0000 18.3291
#
#
#
# Elastic Compliance Matrix: (Units=1/GPa)
#
#
# Indices 1 2 3 4 5 6 
#
# 1 0.014177 -0.005440 -0.006784 0.000000 0.000000 0.000000
# 2 -0.005440 0.022591 -0.007106 0.000000 0.000000 0.000000
# 3 -0.006784 -0.007106 0.021608 0.000000 0.000000 0.000000
# 4 0.000000 0.000000 0.000000 0.042109 0.000000 0.000000
# 5 0.000000 0.000000 0.000000 0.000000 0.031571 0.000000
# 6 0.000000 0.000000 0.000000 0.000000 0.000000 0.054558
#
#
# Mechanical properties :
#
#
# Convention : Reuss Voigt Hill
#
# Bulk Modulus (GPa) = 50.72077 54.96856 52.84466
# Shear Modulus (GPa) = 21.56607 22.97067 22.26837
#
# Velocity S-wave (km/s) = 3.35683 3.46443 3.41105
# Velocity P-wave (km/s) = 6.44408 6.68762 6.56698
#
# Compressibility (1/GPa) = 0.01971579
#
# Stress axis : x y z
#
# Youngs Moduli (GPa) = 70.53883 44.26528 46.27893
#
# Poissons Ratio (x) = 0.24079 0.31397
# Poissons Ratio (y) = 0.38371 0.32886
# Poissons Ratio (z) = 0.47856 0.31455
#
# Static dielectric constant tensor:
#      x y z
#    x 3.760530 0.000000 0.000000 
#    y 0.000000 3.494130 0.000000 
#    z 0.000000 0.000000 3.381290 
# 
# 
# High freq. dielectric constant tensor:
#      x y z
#    x 1.755550 0.000000 0.000000 
#    y 0.000000 1.727770 0.000000 
#    z 0.000000 0.000000 1.725310 
# 
# From -- ./inp_files/11987.got.cif
#   From: 2010.03.12/outbox.cif.g09.slc.cpg/sg35_6_cif.got.tgz:11987.got - 2010.04.14 02:02:04.
