data_PCOD8173248
_publ_section_title
;
Structure prediction by ZEFSAII (Michael W. Deem and Ramdas Pophale) SiO2 
 PCOD8173248
Probable space group: C M M 2
;
_chemical_formula_sum "Si O2"
_cell_formula_units_Z 64
_cell_length_a 9.097403
_cell_length_b 18.930947
_cell_length_c 20.438916
_cell_angle_alpha 90.000000
_cell_angle_beta 90.000000
_cell_angle_gamma 90.000000
_cell_volume 3520.040271
_symmetry_space_group_name_H-M "C M M 2"
_symmetry_group_IT_number 35
_symmetry_cell_setting 'orthorhombic'
loop_
_space_group_symop_operation_xyz
x,y,z
-x,-y,z
-x,y,z
x,-y,z
1/2+x,1/2+y,z
1/2-x,1/2-y,z
1/2-x,1/2+y,z
1/2+x,1/2-y,z
loop_
_atom_site_type_symbol
_atom_site_label
_atom_site_fract_x
_atom_site_fract_y
_atom_site_fract_z
Si Si1 0.668549 0.083806 0.078920
Si Si2 0.826327 0.823165 0.975922
Si Si3 0.173476 0.674621 0.460206
Si Si4 0.665718 0.416067 0.207086
Si Si5 0.673444 0.919243 0.581552
Si Si6 0.671576 0.918574 0.336609
Si Si7 0.828709 0.179144 0.827051
Si Si8 0.828381 0.919284 0.711476
O O1 0.500000 0.109263 0.076336
O O2 0.759501 0.114189 0.018475
O O3 0.740540 0.112730 0.145924
O O4 0.679879 0.000000 0.074688
O O5 0.750000 0.750000 0.996288
O O6 0.000000 0.817001 0.987844
O O7 0.787881 0.842686 0.900974
O O8 0.250000 0.750000 0.458636
O O9 0.228340 0.630423 0.522856
O O10 0.220333 0.629573 0.397062
O O11 0.000000 0.686203 0.462303
O O12 0.500000 0.386171 0.202835
O O13 0.665656 0.500000 0.205739
O O14 0.740051 0.389808 0.273993
O O15 0.500000 0.915639 0.589108
O O16 0.744970 0.889329 0.647993
O O17 0.724309 0.000000 0.567777
O O18 0.500000 0.911189 0.320910
O O19 0.710628 0.000000 0.352922
O O20 0.750000 0.250000 0.805241
O O21 0.774724 0.119161 0.777240
O O22 0.000000 0.193118 0.820796
O O23 0.000000 0.908349 0.699146
O O24 0.785389 0.000000 0.722427
#
# Coordination Sequence:
#
# PCOD8173248 Si02
#       8
#     8   8   8   8   8   8   8   8
#     4  10  20  34  53  78 107 137 171 213 258 304
#     4  10  20  35  54  75 102 137 175 214 257 307
#     4  10  21  35  51  73 102 133 164 203 249 296
#     4   9  17  30  50  77 105 131 164 208 255 302
#     4   9  18  34  54  74  97 129 169 207 244 291
#     4   9  17  32  54  75  96 128 168 206 247 297
#     4   9  19  34  52  73  99 133 169 206 249 300
#     4   9  18  33  52  75 102 130 163 205 251 296
#
# _framework density 18.181612000000001
#
# number of rings (size 3 to 8) (size 9 to 14) (size 15 to 20)
#    0.000    2.625    0.000    1.500    0.000    6.750 
#    0.000    4.375    0.000    6.750    0.000    0.000 
#    0.000    0.000    0.000    0.000    0.000    0.000 
#
# Total GULP energy -396832.103962 kJ/mol
# GULP energy per Si atom -12401.003249 kJ/mol
# Density = 1.814023 g / cm^3
# Si number density = 18.181612 Si / 1000 Ang^3
#
#
#
# Elastic Constant Matrix: (Units=GPa)
#
#
# Indices 1 2 3 4 5 6 
#
# 1 72.7426 38.9574 59.3038 0.0000 0.0000 0.0000
# 2 38.9574 75.5507 68.4956 0.0000 0.0000 0.0000
# 3 59.3038 68.4956 152.3692 0.0000 0.0000 0.0000
# 4 0.0000 0.0000 0.0000 11.2262 0.0000 0.0000
# 5 0.0000 0.0000 0.0000 0.0000 34.5492 0.0000
# 6 0.0000 0.0000 0.0000 0.0000 0.0000 29.3628
#
#
#
# Elastic Compliance Matrix: (Units=1/GPa)
#
#
# Indices 1 2 3 4 5 6 
#
# 1 0.021607 -0.005937 -0.005741 0.000000 0.000000 0.000000
# 2 -0.005937 0.023973 -0.008466 0.000000 0.000000 0.000000
# 3 -0.005741 -0.008466 0.012603 0.000000 0.000000 0.000000
# 4 0.000000 0.000000 0.000000 0.089078 0.000000 0.000000
# 5 0.000000 0.000000 0.000000 0.000000 0.028944 0.000000
# 6 0.000000 0.000000 0.000000 0.000000 0.000000 0.034057
#
#
# Mechanical properties :
#
#
# Convention : Reuss Voigt Hill
#
# Bulk Modulus (GPa) = 55.87950 70.46402 63.17176
# Shear Modulus (GPa) = 19.49213 23.95468 21.72340
#
# Velocity S-wave (km/s) = 3.27781 3.63371 3.46034
# Velocity P-wave (km/s) = 6.71761 7.51298 7.12640
#
# Compressibility (1/GPa) = 0.01789565
#
# Stress axis : x y z
#
# Youngs Moduli (GPa) = 46.28180 41.71386 79.34487
#
# Poissons Ratio (x) = 0.24764 0.45551
# Poissons Ratio (y) = 0.27476 0.67174
# Poissons Ratio (z) = 0.26570 0.35315
#
# Static dielectric constant tensor:
#      x y z
#    x 3.375680 0.000000 0.000000 
#    y 0.000000 3.227110 0.000000 
#    z 0.000000 0.000000 3.586060 
# 
# 
# High freq. dielectric constant tensor:
#      x y z
#    x 1.705040 0.000000 0.000000 
#    y 0.000000 1.683860 0.000000 
#    z 0.000000 0.000000 1.717160 
# 
# From -- ./inp_files/18304.got.cif
#   From: 2010.03.12/outbox.cif.g09.slc.cpg/sg35_10_cif.got.tgz:18304.got - 2010.04.14 02:02:04.
