data_PCOD8173946
_publ_section_title
;
Structure prediction by ZEFSAII (Michael W. Deem and Ramdas Pophale) SiO2 
 PCOD8173946
Probable space group: C M M 2
;
_chemical_formula_sum "Si O2"
_cell_formula_units_Z 48
_cell_length_a 8.694873
_cell_length_b 37.488512
_cell_length_c 7.474392
_cell_angle_alpha 90.000000
_cell_angle_beta 90.000000
_cell_angle_gamma 90.000000
_cell_volume 2436.336752
_symmetry_space_group_name_H-M "C M M 2"
_symmetry_group_IT_number 35
_symmetry_cell_setting 'orthorhombic'
loop_
_space_group_symop_operation_xyz
x,y,z
-x,-y,z
-x,y,z
x,-y,z
1/2+x,1/2+y,z
1/2-x,1/2-y,z
1/2-x,1/2+y,z
1/2+x,1/2-y,z
loop_
_atom_site_type_symbol
_atom_site_label
_atom_site_fract_x
_atom_site_fract_y
_atom_site_fract_z
Si Si1 0.823460 0.541170 0.397300
Si Si2 0.176537 0.541171 0.986014
Si Si3 0.680777 0.712583 0.397066
Si Si4 0.677494 0.412094 0.691661
Si Si5 0.819816 0.335992 0.691678
Si Si6 0.819222 0.787417 0.986293
O O1 0.781688 0.500000 0.429774
O O2 0.796715 0.551632 0.191657
O O3 0.711432 0.565005 0.515354
O O4 0.000000 0.548160 0.452416
O O5 0.218286 0.500000 0.953538
O O6 0.000000 0.548166 0.930897
O O7 0.288579 0.565002 0.867960
O O8 0.500000 0.714196 0.425531
O O9 0.750000 0.750000 0.463232
O O10 0.749227 0.680818 0.513126
O O11 0.725993 0.705165 0.191680
O O12 0.500000 0.400590 0.691655
O O13 0.784240 0.377611 0.691677
O O14 0.000000 0.329471 0.691669
O O15 0.749239 0.319182 0.870237
O O16 0.750000 0.750000 0.920131
O O17 0.000000 0.785807 0.957825
#
# Coordination Sequence:
#
# PCOD8173946 Si02
#       6
#     8   8   8   8   8   8
#     4   9  19  38  63  87 112 147 191 235 279 333
#     4   9  19  38  63  87 112 147 191 235 279 333
#     4  10  21  39  63  89 117 149 188 234 282 335
#     4  12  25  38  55  83 119 154 188 232 287 342
#     4  12  25  40  59  82 114 155 195 236 283 338
#     4  10  21  39  63  89 117 149 188 234 282 335
#
# _framework density 19.701711
#
# number of rings (size 3 to 8) (size 9 to 14) (size 15 to 20)
#    0.000    1.667    0.000    6.000    0.000    6.667 
#    0.000    1.667    0.000    0.000    0.000    0.000 
#    0.000    0.000    0.000    0.000    0.000    0.000 
#
# Total GULP energy -297742.477322 kJ/mol
# GULP energy per Si atom -12405.936555 kJ/mol
# Density = 1.965687 g / cm^3
# Si number density = 19.701711 Si / 1000 Ang^3
#
#
#
# Elastic Constant Matrix: (Units=GPa)
#
#
# Indices 1 2 3 4 5 6 
#
# 1 83.3621 25.6871 36.4718 0.0000 0.0000 0.0000
# 2 25.6871 96.6777 54.3109 0.0000 0.0000 0.0000
# 3 36.4718 54.3109 107.4396 0.0000 0.0000 0.0000
# 4 0.0000 0.0000 0.0000 80.9715 0.0000 0.0000
# 5 0.0000 0.0000 0.0000 0.0000 34.9313 0.0000
# 6 0.0000 0.0000 0.0000 0.0000 0.0000 35.8971
#
#
#
# Elastic Compliance Matrix: (Units=1/GPa)
#
#
# Indices 1 2 3 4 5 6 
#
# 1 0.014241 -0.001492 -0.004080 0.000000 0.000000 0.000000
# 2 -0.001492 0.014602 -0.006875 0.000000 0.000000 0.000000
# 3 -0.004080 -0.006875 0.014168 0.000000 0.000000 0.000000
# 4 0.000000 0.000000 0.000000 0.012350 0.000000 0.000000
# 5 0.000000 0.000000 0.000000 0.000000 0.028628 0.000000
# 6 0.000000 0.000000 0.000000 0.000000 0.000000 0.027857
#
#
# Mechanical properties :
#
#
# Convention : Reuss Voigt Hill
#
# Bulk Modulus (GPa) = 55.19645 57.82433 56.51039
# Shear Modulus (GPa) = 35.01926 41.76061 38.38994
#
# Velocity S-wave (km/s) = 4.22058 4.60895 4.41904
# Velocity P-wave (km/s) = 7.19917 7.59848 7.40152
#
# Compressibility (1/GPa) = 0.01811711
#
# Stress axis : x y z
#
# Youngs Moduli (GPa) = 70.22183 68.48284 70.58163
#
# Poissons Ratio (x) = 0.10215 0.28798
# Poissons Ratio (y) = 0.10474 0.48526
# Poissons Ratio (z) = 0.28652 0.47083
#
# Static dielectric constant tensor:
#      x y z
#    x 3.563920 0.000000 0.000000 
#    y 0.000000 3.497020 0.000000 
#    z 0.000000 0.000000 3.693880 
# 
# 
# High freq. dielectric constant tensor:
#      x y z
#    x 1.771590 0.000000 0.000000 
#    y 0.000000 1.765230 0.000000 
#    z 0.000000 0.000000 1.782240 
# 
# From -- ./inp_files/5297.got.cif
#   From: 2010.03.12/outbox.cif.g09.slc.cpg/sg35_3_cif.got.tgz:5297.got - 2010.04.14 02:02:04.
