data_PCOD8173187
_publ_section_title
;
Structure prediction by ZEFSAII (Michael W. Deem and Ramdas Pophale) SiO2 
 PCOD8173187
Probable space group: C M M 2
;
_chemical_formula_sum "Si O2"
_cell_formula_units_Z 56
_cell_length_a 9.002897
_cell_length_b 18.027506
_cell_length_c 18.493786
_cell_angle_alpha 90.000000
_cell_angle_beta 90.000000
_cell_angle_gamma 90.000000
_cell_volume 3001.537393
_symmetry_space_group_name_H-M "C M M 2"
_symmetry_group_IT_number 35
_symmetry_cell_setting 'orthorhombic'
loop_
_space_group_symop_operation_xyz
x,y,z
-x,-y,z
-x,y,z
x,-y,z
1/2+x,1/2+y,z
1/2-x,1/2-y,z
1/2-x,1/2+y,z
1/2+x,1/2-y,z
loop_
_atom_site_type_symbol
_atom_site_label
_atom_site_fract_x
_atom_site_fract_y
_atom_site_fract_z
Si Si1 0.176757 0.828992 0.742370
Si Si2 0.833121 0.411521 0.153594
Si Si3 0.667287 0.411647 0.012395
Si Si4 0.323726 0.417465 0.448111
Si Si5 0.676369 0.415962 0.603801
Si Si6 0.332489 0.588872 0.293781
Si Si7 0.668833 0.088059 0.869630
O O1 0.250000 0.750000 0.753797
O O2 0.237757 0.863492 0.667152
O O3 0.227579 0.882477 0.806203
O O4 0.000000 0.821776 0.743387
O O5 0.828169 0.500000 0.154305
O O6 0.768227 0.380029 0.228921
O O7 0.000000 0.382092 0.145073
O O8 0.737648 0.380592 0.086564
O O9 0.500000 0.380944 0.005103
O O10 0.667002 0.500000 0.013747
O O11 0.765301 0.382573 0.945473
O O12 0.500000 0.421168 0.443212
O O13 0.257935 0.500000 0.451872
O O14 0.275247 0.380661 0.525105
O O15 0.270652 0.379993 0.372046
O O16 0.500000 0.419310 0.608452
O O17 0.738290 0.500000 0.613365
O O18 0.500000 0.616261 0.279273
O O19 0.328587 0.500000 0.296830
O O20 0.500000 0.117239 0.861866
O O21 0.673709 0.000000 0.866768
#
# Coordination Sequence:
#
# PCOD8173187 Si02
#       7
#     8   8   8   8   8   8   8
#     4  11  22  35  51  71  97 127 160 198 241 289
#     4   9  15  21  30  48  79 117 151 182 220 267
#     4   9  16  26  41  61  85 115 153 192 228 271
#     4   7  10  18  34  57  82 107 141 186 229 268
#     4   8  14  26  46  70  92 117 154 198 239 280
#     4   8  12  18  30  49  75 108 143 178 219 268
#     4  10  20  34  52  73  97 124 156 196 242 290
#
# _framework density 18.657107
#
# number of rings (size 3 to 8) (size 9 to 14) (size 15 to 20)
#    0.000    3.143    0.000    3.857    0.000    4.857 
#    0.000    0.000    0.000    1.714    0.000    6.000 
#    0.000    1.143    0.000    8.000    0.000   12.286 
#
# Total GULP energy -346878.597293 kJ/mol
# GULP energy per Si atom -12388.521332 kJ/mol
# Density = 1.861464 g / cm^3
# Si number density = 18.657107 Si / 1000 Ang^3
#
#
#
# Elastic Constant Matrix: (Units=GPa)
#
#
# Indices 1 2 3 4 5 6 
#
# 1 88.9873 14.6622 54.6501 0.0000 0.0000 0.0000
# 2 14.6622 13.4616 17.9011 0.0000 0.0000 0.0000
# 3 54.6501 17.9011 185.8170 0.0000 0.0000 0.0000
# 4 0.0000 0.0000 0.0000 0.2127 0.0000 0.0000
# 5 0.0000 0.0000 0.0000 0.0000 12.4438 0.0000
# 6 0.0000 0.0000 0.0000 0.0000 0.0000 11.3540
#
#
#
# Elastic Compliance Matrix: (Units=1/GPa)
#
#
# Indices 1 2 3 4 5 6 
#
# 1 0.015293 -0.012244 -0.003318 0.000000 0.000000 0.000000
# 2 -0.012244 0.095004 -0.005551 0.000000 0.000000 0.000000
# 3 -0.003318 -0.005551 0.006892 0.000000 0.000000 0.000000
# 4 0.000000 0.000000 0.000000 4.700502 0.000000 0.000000
# 5 0.000000 0.000000 0.000000 0.000000 0.080362 0.000000
# 6 0.000000 0.000000 0.000000 0.000000 0.000000 0.088074
#
#
# Mechanical properties :
#
#
# Convention : Reuss Voigt Hill
#
# Bulk Modulus (GPa) = 13.34019 51.41031 32.37525
# Shear Modulus (GPa) = 0.98944 18.20561 9.59753
#
# Velocity S-wave (km/s) = 0.72903 3.12717 2.27054
# Velocity P-wave (km/s) = 2.80613 6.37606 4.92587
#
# Compressibility (1/GPa) = 0.07496145
#
# Stress axis : x y z
#
# Youngs Moduli (GPa) = 65.39027 10.52590 145.08894
#
# Poissons Ratio (x) = 0.12888 0.48142
# Poissons Ratio (y) = 0.80066 0.80543
# Poissons Ratio (z) = 0.21697 0.05843
#
# Static dielectric constant tensor:
#      x y z
#    x 3.281560 0.000000 0.000000 
#    y 0.000000 2.750890 0.000000 
#    z 0.000000 0.000000 4.043430 
# 
# 
# High freq. dielectric constant tensor:
#      x y z
#    x 1.702440 0.000000 0.000000 
#    y 0.000000 1.643730 0.000000 
#    z 0.000000 0.000000 1.756640 
# 
# From -- ./inp_files/18263.got.cif
#   From: 2010.03.12/outbox.cif.g09.slc.cpg/sg35_10_cif.got.tgz:18263.got - 2010.04.14 02:02:04.
