data_PCOD8173711
_publ_section_title
;
Structure prediction by ZEFSAII (Michael W. Deem and Ramdas Pophale) SiO2 
 PCOD8173711
Probable space group: C M M 2
;
_chemical_formula_sum "Si O2"
_cell_formula_units_Z 40
_cell_length_a 8.622897
_cell_length_b 14.648589
_cell_length_c 16.494381
_cell_angle_alpha 90.000000
_cell_angle_beta 90.000000
_cell_angle_gamma 90.000000
_cell_volume 2083.459269
_symmetry_space_group_name_H-M "C M M 2"
_symmetry_group_IT_number 35
_symmetry_cell_setting 'orthorhombic'
loop_
_space_group_symop_operation_xyz
x,y,z
-x,-y,z
-x,y,z
x,-y,z
1/2+x,1/2+y,z
1/2-x,1/2-y,z
1/2-x,1/2+y,z
1/2+x,1/2-y,z
loop_
_atom_site_type_symbol
_atom_site_label
_atom_site_fract_x
_atom_site_fract_y
_atom_site_fract_z
Si Si1 0.816428 0.500000 0.586550
Si Si2 0.683814 0.148190 0.713329
Si Si3 0.180463 0.500000 0.001568
Si Si4 0.821591 0.151610 0.295941
Si Si5 0.680081 0.349382 0.112209
Si Si6 0.182236 0.500000 0.405935
Si Si7 0.318056 0.500000 0.827232
O O1 0.761745 0.408456 0.633716
O O2 0.744197 0.500000 0.496408
O O3 0.000000 0.500000 0.582969
O O4 0.500000 0.154109 0.719741
O O5 0.750000 0.250000 0.710187
O O6 0.745295 0.092691 0.790949
O O7 0.219911 0.588418 0.053726
O O8 0.000000 0.500000 0.978334
O O9 0.284936 0.500000 0.922147
O O10 0.750000 0.250000 0.305064
O O11 0.800971 0.114943 0.204358
O O12 0.733873 0.088873 0.358743
O O13 0.000000 0.154649 0.320594
O O14 0.500000 0.350397 0.086671
O O15 0.750000 0.250000 0.103419
O O16 0.000000 0.500000 0.413106
O O17 0.500000 0.500000 0.810538
#
# Coordination Sequence:
#
# PCOD8173711 Si02
#       7
#     4   8   4   8   8   4   4
#     4   8  19  37  56  82 116 148 184 230 275 328
#     4  10  20  39  63  86 113 146 183 225 277 333
#     4  12  24  38  58  85 116 149 184 227 280 331
#     4  10  21  37  56  80 111 149 192 236 281 330
#     4  10  21  38  58  81 111 148 191 236 281 330
#     4  11  21  35  56  83 115 150 187 231 282 331
#     4  11  23  40  60  86 115 145 185 228 273 328
#
# _framework density 19.198837999999999
#
# number of rings (size 3 to 8) (size 9 to 14) (size 15 to 20)
#    0.000    1.800    0.000    5.100    0.000    6.400 
#    0.000   12.000    0.000    0.000    0.000    0.000 
#    0.000    0.000    0.000    0.000    0.000    0.000 
#
# Total GULP energy -248023.842192 kJ/mol
# GULP energy per Si atom -12401.192110 kJ/mol
# Density = 1.915514 g / cm^3
# Si number density = 19.198838 Si / 1000 Ang^3
#
#
#
# Elastic Constant Matrix: (Units=GPa)
#
#
# Indices 1 2 3 4 5 6 
#
# 1 96.5725 41.2795 34.0121 0.0000 0.0000 0.0000
# 2 41.2795 130.2663 61.7357 0.0000 0.0000 0.0000
# 3 34.0121 61.7357 120.5057 0.0000 0.0000 0.0000
# 4 0.0000 0.0000 0.0000 45.3881 0.0000 0.0000
# 5 0.0000 0.0000 0.0000 0.0000 26.9977 0.0000
# 6 0.0000 0.0000 0.0000 0.0000 0.0000 38.0994
#
#
#
# Elastic Compliance Matrix: (Units=1/GPa)
#
#
# Indices 1 2 3 4 5 6 
#
# 1 0.012315 -0.002978 -0.001950 0.000000 0.000000 0.000000
# 2 -0.002978 0.010858 -0.004722 0.000000 0.000000 0.000000
# 3 -0.001950 -0.004722 0.011268 0.000000 0.000000 0.000000
# 4 0.000000 0.000000 0.000000 0.022032 0.000000 0.000000
# 5 0.000000 0.000000 0.000000 0.000000 0.037040 0.000000
# 6 0.000000 0.000000 0.000000 0.000000 0.000000 0.026247
#
#
# Mechanical properties :
#
#
# Convention : Reuss Voigt Hill
#
# Bulk Modulus (GPa) = 66.04959 69.04437 67.54698
# Shear Modulus (GPa) = 34.69622 36.11818 35.40720
#
# Velocity S-wave (km/s) = 4.25573 4.34207 4.29912
# Velocity P-wave (km/s) = 7.65676 7.82169 7.73967
#
# Compressibility (1/GPa) = 0.01514014
#
# Stress axis : x y z
#
# Youngs Moduli (GPa) = 81.20367 92.09584 88.74748
#
# Poissons Ratio (x) = 0.27428 0.17306
# Poissons Ratio (y) = 0.24184 0.41908
# Poissons Ratio (z) = 0.15835 0.43489
#
# Static dielectric constant tensor:
#      x y z
#    x 3.559240 0.000000 0.000000 
#    y 0.000000 3.443260 0.000000 
#    z 0.000000 0.000000 3.710750 
# 
# 
# High freq. dielectric constant tensor:
#      x y z
#    x 1.755210 0.000000 0.000000 
#    y 0.000000 1.756290 0.000000 
#    z 0.000000 0.000000 1.748660 
# 
# From -- ./inp_files/14842.got.cif
#   From: 2010.03.12/outbox.cif.g09.slc.cpg/sg35_8_cif.got.tgz:14842.got - 2010.04.14 02:02:04.
