data_PCOD8173412
_publ_section_title
;
Structure prediction by ZEFSAII (Michael W. Deem and Ramdas Pophale) SiO2 
 PCOD8173412
Probable space group: C M M 2
;
_chemical_formula_sum "Si O2"
_cell_formula_units_Z 48
_cell_length_a 7.819825
_cell_length_b 18.438304
_cell_length_c 17.446821
_cell_angle_alpha 90.000000
_cell_angle_beta 90.000000
_cell_angle_gamma 90.000000
_cell_volume 2515.557858
_symmetry_space_group_name_H-M "C M M 2"
_symmetry_group_IT_number 35
_symmetry_cell_setting 'orthorhombic'
loop_
_space_group_symop_operation_xyz
x,y,z
-x,-y,z
-x,y,z
x,-y,z
1/2+x,1/2+y,z
1/2-x,1/2-y,z
1/2-x,1/2+y,z
1/2+x,1/2-y,z
loop_
_atom_site_type_symbol
_atom_site_label
_atom_site_fract_x
_atom_site_fract_y
_atom_site_fract_z
Si Si1 0.799006 0.079943 0.248420
Si Si2 0.698495 0.081134 0.408626
Si Si3 0.500000 0.086560 0.978292
Si Si4 0.192075 0.086802 0.082313
Si Si5 0.201537 0.333155 0.554031
Si Si6 0.692125 0.583570 0.701370
Si Si7 0.500000 0.914078 0.806730
O O1 0.733333 0.119902 0.325754
O O2 0.751334 0.117373 0.166809
O O3 0.000000 0.073690 0.252007
O O4 0.714142 0.000000 0.250350
O O5 0.500000 0.074924 0.423583
O O6 0.775347 0.130435 0.476355
O O7 0.781263 0.000000 0.411255
O O8 0.328932 0.115549 0.020593
O O9 0.500000 0.000000 0.978370
O O10 0.500000 0.118646 0.892456
O O11 0.000000 0.113615 0.060149
O O12 0.191697 0.000000 0.086898
O O13 0.250000 0.250000 0.551730
O O14 0.296040 0.370376 0.624611
O O15 0.000000 0.344117 0.563783
O O16 0.500000 0.591814 0.735275
O O17 0.732940 0.500000 0.681361
O O18 0.828931 0.612965 0.763424
O O19 0.500000 0.000000 0.812855
#
# Coordination Sequence:
#
# PCOD8173412 Si02
#       7
#     8   8   4   8   8   8   4
#     4   8  14  24  38  59  90 127 165 205 240 282
#     4   9  18  30  47  70  96 131 170 209 253 298
#     4   9  16  24  40  63  91 131 163 195 250 297
#     4   8  14  23  35  57  91 128 164 198 237 290
#     4  11  22  36  52  73 103 135 169 219 261 307
#     4  10  20  35  56  77 100 136 175 210 256 312
#     4   9  18  32  48  71 101 131 168 211 250 301
#
# _framework density 19.081256
#
# number of rings (size 3 to 8) (size 9 to 14) (size 15 to 20)
#    0.000    2.833    0.833    2.000    1.167    2.667 
#    0.000    5.000    0.000    0.000    0.000    0.000 
#    0.000    1.333    2.000    0.000    0.000    0.000 
#
# Total GULP energy -297388.626584 kJ/mol
# GULP energy per Si atom -12391.192774 kJ/mol
# Density = 1.903783 g / cm^3
# Si number density = 19.081256 Si / 1000 Ang^3
#
#
#
# Elastic Constant Matrix: (Units=GPa)
#
#
# Indices 1 2 3 4 5 6 
#
# 1 101.1036 17.7016 71.3832 0.0000 0.0000 0.0000
# 2 17.7016 43.1766 37.0569 0.0000 0.0000 0.0000
# 3 71.3832 37.0569 188.4276 0.0000 0.0000 0.0000
# 4 0.0000 0.0000 0.0000 1.9646 0.0000 0.0000
# 5 0.0000 0.0000 0.0000 0.0000 22.2246 0.0000
# 6 0.0000 0.0000 0.0000 0.0000 0.0000 12.7552
#
#
#
# Elastic Compliance Matrix: (Units=1/GPa)
#
#
# Indices 1 2 3 4 5 6 
#
# 1 0.013571 -0.001385 -0.004869 0.000000 0.000000 0.000000
# 2 -0.001385 0.028005 -0.004983 0.000000 0.000000 0.000000
# 3 -0.004869 -0.004983 0.008131 0.000000 0.000000 0.000000
# 4 0.000000 0.000000 0.000000 0.509008 0.000000 0.000000
# 5 0.000000 0.000000 0.000000 0.000000 0.044995 0.000000
# 6 0.000000 0.000000 0.000000 0.000000 0.000000 0.078399
#
#
# Mechanical properties :
#
#
# Convention : Reuss Voigt Hill
#
# Bulk Modulus (GPa) = 36.71876 64.99904 50.85890
# Shear Modulus (GPa) = 7.00613 21.15996 14.08304
#
# Velocity S-wave (km/s) = 1.91826 3.33369 2.71967
# Velocity P-wave (km/s) = 4.91848 6.99687 6.04763
#
# Compressibility (1/GPa) = 0.02723403
#
# Stress axis : x y z
#
# Youngs Moduli (GPa) = 73.68713 35.70769 122.97880
#
# Poissons Ratio (x) = 0.04946 0.59875
# Poissons Ratio (y) = 0.10207 0.61279
# Poissons Ratio (z) = 0.35876 0.17793
#
# Static dielectric constant tensor:
#      x y z
#    x 3.565790 0.000000 0.000000 
#    y 0.000000 2.953610 0.000000 
#    z 0.000000 0.000000 3.860820 
# 
# 
# High freq. dielectric constant tensor:
#      x y z
#    x 1.748060 0.000000 0.000000 
#    y 0.000000 1.663390 0.000000 
#    z 0.000000 0.000000 1.752090 
# 
# From -- ./inp_files/15173.got.cif
#   From: 2010.03.12/outbox.cif.g09.slc.cpg/sg35_8_cif.got.tgz:15173.got - 2010.04.14 02:02:04.
