data_PCOD8173644
_publ_section_title
;
Structure prediction by ZEFSAII (Michael W. Deem and Ramdas Pophale) SiO2 
 PCOD8173644
Probable space group: C M M 2
;
_chemical_formula_sum "Si O2"
_cell_formula_units_Z 48
_cell_length_a 8.858396
_cell_length_b 14.908780
_cell_length_c 18.782199
_cell_angle_alpha 90.000000
_cell_angle_beta 90.000000
_cell_angle_gamma 90.000000
_cell_volume 2480.525150
_symmetry_space_group_name_H-M "C M M 2"
_symmetry_group_IT_number 35
_symmetry_cell_setting 'orthorhombic'
loop_
_space_group_symop_operation_xyz
x,y,z
-x,-y,z
-x,y,z
x,-y,z
1/2+x,1/2+y,z
1/2-x,1/2-y,z
1/2-x,1/2+y,z
1/2+x,1/2-y,z
loop_
_atom_site_type_symbol
_atom_site_label
_atom_site_fract_x
_atom_site_fract_y
_atom_site_fract_z
Si Si1 0.329141 0.394295 0.062270
Si Si2 0.177608 0.339191 0.921147
Si Si3 0.821498 0.500000 0.827101
Si Si4 0.321879 0.349686 0.562514
Si Si5 0.173176 0.500000 0.303478
Si Si6 0.179156 0.157262 0.219368
Si Si7 0.173196 0.000000 0.676354
Si Si8 0.673566 0.000000 0.471689
O O1 0.500000 0.360491 0.049743
O O2 0.319865 0.500000 0.057272
O O3 0.268247 0.364214 0.139066
O O4 0.222356 0.351745 0.003216
O O5 0.250000 0.250000 0.889763
O O6 0.244110 0.415438 0.869823
O O7 0.000000 0.333748 0.916694
O O8 0.774396 0.500000 0.745795
O O9 0.000000 0.500000 0.830660
O O10 0.500000 0.338645 0.549564
O O11 0.250000 0.250000 0.568484
O O12 0.289149 0.408950 0.633029
O O13 0.252484 0.408048 0.498194
O O14 0.257141 0.413873 0.274029
O O15 0.186754 0.500000 0.387660
O O16 0.000000 0.500000 0.278244
O O17 0.250000 0.250000 0.244196
O O18 0.000000 0.158450 0.224911
O O19 0.000000 0.000000 0.699523
O O20 0.500000 0.000000 0.497505
#
# Coordination Sequence:
#
# PCOD8173644 Si02
#       8
#     8   8   4   8   4   8   4   4
#     4  10  20  37  60  85 111 146 193 244 297 349
#     4  11  23  39  57  83 113 150 196 242 293 348
#     4  10  23  40  57  81 117 154 193 236 288 346
#     4  10  21  39  64  94 123 155 195 236 284 342
#     4  11  24  41  61  87 119 157 198 241 292 348
#     4  11  23  40  60  86 117 153 198 246 298 355
#     4   9  21  39  60  88 120 153 193 235 284 340
#     4  10  22  40  62  90 122 156 196 240 288 342
#
# _framework density 19.350740999999999
#
# number of rings (size 3 to 8) (size 9 to 14) (size 15 to 20)
#    0.000    1.667    1.667    3.000    0.000    8.667 
#    0.000    3.333    0.000    0.000    0.000    0.000 
#    0.000    0.000    0.000    0.000    0.000    0.000 
#
# Total GULP energy -297629.728467 kJ/mol
# GULP energy per Si atom -12401.238686 kJ/mol
# Density = 1.930670 g / cm^3
# Si number density = 19.350741 Si / 1000 Ang^3
#
#
#
# Elastic Constant Matrix: (Units=GPa)
#
#
# Indices 1 2 3 4 5 6 
#
# 1 95.3391 59.7724 47.4751 0.0000 0.0000 0.0000
# 2 59.7724 169.2013 58.5466 0.0000 0.0000 0.0000
# 3 47.4751 58.5466 102.0278 0.0000 0.0000 0.0000
# 4 0.0000 0.0000 0.0000 50.2565 0.0000 0.0000
# 5 0.0000 0.0000 0.0000 0.0000 37.1730 0.0000
# 6 0.0000 0.0000 0.0000 0.0000 0.0000 33.4402
#
#
#
# Elastic Compliance Matrix: (Units=1/GPa)
#
#
# Indices 1 2 3 4 5 6 
#
# 1 0.015280 -0.003665 -0.005007 0.000000 0.000000 0.000000
# 2 -0.003665 0.008254 -0.003031 0.000000 0.000000 0.000000
# 3 -0.005007 -0.003031 0.013870 0.000000 0.000000 0.000000
# 4 0.000000 0.000000 0.000000 0.019898 0.000000 0.000000
# 5 0.000000 0.000000 0.000000 0.000000 0.026901 0.000000
# 6 0.000000 0.000000 0.000000 0.000000 0.000000 0.029904
#
#
# Mechanical properties :
#
#
# Convention : Reuss Voigt Hill
#
# Bulk Modulus (GPa) = 71.43782 77.57294 74.50538
# Shear Modulus (GPa) = 35.16707 37.55888 36.36297
#
# Velocity S-wave (km/s) = 4.26766 4.41040 4.33962
# Velocity P-wave (km/s) = 7.82825 8.13083 7.98097
#
# Compressibility (1/GPa) = 0.01399819
#
# Stress axis : x y z
#
# Youngs Moduli (GPa) = 65.44480 121.15889 72.09820
#
# Poissons Ratio (x) = 0.44410 0.36097
# Poissons Ratio (y) = 0.23989 0.21850
# Poissons Ratio (z) = 0.32766 0.36718
#
# Static dielectric constant tensor:
#      x y z
#    x 3.607550 0.000000 0.000000 
#    y 0.000000 3.788000 0.000000 
#    z 0.000000 0.000000 3.467820 
# 
# 
# High freq. dielectric constant tensor:
#      x y z
#    x 1.760230 0.000000 0.000000 
#    y 0.000000 1.770130 0.000000 
#    z 0.000000 0.000000 1.748310 
# 
# From -- ./inp_files/17964.got.cif
#   From: 2010.03.12/outbox.cif.g09.slc.cpg/sg35_9_cif.got.tgz:17964.got - 2010.04.14 02:02:04.
