data_PCOD8173573
_publ_section_title
;
Structure prediction by ZEFSAII (Michael W. Deem and Ramdas Pophale) SiO2 
 PCOD8173573
Probable space group: C M M 2
;
_chemical_formula_sum "Si O2"
_cell_formula_units_Z 40
_cell_length_a 8.588835
_cell_length_b 15.635723
_cell_length_c 14.426999
_cell_angle_alpha 90.000000
_cell_angle_beta 90.000000
_cell_angle_gamma 90.000000
_cell_volume 1937.439854
_symmetry_space_group_name_H-M "C M M 2"
_symmetry_group_IT_number 35
_symmetry_cell_setting 'orthorhombic'
loop_
_space_group_symop_operation_xyz
x,y,z
-x,-y,z
-x,y,z
x,-y,z
1/2+x,1/2+y,z
1/2-x,1/2-y,z
1/2-x,1/2+y,z
1/2+x,1/2-y,z
loop_
_atom_site_type_symbol
_atom_site_label
_atom_site_fract_x
_atom_site_fract_y
_atom_site_fract_z
Si Si1 0.815910 0.844374 0.032340
Si Si2 0.673760 0.596518 0.660801
Si Si3 0.682873 0.000000 0.146329
Si Si4 0.314811 0.500000 0.348527
Si Si5 0.184171 0.838744 0.468221
Si Si6 0.181646 0.659186 0.837680
O O1 0.750000 0.750000 0.054833
O O2 0.754291 0.913739 0.104185
O O3 0.000000 0.840010 0.038991
O O4 0.765935 0.875187 0.929811
O O5 0.500000 0.628934 0.688027
O O6 0.664449 0.500000 0.624720
O O7 0.743387 0.649815 0.574383
O O8 0.785426 0.598957 0.750129
O O9 0.500000 0.000000 0.128288
O O10 0.721195 0.000000 0.253816
O O11 0.500000 0.500000 0.330836
O O12 0.258536 0.583856 0.403936
O O13 0.250000 0.750000 0.427919
O O14 0.000000 0.836763 0.468372
O O15 0.250000 0.750000 0.808504
O O16 0.000000 0.664591 0.859420
#
# Coordination Sequence:
#
# PCOD8173573 Si02
#       6
#     8   8   4   4   8   8
#     4  11  23  43  68  95 127 167 210 259 314 372
#     4  10  20  36  58  86 123 166 209 251 304 366
#     4  12  26  44  67  96 127 162 207 260 318 380
#     4  10  22  44  65  88 121 160 205 254 316 378
#     4  10  21  39  64  90 121 162 205 254 308 368
#     4  11  22  37  57  86 124 164 207 255 303 362
#
# _framework density 20.645800999999999
#
# number of rings (size 3 to 8) (size 9 to 14) (size 15 to 20)
#    0.000    1.400    1.000    6.300    1.400    4.400 
#    0.000    2.000    0.000    0.000    0.000    0.000 
#    0.000    0.000    0.000    0.000    0.000    0.000 
#
# Total GULP energy -248036.625249 kJ/mol
# GULP energy per Si atom -12401.831262 kJ/mol
# Density = 2.059881 g / cm^3
# Si number density = 20.645801 Si / 1000 Ang^3
#
#
#
# Elastic Constant Matrix: (Units=GPa)
#
#
# Indices 1 2 3 4 5 6 
#
# 1 128.9521 44.3733 50.0582 0.0000 0.0000 0.0000
# 2 44.3733 135.6178 72.4927 0.0000 0.0000 0.0000
# 3 50.0582 72.4927 139.3884 0.0000 0.0000 0.0000
# 4 0.0000 0.0000 0.0000 25.7705 0.0000 0.0000
# 5 0.0000 0.0000 0.0000 0.0000 28.0805 0.0000
# 6 0.0000 0.0000 0.0000 0.0000 0.0000 33.4571
#
#
#
# Elastic Compliance Matrix: (Units=1/GPa)
#
#
# Indices 1 2 3 4 5 6 
#
# 1 0.009299 -0.001742 -0.002434 0.000000 0.000000 0.000000
# 2 -0.001742 0.010539 -0.004856 0.000000 0.000000 0.000000
# 3 -0.002434 -0.004856 0.010574 0.000000 0.000000 0.000000
# 4 0.000000 0.000000 0.000000 0.038804 0.000000 0.000000
# 5 0.000000 0.000000 0.000000 0.000000 0.035612 0.000000
# 6 0.000000 0.000000 0.000000 0.000000 0.000000 0.029889
#
#
# Mechanical properties :
#
#
# Convention : Reuss Voigt Hill
#
# Bulk Modulus (GPa) = 80.97511 81.97853 81.47682
# Shear Modulus (GPa) = 31.86849 33.26390 32.56619
#
# Velocity S-wave (km/s) = 3.93311 4.01829 3.97593
# Velocity P-wave (km/s) = 7.74158 7.83085 7.78634
#
# Compressibility (1/GPa) = 0.01234947
#
# Stress axis : x y z
#
# Youngs Moduli (GPa) = 107.54002 94.88540 94.57593
#
# Poissons Ratio (x) = 0.16525 0.23017
# Poissons Ratio (y) = 0.18729 0.45923
# Poissons Ratio (z) = 0.26172 0.46073
#
# Static dielectric constant tensor:
#      x y z
#    x 3.682810 0.000000 0.000000 
#    y 0.000000 4.064270 0.000000 
#    z 0.000000 0.000000 3.714000 
# 
# 
# High freq. dielectric constant tensor:
#      x y z
#    x 1.804570 0.000000 0.000000 
#    y 0.000000 1.814940 0.000000 
#    z 0.000000 0.000000 1.808140 
# 
# From -- ./inp_files/14823.got.cif
#   From: 2010.03.12/outbox.cif.g09.slc.cpg/sg35_8_cif.got.tgz:14823.got - 2010.04.14 02:02:04.
