data_PCOD8173682
_publ_section_title
;
Structure prediction by ZEFSAII (Michael W. Deem and Ramdas Pophale) SiO2 
 PCOD8173682
Probable space group: C M M 2
;
_chemical_formula_sum "Si O2"
_cell_formula_units_Z 48
_cell_length_a 14.659924
_cell_length_b 10.147208
_cell_length_c 15.760751
_cell_angle_alpha 90.000000
_cell_angle_beta 90.000000
_cell_angle_gamma 90.000000
_cell_volume 2344.526735
_symmetry_space_group_name_H-M "C M M 2"
_symmetry_group_IT_number 35
_symmetry_cell_setting 'orthorhombic'
loop_
_space_group_symop_operation_xyz
x,y,z
-x,-y,z
-x,y,z
x,-y,z
1/2+x,1/2+y,z
1/2-x,1/2-y,z
1/2-x,1/2+y,z
1/2+x,1/2-y,z
loop_
_atom_site_type_symbol
_atom_site_label
_atom_site_fract_x
_atom_site_fract_y
_atom_site_fract_z
Si Si1 0.891279 0.500000 0.864491
Si Si2 0.391633 0.146354 0.278662
Si Si3 0.607611 0.261366 0.959103
Si Si4 0.107494 0.000000 0.844753
Si Si5 0.894459 0.346977 0.470609
Si Si6 0.390942 0.649954 0.140539
Si Si7 0.753861 0.500000 0.710099
Si Si8 0.750000 0.750000 0.592131
O O1 0.859454 0.376770 0.921177
O O2 0.839158 0.500000 0.774995
O O3 0.000000 0.500000 0.845784
O O4 0.500000 0.143779 0.272385
O O5 0.362830 0.182019 0.374357
O O6 0.351524 0.257796 0.215774
O O7 0.354999 0.000000 0.253728
O O8 0.500000 0.266437 0.965174
O O9 0.642295 0.373585 0.895959
O O10 0.647455 0.288574 0.052732
O O11 0.156267 0.000000 0.755013
O O12 0.000000 0.000000 0.828580
O O13 0.875722 0.500000 0.492948
O O14 0.838938 0.249876 0.532068
O O15 0.000000 0.312497 0.483182
O O16 0.500000 0.650676 0.140412
O O17 0.355674 0.500000 0.152347
O O18 0.756850 0.625389 0.651351
#
# Coordination Sequence:
#
# PCOD8173682 Si02
#       8
#     4   8   8   4   8   8   4   4
#     4  10  22  38  56  83 115 153 201 244 286 348
#     4   8  15  28  51  82 113 151 195 234 275 335
#     4   9  17  31  53  80 114 156 193 230 284 343
#     4  10  20  38  58  79 113 151 183 232 300 356
#     4   9  19  40  65  88 121 162 198 239 300 365
#     4   9  15  25  45  81 121 150 187 235 281 334
#     4  12  26  40  62  88 114 146 196 252 312 358
#     4  12  24  42  64  92 114 152 200 250 310 370
#
# _framework density 20.473217000000002
#
# number of rings (size 3 to 8) (size 9 to 14) (size 15 to 20)
#    0.000    2.500    1.667    2.000    1.167    1.333 
#    1.500    0.000    0.000    2.000    0.000    0.000 
#    0.000    0.000    0.000    0.000    0.000    0.000 
#
# Total GULP energy -297536.052861 kJ/mol
# GULP energy per Si atom -12397.335536 kJ/mol
# Density = 2.042662 g / cm^3
# Si number density = 20.473217 Si / 1000 Ang^3
#
#
#
# Elastic Constant Matrix: (Units=GPa)
#
#
# Indices 1 2 3 4 5 6 
#
# 1 56.4411 29.9222 44.7898 0.0000 0.0000 0.0000
# 2 29.9222 179.5778 102.2527 0.0000 0.0000 0.0000
# 3 44.7898 102.2527 169.8563 0.0000 0.0000 0.0000
# 4 0.0000 0.0000 0.0000 57.3391 0.0000 0.0000
# 5 0.0000 0.0000 0.0000 0.0000 1.9647 0.0000
# 6 0.0000 0.0000 0.0000 0.0000 0.0000 6.2748
#
#
#
# Elastic Compliance Matrix: (Units=1/GPa)
#
#
# Indices 1 2 3 4 5 6 
#
# 1 0.022444 -0.000563 -0.005579 0.000000 0.000000 0.000000
# 2 -0.000563 0.008487 -0.004961 0.000000 0.000000 0.000000
# 3 -0.005579 -0.004961 0.010345 0.000000 0.000000 0.000000
# 4 0.000000 0.000000 0.000000 0.017440 0.000000 0.000000
# 5 0.000000 0.000000 0.000000 0.000000 0.508982 0.000000
# 6 0.000000 0.000000 0.000000 0.000000 0.000000 0.159368
#
#
# Mechanical properties :
#
#
# Convention : Reuss Voigt Hill
#
# Bulk Modulus (GPa) = 52.43913 84.42273 68.43093
# Shear Modulus (GPa) = 6.61701 28.37642 17.49671
#
# Velocity S-wave (km/s) = 1.79974 3.72698 2.92655
# Velocity P-wave (km/s) = 5.47612 7.73600 6.70200
#
# Compressibility (1/GPa) = 0.01906973
#
# Stress axis : x y z
#
# Youngs Moduli (GPa) = 44.55614 117.82593 96.66522
#
# Poissons Ratio (x) = 0.06630 0.53934
# Poissons Ratio (y) = 0.02507 0.47954
# Poissons Ratio (z) = 0.24860 0.58451
#
# Static dielectric constant tensor:
#      x y z
#    x 3.307560 0.000000 0.000000 
#    y 0.000000 3.930640 0.000000 
#    z 0.000000 0.000000 3.913970 
# 
# 
# High freq. dielectric constant tensor:
#      x y z
#    x 1.778000 0.000000 0.000000 
#    y 0.000000 1.803590 0.000000 
#    z 0.000000 0.000000 1.807180 
# 
# From -- ./inp_files/17153.got.cif
#   From: 2010.03.12/outbox.cif.g09.slc.cpg/sg35_9_cif.got.tgz:17153.got - 2010.04.14 02:02:04.
