data_PCOD8173190
_publ_section_title
;
Structure prediction by ZEFSAII (Michael W. Deem and Ramdas Pophale) SiO2 
 PCOD8173190
Probable space group: C M M 2
;
_chemical_formula_sum "Si O2"
_cell_formula_units_Z 64
_cell_length_a 9.262358
_cell_length_b 20.023736
_cell_length_c 19.833507
_cell_angle_alpha 90.000000
_cell_angle_beta 90.000000
_cell_angle_gamma 90.000000
_cell_volume 3678.461267
_symmetry_space_group_name_H-M "C M M 2"
_symmetry_group_IT_number 35
_symmetry_cell_setting 'orthorhombic'
loop_
_space_group_symop_operation_xyz
x,y,z
-x,-y,z
-x,y,z
x,-y,z
1/2+x,1/2+y,z
1/2-x,1/2-y,z
1/2-x,1/2+y,z
1/2+x,1/2-y,z
loop_
_atom_site_type_symbol
_atom_site_label
_atom_site_fract_x
_atom_site_fract_y
_atom_site_fract_z
Si Si1 0.330292 0.683241 0.845500
Si Si2 0.670679 0.426661 0.743198
Si Si3 0.831083 0.424078 0.241121
Si Si4 0.669849 0.817092 0.502962
Si Si5 0.166469 0.078188 0.590892
Si Si6 0.831707 0.816451 0.999351
Si Si7 0.667673 0.184657 0.347616
Si Si8 0.331023 0.576038 0.107525
O O1 0.500000 0.693939 0.834825
O O2 0.250000 0.750000 0.823143
O O3 0.267335 0.624960 0.797882
O O4 0.293200 0.664480 0.922521
O O5 0.500000 0.431370 0.750320
O O6 0.737264 0.500000 0.757849
O O7 0.709820 0.403686 0.667596
O O8 0.787679 0.500000 0.259077
O O9 0.781775 0.378578 0.303670
O O10 0.749863 0.399276 0.174369
O O11 0.000000 0.417515 0.226958
O O12 0.500000 0.808808 0.516094
O O13 0.750000 0.750000 0.527680
O O14 0.728808 0.880474 0.542961
O O15 0.705531 0.831040 0.424912
O O16 0.000000 0.097248 0.576733
O O17 0.191500 0.000000 0.577127
O O18 0.750000 0.750000 0.022826
O O19 0.781013 0.878085 0.045356
O O20 0.000000 0.801879 0.007740
O O21 0.500000 0.199301 0.337995
O O22 0.750000 0.250000 0.321528
O O23 0.500000 0.582884 0.121272
O O24 0.288346 0.500000 0.089500
#
# Coordination Sequence:
#
# PCOD8173190 Si02
#       8
#     8   8   8   8   8   8   8   8
#     4   9  17  30  48  69  93 122 156 192 231 275
#     4   8  15  29  49  71  94 122 157 195 233 275
#     4   9  18  33  51  70  93 122 155 189 228 276
#     4  10  20  34  52  73  98 128 162 200 241 286
#     4   9  18  33  51  72 100 130 160 198 242 287
#     4   9  18  31  47  68  94 123 154 191 232 274
#     4   9  19  34  51  71  95 123 155 194 235 276
#     4   9  18  32  48  68  94 121 152 192 233 271
#
# _framework density 17.398579000000002
#
# number of rings (size 3 to 8) (size 9 to 14) (size 15 to 20)
#    0.000    3.000    0.000    1.125    0.000    3.750 
#    0.000    8.125    0.000    2.625    0.000    3.500 
#    0.000    0.000    0.000    0.000    0.000    0.000 
#
# Total GULP energy -396797.613500 kJ/mol
# GULP energy per Si atom -12399.925422 kJ/mol
# Density = 1.735898 g / cm^3
# Si number density = 17.398579 Si / 1000 Ang^3
#
#
#
# Elastic Constant Matrix: (Units=GPa)
#
#
# Indices 1 2 3 4 5 6 
#
# 1 44.6695 46.4884 41.5497 0.0000 0.0000 0.0000
# 2 46.4884 123.1967 87.2468 0.0000 0.0000 0.0000
# 3 41.5497 87.2468 108.6817 0.0000 0.0000 0.0000
# 4 0.0000 0.0000 0.0000 36.0967 0.0000 0.0000
# 5 0.0000 0.0000 0.0000 0.0000 23.6108 0.0000
# 6 0.0000 0.0000 0.0000 0.0000 0.0000 30.0464
#
#
#
# Elastic Compliance Matrix: (Units=1/GPa)
#
#
# Indices 1 2 3 4 5 6 
#
# 1 0.039154 -0.009674 -0.007203 0.000000 0.000000 0.000000
# 2 -0.009674 0.021202 -0.013322 0.000000 0.000000 0.000000
# 3 -0.007203 -0.013322 0.022650 0.000000 0.000000 0.000000
# 4 0.000000 0.000000 0.000000 0.027703 0.000000 0.000000
# 5 0.000000 0.000000 0.000000 0.000000 0.042354 0.000000
# 6 0.000000 0.000000 0.000000 0.000000 0.000000 0.033282
#
#
# Mechanical properties :
#
#
# Convention : Reuss Voigt Hill
#
# Bulk Modulus (GPa) = 44.23199 69.67976 56.95588
# Shear Modulus (GPa) = 19.66343 24.70165 22.18254
#
# Velocity S-wave (km/s) = 3.36545 3.77205 3.57454
# Velocity P-wave (km/s) = 6.37022 7.68812 7.05999
#
# Compressibility (1/GPa) = 0.02260807
#
# Stress axis : x y z
#
# Youngs Moduli (GPa) = 25.53993 47.16499 44.15075
#
# Poissons Ratio (x) = 0.45626 0.31802
# Poissons Ratio (y) = 0.24707 0.58818
# Poissons Ratio (z) = 0.18397 0.62834
#
# Static dielectric constant tensor:
#      x y z
#    x 3.069070 0.000000 0.000000 
#    y 0.000000 3.445920 0.000000 
#    z 0.000000 0.000000 3.338630 
# 
# 
# High freq. dielectric constant tensor:
#      x y z
#    x 1.655790 0.000000 0.000000 
#    y 0.000000 1.675460 0.000000 
#    z 0.000000 0.000000 1.672940 
# 
# From -- ./inp_files/18343.got.cif
#   From: 2010.03.12/outbox.cif.g09.slc.cpg/sg35_10_cif.got.tgz:18343.got - 2010.04.14 02:02:04.
