data_PCOD8173438
_publ_section_title
;
Structure prediction by ZEFSAII (Michael W. Deem and Ramdas Pophale) SiO2 
 PCOD8173438
Probable space group: C M M 2
;
_chemical_formula_sum "Si O2"
_cell_formula_units_Z 56
_cell_length_a 18.419616
_cell_length_b 8.727685
_cell_length_c 17.915124
_cell_angle_alpha 90.000000
_cell_angle_beta 90.000000
_cell_angle_gamma 90.000000
_cell_volume 2880.046196
_symmetry_space_group_name_H-M "C M M 2"
_symmetry_group_IT_number 35
_symmetry_cell_setting 'orthorhombic'
loop_
_space_group_symop_operation_xyz
x,y,z
-x,-y,z
-x,y,z
x,-y,z
1/2+x,1/2+y,z
1/2-x,1/2-y,z
1/2-x,1/2+y,z
1/2+x,1/2-y,z
loop_
_atom_site_type_symbol
_atom_site_label
_atom_site_fract_x
_atom_site_fract_y
_atom_site_fract_z
Si Si1 0.583485 0.680636 0.013990
Si Si2 0.086159 0.173472 0.317740
Si Si3 0.913743 0.327526 0.167411
Si Si4 0.415620 0.822680 0.732100
Si Si5 0.173234 0.680700 0.446226
Si Si6 0.671080 0.180508 0.878779
Si Si7 0.173141 0.819469 0.603919
O O1 0.500000 0.730670 0.001275
O O2 0.592199 0.500000 0.011549
O O3 0.612692 0.739876 0.093553
O O4 0.632780 0.755188 0.951577
O O5 0.116923 0.239525 0.239810
O O6 0.113703 0.278184 0.384951
O O7 0.000000 0.179894 0.318698
O O8 0.114400 0.000000 0.327148
O O9 0.882801 0.500000 0.166734
O O10 0.000000 0.328587 0.170437
O O11 0.500000 0.789555 0.743833
O O12 0.375654 0.770711 0.807239
O O13 0.387717 0.720103 0.664200
O O14 0.400295 0.000000 0.713791
O O15 0.180272 0.500000 0.454770
O O16 0.250000 0.750000 0.421040
O O17 0.148155 0.750451 0.525030
O O18 0.750000 0.250000 0.869095
O O19 0.677251 0.000000 0.886773
O O20 0.250000 0.750000 0.629899
O O21 0.181606 0.000000 0.595802
#
# Coordination Sequence:
#
# PCOD8173438 Si02
#       7
#     8   8   8   8   8   8   8
#     4  10  20  35  57  84 113 146 186 232 280 330
#     4  10  20  35  56  83 115 149 188 233 279 329
#     4   9  17  31  53  81 112 147 187 229 277 332
#     4  10  22  40  61  86 115 146 183 228 277 329
#     4  11  22  38  59  82 112 149 189 231 279 334
#     4  11  23  39  59  83 113 149 187 228 277 332
#     4  11  22  38  60  84 112 147 187 229 277 332
#
# _framework density 19.444132
#
# number of rings (size 3 to 8) (size 9 to 14) (size 15 to 20)
#    0.000    1.714    0.000    6.000    0.000    7.143 
#    0.000    0.714    0.000    0.000    0.000    0.000 
#    0.000    0.000    0.000    0.000    0.000    0.000 
#
# Total GULP energy -347331.839916 kJ/mol
# GULP energy per Si atom -12404.708568 kJ/mol
# Density = 1.939988 g / cm^3
# Si number density = 19.444132 Si / 1000 Ang^3
#
#
#
# Elastic Constant Matrix: (Units=GPa)
#
#
# Indices 1 2 3 4 5 6 
#
# 1 81.1553 47.9829 64.7682 0.0000 0.0000 0.0000
# 2 47.9829 137.4783 65.3454 0.0000 0.0000 0.0000
# 3 64.7682 65.3454 151.2138 0.0000 0.0000 0.0000
# 4 0.0000 0.0000 0.0000 30.3739 0.0000 0.0000
# 5 0.0000 0.0000 0.0000 0.0000 0.9474 0.0000
# 6 0.0000 0.0000 0.0000 0.0000 0.0000 26.3660
#
#
#
# Elastic Compliance Matrix: (Units=1/GPa)
#
#
# Indices 1 2 3 4 5 6 
#
# 1 0.020099 -0.003679 -0.007019 0.000000 0.000000 0.000000
# 2 -0.003679 0.009827 -0.002671 0.000000 0.000000 0.000000
# 3 -0.007019 -0.002671 0.010774 0.000000 0.000000 0.000000
# 4 0.000000 0.000000 0.000000 0.032923 0.000000 0.000000
# 5 0.000000 0.000000 0.000000 0.000000 1.055537 0.000000
# 6 0.000000 0.000000 0.000000 0.000000 0.000000 0.037928
#
#
# Mechanical properties :
#
#
# Convention : Reuss Voigt Hill
#
# Bulk Modulus (GPa) = 71.62115 80.67113 76.14614
# Shear Modulus (GPa) = 4.17195 24.32085 14.24640
#
# Velocity S-wave (km/s) = 1.46638 3.54051 2.70975
# Velocity P-wave (km/s) = 6.30724 7.63494 7.00263
#
# Compressibility (1/GPa) = 0.01396236
#
# Stress axis : x y z
#
# Youngs Moduli (GPa) = 49.75416 101.75575 92.81691
#
# Poissons Ratio (x) = 0.37432 0.65149
# Poissons Ratio (y) = 0.18303 0.24793
# Poissons Ratio (z) = 0.34923 0.27181
#
# Static dielectric constant tensor:
#      x y z
#    x 3.350640 0.000000 0.000000 
#    y 0.000000 3.750100 0.000000 
#    z 0.000000 0.000000 3.714110 
# 
# 
# High freq. dielectric constant tensor:
#      x y z
#    x 1.736630 0.000000 0.000000 
#    y 0.000000 1.772910 0.000000 
#    z 0.000000 0.000000 1.772850 
# 
# From -- ./inp_files/17406.got.cif
#   From: 2010.03.12/outbox.cif.g09.slc.cpg/sg35_9_cif.got.tgz:17406.got - 2010.04.14 02:02:04.
