data_PCOD8173719
_publ_section_title
;
Structure prediction by ZEFSAII (Michael W. Deem and Ramdas Pophale) SiO2 
 PCOD8173719
Probable space group: C M M 2
;
_chemical_formula_sum "Si O2"
_cell_formula_units_Z 48
_cell_length_a 18.959295
_cell_length_b 7.623916
_cell_length_c 16.581727
_cell_angle_alpha 90.000000
_cell_angle_beta 90.000000
_cell_angle_gamma 90.000000
_cell_volume 2396.790350
_symmetry_space_group_name_H-M "C M M 2"
_symmetry_group_IT_number 35
_symmetry_cell_setting 'orthorhombic'
loop_
_space_group_symop_operation_xyz
x,y,z
-x,-y,z
-x,y,z
x,-y,z
1/2+x,1/2+y,z
1/2-x,1/2-y,z
1/2-x,1/2+y,z
1/2+x,1/2-y,z
loop_
_atom_site_type_symbol
_atom_site_label
_atom_site_fract_x
_atom_site_fract_y
_atom_site_fract_z
Si Si1 0.829602 0.695416 0.396420
Si Si2 0.079587 0.291850 0.073969
Si Si3 0.170344 0.707768 0.748160
Si Si4 0.581327 0.500000 0.473170
Si Si5 0.827707 0.704771 0.930104
Si Si6 0.825575 0.801782 0.220793
Si Si7 0.918431 0.000000 0.663286
O O1 0.843668 0.500000 0.430045
O O2 0.750000 0.750000 0.417341
O O3 0.841690 0.688390 0.300020
O O4 0.883870 0.825174 0.438384
O O5 0.084214 0.500000 0.074410
O O6 0.114538 0.220454 0.154668
O O7 0.000000 0.223191 0.072039
O O8 0.117864 0.213140 0.994524
O O9 0.154492 0.500000 0.738048
O O10 0.250000 0.750000 0.720465
O O11 0.159839 0.777081 0.840009
O O12 0.116973 0.821115 0.695081
O O13 0.500000 0.500000 0.446967
O O14 0.590541 0.500000 0.568248
O O15 0.838957 0.500000 0.926642
O O16 0.750000 0.750000 0.961323
O O17 0.750000 0.750000 0.182318
O O18 0.823139 0.000000 0.251523
O O19 0.000000 0.000000 0.689662
#
# Coordination Sequence:
#
# PCOD8173719 Si02
#       7
#     8   8   8   4   8   8   4
#     4  11  21  42  70  97 125 164 213 262 314 373
#     4  10  21  36  52  80 120 161 205 248 300 360
#     4  10  20  40  67  96 126 163 216 264 312 375
#     4  11  26  46  64  95 136 166 203 259 320 388
#     4   9  19  34  58  84 115 155 200 256 304 355
#     4  11  21  37  60  86 119 155 203 258 303 358
#     4  11  26  44  64  95 134 168 203 257 326 384
#
# _framework density 20.026783999999999
#
# number of rings (size 3 to 8) (size 9 to 14) (size 15 to 20)
#    0.000    1.667    2.500    3.000    1.167    5.667 
#    0.000    3.333    0.000    0.000    0.000    0.000 
#    0.000    0.000    0.000    0.000    0.000    0.000 
#
# Total GULP energy -297623.324635 kJ/mol
# GULP energy per Si atom -12400.971860 kJ/mol
# Density = 1.998120 g / cm^3
# Si number density = 20.026784 Si / 1000 Ang^3
#
#
#
# Elastic Constant Matrix: (Units=GPa)
#
#
# Indices 1 2 3 4 5 6 
#
# 1 163.6197 57.4685 79.5472 0.0000 0.0000 0.0000
# 2 57.4685 123.9296 36.3672 0.0000 0.0000 0.0000
# 3 79.5472 36.3672 90.5253 0.0000 0.0000 0.0000
# 4 0.0000 0.0000 0.0000 -48.8792 0.0000 0.0000
# 5 0.0000 0.0000 0.0000 0.0000 21.5861 0.0000
# 6 0.0000 0.0000 0.0000 0.0000 0.0000 29.1698
#
#
#
# Elastic Compliance Matrix: (Units=1/GPa)
#
#
# Indices 1 2 3 4 5 6 
#
# 1 0.011394 -0.002659 -0.008944 0.000000 0.000000 0.000000
# 2 -0.002659 0.009768 -0.001588 0.000000 0.000000 0.000000
# 3 -0.008944 -0.001588 0.019544 0.000000 0.000000 0.000000
# 4 0.000000 0.000000 0.000000 -0.020459 0.000000 0.000000
# 5 0.000000 0.000000 0.000000 0.000000 0.046326 0.000000
# 6 0.000000 0.000000 0.000000 0.000000 0.000000 0.034282
#
#
# Mechanical properties :
#
#
# Convention : Reuss Voigt Hill
#
# Bulk Modulus (GPa) = 69.81024 80.53781 75.17402
# Shear Modulus (GPa) = 37.87555 14.02147 25.94851
#
# Velocity S-wave (km/s) = 4.35356 2.64888 3.60348
# Velocity P-wave (km/s) = 7.75922 7.04683 7.41159
#
# Compressibility (1/GPa) = 0.01432455
#
# Stress axis : x y z
#
# Youngs Moduli (GPa) = 87.76572 102.37507 51.16714
#
# Poissons Ratio (x) = 0.27221 0.45764
# Poissons Ratio (y) = 0.23337 0.08123
# Poissons Ratio (z) = 0.78498 0.16253
#
# Static dielectric constant tensor:
#      x y z
#    x 3.765580 0.000000 0.000000 
#    y 0.000000 3.674440 0.000000 
#    z 0.000000 0.000000 3.659650 
# 
# 
# High freq. dielectric constant tensor:
#      x y z
#    x 1.776580 0.000000 0.000000 
#    y 0.000000 1.790610 0.000000 
#    z 0.000000 0.000000 1.778330 
# 
# From -- ./inp_files/18773.got.cif
#   From: 2010.03.12/outbox.cif.g09.slc.cpg/sg35_10_cif.got.tgz:18773.got - 2010.04.14 02:02:04.
