data_PCOD8173170
_publ_section_title
;
Structure prediction by ZEFSAII (Michael W. Deem and Ramdas Pophale) SiO2 
 PCOD8173170
Probable space group: C M M 2
;
_chemical_formula_sum "Si O2"
_cell_formula_units_Z 64
_cell_length_a 25.830947
_cell_length_b 25.718040
_cell_length_c 5.177196
_cell_angle_alpha 90.000000
_cell_angle_beta 90.000000
_cell_angle_gamma 90.000000
_cell_volume 3439.321723
_symmetry_space_group_name_H-M "C M M 2"
_symmetry_group_IT_number 35
_symmetry_cell_setting 'orthorhombic'
loop_
_space_group_symop_operation_xyz
x,y,z
-x,-y,z
-x,y,z
x,-y,z
1/2+x,1/2+y,z
1/2-x,1/2-y,z
1/2-x,1/2+y,z
1/2+x,1/2-y,z
loop_
_atom_site_type_symbol
_atom_site_label
_atom_site_fract_x
_atom_site_fract_y
_atom_site_fract_z
Si Si1 0.617242 0.693741 0.594420
Si Si2 0.556711 0.251121 0.219018
Si Si3 0.941882 0.135069 0.973603
Si Si4 0.210758 0.803234 0.271667
Si Si5 0.638111 0.559317 0.180972
Si Si6 0.262152 0.156756 0.769023
Si Si7 0.705826 0.558462 0.669739
Si Si8 0.656754 0.775321 0.972113
O O1 0.573207 0.736130 0.513249
O O2 0.590735 0.641621 0.707600
O O3 0.652226 0.676972 0.347454
O O4 0.654523 0.724009 0.793475
O O5 0.500000 0.224362 0.210362
O O6 0.555728 0.307058 0.085011
O O7 0.599971 0.213098 0.092028
O O8 0.000000 0.114442 0.919109
O O9 0.913483 0.094570 0.162489
O O10 0.245187 0.807124 0.529662
O O11 0.228578 0.837406 0.029690
O O12 0.201244 0.741893 0.185376
O O13 0.619749 0.500000 0.226384
O O14 0.673619 0.577067 0.420492
O O15 0.670237 0.563701 0.918689
O O16 0.255872 0.096378 0.689917
O O17 0.321813 0.173031 0.830521
O O18 0.727102 0.500000 0.635241
#
# Coordination Sequence:
#
# PCOD8173170 Si02
#       8
#     8   8   8   8   8   8   8   8
#     4  10  20  34  50  75 107 140 181 221 261 333
#     4   9  20  36  53  74 107 146 182 218 264 325
#     4  10  21  34  52  75  99 135 183 232 279 320
#     4  11  23  33  50  80 112 146 173 216 278 328
#     4  10  22  39  56  76 100 132 180 232 282 332
#     4  12  24  34  56  79 110 144 176 226 276 331
#     4  10  23  40  57  76 102 140 182 222 274 334
#     4  10  23  33  51  80 112 138 181 220 265 330
#
# _framework density 18.608319000000002
#
# number of rings (size 3 to 8) (size 9 to 14) (size 15 to 20)
#    0.000    1.750    1.250    2.250   15.750    0.750 
#    0.000    0.000    0.000    2.250    0.000    0.000 
#    0.000    0.500    0.000    0.250    0.000    0.125 
#
# Total GULP energy -396514.067257 kJ/mol
# GULP energy per Si atom -12391.064602 kJ/mol
# Density = 1.856597 g / cm^3
# Si number density = 18.608319 Si / 1000 Ang^3
#
#
#
# Elastic Constant Matrix: (Units=GPa)
#
#
# Indices 1 2 3 4 5 6 
#
# 1 112.4499 57.1208 35.4147 0.0000 0.0000 0.0000
# 2 57.1208 81.4213 22.7450 0.0000 0.0000 0.0000
# 3 35.4147 22.7450 105.6344 0.0000 0.0000 0.0000
# 4 0.0000 0.0000 0.0000 19.5779 0.0000 0.0000
# 5 0.0000 0.0000 0.0000 0.0000 26.2017 0.0000
# 6 0.0000 0.0000 0.0000 0.0000 0.0000 22.2572
#
#
#
# Elastic Compliance Matrix: (Units=1/GPa)
#
#
# Indices 1 2 3 4 5 6 
#
# 1 0.014585 -0.009434 -0.002859 0.000000 0.000000 0.000000
# 2 -0.009434 0.019169 -0.000965 0.000000 0.000000 0.000000
# 3 -0.002859 -0.000965 0.010633 0.000000 0.000000 0.000000
# 4 0.000000 0.000000 0.000000 0.051078 0.000000 0.000000
# 5 0.000000 0.000000 0.000000 0.000000 0.038165 0.000000
# 6 0.000000 0.000000 0.000000 0.000000 0.000000 0.044929
#
#
# Mechanical properties :
#
#
# Convention : Reuss Voigt Hill
#
# Bulk Modulus (GPa) = 55.94941 58.89629 57.42285
# Shear Modulus (GPa) = 23.69312 25.88902 24.79107
#
# Velocity S-wave (km/s) = 3.57214 3.73401 3.65397
# Velocity P-wave (km/s) = 6.86628 7.09293 6.98052
#
# Compressibility (1/GPa) = 0.01787329
#
# Stress axis : x y z
#
# Youngs Moduli (GPa) = 68.56342 52.16642 94.04951
#
# Poissons Ratio (x) = 0.49212 0.26884
# Poissons Ratio (y) = 0.64680 0.09074
# Poissons Ratio (z) = 0.19599 0.05033
#
# Static dielectric constant tensor:
#      x y z
#    x 3.554470 0.000000 0.000000 
#    y 0.000000 3.195670 0.000000 
#    z 0.000000 0.000000 3.883330 
# 
# 
# High freq. dielectric constant tensor:
#      x y z
#    x 1.705550 0.000000 0.000000 
#    y 0.000000 1.669800 0.000000 
#    z 0.000000 0.000000 1.750510 
# 
# From -- ./inp_files/3823.got.cif
#   From: 2010.03.12/outbox.cif.g09.slc.cpg/sg35_2_cif.got.tgz:3823.got - 2010.04.14 02:02:04.
