data_PCOD8173045
_publ_section_title
;
Structure prediction by ZEFSAII (Michael W. Deem and Ramdas Pophale) SiO2 
 PCOD8173045
Probable space group: C M M 2
;
_chemical_formula_sum "Si O2"
_cell_formula_units_Z 64
_cell_length_a 18.468065
_cell_length_b 9.805938
_cell_length_c 20.475858
_cell_angle_alpha 90.000000
_cell_angle_beta 90.000000
_cell_angle_gamma 90.000000
_cell_volume 3708.110321
_symmetry_space_group_name_H-M "C M M 2"
_symmetry_group_IT_number 35
_symmetry_cell_setting 'orthorhombic'
loop_
_space_group_symop_operation_xyz
x,y,z
-x,-y,z
-x,y,z
x,-y,z
1/2+x,1/2+y,z
1/2-x,1/2-y,z
1/2-x,1/2+y,z
1/2+x,1/2-y,z
loop_
_atom_site_type_symbol
_atom_site_label
_atom_site_fract_x
_atom_site_fract_y
_atom_site_fract_z
Si Si1 0.086053 0.846461 0.903800
Si Si2 0.178318 0.339723 0.289195
Si Si3 0.416280 0.156138 0.790741
Si Si4 0.318286 0.842110 0.524422
Si Si5 0.419492 0.839350 0.408585
Si Si6 0.916474 0.656523 0.162735
Si Si7 0.683425 0.156135 0.672528
Si Si8 0.913969 0.847148 0.048215
O O1 0.118679 0.746046 0.848920
O O2 0.000000 0.835651 0.903650
O O3 0.110775 0.000000 0.887087
O O4 0.114781 0.804841 0.976046
O O5 0.198176 0.500000 0.295325
O O6 0.250000 0.250000 0.284920
O O7 0.132048 0.286020 0.350806
O O8 0.130190 0.310173 0.225993
O O9 0.500000 0.190454 0.781807
O O10 0.381202 0.192517 0.721380
O O11 0.403077 0.000000 0.810368
O O12 0.250000 0.750000 0.505457
O O13 0.384871 0.799675 0.478253
O O14 0.343192 0.814561 0.598769
O O15 0.296548 0.000000 0.513514
O O16 0.500000 0.773585 0.404071
O O17 0.427014 0.000000 0.401171
O O18 0.909388 0.500000 0.141765
O O19 0.884008 0.744468 0.102898
O O20 0.000000 0.693774 0.178119
O O21 0.750000 0.250000 0.692032
O O22 0.708449 0.000000 0.679885
O O23 0.000000 0.841409 0.047470
O O24 0.887588 0.000000 0.065222
#
# Coordination Sequence:
#
# PCOD8173045 Si02
#       8
#     8   8   8   8   8   8   8   8
#     4   8  14  25  41  63  91 120 149 182 224 275
#     4  10  20  33  49  69  94 124 156 189 225 268
#     4   9  17  28  43  65  92 119 149 190 234 270
#     4   9  17  30  49  70  92 121 155 189 226 270
#     4   9  17  30  50  74  96 120 153 191 228 267
#     4   9  17  29  46  68  92 118 150 189 230 270
#     4   9  18  31  46  66  92 122 155 189 226 270
#     4   8  14  25  42  65  92 119 147 183 227 273
#
# _framework density 17.259464999999999
#
# number of rings (size 3 to 8) (size 9 to 14) (size 15 to 20)
#    0.000    3.125    0.000    1.500    0.000    3.500 
#    0.000    5.000    0.000    3.000    0.000    3.500 
#    0.000    0.000    0.000    0.000    0.000    0.000 
#
# Total GULP energy -396675.711557 kJ/mol
# GULP energy per Si atom -12396.115986 kJ/mol
# Density = 1.722018 g / cm^3
# Si number density = 17.259465 Si / 1000 Ang^3
#
#
#
# Elastic Constant Matrix: (Units=GPa)
#
#
# Indices 1 2 3 4 5 6 
#
# 1 78.3365 46.4496 61.7261 0.0000 0.0000 0.0000
# 2 46.4496 69.4241 69.0638 0.0000 0.0000 0.0000
# 3 61.7261 69.0638 142.3015 0.0000 0.0000 0.0000
# 4 0.0000 0.0000 0.0000 25.3481 0.0000 0.0000
# 5 0.0000 0.0000 0.0000 0.0000 8.4717 0.0000
# 6 0.0000 0.0000 0.0000 0.0000 0.0000 21.8942
#
#
#
# Elastic Compliance Matrix: (Units=1/GPa)
#
#
# Indices 1 2 3 4 5 6 
#
# 1 0.022734 -0.010442 -0.004793 0.000000 0.000000 0.000000
# 2 -0.010442 0.032647 -0.011315 0.000000 0.000000 0.000000
# 3 -0.004793 -0.011315 0.014598 0.000000 0.000000 0.000000
# 4 0.000000 0.000000 0.000000 0.039451 0.000000 0.000000
# 5 0.000000 0.000000 0.000000 0.000000 0.118040 0.000000
# 6 0.000000 0.000000 0.000000 0.000000 0.000000 0.045674
#
#
# Mechanical properties :
#
#
# Convention : Reuss Voigt Hill
#
# Bulk Modulus (GPa) = 59.24916 71.61568 65.43242
# Shear Modulus (GPa) = 15.06599 18.66431 16.86515
#
# Velocity S-wave (km/s) = 2.95771 3.29203 3.12934
# Velocity P-wave (km/s) = 6.78728 7.48556 7.14495
#
# Compressibility (1/GPa) = 0.01687788
#
# Stress axis : x y z
#
# Youngs Moduli (GPa) = 43.98666 30.63029 68.50086
#
# Poissons Ratio (x) = 0.31985 0.32836
# Poissons Ratio (y) = 0.45931 0.77512
# Poissons Ratio (z) = 0.21085 0.34659
#
# Static dielectric constant tensor:
#      x y z
#    x 2.974270 0.000000 0.000000 
#    y 0.000000 3.208560 0.000000 
#    z 0.000000 0.000000 3.536410 
# 
# 
# High freq. dielectric constant tensor:
#      x y z
#    x 1.633000 0.000000 0.000000 
#    y 0.000000 1.652630 0.000000 
#    z 0.000000 0.000000 1.682140 
# 
# From -- ./inp_files/18646.got.cif
#   From: 2010.03.12/outbox.cif.g09.slc.cpg/sg35_10_cif.got.tgz:18646.got - 2010.04.14 02:02:04.
