data_PCOD8173950
_publ_section_title
;
Structure prediction by ZEFSAII (Michael W. Deem and Ramdas Pophale) SiO2 
 PCOD8173950
Probable space group: C M M 2
;
_chemical_formula_sum "Si O2"
_cell_formula_units_Z 48
_cell_length_a 7.740937
_cell_length_b 28.530035
_cell_length_c 10.403051
_cell_angle_alpha 90.000000
_cell_angle_beta 90.000000
_cell_angle_gamma 90.000000
_cell_volume 2297.505528
_symmetry_space_group_name_H-M "C M M 2"
_symmetry_group_IT_number 35
_symmetry_cell_setting 'orthorhombic'
loop_
_space_group_symop_operation_xyz
x,y,z
-x,-y,z
-x,y,z
x,-y,z
1/2+x,1/2+y,z
1/2-x,1/2-y,z
1/2-x,1/2+y,z
1/2+x,1/2-y,z
loop_
_atom_site_type_symbol
_atom_site_label
_atom_site_fract_x
_atom_site_fract_y
_atom_site_fract_z
Si Si1 0.293633 0.624665 0.434410
Si Si2 0.700894 0.445857 0.974068
Si Si3 0.306397 0.368185 0.154052
Si Si4 0.500000 0.056161 0.501495
Si Si5 0.305289 0.196852 0.934642
Si Si6 0.201583 0.803475 0.655670
Si Si7 0.000000 0.555152 0.791049
O O1 0.500000 0.613533 0.446601
O O2 0.233235 0.645539 0.294553
O O3 0.236628 0.663384 0.539161
O O4 0.179232 0.577424 0.446546
O O5 0.500000 0.435241 0.938274
O O6 0.729035 0.500000 0.007181
O O7 0.822384 0.427809 0.858259
O O8 0.770512 0.416530 0.096600
O O9 0.500000 0.380780 0.185988
O O10 0.302828 0.328300 0.045493
O O11 0.500000 0.073307 0.647859
O O12 0.500000 0.000000 0.481477
O O13 0.500000 0.190415 0.979116
O O14 0.250000 0.250000 0.931734
O O15 0.283556 0.177593 0.789335
O O16 0.250000 0.750000 0.622658
O O17 0.000000 0.806468 0.676221
O O18 0.000000 0.500000 0.794039
#
# Coordination Sequence:
#
# PCOD8173950 Si02
#       7
#     8   8   8   4   8   8   4
#     4  10  25  43  63  93 130 171 218 264 324 389
#     4   9  19  35  58  87 119 157 200 251 313 374
#     4  10  22  40  60  88 124 160 205 258 311 372
#     4  11  26  43  65  93 129 173 223 275 322 386
#     4  11  23  38  62  93 125 163 207 259 316 378
#     4  10  21  39  63  92 125 168 212 263 323 388
#     4   9  20  37  57  87 121 153 203 261 313 368
#
# _framework density 20.892223999999999
#
# number of rings (size 3 to 8) (size 9 to 14) (size 15 to 20)
#    0.000    2.000    0.000    3.000    7.000    2.333 
#    0.000    5.833    0.000    0.000    0.000    0.000 
#    0.000    0.000    0.000    0.000    0.000    0.000 
#
# Total GULP energy -297352.361778 kJ/mol
# GULP energy per Si atom -12389.681741 kJ/mol
# Density = 2.084467 g / cm^3
# Si number density = 20.892224 Si / 1000 Ang^3
#
#
#
# Elastic Constant Matrix: (Units=GPa)
#
#
# Indices 1 2 3 4 5 6 
#
# 1 75.0271 21.3758 25.3633 0.0000 0.0000 0.0000
# 2 21.3758 90.4751 66.2638 0.0000 0.0000 0.0000
# 3 25.3633 66.2638 181.0659 0.0000 0.0000 0.0000
# 4 0.0000 0.0000 0.0000 -56.5121 0.0000 0.0000
# 5 0.0000 0.0000 0.0000 0.0000 19.0991 0.0000
# 6 0.0000 0.0000 0.0000 0.0000 0.0000 27.1085
#
#
#
# Elastic Compliance Matrix: (Units=1/GPa)
#
#
# Indices 1 2 3 4 5 6 
#
# 1 0.014437 -0.002636 -0.001057 0.000000 0.000000 0.000000
# 2 -0.002636 0.015582 -0.005333 0.000000 0.000000 0.000000
# 3 -0.001057 -0.005333 0.007623 0.000000 0.000000 0.000000
# 4 0.000000 0.000000 0.000000 -0.017695 0.000000 0.000000
# 5 0.000000 0.000000 0.000000 0.000000 0.052359 0.000000
# 6 0.000000 0.000000 0.000000 0.000000 0.000000 0.036889
#
#
# Mechanical properties :
#
#
# Convention : Reuss Voigt Hill
#
# Bulk Modulus (GPa) = 51.05290 63.61930 57.33610
# Shear Modulus (GPa) = 37.37579 13.51011 25.44295
#
# Velocity S-wave (km/s) = 4.23422 2.54570 3.49351
# Velocity P-wave (km/s) = 6.95660 6.25764 6.61636
#
# Compressibility (1/GPa) = 0.01958753
#
# Stress axis : x y z
#
# Youngs Moduli (GPa) = 69.26577 64.17849 131.18761
#
# Poissons Ratio (x) = 0.16920 0.13873
# Poissons Ratio (y) = 0.18262 0.69962
# Poissons Ratio (z) = 0.07325 0.34226
#
# Static dielectric constant tensor:
#      x y z
#    x 4.089010 0.000000 0.000000 
#    y 0.000000 5.121720 0.000000 
#    z 0.000000 0.000000 4.397720 
# 
# 
# High freq. dielectric constant tensor:
#      x y z
#    x 1.825130 0.000000 0.000000 
#    y 0.000000 1.811250 0.000000 
#    z 0.000000 0.000000 1.823920 
# 
# From -- ./inp_files/5359.got.cif
#   From: 2010.03.12/outbox.cif.g09.slc.cpg/sg35_3_cif.got.tgz:5359.got - 2010.04.14 02:02:04.
