data_PCOD8173429
_publ_section_title
;
Structure prediction by ZEFSAII (Michael W. Deem and Ramdas Pophale) SiO2 
 PCOD8173429
Probable space group: C M M 2
;
_chemical_formula_sum "Si O2"
_cell_formula_units_Z 48
_cell_length_a 8.740344
_cell_length_b 18.622070
_cell_length_c 15.307008
_cell_angle_alpha 90.000000
_cell_angle_beta 90.000000
_cell_angle_gamma 90.000000
_cell_volume 2491.419101
_symmetry_space_group_name_H-M "C M M 2"
_symmetry_group_IT_number 35
_symmetry_cell_setting 'orthorhombic'
loop_
_space_group_symop_operation_xyz
x,y,z
-x,-y,z
-x,y,z
x,-y,z
1/2+x,1/2+y,z
1/2-x,1/2-y,z
1/2-x,1/2+y,z
1/2+x,1/2-y,z
loop_
_atom_site_type_symbol
_atom_site_label
_atom_site_fract_x
_atom_site_fract_y
_atom_site_fract_z
Si Si1 0.319448 0.827232 0.423340
Si Si2 0.821869 0.916421 0.272566
Si Si3 0.820931 0.582308 0.949909
Si Si4 0.679722 0.328045 0.103130
Si Si5 0.325418 0.583270 0.770641
Si Si6 0.818576 0.826624 0.605273
O O1 0.500000 0.818657 0.430790
O O2 0.250000 0.750000 0.397665
O O3 0.277882 0.885781 0.351267
O O4 0.252449 0.855554 0.515023
O O5 0.769754 0.877027 0.184315
O O6 0.000000 0.903083 0.292521
O O7 0.784588 0.000000 0.261086
O O8 0.767147 0.500000 0.965268
O O9 0.778544 0.606996 0.852099
O O10 0.000000 0.590638 0.964311
O O11 0.735113 0.634570 0.015231
O O12 0.500000 0.319354 0.098021
O O13 0.750000 0.250000 0.114816
O O14 0.500000 0.604101 0.792537
O O15 0.307528 0.500000 0.750989
O O16 0.267170 0.621947 0.683535
O O17 0.750000 0.750000 0.628483
O O18 0.000000 0.822304 0.594559
#
# Coordination Sequence:
#
# PCOD8173429 Si02
#       6
#     8   8   8   8   8   8
#     4  11  22  37  58  83 113 149 188 231 279 330
#     4  10  22  40  61  85 113 146 184 227 277 332
#     4  10  21  37  58  84 114 148 186 231 280 329
#     4  11  23  39  60  85 113 147 186 229 277 330
#     4   9  19  36  57  80 108 146 189 230 275 328
#     4  10  20  35  56  81 110 146 186 230 279 329
#
# _framework density 19.266127000000001
#
# number of rings (size 3 to 8) (size 9 to 14) (size 15 to 20)
#    0.000    1.833    0.000    5.000    0.000    7.333 
#    0.000    3.333    0.000    0.000    0.000    0.000 
#    0.000    0.000    0.000    0.000    0.000    0.000 
#
# Total GULP energy -297702.373406 kJ/mol
# GULP energy per Si atom -12404.265559 kJ/mol
# Density = 1.922228 g / cm^3
# Si number density = 19.266127 Si / 1000 Ang^3
#
#
#
# Elastic Constant Matrix: (Units=GPa)
#
#
# Indices 1 2 3 4 5 6 
#
# 1 93.8821 51.3614 58.9119 0.0000 0.0000 0.0000
# 2 51.3614 111.6002 86.2141 0.0000 0.0000 0.0000
# 3 58.9119 86.2141 149.1871 0.0000 0.0000 0.0000
# 4 0.0000 0.0000 0.0000 43.0165 0.0000 0.0000
# 5 0.0000 0.0000 0.0000 0.0000 24.2306 0.0000
# 6 0.0000 0.0000 0.0000 0.0000 0.0000 31.7293
#
#
#
# Elastic Compliance Matrix: (Units=1/GPa)
#
#
# Indices 1 2 3 4 5 6 
#
# 1 0.015206 -0.004262 -0.003541 0.000000 0.000000 0.000000
# 2 -0.004262 0.017382 -0.008362 0.000000 0.000000 0.000000
# 3 -0.003541 -0.008362 0.012934 0.000000 0.000000 0.000000
# 4 0.000000 0.000000 0.000000 0.023247 0.000000 0.000000
# 5 0.000000 0.000000 0.000000 0.000000 0.041270 0.000000
# 6 0.000000 0.000000 0.000000 0.000000 0.000000 0.031517
#
#
# Mechanical properties :
#
#
# Convention : Reuss Voigt Hill
#
# Bulk Modulus (GPa) = 75.81268 83.07160 79.44214
# Shear Modulus (GPa) = 28.04540 30.34074 29.19307
#
# Velocity S-wave (km/s) = 3.81948 3.97271 3.89685
# Velocity P-wave (km/s) = 7.67378 8.01591 7.84671
#
# Compressibility (1/GPa) = 0.01319041
#
# Stress axis : x y z
#
# Youngs Moduli (GPa) = 65.76464 57.53142 77.31786
#
# Poissons Ratio (x) = 0.24521 0.27381
# Poissons Ratio (y) = 0.28031 0.64651
# Poissons Ratio (z) = 0.23290 0.48106
#
# Static dielectric constant tensor:
#      x y z
#    x 3.548010 0.000000 0.000000 
#    y 0.000000 3.554080 0.000000 
#    z 0.000000 0.000000 3.685870 
# 
# 
# High freq. dielectric constant tensor:
#      x y z
#    x 1.755590 0.000000 0.000000 
#    y 0.000000 1.748290 0.000000 
#    z 0.000000 0.000000 1.763240 
# 
# From -- ./inp_files/15108.got.cif
#   From: 2010.03.12/outbox.cif.g09.slc.cpg/sg35_8_cif.got.tgz:15108.got - 2010.04.14 02:02:04.
