data_PCOD8173596
_publ_section_title
;
Structure prediction by ZEFSAII (Michael W. Deem and Ramdas Pophale) SiO2 
 PCOD8173596
Probable space group: C M M 2
;
_chemical_formula_sum "Si O2"
_cell_formula_units_Z 48
_cell_length_a 18.044404
_cell_length_b 7.781492
_cell_length_c 17.155388
_cell_angle_alpha 90.000000
_cell_angle_beta 90.000000
_cell_angle_gamma 90.000000
_cell_volume 2408.828951
_symmetry_space_group_name_H-M "C M M 2"
_symmetry_group_IT_number 35
_symmetry_cell_setting 'orthorhombic'
loop_
_space_group_symop_operation_xyz
x,y,z
-x,-y,z
-x,y,z
x,-y,z
1/2+x,1/2+y,z
1/2-x,1/2-y,z
1/2-x,1/2+y,z
1/2+x,1/2-y,z
loop_
_atom_site_type_symbol
_atom_site_label
_atom_site_fract_x
_atom_site_fract_y
_atom_site_fract_z
Si Si1 0.164988 0.298843 0.849630
Si Si2 0.832764 0.193554 0.544267
Si Si3 0.585055 0.190988 0.397576
Si Si4 0.914021 0.701880 0.696299
Si Si5 0.588014 0.500000 0.291013
Si Si6 0.587376 0.197329 0.005795
Si Si7 0.912163 0.000000 0.117240
O O1 0.153152 0.500000 0.847039
O O2 0.250000 0.250000 0.850278
O O3 0.125941 0.220879 0.773010
O O4 0.126110 0.230682 0.927831
O O5 0.750000 0.250000 0.564582
O O6 0.867315 0.309233 0.476334
O O7 0.881178 0.203971 0.621746
O O8 0.833745 0.000000 0.513184
O O9 0.500000 0.234248 0.419379
O O10 0.615908 0.328914 0.335524
O O11 0.591501 0.000000 0.360760
O O12 0.899546 0.500000 0.686950
O O13 0.000000 0.745974 0.703261
O O14 0.500000 0.500000 0.285683
O O15 0.622280 0.500000 0.204139
O O16 0.500000 0.209025 0.992290
O O17 0.614224 0.325255 0.074281
O O18 0.610513 0.000000 0.026021
O O19 0.000000 0.000000 0.121699
#
# Coordination Sequence:
#
# PCOD8173596 Si02
#       7
#     8   8   8   8   4   8   4
#     4  10  21  35  54  80 110 151 190 236 281 335
#     4  12  24  38  56  82 114 152 194 241 282 341
#     4  10  20  36  59  86 116 151 191 236 288 342
#     4  10  21  38  58  81 114 151 191 237 287 336
#     4   9  18  34  56  87 119 145 183 235 289 345
#     4   9  18  34  55  81 112 147 190 236 286 340
#     4   9  18  32  56  87 115 145 183 235 289 337
#
# _framework density 19.926696
#
# number of rings (size 3 to 8) (size 9 to 14) (size 15 to 20)
#    0.000    2.000    0.833    3.000    1.167    7.000 
#    0.000    3.333    0.000    1.000    0.000    0.000 
#    0.000    0.000    0.000    0.000    0.000    0.000 
#
# Total GULP energy -297623.913770 kJ/mol
# GULP energy per Si atom -12400.996407 kJ/mol
# Density = 1.988134 g / cm^3
# Si number density = 19.926696 Si / 1000 Ang^3
#
#
#
# Elastic Constant Matrix: (Units=GPa)
#
#
# Indices 1 2 3 4 5 6 
#
# 1 73.0029 23.4767 41.0497 0.0000 0.0000 0.0000
# 2 23.4767 105.5762 56.6542 0.0000 0.0000 0.0000
# 3 41.0497 56.6542 165.5493 0.0000 0.0000 0.0000
# 4 0.0000 0.0000 0.0000 29.6900 0.0000 0.0000
# 5 0.0000 0.0000 0.0000 0.0000 7.2070 0.0000
# 6 0.0000 0.0000 0.0000 0.0000 0.0000 22.8033
#
#
#
# Elastic Compliance Matrix: (Units=1/GPa)
#
#
# Indices 1 2 3 4 5 6 
#
# 1 0.016183 -0.001770 -0.003407 0.000000 0.000000 0.000000
# 2 -0.001770 0.011796 -0.003598 0.000000 0.000000 0.000000
# 3 -0.003407 -0.003598 0.008117 0.000000 0.000000 0.000000
# 4 0.000000 0.000000 0.000000 0.033681 0.000000 0.000000
# 5 0.000000 0.000000 0.000000 0.000000 0.138754 0.000000
# 6 0.000000 0.000000 0.000000 0.000000 0.000000 0.043853
#
#
# Mechanical properties :
#
#
# Convention : Reuss Voigt Hill
#
# Bulk Modulus (GPa) = 53.92149 65.16551 59.54350
# Shear Modulus (GPa) = 18.10831 26.80326 22.45578
#
# Velocity S-wave (km/s) = 3.01781 3.67153 3.36060
# Velocity P-wave (km/s) = 6.26591 7.12370 6.70853
#
# Compressibility (1/GPa) = 0.01854548
#
# Stress axis : x y z
#
# Youngs Moduli (GPa) = 61.79269 84.77302 123.20496
#
# Poissons Ratio (x) = 0.15008 0.41975
# Poissons Ratio (y) = 0.10940 0.44328
# Poissons Ratio (z) = 0.21052 0.30501
#
# Static dielectric constant tensor:
#      x y z
#    x 3.372930 0.000000 0.000000 
#    y 0.000000 3.759160 0.000000 
#    z 0.000000 0.000000 3.774180 
# 
# 
# High freq. dielectric constant tensor:
#      x y z
#    x 1.756360 0.000000 0.000000 
#    y 0.000000 1.784220 0.000000 
#    z 0.000000 0.000000 1.775390 
# 
# From -- ./inp_files/15184.got.cif
#   From: 2010.03.12/outbox.cif.g09.slc.cpg/sg35_8_cif.got.tgz:15184.got - 2010.04.14 02:02:04.
