data_PCOD8173549
_publ_section_title
;
Structure prediction by ZEFSAII (Michael W. Deem and Ramdas Pophale) SiO2 
 PCOD8173549
Probable space group: C M M 2
;
_chemical_formula_sum "Si O2"
_cell_formula_units_Z 56
_cell_length_a 8.765993
_cell_length_b 18.481182
_cell_length_c 18.165116
_cell_angle_alpha 90.000000
_cell_angle_beta 90.000000
_cell_angle_gamma 90.000000
_cell_volume 2942.856185
_symmetry_space_group_name_H-M "C M M 2"
_symmetry_group_IT_number 35
_symmetry_cell_setting 'orthorhombic'
loop_
_space_group_symop_operation_xyz
x,y,z
-x,-y,z
-x,y,z
x,-y,z
1/2+x,1/2+y,z
1/2-x,1/2-y,z
1/2-x,1/2+y,z
1/2+x,1/2-y,z
loop_
_atom_site_type_symbol
_atom_site_label
_atom_site_fract_x
_atom_site_fract_y
_atom_site_fract_z
Si Si1 0.681590 0.916142 0.633190
Si Si2 0.320845 0.326700 0.076954
Si Si3 0.821614 0.326170 0.229560
Si Si4 0.174879 0.586053 0.950807
Si Si5 0.678957 0.328393 0.500953
Si Si6 0.176447 0.584299 0.792352
Si Si7 0.323714 0.083987 0.372031
O O1 0.500000 0.908842 0.626583
O O2 0.761174 0.865915 0.574270
O O3 0.739631 0.886272 0.713850
O O4 0.728513 0.000000 0.620647
O O5 0.500000 0.318475 0.085769
O O6 0.250000 0.250000 0.054866
O O7 0.252037 0.354775 0.153976
O O8 0.283085 0.383571 0.013674
O O9 0.750000 0.250000 0.254262
O O10 0.787025 0.385242 0.291509
O O11 0.000000 0.314615 0.216709
O O12 0.181791 0.500000 0.953451
O O13 0.000000 0.611878 0.962676
O O14 0.241632 0.613764 0.870677
O O15 0.500000 0.319356 0.506886
O O16 0.750000 0.250000 0.490516
O O17 0.718623 0.377047 0.431063
O O18 0.206091 0.500000 0.788681
O O19 0.000000 0.602045 0.795841
O O20 0.500000 0.096978 0.393263
O O21 0.282001 0.000000 0.371539
#
# Coordination Sequence:
#
# PCOD8173549 Si02
#       7
#     8   8   8   8   8   8   8
#     4   9  17  33  58  84 110 140 176 220 269 320
#     4  11  22  36  54  77 108 145 184 223 267 318
#     4  10  20  36  58  81 106 140 180 220 266 318
#     4   9  17  32  55  81 109 141 179 222 268 320
#     4  12  25  39  56  79 109 145 183 221 265 316
#     4   7  12  26  51  80 106 137 176 216 263 319
#     4  10  22  40  61  85 112 141 174 214 262 316
#
# _framework density 19.029132000000001
#
# number of rings (size 3 to 8) (size 9 to 14) (size 15 to 20)
#    0.000    2.286    0.000    6.429    0.000    5.429 
#    0.000    2.857    0.000    2.571    0.000    0.000 
#    0.000    0.000    0.000    0.000    0.000    0.000 
#
# Total GULP energy -347014.838142 kJ/mol
# GULP energy per Si atom -12393.387077 kJ/mol
# Density = 1.898582 g / cm^3
# Si number density = 19.029132 Si / 1000 Ang^3
#
#
#
# Elastic Constant Matrix: (Units=GPa)
#
#
# Indices 1 2 3 4 5 6 
#
# 1 89.8234 34.0055 54.3431 0.0000 0.0000 0.0000
# 2 34.0055 81.9829 62.7376 0.0000 0.0000 0.0000
# 3 54.3431 62.7376 152.9613 0.0000 0.0000 0.0000
# 4 0.0000 0.0000 0.0000 -114.1993 0.0000 0.0000
# 5 0.0000 0.0000 0.0000 0.0000 -105.7275 0.0000
# 6 0.0000 0.0000 0.0000 0.0000 0.0000 27.3606
#
#
#
# Elastic Compliance Matrix: (Units=1/GPa)
#
#
# Indices 1 2 3 4 5 6 
#
# 1 0.014689 -0.003060 -0.003964 0.000000 0.000000 0.000000
# 2 -0.003060 0.018415 -0.006466 0.000000 0.000000 0.000000
# 3 -0.003964 -0.006466 0.010598 0.000000 0.000000 0.000000
# 4 0.000000 0.000000 0.000000 -0.008757 0.000000 0.000000
# 5 0.000000 0.000000 0.000000 0.000000 -0.009458 0.000000
# 6 0.000000 0.000000 0.000000 0.000000 0.000000 0.036549
#
#
# Mechanical properties :
#
#
# Convention : Reuss Voigt Hill
#
# Bulk Modulus (GPa) = 59.79670 69.66001 64.72836
# Shear Modulus (GPa) = 52.86011 -26.93449 12.96281
#
# Velocity S-wave (km/s) = 5.27625 -3.76631 2.61283
# Velocity P-wave (km/s) = 8.28314 4.21581 6.57204
#
# Compressibility (1/GPa) = 0.01672333
#
# Stress axis : x y z
#
# Youngs Moduli (GPa) = 68.07635 54.30412 94.35870
#
# Poissons Ratio (x) = 0.16615 0.37402
# Poissons Ratio (y) = 0.20829 0.61011
# Poissons Ratio (z) = 0.26984 0.35112
#
# Static dielectric constant tensor:
#      x y z
#    x 3.388400 0.000000 0.000000 
#    y 0.000000 3.297640 0.000000 
#    z 0.000000 0.000000 3.945750 
# 
# 
# High freq. dielectric constant tensor:
#      x y z
#    x 1.723400 0.000000 0.000000 
#    y 0.000000 1.718620 0.000000 
#    z 0.000000 0.000000 1.766910 
# 
# From -- ./inp_files/15636.got.cif
#   From: 2010.03.12/outbox.cif.g09.slc.cpg/sg35_8_cif.got.tgz:15636.got - 2010.04.14 02:02:04.
