data_PCOD8173568
_publ_section_title
;
Structure prediction by ZEFSAII (Michael W. Deem and Ramdas Pophale) SiO2 
 PCOD8173568
Probable space group: C M M 2
;
_chemical_formula_sum "Si O2"
_cell_formula_units_Z 56
_cell_length_a 20.019396
_cell_length_b 9.370687
_cell_length_c 14.520435
_cell_angle_alpha 90.000000
_cell_angle_beta 90.000000
_cell_angle_gamma 90.000000
_cell_volume 2723.968175
_symmetry_space_group_name_H-M "C M M 2"
_symmetry_group_IT_number 35
_symmetry_cell_setting 'orthorhombic'
loop_
_space_group_symop_operation_xyz
x,y,z
-x,-y,z
-x,y,z
x,-y,z
1/2+x,1/2+y,z
1/2-x,1/2-y,z
1/2-x,1/2+y,z
1/2+x,1/2-y,z
loop_
_atom_site_type_symbol
_atom_site_label
_atom_site_fract_x
_atom_site_fract_y
_atom_site_fract_z
Si Si1 0.000000 0.332102 0.902061
Si Si2 0.361230 0.831698 0.823009
Si Si3 0.805640 0.158313 0.986965
Si Si4 0.385556 0.655372 0.164024
Si Si5 0.683440 0.834704 0.620490
Si Si6 0.683275 0.334158 0.345205
Si Si7 0.421036 0.166329 0.462269
Si Si8 0.000000 0.666811 0.110107
O O1 0.063068 0.281919 0.842447
O O2 0.000000 0.500000 0.914407
O O3 0.000000 0.267877 0.006162
O O4 0.316833 0.744258 0.893400
O O5 0.339334 0.785090 0.721498
O O6 0.352559 0.000000 0.839345
O O7 0.750000 0.250000 0.040852
O O8 0.781099 0.000000 0.960739
O O9 0.866288 0.152471 0.056903
O O10 0.417447 0.500000 0.187353
O O11 0.324533 0.680870 0.234686
O O12 0.438042 0.782143 0.171568
O O13 0.750000 0.750000 0.588557
O O14 0.619149 0.804006 0.556765
O O15 0.703056 0.000000 0.618403
O O16 0.690143 0.500000 0.375711
O O17 0.750000 0.250000 0.376949
O O18 0.615828 0.264744 0.386969
O O19 0.500000 0.208011 0.472430
O O20 0.415020 0.000000 0.434300
O O21 0.000000 0.500000 0.107037
#
# Coordination Sequence:
#
# PCOD8173568 Si02
#       8
#     4   8   8   8   8   8   8   4
#     4   9  18  33  55  84 115 152 200 247 291 343
#     4  10  20  36  58  85 118 156 200 245 295 355
#     4  11  22  36  55  80 114 155 197 245 296 349
#     4  10  23  40  58  84 121 160 198 245 303 361
#     4  10  22  39  63  90 121 161 200 249 305 363
#     4  11  24  43  67  93 123 162 205 252 310 368
#     4  10  23  43  66  95 126 158 202 252 307 369
#     4  11  21  35  59  88 117 158 208 253 297 351
#
# _framework density 20.558243000000001
#
# number of rings (size 3 to 8) (size 9 to 14) (size 15 to 20)
#    0.000    1.714    1.429    2.357    2.000    5.429 
#    0.000    0.357    0.000    0.000    0.000    0.000 
#    0.000    0.000    0.000    0.000    0.000    0.000 
#
# Total GULP energy -347017.320744 kJ/mol
# GULP energy per Si atom -12393.475741 kJ/mol
# Density = 2.051145 g / cm^3
# Si number density = 20.558243 Si / 1000 Ang^3
#
#
#
# Elastic Constant Matrix: (Units=GPa)
#
#
# Indices 1 2 3 4 5 6 
#
# 1 142.6139 63.7914 33.4009 0.0000 0.0000 0.0000
# 2 63.7914 108.8562 43.2353 0.0000 0.0000 0.0000
# 3 33.4009 43.2353 90.8242 0.0000 0.0000 0.0000
# 4 0.0000 0.0000 0.0000 25.8073 0.0000 0.0000
# 5 0.0000 0.0000 0.0000 0.0000 17.4687 0.0000
# 6 0.0000 0.0000 0.0000 0.0000 0.0000 34.2999
#
#
#
# Elastic Compliance Matrix: (Units=1/GPa)
#
#
# Indices 1 2 3 4 5 6 
#
# 1 0.009583 -0.005199 -0.001049 0.000000 0.000000 0.000000
# 2 -0.005199 0.014149 -0.004823 0.000000 0.000000 0.000000
# 3 -0.001049 -0.004823 0.013692 0.000000 0.000000 0.000000
# 4 0.000000 0.000000 0.000000 0.038749 0.000000 0.000000
# 5 0.000000 0.000000 0.000000 0.000000 0.057245 0.000000
# 6 0.000000 0.000000 0.000000 0.000000 0.000000 0.029155
#
#
# Mechanical properties :
#
#
# Convention : Reuss Voigt Hill
#
# Bulk Modulus (GPa) = 65.44158 69.23883 67.34020
# Shear Modulus (GPa) = 26.34208 28.97296 27.65752
#
# Velocity S-wave (km/s) = 3.58346 3.75815 3.67185
# Velocity P-wave (km/s) = 7.00164 7.25149 7.12766
#
# Compressibility (1/GPa) = 0.01528080
#
# Stress axis : x y z
#
# Youngs Moduli (GPa) = 104.34816 70.67645 73.03403
#
# Poissons Ratio (x) = 0.36746 0.07663
# Poissons Ratio (y) = 0.54253 0.35227
# Poissons Ratio (z) = 0.10949 0.34090
#
# Static dielectric constant tensor:
#      x y z
#    x 4.590350 0.000000 0.000000 
#    y 0.000000 3.749690 0.000000 
#    z 0.000000 0.000000 3.734790 
# 
# 
# High freq. dielectric constant tensor:
#      x y z
#    x 1.807990 0.000000 0.000000 
#    y 0.000000 1.797340 0.000000 
#    z 0.000000 0.000000 1.804730 
# 
# From -- ./inp_files/17462.got.cif
#   From: 2010.03.12/outbox.cif.g09.slc.cpg/sg35_9_cif.got.tgz:17462.got - 2010.04.14 02:02:04.
