data_PCOD8173082
_publ_section_title
;
Structure prediction by ZEFSAII (Michael W. Deem and Ramdas Pophale) SiO2 
 PCOD8173082
Probable space group: C M M 2
;
_chemical_formula_sum "Si O2"
_cell_formula_units_Z 64
_cell_length_a 19.516164
_cell_length_b 19.356654
_cell_length_c 9.782737
_cell_angle_alpha 90.000000
_cell_angle_beta 90.000000
_cell_angle_gamma 90.000000
_cell_volume 3695.601410
_symmetry_space_group_name_H-M "C M M 2"
_symmetry_group_IT_number 35
_symmetry_cell_setting 'orthorhombic'
loop_
_space_group_symop_operation_xyz
x,y,z
-x,-y,z
-x,y,z
x,-y,z
1/2+x,1/2+y,z
1/2-x,1/2-y,z
1/2-x,1/2+y,z
1/2+x,1/2-y,z
loop_
_atom_site_type_symbol
_atom_site_label
_atom_site_fract_x
_atom_site_fract_y
_atom_site_fract_z
Si Si1 0.781325 0.178068 0.591910
Si Si2 0.203611 0.417314 0.383102
Si Si3 0.702580 0.691310 0.904139
Si Si4 0.572726 0.392338 0.212952
Si Si5 0.924051 0.808726 0.470354
Si Si6 0.079145 0.328158 0.297163
Si Si7 0.786948 0.925474 0.120827
Si Si8 0.924462 0.755018 0.039113
O O1 0.750000 0.250000 0.537637
O O2 0.741198 0.116544 0.514476
O O3 0.771872 0.170713 0.753969
O O4 0.863485 0.177828 0.577007
O O5 0.201503 0.500000 0.404114
O O6 0.126908 0.389100 0.357128
O O7 0.246575 0.394470 0.249757
O O8 0.750000 0.750000 0.968385
O O9 0.714891 0.623397 0.991665
O O10 0.626725 0.725645 0.914958
O O11 0.500000 0.430170 0.182997
O O12 0.578174 0.375367 0.372837
O O13 0.634720 0.439666 0.165447
O O14 0.573930 0.319371 0.138771
O O15 0.908506 0.738303 0.390714
O O16 0.000000 0.804826 0.540202
O O17 0.097138 0.309571 0.137677
O O18 0.000000 0.352674 0.306135
O O19 0.755952 0.000000 0.078944
O O20 0.000000 0.741022 0.975747
#
# Coordination Sequence:
#
# PCOD8173082 Si02
#       8
#     8   8   8   8   8   8   8   8
#     4  11  21  34  52  76 105 140 176 216 267 315
#     4  11  22  34  52  78 107 140 179 221 265 319
#     4  10  21  33  50  75 104 135 173 213 262 315
#     4   8  14  26  46  72  97 125 163 204 247 296
#     4   9  16  29  51  76 101 131 168 211 259 308
#     4   9  17  31  54  80 104 134 172 219 276 321
#     4  10  20  33  50  73  99 134 174 212 258 310
#     4   8  15  29  50  76 101 127 166 216 265 312
#
# _framework density 17.317885
#
# number of rings (size 3 to 8) (size 9 to 14) (size 15 to 20)
#    0.000    2.500    2.500    2.250    0.000    2.000 
#    0.000    0.000    0.000    0.375    0.000    1.750 
#    0.000    2.000    0.000    0.000    0.000    0.000 
#
# Total GULP energy -396427.361749 kJ/mol
# GULP energy per Si atom -12388.355055 kJ/mol
# Density = 1.727847 g / cm^3
# Si number density = 17.317885 Si / 1000 Ang^3
#
#
#
# Elastic Constant Matrix: (Units=GPa)
#
#
# Indices 1 2 3 4 5 6 
#
# 1 99.6557 37.1892 40.6236 0.0000 0.0000 0.0000
# 2 37.1892 81.3316 35.4032 0.0000 0.0000 0.0000
# 3 40.6236 35.4032 58.9982 0.0000 0.0000 0.0000
# 4 0.0000 0.0000 0.0000 13.1207 0.0000 0.0000
# 5 0.0000 0.0000 0.0000 0.0000 22.8104 0.0000
# 6 0.0000 0.0000 0.0000 0.0000 0.0000 16.7543
#
#
#
# Elastic Compliance Matrix: (Units=1/GPa)
#
#
# Indices 1 2 3 4 5 6 
#
# 1 0.014503 -0.003092 -0.008130 0.000000 0.000000 0.000000
# 2 -0.003092 0.017302 -0.008253 0.000000 0.000000 0.000000
# 3 -0.008130 -0.008253 0.027500 0.000000 0.000000 0.000000
# 4 0.000000 0.000000 0.000000 0.076215 0.000000 0.000000
# 5 0.000000 0.000000 0.000000 0.000000 0.043840 0.000000
# 6 0.000000 0.000000 0.000000 0.000000 0.000000 0.059686
#
#
# Mechanical properties :
#
#
# Convention : Reuss Voigt Hill
#
# Bulk Modulus (GPa) = 49.13195 51.82415 50.47805
# Shear Modulus (GPa) = 17.55728 18.98839 18.27284
#
# Velocity S-wave (km/s) = 3.18751 3.31488 3.25182
# Velocity P-wave (km/s) = 6.47914 6.68142 6.58106
#
# Compressibility (1/GPa) = 0.02035335
#
# Stress axis : x y z
#
# Youngs Moduli (GPa) = 68.95224 57.79721 36.36322
#
# Poissons Ratio (x) = 0.17873 0.29565
# Poissons Ratio (y) = 0.21323 0.30011
# Poissons Ratio (z) = 0.56060 0.47701
#
# Static dielectric constant tensor:
#      x y z
#    x 4.056340 0.000000 0.000000 
#    y 0.000000 3.032360 0.000000 
#    z 0.000000 0.000000 2.932800 
# 
# 
# High freq. dielectric constant tensor:
#      x y z
#    x 1.683390 0.000000 0.000000 
#    y 0.000000 1.650430 0.000000 
#    z 0.000000 0.000000 1.640940 
# 
# From -- ./inp_files/9452.got.cif
#   From: 2010.03.12/outbox.cif.g09.slc.cpg/sg35_5_cif.got.tgz:9452.got - 2010.04.14 02:02:04.
