data_PCOD8173785
_publ_section_title
;
Structure prediction by ZEFSAII (Michael W. Deem and Ramdas Pophale) SiO2 
 PCOD8173785
Probable space group: C M M 2
;
_chemical_formula_sum "Si O2"
_cell_formula_units_Z 64
_cell_length_a 9.150932
_cell_length_b 28.079713
_cell_length_c 12.805976
_cell_angle_alpha 90.000000
_cell_angle_beta 90.000000
_cell_angle_gamma 90.000000
_cell_volume 3290.566533
_symmetry_space_group_name_H-M "C M M 2"
_symmetry_group_IT_number 35
_symmetry_cell_setting 'orthorhombic'
loop_
_space_group_symop_operation_xyz
x,y,z
-x,-y,z
-x,y,z
x,-y,z
1/2+x,1/2+y,z
1/2-x,1/2-y,z
1/2-x,1/2+y,z
1/2+x,1/2-y,z
loop_
_atom_site_type_symbol
_atom_site_label
_atom_site_fract_x
_atom_site_fract_y
_atom_site_fract_z
Si Si1 0.829030 0.055173 0.064950
Si Si2 0.329102 0.135652 0.551591
Si Si3 0.163364 0.443872 0.856233
Si Si4 0.829030 0.944827 0.647515
Si Si5 0.327854 0.800726 0.356233
Si Si6 0.670898 0.864348 0.160874
Si Si7 0.330757 0.797818 0.739131
Si Si8 0.169243 0.702182 0.973334
O O1 0.761501 0.086168 0.160101
O O2 0.000000 0.065015 0.052868
O O3 0.797780 0.000000 0.089868
O O4 0.750283 0.072169 0.958760
O O5 0.500000 0.123594 0.542895
O O6 0.238499 0.086168 0.552364
O O7 0.278532 0.168940 0.456584
O O8 0.286159 0.161296 0.659249
O O9 0.147500 0.500000 0.856233
O O10 0.250283 0.427831 0.753705
O O11 0.000000 0.420435 0.856233
O O12 0.000000 0.934985 0.659597
O O13 0.797780 0.000000 0.622598
O O14 0.500000 0.791164 0.356233
O O15 0.250000 0.750000 0.356232
O O16 0.278532 0.831060 0.255881
O O17 0.500000 0.876406 0.169571
O O18 0.713841 0.838704 0.053216
O O19 0.500000 0.785752 0.730261
O O20 0.250000 0.750000 0.706418
O O21 0.287814 0.814578 0.856233
O O22 0.250000 0.750000 0.006047
O O23 0.000000 0.714249 0.982204
#
# Coordination Sequence:
#
# PCOD8173785 Si02
#       8
#     8   8   8   8   8   8   8   8
#     4  10  21  36  54  81 116 150 190 238 283 333
#     4  10  21  36  56  81 110 146 191 235 283 341
#     4   9  17  31  53  79 110 151 190 225 273 331
#     4  10  21  36  54  81 116 150 190 238 283 333
#     4  10  22  40  61  86 113 145 190 243 289 340
#     4  10  21  36  56  81 110 146 191 235 283 341
#     4   9  18  32  50  75 106 138 174 220 274 336
#     4   9  18  32  50  75 106 138 174 220 274 336
#
# _framework density 19.449539000000001
#
# number of rings (size 3 to 8) (size 9 to 14) (size 15 to 20)
#    0.000    2.375    0.000    1.875    1.750    5.000 
#    0.000    0.625    0.000    3.750    0.000    0.000 
#    0.000    0.000    0.000    0.000    0.000    0.000 
#
# Total GULP energy -396822.345704 kJ/mol
# GULP energy per Si atom -12400.698303 kJ/mol
# Density = 1.940527 g / cm^3
# Si number density = 19.449539 Si / 1000 Ang^3
#
#
#
# Elastic Constant Matrix: (Units=GPa)
#
#
# Indices 1 2 3 4 5 6 
#
# 1 86.7400 65.9747 54.1652 0.0000 0.0000 0.0000
# 2 65.9747 121.5715 75.3539 0.0000 0.0000 0.0000
# 3 54.1652 75.3539 92.7137 0.0000 0.0000 0.0000
# 4 0.0000 0.0000 0.0000 -40.0207 0.0000 0.0000
# 5 0.0000 0.0000 0.0000 0.0000 21.6429 0.0000
# 6 0.0000 0.0000 0.0000 0.0000 0.0000 37.4573
#
#
#
# Elastic Compliance Matrix: (Units=1/GPa)
#
#
# Indices 1 2 3 4 5 6 
#
# 1 0.021228 -0.007724 -0.006124 0.000000 0.000000 0.000000
# 2 -0.007724 0.019387 -0.011244 0.000000 0.000000 0.000000
# 3 -0.006124 -0.011244 0.023502 0.000000 0.000000 0.000000
# 4 0.000000 0.000000 0.000000 -0.024987 0.000000 0.000000
# 5 0.000000 0.000000 0.000000 0.000000 0.046205 0.000000
# 6 0.000000 0.000000 0.000000 0.000000 0.000000 0.026697
#
#
# Mechanical properties :
#
#
# Convention : Reuss Voigt Hill
#
# Bulk Modulus (GPa) = 71.77401 76.89030 74.33216
# Shear Modulus (GPa) = 29.96514 10.85132 20.40823
#
# Velocity S-wave (km/s) = 3.92938 2.36460 3.24279
# Velocity P-wave (km/s) = 7.58746 6.86106 7.23338
#
# Compressibility (1/GPa) = 0.01393262
#
# Stress axis : x y z
#
# Youngs Moduli (GPa) = 47.10805 51.58097 42.54887
#
# Poissons Ratio (x) = 0.39842 0.26056
# Poissons Ratio (y) = 0.36387 0.47843
# Poissons Ratio (z) = 0.28848 0.57999
#
# Static dielectric constant tensor:
#      x y z
#    x 3.510890 0.000000 0.000000 
#    y 0.000000 3.614450 0.000000 
#    z 0.000000 0.000000 3.592000 
# 
# 
# High freq. dielectric constant tensor:
#      x y z
#    x 1.753570 0.000000 0.000000 
#    y 0.000000 1.762910 0.000000 
#    z 0.000000 0.000000 1.743390 
# 
# From -- ./inp_files/11879.got.cif
#   From: 2010.03.12/outbox.cif.g09.slc.cpg/sg35_6_cif.got.tgz:11879.got - 2010.04.14 02:02:04.
