data_PCOD8173169
_publ_section_title
;
Structure prediction by ZEFSAII (Michael W. Deem and Ramdas Pophale) SiO2 
 PCOD8173169
Probable space group: C M M 2
;
_chemical_formula_sum "Si O2"
_cell_formula_units_Z 48
_cell_length_a 19.392003
_cell_length_b 19.059143
_cell_length_c 7.502613
_cell_angle_alpha 90.000000
_cell_angle_beta 90.000000
_cell_angle_gamma 90.000000
_cell_volume 2772.927938
_symmetry_space_group_name_H-M "C M M 2"
_symmetry_group_IT_number 35
_symmetry_cell_setting 'orthorhombic'
loop_
_space_group_symop_operation_xyz
x,y,z
-x,-y,z
-x,y,z
x,-y,z
1/2+x,1/2+y,z
1/2-x,1/2-y,z
1/2-x,1/2+y,z
1/2+x,1/2-y,z
loop_
_atom_site_type_symbol
_atom_site_label
_atom_site_fract_x
_atom_site_fract_y
_atom_site_fract_z
Si Si1 0.785871 0.579466 0.206640
Si Si2 0.712547 0.080093 0.794992
Si Si3 0.281526 0.327847 0.500856
Si Si4 0.576340 0.156395 0.806687
Si Si5 0.577521 0.266541 0.506478
Si Si6 0.076500 0.651873 0.210659
O O1 0.768641 0.500000 0.262266
O O2 0.741300 0.632766 0.322357
O O3 0.867309 0.591319 0.242911
O O4 0.767442 0.592995 0.000442
O O5 0.759162 0.130575 0.676479
O O6 0.631842 0.096519 0.761503
O O7 0.725487 0.000000 0.738447
O O8 0.250000 0.250000 0.504677
O O9 0.364931 0.326993 0.499502
O O10 0.500000 0.125166 0.767218
O O11 0.589548 0.224663 0.688806
O O12 0.582806 0.181517 0.010535
O O13 0.500000 0.298574 0.499000
O O14 0.591260 0.216174 0.340028
O O15 0.000000 0.620272 0.245865
#
# Coordination Sequence:
#
# PCOD8173169 Si02
#       6
#     8   8   8   8   8   8
#     4  10  21  35  52  77 108 140 173 211 256 306
#     4  10  21  35  52  77 108 140 173 211 256 306
#     4  12  21  34  55  80 101 137 176 215 259 302
#     4   9  17  30  49  74 106 140 170 200 242 304
#     4  10  20  34  50  74 105 133 168 212 259 305
#     4   9  17  30  49  74 106 140 170 200 242 304
#
# _framework density 17.310224000000002
#
# number of rings (size 3 to 8) (size 9 to 14) (size 15 to 20)
#    0.000    2.000    3.333    0.500    0.000    2.667 
#    0.000    3.333    0.000    7.000    0.000    2.333 
#    0.000    0.000    0.000    0.000    0.000    0.000 
#
# Total GULP energy -297552.569370 kJ/mol
# GULP energy per Si atom -12398.023724 kJ/mol
# Density = 1.727082 g / cm^3
# Si number density = 17.310224 Si / 1000 Ang^3
#
#
#
# Elastic Constant Matrix: (Units=GPa)
#
#
# Indices 1 2 3 4 5 6 
#
# 1 101.5378 45.7222 29.7601 0.0000 0.0000 0.0000
# 2 45.7222 79.7311 31.5594 0.0000 0.0000 0.0000
# 3 29.7601 31.5594 73.8589 0.0000 0.0000 0.0000
# 4 0.0000 0.0000 0.0000 19.8912 0.0000 0.0000
# 5 0.0000 0.0000 0.0000 0.0000 26.2621 0.0000
# 6 0.0000 0.0000 0.0000 0.0000 0.0000 25.3425
#
#
#
# Elastic Compliance Matrix: (Units=1/GPa)
#
#
# Indices 1 2 3 4 5 6 
#
# 1 0.013680 -0.006816 -0.002600 0.000000 0.000000 0.000000
# 2 -0.006816 0.018491 -0.005155 0.000000 0.000000 0.000000
# 3 -0.002600 -0.005155 0.016789 0.000000 0.000000 0.000000
# 4 0.000000 0.000000 0.000000 0.050273 0.000000 0.000000
# 5 0.000000 0.000000 0.000000 0.000000 0.038078 0.000000
# 6 0.000000 0.000000 0.000000 0.000000 0.000000 0.039459
#
#
# Mechanical properties :
#
#
# Convention : Reuss Voigt Hill
#
# Bulk Modulus (GPa) = 50.45470 52.13458 51.29464
# Shear Modulus (GPa) = 23.52751 24.17159 23.84955
#
# Velocity S-wave (km/s) = 3.69069 3.74087 3.71586
# Velocity P-wave (km/s) = 6.88275 6.98870 6.93593
#
# Compressibility (1/GPa) = 0.01981976
#
# Stress axis : x y z
#
# Youngs Moduli (GPa) = 73.10194 54.08033 59.56118
#
# Poissons Ratio (x) = 0.36859 0.15484
# Poissons Ratio (y) = 0.49823 0.30703
# Poissons Ratio (z) = 0.19004 0.27878
#
# Static dielectric constant tensor:
#      x y z
#    x 3.397410 0.000000 0.000000 
#    y 0.000000 2.935870 0.000000 
#    z 0.000000 0.000000 3.687650 
# 
# 
# High freq. dielectric constant tensor:
#      x y z
#    x 1.666610 0.000000 0.000000 
#    y 0.000000 1.630910 0.000000 
#    z 0.000000 0.000000 1.690170 
# 
# From -- ./inp_files/9191.got.cif
#   From: 2010.03.12/outbox.cif.g09.slc.cpg/sg35_5_cif.got.tgz:9191.got - 2010.04.14 02:02:04.
