data_PCOD8173382
_publ_section_title
;
Structure prediction by ZEFSAII (Michael W. Deem and Ramdas Pophale) SiO2 
 PCOD8173382
Probable space group: C M M 2
;
_chemical_formula_sum "Si O2"
_cell_formula_units_Z 64
_cell_length_a 8.875409
_cell_length_b 19.154656
_cell_length_c 20.495194
_cell_angle_alpha 90.000000
_cell_angle_beta 90.000000
_cell_angle_gamma 90.000000
_cell_volume 3484.293782
_symmetry_space_group_name_H-M "C M M 2"
_symmetry_group_IT_number 35
_symmetry_cell_setting 'orthorhombic'
loop_
_space_group_symop_operation_xyz
x,y,z
-x,-y,z
-x,y,z
x,-y,z
1/2+x,1/2+y,z
1/2-x,1/2-y,z
1/2-x,1/2+y,z
1/2+x,1/2-y,z
loop_
_atom_site_type_symbol
_atom_site_label
_atom_site_fract_x
_atom_site_fract_y
_atom_site_fract_z
Si Si1 0.827896 0.418347 0.069730
Si Si2 0.677911 0.578292 0.704283
Si Si3 0.678041 0.323472 0.964745
Si Si4 0.823094 0.080998 0.205142
Si Si5 0.176813 0.822001 0.816347
Si Si6 0.167272 0.583066 0.576153
Si Si7 0.679528 0.921822 0.433753
Si Si8 0.179299 0.326360 0.315868
O O1 0.820913 0.500000 0.056424
O O2 0.750704 0.383198 0.007993
O O3 0.733598 0.398043 0.133589
O O4 0.000000 0.392880 0.078171
O O5 0.500000 0.578939 0.703147
O O6 0.741197 0.500000 0.711496
O O7 0.740377 0.620121 0.766624
O O8 0.733366 0.612167 0.636009
O O9 0.500000 0.320035 0.975922
O O10 0.750000 0.250000 0.985097
O O11 0.720072 0.342464 0.890176
O O12 0.732936 0.129664 0.254200
O O13 0.000000 0.096197 0.210167
O O14 0.786035 0.000000 0.220249
O O15 0.250000 0.750000 0.795129
O O16 0.000000 0.813403 0.809092
O O17 0.162814 0.500000 0.577236
O O18 0.235257 0.604738 0.505273
O O19 0.000000 0.614067 0.584823
O O20 0.500000 0.925200 0.434388
O O21 0.737936 0.867221 0.380027
O O22 0.742080 0.000000 0.418124
O O23 0.250000 0.250000 0.315006
O O24 0.000000 0.320029 0.314292
#
# Coordination Sequence:
#
# PCOD8173382 Si02
#       8
#     8   8   8   8   8   8   8   8
#     4  10  21  37  57  82 110 137 168 209 255 303
#     4   9  17  30  48  72 101 130 163 206 255 302
#     4  10  20  35  55  77 103 137 176 215 258 308
#     4  10  21  38  59  82 107 135 170 211 254 304
#     4   9  19  34  51  71  98 134 171 208 250 300
#     4   8  14  27  48  73  98 126 165 209 251 299
#     4   8  15  30  53  76  97 128 170 211 253 305
#     4  11  22  36  54  77 107 140 174 213 258 305
#
# _framework density 18.368141000000001
#
# number of rings (size 3 to 8) (size 9 to 14) (size 15 to 20)
#    0.000    2.625    0.000    2.625    0.000    4.000 
#    0.000    5.625    0.000    7.500    0.000    0.000 
#    0.000    0.000    0.000    0.000    0.000    0.000 
#
# Total GULP energy -396728.598963 kJ/mol
# GULP energy per Si atom -12397.768718 kJ/mol
# Density = 1.832633 g / cm^3
# Si number density = 18.368141 Si / 1000 Ang^3
#
#
#
# Elastic Constant Matrix: (Units=GPa)
#
#
# Indices 1 2 3 4 5 6 
#
# 1 56.9231 36.3806 39.3935 0.0000 0.0000 0.0000
# 2 36.3806 86.1124 76.9581 0.0000 0.0000 0.0000
# 3 39.3935 76.9581 145.1062 0.0000 0.0000 0.0000
# 4 0.0000 0.0000 0.0000 -31.5987 0.0000 0.0000
# 5 0.0000 0.0000 0.0000 0.0000 30.5759 0.0000
# 6 0.0000 0.0000 0.0000 0.0000 0.0000 24.2841
#
#
#
# Elastic Compliance Matrix: (Units=1/GPa)
#
#
# Indices 1 2 3 4 5 6 
#
# 1 0.024430 -0.008353 -0.002202 0.000000 0.000000 0.000000
# 2 -0.008353 0.024933 -0.010955 0.000000 0.000000 0.000000
# 3 -0.002202 -0.010955 0.013300 0.000000 0.000000 0.000000
# 4 0.000000 0.000000 0.000000 -0.031647 0.000000 0.000000
# 5 0.000000 0.000000 0.000000 0.000000 0.032706 0.000000
# 6 0.000000 0.000000 0.000000 0.000000 0.000000 0.041179
#
#
# Mechanical properties :
#
#
# Convention : Reuss Voigt Hill
#
# Bulk Modulus (GPa) = 50.91419 65.95623 58.43521
# Shear Modulus (GPa) = 32.36899 13.67955 23.02427
#
# Velocity S-wave (km/s) = 4.20245 2.73196 3.54431
# Velocity P-wave (km/s) = 7.16424 6.77771 6.97366
#
# Compressibility (1/GPa) = 0.01964089
#
# Stress axis : x y z
#
# Youngs Moduli (GPa) = 40.93285 40.10820 75.19003
#
# Poissons Ratio (x) = 0.33503 0.16558
# Poissons Ratio (y) = 0.34192 0.82374
# Poissons Ratio (z) = 0.09014 0.43940
#
# Static dielectric constant tensor:
#      x y z
#    x 3.332060 0.000000 0.000000 
#    y 0.000000 4.191980 0.000000 
#    z 0.000000 0.000000 3.720850 
# 
# 
# High freq. dielectric constant tensor:
#      x y z
#    x 1.704020 0.000000 0.000000 
#    y 0.000000 1.693310 0.000000 
#    z 0.000000 0.000000 1.727830 
# 
# From -- ./inp_files/18295.got.cif
#   From: 2010.03.12/outbox.cif.g09.slc.cpg/sg35_10_cif.got.tgz:18295.got - 2010.04.14 02:02:04.
