data_PCOD8173225
_publ_section_title
;
Structure prediction by ZEFSAII (Michael W. Deem and Ramdas Pophale) SiO2 
 PCOD8173225
Probable space group: C M M 2
;
_chemical_formula_sum "Si O2"
_cell_formula_units_Z 56
_cell_length_a 9.096225
_cell_length_b 18.047889
_cell_length_c 18.024063
_cell_angle_alpha 90.000000
_cell_angle_beta 90.000000
_cell_angle_gamma 90.000000
_cell_volume 2958.968231
_symmetry_space_group_name_H-M "C M M 2"
_symmetry_group_IT_number 35
_symmetry_cell_setting 'orthorhombic'
loop_
_space_group_symop_operation_xyz
x,y,z
-x,-y,z
-x,y,z
x,-y,z
1/2+x,1/2+y,z
1/2-x,1/2-y,z
1/2-x,1/2+y,z
1/2+x,1/2-y,z
loop_
_atom_site_type_symbol
_atom_site_label
_atom_site_fract_x
_atom_site_fract_y
_atom_site_fract_z
Si Si1 0.168607 0.913209 0.842700
Si Si2 0.325604 0.171041 0.971063
Si Si3 0.674449 0.082947 0.115173
Si Si4 0.828118 0.585121 0.403906
Si Si5 0.326393 0.584576 0.551934
Si Si6 0.825786 0.328405 0.258317
Si Si7 0.828465 0.172908 0.694494
O O1 0.278576 0.877700 0.901335
O O2 0.206859 0.881380 0.762187
O O3 0.000000 0.895327 0.864472
O O4 0.198245 0.000000 0.840042
O O5 0.500000 0.181403 0.970189
O O6 0.250000 0.250000 0.966316
O O7 0.269568 0.130162 0.045216
O O8 0.500000 0.078566 0.114733
O O9 0.730389 0.121263 0.190361
O O10 0.740783 0.000000 0.110632
O O11 0.786578 0.500000 0.387844
O O12 0.745456 0.615347 0.476546
O O13 0.774482 0.632786 0.334074
O O14 0.000000 0.594595 0.417641
O O15 0.500000 0.590028 0.543843
O O16 0.276652 0.500000 0.566195
O O17 0.268366 0.634200 0.619843
O O18 0.750000 0.250000 0.251317
O O19 0.000000 0.318094 0.255525
O O20 0.750000 0.250000 0.708583
O O21 0.000000 0.188642 0.687352
#
# Coordination Sequence:
#
# PCOD8173225 Si02
#       7
#     8   8   8   8   8   8   8
#     4  10  21  38  59  81 107 140 178 220 266 316
#     4  11  22  36  56  82 112 143 177 218 264 315
#     4   9  18  34  56  79 103 136 178 219 259 307
#     4   9  18  33  53  76 101 132 172 214 255 303
#     4   9  18  34  55  76 100 133 172 213 258 308
#     4  10  20  34  53  76 104 137 172 212 258 308
#     4  10  21  36  54  77 105 138 175 214 259 312
#
# _framework density 18.925515000000001
#
# number of rings (size 3 to 8) (size 9 to 14) (size 15 to 20)
#    0.000    2.286    0.000    2.571    0.000    7.714 
#    0.000    3.571    0.000    5.571    0.000    0.000 
#    0.000    0.000    0.000    0.000    0.000    0.000 
#
# Total GULP energy -347284.100720 kJ/mol
# GULP energy per Si atom -12403.003597 kJ/mol
# Density = 1.888244 g / cm^3
# Si number density = 18.925515 Si / 1000 Ang^3
#
#
#
# Elastic Constant Matrix: (Units=GPa)
#
#
# Indices 1 2 3 4 5 6 
#
# 1 38.6314 38.1671 43.4720 0.0000 0.0000 0.0000
# 2 38.1671 135.8309 76.0020 0.0000 0.0000 0.0000
# 3 43.4720 76.0020 156.5380 0.0000 0.0000 0.0000
# 4 0.0000 0.0000 0.0000 22.6964 0.0000 0.0000
# 5 0.0000 0.0000 0.0000 0.0000 52.6025 0.0000
# 6 0.0000 0.0000 0.0000 0.0000 0.0000 25.3181
#
#
#
# Elastic Compliance Matrix: (Units=1/GPa)
#
#
# Indices 1 2 3 4 5 6 
#
# 1 0.042343 -0.007302 -0.008214 0.000000 0.000000 0.000000
# 2 -0.007302 0.011367 -0.003491 0.000000 0.000000 0.000000
# 3 -0.008214 -0.003491 0.010364 0.000000 0.000000 0.000000
# 4 0.000000 0.000000 0.000000 0.044060 0.000000 0.000000
# 5 0.000000 0.000000 0.000000 0.000000 0.019011 0.000000
# 6 0.000000 0.000000 0.000000 0.000000 0.000000 0.039497
#
#
# Mechanical properties :
#
#
# Convention : Reuss Voigt Hill
#
# Bulk Modulus (GPa) = 38.37215 71.80919 55.09067
# Shear Modulus (GPa) = 23.43640 31.68067 27.55854
#
# Velocity S-wave (km/s) = 3.52284 4.09585 3.82010
# Velocity P-wave (km/s) = 6.07178 7.77132 6.97352
#
# Compressibility (1/GPa) = 0.02606057
#
# Stress axis : x y z
#
# Youngs Moduli (GPa) = 23.61668 87.97124 96.48510
#
# Poissons Ratio (x) = 0.64237 0.79250
# Poissons Ratio (y) = 0.17245 0.33685
# Poissons Ratio (z) = 0.19398 0.30713
#
# Static dielectric constant tensor:
#      x y z
#    x 3.247060 0.000000 0.000000 
#    y 0.000000 3.549050 0.000000 
#    z 0.000000 0.000000 3.721230 
# 
# 
# High freq. dielectric constant tensor:
#      x y z
#    x 1.712070 0.000000 0.000000 
#    y 0.000000 1.744370 0.000000 
#    z 0.000000 0.000000 1.752890 
# 
# From -- ./inp_files/16391.got.cif
#   From: 2010.03.12/outbox.cif.g09.slc.cpg/sg35_9_cif.got.tgz:16391.got - 2010.04.14 02:02:04.
