data_PCOD8173925
_publ_section_title
;
Structure prediction by ZEFSAII (Michael W. Deem and Ramdas Pophale) SiO2 
 PCOD8173925
Probable space group: C M M 2
;
_chemical_formula_sum "Si O2"
_cell_formula_units_Z 56
_cell_length_a 17.323705
_cell_length_b 25.675762
_cell_length_c 5.509044
_cell_angle_alpha 90.000000
_cell_angle_beta 90.000000
_cell_angle_gamma 90.000000
_cell_volume 2450.419061
_symmetry_space_group_name_H-M "C M M 2"
_symmetry_group_IT_number 35
_symmetry_cell_setting 'orthorhombic'
loop_
_space_group_symop_operation_xyz
x,y,z
-x,-y,z
-x,y,z
x,-y,z
1/2+x,1/2+y,z
1/2-x,1/2-y,z
1/2-x,1/2+y,z
1/2+x,1/2-y,z
loop_
_atom_site_type_symbol
_atom_site_label
_atom_site_fract_x
_atom_site_fract_y
_atom_site_fract_z
Si Si1 0.202423 0.382286 0.832270
Si Si2 0.085178 0.343352 0.208063
Si Si3 0.180849 0.283819 0.566846
Si Si4 0.088963 0.857966 0.320588
Si Si5 0.410704 0.297434 0.826044
Si Si6 0.866683 0.557137 0.449794
Si Si7 0.796488 0.058908 0.181212
O O1 0.222824 0.339089 0.629363
O O2 0.149889 0.429632 0.731071
O O3 0.149981 0.348117 0.008136
O O4 0.280460 0.407345 0.937760
O O5 0.111507 0.295678 0.380130
O O6 0.077055 0.399002 0.344919
O O7 0.000000 0.329434 0.106234
O O8 0.250000 0.250000 0.449377
O O9 0.142443 0.254143 0.798230
O O10 0.103900 0.829661 0.576770
O O11 0.136890 0.911916 0.330150
O O12 0.000000 0.873700 0.293285
O O13 0.114220 0.825242 0.079040
O O14 0.500000 0.281361 0.844784
O O15 0.905070 0.500000 0.428289
O O16 0.783641 0.558613 0.322701
O O17 0.823475 0.000000 0.121078
#
# Coordination Sequence:
#
# PCOD8173925 Si02
#       7
#     8   8   8   8   8   8   8
#     4  10  22  38  60  89 121 158 206 264 309 382
#     4  10  23  40  59  88 123 157 201 258 315 375
#     4  11  24  38  62  89 118 163 211 262 312 383
#     4  10  23  41  63  93 130 170 216 269 321 386
#     4  10  23  42  63  90 130 173 216 265 324 382
#     4   9  20  39  61  88 119 158 204 253 315 377
#     4  10  21  38  65  91 124 165 206 263 325 384
#
# _framework density 22.853237
#
# number of rings (size 3 to 8) (size 9 to 14) (size 15 to 20)
#    0.000    2.000    0.000    1.714   10.000    4.571 
#    0.000    0.000    0.000    2.571    0.000    0.000 
#    0.000    0.000    0.000    0.000    0.000    0.000 
#
# Total GULP energy -346974.551749 kJ/mol
# GULP energy per Si atom -12391.948277 kJ/mol
# Density = 2.280122 g / cm^3
# Si number density = 22.853237 Si / 1000 Ang^3
#
#
#
# Elastic Constant Matrix: (Units=GPa)
#
#
# Indices 1 2 3 4 5 6 
#
# 1 51.9611 31.9007 -9.8728 0.0000 0.0000 0.0000
# 2 31.9007 121.6091 16.8373 0.0000 0.0000 0.0000
# 3 -9.8728 16.8373 74.8904 0.0000 0.0000 0.0000
# 4 0.0000 0.0000 0.0000 17.2676 0.0000 0.0000
# 5 0.0000 0.0000 0.0000 0.0000 15.8522 0.0000
# 6 0.0000 0.0000 0.0000 0.0000 0.0000 26.4838
#
#
#
# Elastic Compliance Matrix: (Units=1/GPa)
#
#
# Indices 1 2 3 4 5 6 
#
# 1 0.024523 -0.007101 0.004829 0.000000 0.000000 0.000000
# 2 -0.007101 0.010544 -0.003307 0.000000 0.000000 0.000000
# 3 0.004829 -0.003307 0.014733 0.000000 0.000000 0.000000
# 4 0.000000 0.000000 0.000000 0.057912 0.000000 0.000000
# 5 0.000000 0.000000 0.000000 0.000000 0.063083 0.000000
# 6 0.000000 0.000000 0.000000 0.000000 0.000000 0.037759
#
#
# Mechanical properties :
#
#
# Convention : Reuss Voigt Hill
#
# Bulk Modulus (GPa) = 25.87869 36.24346 31.06107
# Shear Modulus (GPa) = 21.49697 25.89375 23.69536
#
# Velocity S-wave (km/s) = 3.07033 3.36973 3.22351
# Velocity P-wave (km/s) = 4.89057 5.57079 5.24173
#
# Compressibility (1/GPa) = 0.03864184
#
# Stress axis : x y z
#
# Youngs Moduli (GPa) = 40.77862 94.84272 67.87511
#
# Poissons Ratio (x) = 0.67352 -0.32780
# Poissons Ratio (y) = 0.28959 0.22444
# Poissons Ratio (z) = -0.19694 0.31362
#
# Static dielectric constant tensor:
#      x y z
#    x 3.895620 0.000000 0.000000 
#    y 0.000000 4.303510 0.000000 
#    z 0.000000 0.000000 4.203830 
# 
# 
# High freq. dielectric constant tensor:
#      x y z
#    x 1.889640 0.000000 0.000000 
#    y 0.000000 1.909000 0.000000 
#    z 0.000000 0.000000 1.895350 
# 
# From -- ./inp_files/3092.got.cif
#   From: 2010.03.12/outbox.cif.g09.slc.cpg/sg35_2_cif.got.tgz:3092.got - 2010.04.14 02:02:04.
