data_PCOD8173220
_publ_section_title
;
Structure prediction by ZEFSAII (Michael W. Deem and Ramdas Pophale) SiO2 
 PCOD8173220
Probable space group: C M M 2
;
_chemical_formula_sum "Si O2"
_cell_formula_units_Z 64
_cell_length_a 9.164560
_cell_length_b 18.372162
_cell_length_c 20.537674
_cell_angle_alpha 90.000000
_cell_angle_beta 90.000000
_cell_angle_gamma 90.000000
_cell_volume 3457.985286
_symmetry_space_group_name_H-M "C M M 2"
_symmetry_group_IT_number 35
_symmetry_cell_setting 'orthorhombic'
loop_
_space_group_symop_operation_xyz
x,y,z
-x,-y,z
-x,y,z
x,-y,z
1/2+x,1/2+y,z
1/2-x,1/2-y,z
1/2-x,1/2+y,z
1/2+x,1/2-y,z
loop_
_atom_site_type_symbol
_atom_site_label
_atom_site_fract_x
_atom_site_fract_y
_atom_site_fract_z
Si Si1 0.169283 0.084397 0.695400
Si Si2 0.830778 0.083884 0.083238
Si Si3 0.326250 0.827707 0.585147
Si Si4 0.672820 0.918215 0.459659
Si Si5 0.326995 0.172855 0.335993
Si Si6 0.331394 0.677282 0.817520
Si Si7 0.171367 0.416677 0.210107
Si Si8 0.828576 0.176716 0.963065
O O1 0.273284 0.129542 0.648390
O O2 0.201739 0.111196 0.768711
O O3 0.000000 0.097324 0.676858
O O4 0.211399 0.000000 0.691196
O O5 0.745918 0.116259 0.145425
O O6 0.775873 0.117705 0.015458
O O7 0.000000 0.099375 0.095055
O O8 0.793207 0.000000 0.076776
O O9 0.500000 0.817302 0.588126
O O10 0.250000 0.750000 0.581289
O O11 0.275225 0.874284 0.522964
O O12 0.500000 0.923623 0.457965
O O13 0.729262 0.876053 0.396020
O O14 0.739292 0.000000 0.461243
O O15 0.500000 0.184301 0.338950
O O16 0.250000 0.250000 0.339717
O O17 0.277609 0.131837 0.270676
O O18 0.500000 0.698215 0.817203
O O19 0.250000 0.750000 0.794324
O O20 0.282038 0.652403 0.890040
O O21 0.220909 0.500000 0.222887
O O22 0.000000 0.412149 0.200103
O O23 0.750000 0.250000 0.983386
O O24 0.000000 0.189333 0.967107
#
# Coordination Sequence:
#
# PCOD8173220 Si02
#       8
#     8   8   8   8   8   8   8   8
#     4  10  21  36  54  78 107 137 171 213 259 306
#     4   9  18  32  50  72  98 128 162 203 250 297
#     4  11  22  36  56  80 107 139 174 212 255 304
#     4   9  18  34  56  79 102 132 171 211 250 296
#     4  10  20  34  53  76 102 131 165 206 249 295
#     4   9  18  33  52  73  98 131 169 208 251 299
#     4   9  18  33  52  72  95 128 168 205 243 291
#     4   9  18  32  50  72  98 129 166 206 248 297
#
# _framework density 18.507887
#
# number of rings (size 3 to 8) (size 9 to 14) (size 15 to 20)
#    0.000    2.500    0.000    1.875    0.000    5.750 
#    0.000    5.625    0.000    2.625    0.000    5.250 
#    0.000    0.000    0.000    0.000    0.000    0.000 
#
# Total GULP energy -396802.030368 kJ/mol
# GULP energy per Si atom -12400.063449 kJ/mol
# Density = 1.846576 g / cm^3
# Si number density = 18.507887 Si / 1000 Ang^3
#
#
#
# Elastic Constant Matrix: (Units=GPa)
#
#
# Indices 1 2 3 4 5 6 
#
# 1 37.6869 41.8195 42.6970 0.0000 0.0000 0.0000
# 2 41.8195 137.5632 83.9183 0.0000 0.0000 0.0000
# 3 42.6970 83.9183 151.1353 0.0000 0.0000 0.0000
# 4 0.0000 0.0000 0.0000 31.4301 0.0000 0.0000
# 5 0.0000 0.0000 0.0000 0.0000 23.2485 0.0000
# 6 0.0000 0.0000 0.0000 0.0000 0.0000 26.4714
#
#
#
# Elastic Compliance Matrix: (Units=1/GPa)
#
#
# Indices 1 2 3 4 5 6 
#
# 1 0.045416 -0.009043 -0.007810 0.000000 0.000000 0.000000
# 2 -0.009043 0.012793 -0.004549 0.000000 0.000000 0.000000
# 3 -0.007810 -0.004549 0.011349 0.000000 0.000000 0.000000
# 4 0.000000 0.000000 0.000000 0.031817 0.000000 0.000000
# 5 0.000000 0.000000 0.000000 0.000000 0.043013 0.000000
# 6 0.000000 0.000000 0.000000 0.000000 0.000000 0.037777
#
#
# Mechanical properties :
#
#
# Convention : Reuss Voigt Hill
#
# Bulk Modulus (GPa) = 37.37452 73.69499 55.53475
# Shear Modulus (GPa) = 21.37793 26.76004 24.06899
#
# Velocity S-wave (km/s) = 3.40232 3.80659 3.61012
# Velocity P-wave (km/s) = 5.97261 7.69576 6.88828
#
# Compressibility (1/GPa) = 0.02675620
#
# Stress axis : x y z
#
# Youngs Moduli (GPa) = 22.01850 78.16558 88.11590
#
# Poissons Ratio (x) = 0.70681 0.68815
# Poissons Ratio (y) = 0.19910 0.40084
# Poissons Ratio (z) = 0.17196 0.35557
#
# Static dielectric constant tensor:
#      x y z
#    x 3.232760 0.000000 0.000000 
#    y 0.000000 3.592620 0.000000 
#    z 0.000000 0.000000 3.764410 
# 
# 
# High freq. dielectric constant tensor:
#      x y z
#    x 1.698420 0.000000 0.000000 
#    y 0.000000 1.718330 0.000000 
#    z 0.000000 0.000000 1.735140 
# 
# From -- ./inp_files/18657.got.cif
#   From: 2010.03.12/outbox.cif.g09.slc.cpg/sg35_10_cif.got.tgz:18657.got - 2010.04.14 02:02:04.
