data_PCOD8173689
_publ_section_title
;
Structure prediction by ZEFSAII (Michael W. Deem and Ramdas Pophale) SiO2 
 PCOD8173689
Probable space group: C M M 2
;
_chemical_formula_sum "Si O2"
_cell_formula_units_Z 64
_cell_length_a 18.076294
_cell_length_b 23.729195
_cell_length_c 7.357235
_cell_angle_alpha 90.000000
_cell_angle_beta 90.000000
_cell_angle_gamma 90.000000
_cell_volume 3155.782255
_symmetry_space_group_name_H-M "C M M 2"
_symmetry_group_IT_number 35
_symmetry_cell_setting 'orthorhombic'
loop_
_space_group_symop_operation_xyz
x,y,z
-x,-y,z
-x,y,z
x,-y,z
1/2+x,1/2+y,z
1/2-x,1/2-y,z
1/2-x,1/2+y,z
1/2+x,1/2-y,z
loop_
_atom_site_type_symbol
_atom_site_label
_atom_site_fract_x
_atom_site_fract_y
_atom_site_fract_z
Si Si1 0.708756 0.306263 0.893980
Si Si2 0.843861 0.563760 0.066500
Si Si3 0.084305 0.240967 0.676064
Si Si4 0.085260 0.866187 0.473823
Si Si5 0.159773 0.359656 0.718603
Si Si6 0.684640 0.400983 0.145505
Si Si7 0.416914 0.563011 0.822740
Si Si8 0.083763 0.434609 0.436832
O O1 0.750000 0.250000 0.944664
O O2 0.626347 0.292600 0.833015
O O3 0.754359 0.340933 0.737440
O O4 0.703918 0.338207 0.083016
O O5 0.855361 0.500000 0.991303
O O6 0.762313 0.566274 0.158681
O O7 0.902560 0.577216 0.224473
O O8 0.860916 0.609242 0.908318
O O9 0.094763 0.202345 0.492837
O O10 0.112377 0.304723 0.663368
O O11 0.000000 0.242326 0.736500
O O12 0.140536 0.895607 0.332907
O O13 0.106580 0.893547 0.667050
O O14 0.000000 0.880427 0.421834
O O15 0.145551 0.402461 0.555014
O O16 0.635672 0.431842 0.995235
O O17 0.500000 0.575738 0.888845
O O18 0.409955 0.500000 0.743192
O O19 0.093518 0.500000 0.481662
O O20 0.000000 0.414684 0.484266
#
# Coordination Sequence:
#
# PCOD8173689 Si02
#       8
#     8   8   8   8   8   8   8   8
#     4   9  20  38  58  86 117 155 199 248 301 356
#     4  10  23  40  61  93 123 154 203 259 310 369
#     4  10  20  38  61  87 120 158 204 251 300 363
#     4  10  22  38  58  88 124 164 207 255 305 360
#     4  10  21  40  64  87 121 161 204 249 310 371
#     4  11  21  37  62  85 118 161 202 243 307 372
#     4  10  21  37  58  86 122 160 202 253 299 352
#     4  10  22  40  62  90 122 155 197 252 313 374
#
# _framework density 20.280232999999999
#
# number of rings (size 3 to 8) (size 9 to 14) (size 15 to 20)
#    0.000    2.000    1.250    1.500    1.750    2.500 
#    6.750    5.000    0.000    0.000    0.000    0.000 
#    0.000    0.000    0.000    0.000    0.000    0.000 
#
# Total GULP energy -396577.300688 kJ/mol
# GULP energy per Si atom -12393.040647 kJ/mol
# Density = 2.023407 g / cm^3
# Si number density = 20.280233 Si / 1000 Ang^3
#
#
#
# Elastic Constant Matrix: (Units=GPa)
#
#
# Indices 1 2 3 4 5 6 
#
# 1 79.6456 28.8002 21.3591 0.0000 0.0000 0.0000
# 2 28.8002 105.5846 37.8749 0.0000 0.0000 0.0000
# 3 21.3591 37.8749 68.0493 0.0000 0.0000 0.0000
# 4 0.0000 0.0000 0.0000 25.6340 0.0000 0.0000
# 5 0.0000 0.0000 0.0000 0.0000 21.1668 0.0000
# 6 0.0000 0.0000 0.0000 0.0000 0.0000 26.5554
#
#
#
# Elastic Compliance Matrix: (Units=1/GPa)
#
#
# Indices 1 2 3 4 5 6 
#
# 1 0.014377 -0.002877 -0.002911 0.000000 0.000000 0.000000
# 2 -0.002877 0.012410 -0.006004 0.000000 0.000000 0.000000
# 3 -0.002911 -0.006004 0.018951 0.000000 0.000000 0.000000
# 4 0.000000 0.000000 0.000000 0.039011 0.000000 0.000000
# 5 0.000000 0.000000 0.000000 0.000000 0.047244 0.000000
# 6 0.000000 0.000000 0.000000 0.000000 0.000000 0.037657
#
#
# Mechanical properties :
#
#
# Convention : Reuss Voigt Hill
#
# Bulk Modulus (GPa) = 45.14160 47.70532 46.42346
# Shear Modulus (GPa) = 24.92310 25.68759 25.30535
#
# Velocity S-wave (km/s) = 3.50942 3.56284 3.53623
# Velocity P-wave (km/s) = 6.22323 6.36390 6.29396
#
# Compressibility (1/GPa) = 0.02215252
#
# Stress axis : x y z
#
# Youngs Moduli (GPa) = 69.55678 80.58295 52.76886
#
# Poissons Ratio (x) = 0.23186 0.15362
# Poissons Ratio (y) = 0.20013 0.31682
# Poissons Ratio (z) = 0.20249 0.48381
#
# Static dielectric constant tensor:
#      x y z
#    x 3.813670 0.000000 0.000000 
#    y 0.000000 5.237440 0.000000 
#    z 0.000000 0.000000 3.331590 
# 
# 
# High freq. dielectric constant tensor:
#      x y z
#    x 1.802260 0.000000 0.000000 
#    y 0.000000 1.808550 0.000000 
#    z 0.000000 0.000000 1.763500 
# 
# From -- ./inp_files/3165.got.cif
#   From: 2010.03.12/outbox.cif.g09.slc.cpg/sg35_2_cif.got.tgz:3165.got - 2010.04.14 02:02:04.
