data_PCOD8173410
_publ_section_title
;
Structure prediction by ZEFSAII (Michael W. Deem and Ramdas Pophale) SiO2 
 PCOD8173410
Probable space group: C M M 2
;
_chemical_formula_sum "Si O2"
_cell_formula_units_Z 32
_cell_length_a 13.272527
_cell_length_b 22.320380
_cell_length_c 4.745322
_cell_angle_alpha 90.000000
_cell_angle_beta 90.000000
_cell_angle_gamma 90.000000
_cell_volume 1405.791422
_symmetry_space_group_name_H-M "C M M 2"
_symmetry_group_IT_number 35
_symmetry_cell_setting 'orthorhombic'
loop_
_space_group_symop_operation_xyz
x,y,z
-x,-y,z
-x,y,z
x,-y,z
1/2+x,1/2+y,z
1/2-x,1/2-y,z
1/2-x,1/2+y,z
1/2+x,1/2-y,z
loop_
_atom_site_type_symbol
_atom_site_label
_atom_site_fract_x
_atom_site_fract_y
_atom_site_fract_z
Si Si1 0.389449 0.830666 0.559970
Si Si2 0.610533 0.748724 0.059508
Si Si3 0.205102 0.128956 0.234663
Si Si4 0.886563 0.067770 0.735661
O O1 0.500000 0.862164 0.594569
O O2 0.400977 0.771846 0.373747
O O3 0.311642 0.875390 0.403100
O O4 0.350157 0.803940 0.859756
O O5 0.500000 0.727506 0.948094
O O6 0.687703 0.693770 0.088067
O O7 0.122602 0.112530 0.470676
O O8 0.195441 0.081845 0.979809
O O9 0.000000 0.074996 0.856595
O O10 0.866555 0.000000 0.632558
#
# Coordination Sequence:
#
# PCOD8173410 Si02
#       4
#     8   8   8   8
#     4  10  22  38  57  85 122 157 191 236 288 349
#     4  10  20  35  55  84 119 153 192 236 287 351
#     4  12  22  37  63  88 118 162 204 241 296 360
#     4  11  24  41  61  88 120 154 199 256 310 355
#
# _framework density 22.762981
#
# number of rings (size 3 to 8) (size 9 to 14) (size 15 to 20)
#    0.000    1.250    0.000    6.750    0.000    6.000 
#    0.000    0.000    0.000    6.000    0.000    0.000 
#    0.000    0.000    0.000    0.000    0.000    0.000 
#
# Total GULP energy -198252.171825 kJ/mol
# GULP energy per Si atom -12390.760739 kJ/mol
# Density = 2.271117 g / cm^3
# Si number density = 22.762981 Si / 1000 Ang^3
#
#
#
# Elastic Constant Matrix: (Units=GPa)
#
#
# Indices 1 2 3 4 5 6 
#
# 1 89.0409 14.8516 7.9164 0.0000 0.0000 0.0000
# 2 14.8516 53.6948 6.3007 0.0000 0.0000 0.0000
# 3 7.9164 6.3007 89.4196 0.0000 0.0000 0.0000
# 4 0.0000 0.0000 0.0000 37.5427 0.0000 0.0000
# 5 0.0000 0.0000 0.0000 0.0000 36.6110 0.0000
# 6 0.0000 0.0000 0.0000 0.0000 0.0000 18.0973
#
#
#
# Elastic Compliance Matrix: (Units=1/GPa)
#
#
# Indices 1 2 3 4 5 6 
#
# 1 0.011834 -0.003176 -0.000824 0.000000 0.000000 0.000000
# 2 -0.003176 0.019632 -0.001102 0.000000 0.000000 0.000000
# 3 -0.000824 -0.001102 0.011334 0.000000 0.000000 0.000000
# 4 0.000000 0.000000 0.000000 0.026636 0.000000 0.000000
# 5 0.000000 0.000000 0.000000 0.000000 0.027314 0.000000
# 6 0.000000 0.000000 0.000000 0.000000 0.000000 0.055257
#
#
# Mechanical properties :
#
#
# Convention : Reuss Voigt Hill
#
# Bulk Modulus (GPa) = 30.67996 32.25474 31.46735
# Shear Modulus (GPa) = 28.88897 31.98930 30.43913
#
# Velocity S-wave (km/s) = 3.56634 3.75283 3.66077
# Velocity P-wave (km/s) = 5.51957 5.74272 5.63225
#
# Compressibility (1/GPa) = 0.03259457
#
# Stress axis : x y z
#
# Youngs Moduli (GPa) = 84.50323 50.93809 88.23151
#
# Poissons Ratio (x) = 0.16180 0.07269
# Poissons Ratio (y) = 0.26842 0.09724
# Poissons Ratio (z) = 0.06962 0.05614
#
# Static dielectric constant tensor:
#      x y z
#    x 4.523580 0.000000 0.000000 
#    y 0.000000 3.648110 0.000000 
#    z 0.000000 0.000000 4.253550 
# 
# 
# High freq. dielectric constant tensor:
#      x y z
#    x 1.907170 0.000000 0.000000 
#    y 0.000000 1.840870 0.000000 
#    z 0.000000 0.000000 1.921120 
# 
# From -- ./inp_files/1677.got.cif
#   From: 2010.03.12/outbox.cif.g09.slc.cpg/sg35_1_cif.got.tgz:1677.got - 2010.04.14 02:02:04.
