data_PCOD8173069
_publ_section_title
;
Structure prediction by ZEFSAII (Michael W. Deem and Ramdas Pophale) SiO2 
 PCOD8173069
Probable space group: C M M 2
;
_chemical_formula_sum "Si O2"
_cell_formula_units_Z 40
_cell_length_a 19.887033
_cell_length_b 9.047448
_cell_length_c 12.621248
_cell_angle_alpha 90.000000
_cell_angle_beta 90.000000
_cell_angle_gamma 90.000000
_cell_volume 2270.901988
_symmetry_space_group_name_H-M "C M M 2"
_symmetry_group_IT_number 35
_symmetry_cell_setting 'orthorhombic'
loop_
_space_group_symop_operation_xyz
x,y,z
-x,-y,z
-x,y,z
x,-y,z
1/2+x,1/2+y,z
1/2-x,1/2-y,z
1/2-x,1/2+y,z
1/2+x,1/2-y,z
loop_
_atom_site_type_symbol
_atom_site_label
_atom_site_fract_x
_atom_site_fract_y
_atom_site_fract_z
Si Si1 0.425446 0.175936 0.997030
Si Si2 0.682156 0.826782 0.162548
Si Si3 0.420989 0.671371 0.558033
Si Si4 0.420204 0.164042 0.765179
Si Si5 0.319155 0.826153 0.406045
O O1 0.500000 0.242454 0.016127
O O2 0.396626 0.222635 0.880966
O O3 0.429355 0.000000 0.001013
O O4 0.377433 0.237387 0.089340
O O5 0.750000 0.750000 0.124339
O O6 0.665853 0.787617 0.283911
O O7 0.691257 0.000000 0.146190
O O8 0.500000 0.702327 0.542618
O O9 0.403450 0.500000 0.546142
O O10 0.396081 0.724269 0.673919
O O11 0.382089 0.763483 0.469853
O O12 0.500000 0.154248 0.768537
O O13 0.390813 0.000000 0.741546
O O14 0.250000 0.750000 0.443788
O O15 0.312537 0.000000 0.425609
#
# Coordination Sequence:
#
# PCOD8173069 Si02
#       5
#     8   8   8   8   8
#     4   8  14  27  49  74  96 121 158 200 236 274
#     4   9  18  32  50  71  96 126 157 193 238 287
#     4  10  20  33  50  73 101 130 162 203 246 288
#     4   8  14  27  48  71  95 125 160 197 238 284
#     4  10  20  34  52  72  97 130 166 203 244 292
#
# _framework density 17.614148
#
# number of rings (size 3 to 8) (size 9 to 14) (size 15 to 20)
#    0.000    3.000    0.000    2.400    0.000    2.800 
#    0.000    4.000    0.000    4.200    0.000    0.000 
#    0.000    0.000    0.000    0.000    0.000    0.000 
#
# Total GULP energy -247935.563924 kJ/mol
# GULP energy per Si atom -12396.778196 kJ/mol
# Density = 1.757406 g / cm^3
# Si number density = 17.614148 Si / 1000 Ang^3
#
#
#
# Elastic Constant Matrix: (Units=GPa)
#
#
# Indices 1 2 3 4 5 6 
#
# 1 87.3149 38.6193 69.5016 0.0000 0.0000 0.0000
# 2 38.6193 63.6371 43.1538 0.0000 0.0000 0.0000
# 3 69.5016 43.1538 118.4153 0.0000 0.0000 0.0000
# 4 0.0000 0.0000 0.0000 19.5637 0.0000 0.0000
# 5 0.0000 0.0000 0.0000 0.0000 12.7944 0.0000
# 6 0.0000 0.0000 0.0000 0.0000 0.0000 25.9444
#
#
#
# Elastic Compliance Matrix: (Units=1/GPa)
#
#
# Indices 1 2 3 4 5 6 
#
# 1 0.023345 -0.006476 -0.011342 0.000000 0.000000 0.000000
# 2 -0.006476 0.022669 -0.004460 0.000000 0.000000 0.000000
# 3 -0.011342 -0.004460 0.016727 0.000000 0.000000 0.000000
# 4 0.000000 0.000000 0.000000 0.051115 0.000000 0.000000
# 5 0.000000 0.000000 0.000000 0.000000 0.078159 0.000000
# 6 0.000000 0.000000 0.000000 0.000000 0.000000 0.038544
#
#
# Mechanical properties :
#
#
# Convention : Reuss Voigt Hill
#
# Bulk Modulus (GPa) = 54.99102 63.54628 59.26865
# Shear Modulus (GPa) = 17.78236 19.53333 18.65785
#
# Velocity S-wave (km/s) = 3.18079 3.33371 3.25815
# Velocity P-wave (km/s) = 6.69160 7.13956 6.91921
#
# Compressibility (1/GPa) = 0.01818479
#
# Stress axis : x y z
#
# Youngs Moduli (GPa) = 42.83519 44.11353 59.78311
#
# Poissons Ratio (x) = 0.28569 0.67806
# Poissons Ratio (y) = 0.27741 0.26663
# Poissons Ratio (z) = 0.48583 0.19675
#
# Static dielectric constant tensor:
#      x y z
#    x 3.204360 0.000000 0.000000 
#    y 0.000000 3.138270 0.000000 
#    z 0.000000 0.000000 3.577650 
# 
# 
# High freq. dielectric constant tensor:
#      x y z
#    x 1.659160 0.000000 0.000000 
#    y 0.000000 1.664200 0.000000 
#    z 0.000000 0.000000 1.690470 
# 
# From -- ./inp_files/11027.got.cif
#   From: 2010.03.12/outbox.cif.g09.slc.cpg/sg35_6_cif.got.tgz:11027.got - 2010.04.14 02:02:04.
