data_PCOD8173152
_publ_section_title
;
Structure prediction by ZEFSAII (Michael W. Deem and Ramdas Pophale) SiO2 
 PCOD8173152
Probable space group: C M M 2
;
_chemical_formula_sum "Si O2"
_cell_formula_units_Z 56
_cell_length_a 13.396597
_cell_length_b 13.645285
_cell_length_c 16.362469
_cell_angle_alpha 90.000000
_cell_angle_beta 90.000000
_cell_angle_gamma 90.000000
_cell_volume 2991.065618
_symmetry_space_group_name_H-M "C M M 2"
_symmetry_group_IT_number 35
_symmetry_cell_setting 'orthorhombic'
loop_
_space_group_symop_operation_xyz
x,y,z
-x,-y,z
-x,y,z
x,-y,z
1/2+x,1/2+y,z
1/2-x,1/2-y,z
1/2-x,1/2+y,z
1/2+x,1/2-y,z
loop_
_atom_site_type_symbol
_atom_site_label
_atom_site_fract_x
_atom_site_fract_y
_atom_site_fract_z
Si Si1 0.881798 0.109554 0.621490
Si Si2 0.381798 0.390446 0.800180
Si Si3 0.795694 0.614207 0.040519
Si Si4 0.795694 0.385793 0.381152
Si Si5 0.888407 0.384751 0.210835
Si Si6 0.615332 0.707632 0.963828
Si Si7 0.615332 0.292367 0.457843
O O1 0.841689 0.144707 0.710835
O O2 0.847748 0.182652 0.549750
O O3 0.000000 0.106244 0.624261
O O4 0.841119 0.000000 0.602490
O O5 0.500000 0.393756 0.797410
O O6 0.341118 0.500000 0.819181
O O7 0.347748 0.317348 0.871920
O O8 0.815529 0.500000 0.024199
O O9 0.826595 0.647593 0.131386
O O10 0.679585 0.642080 0.027410
O O11 0.863501 0.677130 0.977650
O O12 0.815529 0.500000 0.397472
O O13 0.826595 0.352407 0.290285
O O14 0.679585 0.357920 0.394260
O O15 0.863501 0.322870 0.444021
O O16 0.900998 0.500000 0.210835
O O17 0.000000 0.337283 0.210835
O O18 0.500000 0.681639 0.978164
O O19 0.500000 0.318360 0.443507
#
# Coordination Sequence:
#
# PCOD8173152 Si02
#       7
#     8   8   8   8   8   8   8
#     4   8  14  27  49  75 103 138 176 208 245 303
#     4   8  14  27  49  75 103 138 176 208 245 303
#     4  10  21  36  53  76 104 135 174 215 257 311
#     4  10  21  36  53  76 104 135 174 215 257 311
#     4   9  18  35  57  75  98 139 181 210 247 311
#     4  10  20  33  53  80 106 134 170 216 264 304
#     4  10  20  33  53  80 106 134 170 216 264 304
#
# _framework density 18.722424
#
# number of rings (size 3 to 8) (size 9 to 14) (size 15 to 20)
#    0.000    2.714    0.000    2.571    0.000    5.714 
#    0.000    5.000    0.000    5.143    0.000    4.000 
#    0.000    0.000    0.000    0.000    0.000    0.000 
#
# Total GULP energy -346975.148210 kJ/mol
# GULP energy per Si atom -12391.969579 kJ/mol
# Density = 1.867981 g / cm^3
# Si number density = 18.722424 Si / 1000 Ang^3
#
#
#
# Elastic Constant Matrix: (Units=GPa)
#
#
# Indices 1 2 3 4 5 6 
#
# 1 103.1350 21.6061 65.9215 0.0000 0.0000 0.0000
# 2 21.6061 109.3635 80.2267 0.0000 0.0000 0.0000
# 3 65.9215 80.2267 167.3838 0.0000 0.0000 0.0000
# 4 0.0000 0.0000 0.0000 29.0188 0.0000 0.0000
# 5 0.0000 0.0000 0.0000 0.0000 22.1098 0.0000
# 6 0.0000 0.0000 0.0000 0.0000 0.0000 21.5993
#
#
#
# Elastic Compliance Matrix: (Units=1/GPa)
#
#
# Indices 1 2 3 4 5 6 
#
# 1 0.013199 0.001859 -0.006089 0.000000 0.000000 0.000000
# 2 0.001859 0.014364 -0.007617 0.000000 0.000000 0.000000
# 3 -0.006089 -0.007617 0.012023 0.000000 0.000000 0.000000
# 4 0.000000 0.000000 0.000000 0.034460 0.000000 0.000000
# 5 0.000000 0.000000 0.000000 0.000000 0.045229 0.000000
# 6 0.000000 0.000000 0.000000 0.000000 0.000000 0.046298
#
#
# Mechanical properties :
#
#
# Convention : Reuss Voigt Hill
#
# Bulk Modulus (GPa) = 62.92357 79.48787 71.20572
# Shear Modulus (GPa) = 25.69845 28.68744 27.19295
#
# Velocity S-wave (km/s) = 3.70888 3.91864 3.81521
# Velocity P-wave (km/s) = 7.21268 7.93867 7.58437
#
# Compressibility (1/GPa) = 0.01589230
#
# Stress axis : x y z
#
# Youngs Moduli (GPa) = 75.76554 69.61779 83.17203
#
# Poissons Ratio (x) = -0.12945 0.50646
# Poissons Ratio (y) = -0.14088 0.63352
# Poissons Ratio (z) = 0.46136 0.53028
#
# Static dielectric constant tensor:
#      x y z
#    x 3.310720 0.000000 0.000000 
#    y 0.000000 3.373830 0.000000 
#    z 0.000000 0.000000 3.911970 
# 
# 
# High freq. dielectric constant tensor:
#      x y z
#    x 1.707610 0.000000 0.000000 
#    y 0.000000 1.713370 0.000000 
#    z 0.000000 0.000000 1.733680 
# 
# From -- ./inp_files/16823.got.cif
#   From: 2010.03.12/outbox.cif.g09.slc.cpg/sg35_9_cif.got.tgz:16823.got - 2010.04.14 02:02:04.
