data_PCOD8173718
_publ_section_title
;
Structure prediction by ZEFSAII (Michael W. Deem and Ramdas Pophale) SiO2 
 PCOD8173718
Probable space group: C M M 2
;
_chemical_formula_sum "Si O2"
_cell_formula_units_Z 36
_cell_length_a 21.886665
_cell_length_b 10.712871
_cell_length_c 7.895143
_cell_angle_alpha 90.000000
_cell_angle_beta 90.000000
_cell_angle_gamma 90.000000
_cell_volume 1851.166432
_symmetry_space_group_name_H-M "C M M 2"
_symmetry_group_IT_number 35
_symmetry_cell_setting 'orthorhombic'
loop_
_space_group_symop_operation_xyz
x,y,z
-x,-y,z
-x,y,z
x,-y,z
1/2+x,1/2+y,z
1/2-x,1/2-y,z
1/2-x,1/2+y,z
1/2+x,1/2-y,z
loop_
_atom_site_type_symbol
_atom_site_label
_atom_site_fract_x
_atom_site_fract_y
_atom_site_fract_z
Si Si1 0.678054 0.250990 0.776220
Si Si2 0.878436 0.855896 0.116508
Si Si3 0.610588 0.000000 0.702911
Si Si4 0.500000 0.000000 0.451056
Si Si5 0.201464 0.859553 0.444851
Si Si6 0.500000 0.000000 0.944280
Si Si7 0.500000 0.780732 0.192910
O O1 0.750000 0.250000 0.820367
O O2 0.655626 0.117304 0.709615
O O3 0.662846 0.347294 0.620989
O O4 0.642803 0.285328 0.947826
O O5 0.833728 0.831741 0.272887
O O6 0.942363 0.808712 0.186068
O O7 0.883253 0.000000 0.069259
O O8 0.565116 0.000000 0.543726
O O9 0.564619 0.000000 0.856445
O O10 0.500000 0.130939 0.355218
O O11 0.250000 0.750000 0.462967
O O12 0.229306 0.000000 0.436618
O O13 0.500000 0.870052 0.035497
#
# Coordination Sequence:
#
# PCOD8173718 Si02
#       7
#     8   8   4   2   8   2   4
#     4  11  24  39  65  95 132 173 214 270 329 397
#     4  11  23  41  63  91 129 170 214 269 331 399
#     4  11  22  42  64  98 130 169 222 269 328 394
#     4  10  24  40  74  94 130 168 226 286 336 382
#     4  10  23  42  62  93 128 169 218 267 325 396
#     4  10  20  40  60  88 124 156 212 268 310 378
#     4  11  21  42  59  95 118 167 213 270 332 383
#
# _framework density 19.447198
#
# number of rings (size 3 to 8) (size 9 to 14) (size 15 to 20)
#    0.000    1.333    2.222    3.000    7.778    0.000 
#    6.000    0.000    0.000    2.667    0.000    0.000 
#    0.000    0.000    0.000    0.000    0.000    0.000 
#
# Total GULP energy -223025.417162 kJ/mol
# GULP energy per Si atom -12390.300953 kJ/mol
# Density = 1.940294 g / cm^3
# Si number density = 19.447198 Si / 1000 Ang^3
#
#
#
# Elastic Constant Matrix: (Units=GPa)
#
#
# Indices 1 2 3 4 5 6 
#
# 1 103.0993 54.3377 37.4248 0.0000 0.0000 0.0000
# 2 54.3377 102.9147 51.4986 0.0000 0.0000 0.0000
# 3 37.4248 51.4986 139.2756 0.0000 0.0000 0.0000
# 4 0.0000 0.0000 0.0000 36.0142 0.0000 0.0000
# 5 0.0000 0.0000 0.0000 0.0000 64.8892 0.0000
# 6 0.0000 0.0000 0.0000 0.0000 0.0000 38.5132
#
#
#
# Elastic Compliance Matrix: (Units=1/GPa)
#
#
# Indices 1 2 3 4 5 6 
#
# 1 0.013608 -0.006571 -0.001227 0.000000 0.000000 0.000000
# 2 -0.006571 0.015096 -0.003816 0.000000 0.000000 0.000000
# 3 -0.001227 -0.003816 0.008921 0.000000 0.000000 0.000000
# 4 0.000000 0.000000 0.000000 0.027767 0.000000 0.000000
# 5 0.000000 0.000000 0.000000 0.000000 0.015411 0.000000
# 6 0.000000 0.000000 0.000000 0.000000 0.000000 0.025965
#
#
# Mechanical properties :
#
#
# Convention : Reuss Voigt Hill
#
# Bulk Modulus (GPa) = 69.46133 70.20133 69.83133
# Shear Modulus (GPa) = 37.09368 41.35188 39.22278
#
# Velocity S-wave (km/s) = 4.37212 4.61626 4.49585
# Velocity P-wave (km/s) = 7.82833 8.03678 7.93324
#
# Compressibility (1/GPa) = 0.01439650
#
# Stress axis : x y z
#
# Youngs Moduli (GPa) = 73.48686 66.24403 112.09801
#
# Poissons Ratio (x) = 0.43528 0.13754
# Poissons Ratio (y) = 0.48287 0.42778
# Poissons Ratio (z) = 0.09016 0.25280
#
# Static dielectric constant tensor:
#      x y z
#    x 3.515850 0.000000 0.000000 
#    y 0.000000 3.711230 0.000000 
#    z 0.000000 0.000000 3.901410 
# 
# 
# High freq. dielectric constant tensor:
#      x y z
#    x 1.752520 0.000000 0.000000 
#    y 0.000000 1.772260 0.000000 
#    z 0.000000 0.000000 1.777690 
# 
# From -- ./inp_files/9009.got.cif
#   From: 2010.03.12/outbox.cif.g09.slc.cpg/sg35_5_cif.got.tgz:9009.got - 2010.04.14 02:02:04.
