data_PCOD8173748
_publ_section_title
;
Structure prediction by ZEFSAII (Michael W. Deem and Ramdas Pophale) SiO2 
 PCOD8173748
Probable space group: C M M 2
;
_chemical_formula_sum "Si O2"
_cell_formula_units_Z 64
_cell_length_a 28.849320
_cell_length_b 8.942365
_cell_length_c 12.504941
_cell_angle_alpha 90.000000
_cell_angle_beta 90.000000
_cell_angle_gamma 90.000000
_cell_volume 3226.039053
_symmetry_space_group_name_H-M "C M M 2"
_symmetry_group_IT_number 35
_symmetry_cell_setting 'orthorhombic'
loop_
_space_group_symop_operation_xyz
x,y,z
-x,-y,z
-x,y,z
x,-y,z
1/2+x,1/2+y,z
1/2-x,1/2-y,z
1/2-x,1/2+y,z
1/2+x,1/2-y,z
loop_
_atom_site_type_symbol
_atom_site_label
_atom_site_fract_x
_atom_site_fract_y
_atom_site_fract_z
Si Si1 0.182818 0.333017 0.057050
Si Si2 0.887585 0.178790 0.737458
Si Si3 0.296714 0.677274 0.274073
Si Si4 0.297309 0.178014 0.816542
Si Si5 0.888858 0.323905 0.340536
Si Si6 0.421094 0.164259 0.117442
Si Si7 0.949236 0.166091 0.925965
Si Si8 0.554188 0.825301 0.551968
O O1 0.203074 0.500000 0.078158
O O2 0.200616 0.221650 0.148721
O O3 0.127812 0.339655 0.057682
O O4 0.197284 0.272396 0.940494
O O5 0.837255 0.254492 0.740451
O O6 0.914215 0.241244 0.842282
O O7 0.917556 0.229174 0.636610
O O8 0.883261 0.000000 0.735460
O O9 0.295065 0.500000 0.284959
O O10 0.250000 0.750000 0.322684
O O11 0.339638 0.739066 0.344523
O O12 0.250000 0.250000 0.772890
O O13 0.297075 0.000000 0.804277
O O14 0.877916 0.500000 0.328239
O O15 0.916363 0.265490 0.235623
O O16 0.921724 0.287452 0.439410
O O17 0.442842 0.000000 0.127772
O O18 0.454229 0.257636 0.041240
O O19 0.000000 0.168243 0.872301
O O20 0.931347 0.000000 0.947950
O O21 0.500000 0.778122 0.548186
O O22 0.558887 0.000000 0.579292
#
# Coordination Sequence:
#
# PCOD8173748 Si02
#       8
#     8   8   8   8   8   8   8   8
#     4   9  18  33  53  80 117 157 198 241 285 339
#     4  11  23  40  61  85 119 157 197 247 300 351
#     4  11  21  33  54  84 120 160 201 240 287 346
#     4  11  22  37  58  86 120 157 200 244 294 353
#     4   9  20  39  60  85 118 151 192 245 298 349
#     4   9  17  32  54  82 115 151 188 233 286 341
#     4  10  21  35  52  79 116 155 191 232 288 349
#     4  10  22  42  68  92 114 149 198 250 303 359
#
# _framework density 19.838569
#
# number of rings (size 3 to 8) (size 9 to 14) (size 15 to 20)
#    0.000    2.000    1.250    3.375    0.000    6.500 
#    0.000    1.875    0.000    3.000    0.000    0.000 
#    0.000    0.000    0.000    0.000    0.000    0.000 
#
# Total GULP energy -396708.840098 kJ/mol
# GULP energy per Si atom -12397.151253 kJ/mol
# Density = 1.979342 g / cm^3
# Si number density = 19.838569 Si / 1000 Ang^3
#
#
#
# Elastic Constant Matrix: (Units=GPa)
#
#
# Indices 1 2 3 4 5 6 
#
# 1 135.3452 54.3427 61.0449 0.0000 0.0000 0.0000
# 2 54.3427 91.2964 43.9087 0.0000 0.0000 0.0000
# 3 61.0449 43.9087 101.6523 0.0000 0.0000 0.0000
# 4 0.0000 0.0000 0.0000 21.4763 0.0000 0.0000
# 5 0.0000 0.0000 0.0000 0.0000 24.3288 0.0000
# 6 0.0000 0.0000 0.0000 0.0000 0.0000 24.2920
#
#
#
# Elastic Compliance Matrix: (Units=1/GPa)
#
#
# Indices 1 2 3 4 5 6 
#
# 1 0.011381 -0.004402 -0.004933 0.000000 0.000000 0.000000
# 2 -0.004402 0.015528 -0.004064 0.000000 0.000000 0.000000
# 3 -0.004933 -0.004064 0.014555 0.000000 0.000000 0.000000
# 4 0.000000 0.000000 0.000000 0.046563 0.000000 0.000000
# 5 0.000000 0.000000 0.000000 0.000000 0.041103 0.000000
# 6 0.000000 0.000000 0.000000 0.000000 0.000000 0.041166
#
#
# Mechanical properties :
#
#
# Convention : Reuss Voigt Hill
#
# Bulk Modulus (GPa) = 68.18256 71.87628 70.02942
# Shear Modulus (GPa) = 24.75456 25.28593 25.02024
#
# Velocity S-wave (km/s) = 3.53625 3.57401 3.55518
# Velocity P-wave (km/s) = 7.14960 7.30346 7.22694
#
# Compressibility (1/GPa) = 0.01466651
#
# Stress axis : x y z
#
# Youngs Moduli (GPa) = 87.86669 64.40019 68.70295
#
# Poissons Ratio (x) = 0.28347 0.33893
# Poissons Ratio (y) = 0.38676 0.27921
# Poissons Ratio (z) = 0.43347 0.26172
#
# Static dielectric constant tensor:
#      x y z
#    x 3.673660 0.000000 0.000000 
#    y 0.000000 3.530810 0.000000 
#    z 0.000000 0.000000 3.468860 
# 
# 
# High freq. dielectric constant tensor:
#      x y z
#    x 1.783270 0.000000 0.000000 
#    y 0.000000 1.766400 0.000000 
#    z 0.000000 0.000000 1.754120 
# 
# From -- ./inp_files/14561.got.cif
#   From: 2010.03.12/outbox.cif.g09.slc.cpg/sg35_8_cif.got.tgz:14561.got - 2010.04.14 02:02:04.
