data_PCOD8173495
_publ_section_title
;
Structure prediction by ZEFSAII (Michael W. Deem and Ramdas Pophale) SiO2 
 PCOD8173495
Probable space group: C M M 2
;
_chemical_formula_sum "Si O2"
_cell_formula_units_Z 40
_cell_length_a 15.510647
_cell_length_b 8.727270
_cell_length_c 14.408030
_cell_angle_alpha 90.000000
_cell_angle_beta 90.000000
_cell_angle_gamma 90.000000
_cell_volume 1950.351687
_symmetry_space_group_name_H-M "C M M 2"
_symmetry_group_IT_number 35
_symmetry_cell_setting 'orthorhombic'
loop_
_space_group_symop_operation_xyz
x,y,z
-x,-y,z
-x,y,z
x,-y,z
1/2+x,1/2+y,z
1/2-x,1/2-y,z
1/2-x,1/2+y,z
1/2+x,1/2-y,z
loop_
_atom_site_type_symbol
_atom_site_label
_atom_site_fract_x
_atom_site_fract_y
_atom_site_fract_z
Si Si1 0.660614 0.319540 0.232610
Si Si2 0.500000 0.819102 0.339357
Si Si3 0.398614 0.823786 0.049834
Si Si4 0.661337 0.318914 0.662988
Si Si5 0.898755 0.824499 0.860827
Si Si6 0.000000 0.181771 0.540595
O O1 0.660613 0.500000 0.247281
O O2 0.750000 0.250000 0.270117
O O3 0.584291 0.247149 0.291295
O O4 0.650340 0.280330 0.124104
O O5 0.500000 0.774143 0.446006
O O6 0.500000 0.000000 0.326364
O O7 0.500000 0.793129 0.059840
O O8 0.375175 0.000000 0.068182
O O9 0.366852 0.776834 0.947378
O O10 0.666025 0.500000 0.662517
O O11 0.750000 0.250000 0.623672
O O12 0.646653 0.260378 0.768212
O O13 0.583848 0.264600 0.597387
O O14 0.000000 0.808031 0.844432
O O15 0.873909 0.000000 0.880814
O O16 0.000000 0.000000 0.521932
#
# Coordination Sequence:
#
# PCOD8173495 Si02
#       6
#     8   4   8   8   8   4
#     4  12  25  43  68  96 127 167 210 258 314 373
#     4  12  26  46  69  96 127 160 205 260 318 382
#     4  10  20  35  58  90 129 168 209 257 306 365
#     4  10  21  38  62  90 122 160 205 256 307 367
#     4   9  17  33  57  84 118 165 214 252 299 364
#     4  10  22  44  67  88 119 162 205 250 314 378
#
# _framework density 20.509122000000001
#
# number of rings (size 3 to 8) (size 9 to 14) (size 15 to 20)
#    0.000    1.600    2.000    3.300    0.000    4.000 
#    0.000    4.000    0.000    0.000    0.000    0.000 
#    0.000    0.000    0.000    0.000    0.000    0.000 
#
# Total GULP energy -248089.340117 kJ/mol
# GULP energy per Si atom -12404.467006 kJ/mol
# Density = 2.046244 g / cm^3
# Si number density = 20.509122 Si / 1000 Ang^3
#
#
#
# Elastic Constant Matrix: (Units=GPa)
#
#
# Indices 1 2 3 4 5 6 
#
# 1 146.4445 59.2591 72.3418 0.0000 0.0000 0.0000
# 2 59.2591 115.2709 53.6428 0.0000 0.0000 0.0000
# 3 72.3418 53.6428 132.2136 0.0000 0.0000 0.0000
# 4 0.0000 0.0000 0.0000 31.2804 0.0000 0.0000
# 5 0.0000 0.0000 0.0000 0.0000 -4.0939 0.0000
# 6 0.0000 0.0000 0.0000 0.0000 0.0000 33.5864
#
#
#
# Elastic Compliance Matrix: (Units=1/GPa)
#
#
# Indices 1 2 3 4 5 6 
#
# 1 0.010278 -0.003287 -0.004290 0.000000 0.000000 0.000000
# 2 -0.003287 0.011746 -0.002967 0.000000 0.000000 0.000000
# 3 -0.004290 -0.002967 0.011115 0.000000 0.000000 0.000000
# 4 0.000000 0.000000 0.000000 0.031969 0.000000 0.000000
# 5 0.000000 0.000000 0.000000 0.000000 -0.244263 0.000000
# 6 0.000000 0.000000 0.000000 0.000000 0.000000 0.029774
#
#
# Mechanical properties :
#
#
# Convention : Reuss Voigt Hill
#
# Bulk Modulus (GPa) = 82.98757 84.93513 83.96135
# Shear Modulus (GPa) = -40.23267 26.06691 -7.08288
#
# Velocity S-wave (km/s) = -4.43391 3.56896 -1.86038
# Velocity P-wave (km/s) = 3.78667 7.64765 6.03429
#
# Compressibility (1/GPa) = 0.01205000
#
# Stress axis : x y z
#
# Youngs Moduli (GPa) = 97.29600 85.13597 89.97242
#
# Poissons Ratio (x) = 0.27987 0.38597
# Poissons Ratio (y) = 0.31985 0.26694
# Poissons Ratio (z) = 0.41739 0.25259
#
# Static dielectric constant tensor:
#      x y z
#    x 4.140890 0.000000 0.000000 
#    y 0.000000 3.632310 0.000000 
#    z 0.000000 0.000000 3.820910 
# 
# 
# High freq. dielectric constant tensor:
#      x y z
#    x 1.807410 0.000000 0.000000 
#    y 0.000000 1.797170 0.000000 
#    z 0.000000 0.000000 1.803660 
# 
# From -- ./inp_files/14800.got.cif
#   From: 2010.03.12/outbox.cif.g09.slc.cpg/sg35_8_cif.got.tgz:14800.got - 2010.04.14 02:02:04.
