data_PCOD8173615
_publ_section_title
;
Structure prediction by ZEFSAII (Michael W. Deem and Ramdas Pophale) SiO2 
 PCOD8173615
Probable space group: C M M 2
;
_chemical_formula_sum "Si O2"
_cell_formula_units_Z 36
_cell_length_a 14.733352
_cell_length_b 9.326350
_cell_length_c 13.368827
_cell_angle_alpha 90.000000
_cell_angle_beta 90.000000
_cell_angle_gamma 90.000000
_cell_volume 1836.989094
_symmetry_space_group_name_H-M "C M M 2"
_symmetry_group_IT_number 35
_symmetry_cell_setting 'orthorhombic'
loop_
_space_group_symop_operation_xyz
x,y,z
-x,-y,z
-x,y,z
x,-y,z
1/2+x,1/2+y,z
1/2-x,1/2-y,z
1/2-x,1/2+y,z
1/2+x,1/2-y,z
loop_
_atom_site_type_symbol
_atom_site_label
_atom_site_fract_x
_atom_site_fract_y
_atom_site_fract_z
Si Si1 0.396735 0.000000 0.057820
Si Si2 0.401573 0.500000 0.323215
Si Si3 0.296742 0.000000 0.264368
Si Si4 0.500000 0.672029 0.766597
Si Si5 0.500000 0.152626 0.575539
Si Si6 0.848562 0.723703 0.426873
Si Si7 0.841896 0.661830 0.876185
O O1 0.500000 0.000000 0.094865
O O2 0.332834 0.000000 0.152950
O O3 0.376704 0.141836 0.990671
O O4 0.500000 0.500000 0.265599
O O5 0.313269 0.500000 0.251806
O O6 0.400053 0.367022 0.397806
O O7 0.332613 0.863110 0.324216
O O8 0.500000 0.500000 0.779594
O O9 0.500000 0.711837 0.649235
O O10 0.588109 0.742435 0.815069
O O11 0.410303 0.145793 0.507445
O O12 0.500000 0.000000 0.634978
O O13 0.750000 0.750000 0.477125
O O14 0.830352 0.500000 0.829233
O O15 0.750000 0.750000 0.875442
#
# Coordination Sequence:
#
# PCOD8173615 Si02
#       7
#     4   4   4   4   4   8   8
#     4  10  22  40  72  91 134 171 226 268 330 406
#     4  10  20  36  62  83 138 175 210 279 313 365
#     4  10  22  40  62  96 124 188 224 251 321 391
#     4  12  26  44  70 100 127 171 227 279 348 416
#     4  12  24  40  64  94 127 173 225 267 328 408
#     4  10  22  39  60  90 134 174 219 267 317 377
#     4  10  21  44  70  98 134 174 210 283 341 396
#
# _framework density 19.597286
#
# number of rings (size 3 to 8) (size 9 to 14) (size 15 to 20)
#    0.667    0.889    3.333    1.667    3.111    3.556 
#    0.000    2.222    4.889    0.000    0.000    0.000 
#    0.000    0.000    0.000    0.000    0.000    0.000 
#
# Total GULP energy -223058.807043 kJ/mol
# GULP energy per Si atom -12392.155947 kJ/mol
# Density = 1.955268 g / cm^3
# Si number density = 19.597286 Si / 1000 Ang^3
#
#
#
# Elastic Constant Matrix: (Units=GPa)
#
#
# Indices 1 2 3 4 5 6 
#
# 1 178.1493 51.9801 60.8009 0.0000 0.0000 0.0000
# 2 51.9801 149.3249 35.6161 0.0000 0.0000 0.0000
# 3 60.8009 35.6161 101.9071 0.0000 0.0000 0.0000
# 4 0.0000 0.0000 0.0000 7.4050 0.0000 0.0000
# 5 0.0000 0.0000 0.0000 0.0000 9.1300 0.0000
# 6 0.0000 0.0000 0.0000 0.0000 0.0000 341.5748
#
#
#
# Elastic Compliance Matrix: (Units=1/GPa)
#
#
# Indices 1 2 3 4 5 6 
#
# 1 0.007409 -0.001663 -0.003839 0.000000 0.000000 0.000000
# 2 -0.001663 0.007679 -0.001691 0.000000 0.000000 0.000000
# 3 -0.003839 -0.001691 0.012694 0.000000 0.000000 0.000000
# 4 0.000000 0.000000 0.000000 0.135043 0.000000 0.000000
# 5 0.000000 0.000000 0.000000 0.000000 0.109529 0.000000
# 6 0.000000 0.000000 0.000000 0.000000 0.000000 0.002928
#
#
# Mechanical properties :
#
#
# Convention : Reuss Voigt Hill
#
# Bulk Modulus (GPa) = 74.65506 80.68615 77.67061
# Shear Modulus (GPa) = 16.99898 90.35423 53.67661
#
# Velocity S-wave (km/s) = 2.94839 6.79747 5.23921
# Velocity P-wave (km/s) = 7.05464 10.14243 8.73604
#
# Compressibility (1/GPa) = 0.01339494
#
# Stress axis : x y z
#
# Youngs Moduli (GPa) = 134.97427 130.22086 78.77440
#
# Poissons Ratio (x) = 0.21660 0.30241
# Poissons Ratio (y) = 0.22451 0.13324
# Poissons Ratio (z) = 0.51817 0.22026
#
# Static dielectric constant tensor:
#      x y z
#    x 3.883080 0.000000 0.000000 
#    y 0.000000 3.777350 0.000000 
#    z 0.000000 0.000000 3.177060 
# 
# 
# High freq. dielectric constant tensor:
#      x y z
#    x 1.784270 0.000000 0.000000 
#    y 0.000000 1.776160 0.000000 
#    z 0.000000 0.000000 1.731000 
# 
# From -- ./inp_files/16583.got.cif
#   From: 2010.03.12/outbox.cif.g09.slc.cpg/sg35_9_cif.got.tgz:16583.got - 2010.04.14 02:02:04.
