data_PCOD8173935
_publ_section_title
;
Structure prediction by ZEFSAII (Michael W. Deem and Ramdas Pophale) SiO2 
 PCOD8173935
Probable space group: C M M 2
;
_chemical_formula_sum "Si O2"
_cell_formula_units_Z 48
_cell_length_a 14.747480
_cell_length_b 22.118906
_cell_length_c 7.401724
_cell_angle_alpha 90.000000
_cell_angle_beta 90.000000
_cell_angle_gamma 90.000000
_cell_volume 2414.428482
_symmetry_space_group_name_H-M "C M M 2"
_symmetry_group_IT_number 35
_symmetry_cell_setting 'orthorhombic'
loop_
_space_group_symop_operation_xyz
x,y,z
-x,-y,z
-x,y,z
x,-y,z
1/2+x,1/2+y,z
1/2-x,1/2-y,z
1/2-x,1/2+y,z
1/2+x,1/2-y,z
loop_
_atom_site_type_symbol
_atom_site_label
_atom_site_fract_x
_atom_site_fract_y
_atom_site_fract_z
Si Si1 0.399401 0.878862 0.687230
Si Si2 0.275774 0.929607 0.391490
Si Si3 0.649253 0.256263 0.632214
Si Si4 0.394186 0.728554 0.024501
Si Si5 0.398846 0.646458 0.353598
Si Si6 0.605065 0.137970 0.099562
O O1 0.500000 0.903616 0.642379
O O2 0.324785 0.917382 0.581595
O O3 0.398931 0.808514 0.631285
O O4 0.378665 0.886801 0.898354
O O5 0.173667 0.904427 0.403441
O O6 0.333088 0.899778 0.232959
O O7 0.268940 0.000000 0.353108
O O8 0.750000 0.250000 0.553146
O O9 0.595030 0.301318 0.503719
O O10 0.655707 0.283914 0.834767
O O11 0.500000 0.733332 0.979597
O O12 0.370678 0.674741 0.160652
O O13 0.363186 0.792211 0.111939
O O14 0.500000 0.617858 0.341140
O O15 0.500000 0.130794 0.157001
#
# Coordination Sequence:
#
# PCOD8173935 Si02
#       6
#     8   8   8   8   8   8
#     4  10  21  39  61  90 123 149 180 232 298 360
#     4  12  26  40  57  82 112 157 211 247 276 326
#     4  11  20  34  62  94 121 147 181 231 295 361
#     4   9  20  36  59  91 121 147 181 229 293 361
#     4  11  24  40  59  85 118 156 196 240 288 338
#     4   9  20  38  61  90 122 148 177 232 299 359
#
# _framework density 19.880479999999999
#
# number of rings (size 3 to 8) (size 9 to 14) (size 15 to 20)
#    0.000    1.667    1.667    4.000    4.667    3.667 
#    0.000    1.667    0.000    0.000    0.000    4.667 
#    0.000    0.000    0.000    0.000    0.000    0.000 
#
# Total GULP energy -297675.687980 kJ/mol
# GULP energy per Si atom -12403.153666 kJ/mol
# Density = 1.983523 g / cm^3
# Si number density = 19.880480 Si / 1000 Ang^3
#
#
#
# Elastic Constant Matrix: (Units=GPa)
#
#
# Indices 1 2 3 4 5 6 
#
# 1 105.6883 18.0163 27.1504 0.0000 0.0000 0.0000
# 2 18.0163 39.8631 7.3118 0.0000 0.0000 0.0000
# 3 27.1504 7.3118 57.2536 0.0000 0.0000 0.0000
# 4 0.0000 0.0000 0.0000 10.6252 0.0000 0.0000
# 5 0.0000 0.0000 0.0000 0.0000 -51.4694 0.0000
# 6 0.0000 0.0000 0.0000 0.0000 0.0000 13.6331
#
#
#
# Elastic Compliance Matrix: (Units=1/GPa)
#
#
# Indices 1 2 3 4 5 6 
#
# 1 0.011445 -0.004277 -0.004881 0.000000 0.000000 0.000000
# 2 -0.004277 0.027286 -0.001456 0.000000 0.000000 0.000000
# 3 -0.004881 -0.001456 0.019967 0.000000 0.000000 0.000000
# 4 0.000000 0.000000 0.000000 0.094116 0.000000 0.000000
# 5 0.000000 0.000000 0.000000 0.000000 -0.019429 0.000000
# 6 0.000000 0.000000 0.000000 0.000000 0.000000 0.073351
#
#
# Mechanical properties :
#
#
# Convention : Reuss Voigt Hill
#
# Bulk Modulus (GPa) = 26.68911 34.19576 30.44243
# Shear Modulus (GPa) = 20.79401 4.57956 12.68679
#
# Velocity S-wave (km/s) = 3.23763 1.51939 2.52891
# Velocity P-wave (km/s) = 5.23739 4.50734 4.88602
#
# Compressibility (1/GPa) = 0.03746846
#
# Stress axis : x y z
#
# Youngs Moduli (GPa) = 87.37591 36.64869 50.08315
#
# Poissons Ratio (x) = 0.15676 0.24446
# Poissons Ratio (y) = 0.37373 0.07294
# Poissons Ratio (z) = 0.42648 0.05337
#
# Static dielectric constant tensor:
#      x y z
#    x 4.399950 0.000000 0.000000 
#    y 0.000000 3.249270 0.000000 
#    z 0.000000 0.000000 3.722000 
# 
# 
# High freq. dielectric constant tensor:
#      x y z
#    x 1.787850 0.000000 0.000000 
#    y 0.000000 1.731810 0.000000 
#    z 0.000000 0.000000 1.786910 
# 
# From -- ./inp_files/7478.got.cif
#   From: 2010.03.12/outbox.cif.g09.slc.cpg/sg35_4_cif.got.tgz:7478.got - 2010.04.14 02:02:04.
