data_PCOD8173380
_publ_section_title
;
Structure prediction by ZEFSAII (Michael W. Deem and Ramdas Pophale) SiO2 
 PCOD8173380
Probable space group: C M M 2
;
_chemical_formula_sum "Si O2"
_cell_formula_units_Z 56
_cell_length_a 8.996328
_cell_length_b 17.513665
_cell_length_c 18.205843
_cell_angle_alpha 90.000000
_cell_angle_beta 90.000000
_cell_angle_gamma 90.000000
_cell_volume 2868.488497
_symmetry_space_group_name_H-M "C M M 2"
_symmetry_group_IT_number 35
_symmetry_cell_setting 'orthorhombic'
loop_
_space_group_symop_operation_xyz
x,y,z
-x,-y,z
-x,y,z
x,-y,z
1/2+x,1/2+y,z
1/2-x,1/2-y,z
1/2-x,1/2+y,z
1/2+x,1/2-y,z
loop_
_atom_site_type_symbol
_atom_site_label
_atom_site_fract_x
_atom_site_fract_y
_atom_site_fract_z
Si Si1 0.333393 0.908863 0.290120
Si Si2 0.334149 0.909247 0.733561
Si Si3 0.332723 0.409157 0.592849
Si Si4 0.167136 0.909205 0.431464
Si Si5 0.167061 0.909543 0.146784
Si Si6 0.323419 0.168786 0.015023
Si Si7 0.672090 0.589886 0.879854
O O1 0.500000 0.877878 0.279964
O O2 0.270439 0.875663 0.366980
O O3 0.233621 0.877648 0.223114
O O4 0.331188 0.000000 0.291120
O O5 0.500000 0.876892 0.745894
O O6 0.270945 0.875030 0.657110
O O7 0.228053 0.883318 0.799977
O O8 0.337610 0.000000 0.729319
O O9 0.500000 0.379129 0.605088
O O10 0.332239 0.500000 0.597135
O O11 0.274310 0.382926 0.512143
O O12 0.000000 0.879061 0.419165
O O13 0.167563 0.000000 0.427687
O O14 0.272865 0.885947 0.080472
O O15 0.000000 0.876849 0.136410
O O16 0.162489 0.000000 0.148710
O O17 0.500000 0.175884 0.014238
O O18 0.250000 0.250000 0.028508
O O19 0.269883 0.134208 0.938507
O O20 0.500000 0.612519 0.888515
O O21 0.695650 0.500000 0.891421
#
# Coordination Sequence:
#
# PCOD8173380 Si02
#       7
#     8   8   8   8   8   8   8
#     4   9  16  25  39  62  91 123 161 203 245 289
#     4   9  16  25  39  62  91 123 161 203 245 289
#     4   8  13  21  33  51  80 120 161 198 240 290
#     4   8  13  21  33  51  80 120 161 198 240 290
#     4  10  20  35  55  77 102 133 169 207 249 298
#     4  12  25  40  57  77 103 131 163 204 251 302
#     4  10  20  35  55  77 102 133 169 207 249 298
#
# _framework density 19.522476999999999
#
# number of rings (size 3 to 8) (size 9 to 14) (size 15 to 20)
#    0.000    2.571    0.000    4.286    0.000    7.429 
#    0.000    2.857    0.000    0.000    0.000    0.000 
#    0.000    1.143    0.000    4.286    0.000   10.000 
#
# Total GULP energy -347109.869328 kJ/mol
# GULP energy per Si atom -12396.781047 kJ/mol
# Density = 1.947804 g / cm^3
# Si number density = 19.522477 Si / 1000 Ang^3
#
#
#
# Elastic Constant Matrix: (Units=GPa)
#
#
# Indices 1 2 3 4 5 6 
#
# 1 150.7484 14.9733 67.5797 0.0000 0.0000 0.0000
# 2 14.9733 9.1112 9.2564 0.0000 0.0000 0.0000
# 3 67.5797 9.2564 151.8228 0.0000 0.0000 0.0000
# 4 0.0000 0.0000 0.0000 -2.2025 0.0000 0.0000
# 5 0.0000 0.0000 0.0000 0.0000 28.5807 0.0000
# 6 0.0000 0.0000 0.0000 0.0000 0.0000 16.0316
#
#
#
# Elastic Compliance Matrix: (Units=1/GPa)
#
#
# Indices 1 2 3 4 5 6 
#
# 1 0.009356 -0.011880 -0.003440 0.000000 0.000000 0.000000
# 2 -0.011880 0.132088 -0.002765 0.000000 0.000000 0.000000
# 3 -0.003440 -0.002765 0.008286 0.000000 0.000000 0.000000
# 4 0.000000 0.000000 0.000000 -0.454038 0.000000 0.000000
# 5 0.000000 0.000000 0.000000 0.000000 0.034989 0.000000
# 6 0.000000 0.000000 0.000000 0.000000 0.000000 0.062377
#
#
# Mechanical properties :
#
#
# Convention : Reuss Voigt Hill
#
# Bulk Modulus (GPa) = 8.80598 55.03346 31.91972
# Shear Modulus (GPa) = -37.61701 23.14018 -7.23842
#
# Velocity S-wave (km/s) = -4.39436 3.44657 -1.92764
# Velocity P-wave (km/s) = 4.60725 6.63999 3.38103
#
# Compressibility (1/GPa) = 0.11355916
#
# Stress axis : x y z
#
# Youngs Moduli (GPa) = 106.88560 7.57073 120.67830
#
# Poissons Ratio (x) = 0.08994 0.41515
# Poissons Ratio (y) = 1.26983 0.33367
# Poissons Ratio (z) = 0.36770 0.02093
#
# Static dielectric constant tensor:
#      x y z
#    x 3.793950 0.000000 0.000000 
#    y 0.000000 2.905600 0.000000 
#    z 0.000000 0.000000 3.937270 
# 
# 
# High freq. dielectric constant tensor:
#      x y z
#    x 1.770000 0.000000 0.000000 
#    y 0.000000 1.684070 0.000000 
#    z 0.000000 0.000000 1.782950 
# 
# From -- ./inp_files/18216.got.cif
#   From: 2010.03.12/outbox.cif.g09.slc.cpg/sg35_10_cif.got.tgz:18216.got - 2010.04.14 02:02:04.
