data_PCOD8173445
_publ_section_title
;
Structure prediction by ZEFSAII (Michael W. Deem and Ramdas Pophale) SiO2 
 PCOD8173445
Probable space group: C M M 2
;
_chemical_formula_sum "Si O2"
_cell_formula_units_Z 48
_cell_length_a 13.867821
_cell_length_b 18.096575
_cell_length_c 9.909951
_cell_angle_alpha 90.000000
_cell_angle_beta 90.000000
_cell_angle_gamma 90.000000
_cell_volume 2487.001925
_symmetry_space_group_name_H-M "C M M 2"
_symmetry_group_IT_number 35
_symmetry_cell_setting 'orthorhombic'
loop_
_space_group_symop_operation_xyz
x,y,z
-x,-y,z
-x,y,z
x,-y,z
1/2+x,1/2+y,z
1/2-x,1/2-y,z
1/2-x,1/2+y,z
1/2+x,1/2-y,z
loop_
_atom_site_type_symbol
_atom_site_label
_atom_site_fract_x
_atom_site_fract_y
_atom_site_fract_z
Si Si1 0.391775 0.668227 0.446440
Si Si2 0.108635 0.085515 0.726616
Si Si3 0.780013 0.331093 0.834402
Si Si4 0.888667 0.585099 0.061710
Si Si5 0.779064 0.585917 0.333869
Si Si6 0.887931 0.670603 0.551262
O O1 0.500000 0.657710 0.390765
O O2 0.376956 0.625763 0.585621
O O3 0.318633 0.634229 0.337835
O O4 0.368497 0.753863 0.470670
O O5 0.183729 0.118767 0.833397
O O6 0.000000 0.098074 0.781668
O O7 0.131242 0.000000 0.704239
O O8 0.750000 0.250000 0.882515
O O9 0.830262 0.328122 0.689740
O O10 0.855077 0.364140 0.939500
O O11 0.871729 0.500000 0.021912
O O12 0.831070 0.606748 0.195494
O O13 0.000000 0.601330 0.091221
O O14 0.752338 0.500000 0.341218
O O15 0.849293 0.604183 0.459008
O O16 0.000000 0.658836 0.583585
#
# Coordination Sequence:
#
# PCOD8173445 Si02
#       6
#     8   8   8   8   8   8
#     4  10  20  36  59  88 119 151 189 237 295 349
#     4  10  20  35  56  84 118 153 189 235 292 345
#     4  12  22  37  61  91 118 153 196 244 293 349
#     4  10  24  44  61  81 118 162 200 242 293 347
#     4  11  22  39  61  86 116 155 200 244 294 347
#     4  11  22  37  60  88 121 152 192 246 293 349
#
# _framework density 19.300346999999999
#
# number of rings (size 3 to 8) (size 9 to 14) (size 15 to 20)
#    0.000    1.333    3.333    2.500    0.000    4.667 
#    0.000    0.833    0.000    1.000    0.000    0.000 
#    0.000    0.000    0.000    0.000    0.000    0.000 
#
# Total GULP energy -297705.968127 kJ/mol
# GULP energy per Si atom -12404.415339 kJ/mol
# Density = 1.925642 g / cm^3
# Si number density = 19.300347 Si / 1000 Ang^3
#
#
#
# Elastic Constant Matrix: (Units=GPa)
#
#
# Indices 1 2 3 4 5 6 
#
# 1 134.1305 37.5169 46.3909 0.0000 0.0000 0.0000
# 2 37.5169 54.8883 36.2998 0.0000 0.0000 0.0000
# 3 46.3909 36.2998 75.5059 0.0000 0.0000 0.0000
# 4 0.0000 0.0000 0.0000 20.1167 0.0000 0.0000
# 5 0.0000 0.0000 0.0000 0.0000 36.0455 0.0000
# 6 0.0000 0.0000 0.0000 0.0000 0.0000 30.5951
#
#
#
# Elastic Compliance Matrix: (Units=1/GPa)
#
#
# Indices 1 2 3 4 5 6 
#
# 1 0.010056 -0.004087 -0.004214 0.000000 0.000000 0.000000
# 2 -0.004087 0.028372 -0.011129 0.000000 0.000000 0.000000
# 3 -0.004214 -0.011129 0.021183 0.000000 0.000000 0.000000
# 4 0.000000 0.000000 0.000000 0.049710 0.000000 0.000000
# 5 0.000000 0.000000 0.000000 0.000000 0.027743 0.000000
# 6 0.000000 0.000000 0.000000 0.000000 0.000000 0.032685
#
#
# Mechanical properties :
#
#
# Convention : Reuss Voigt Hill
#
# Bulk Modulus (GPa) = 48.18734 56.10445 52.14590
# Shear Modulus (GPa) = 23.19909 26.97262 25.08586
#
# Velocity S-wave (km/s) = 3.47075 3.74240 3.60913
# Velocity P-wave (km/s) = 6.40959 6.91421 6.66667
#
# Compressibility (1/GPa) = 0.02075234
#
# Stress axis : x y z
#
# Youngs Moduli (GPa) = 99.44485 35.24554 47.20692
#
# Poissons Ratio (x) = 0.14404 0.19891
# Poissons Ratio (y) = 0.40640 0.52538
# Poissons Ratio (z) = 0.41902 0.39226
#
# Static dielectric constant tensor:
#      x y z
#    x 3.864960 0.000000 0.000000 
#    y 0.000000 3.847950 0.000000 
#    z 0.000000 0.000000 3.238210 
# 
# 
# High freq. dielectric constant tensor:
#      x y z
#    x 1.773340 0.000000 0.000000 
#    y 0.000000 1.762060 0.000000 
#    z 0.000000 0.000000 1.723100 
# 
# From -- ./inp_files/7293.got.cif
#   From: 2010.03.12/outbox.cif.g09.slc.cpg/sg35_4_cif.got.tgz:7293.got - 2010.04.14 02:02:04.
