data_PCOD8173368
_publ_section_title
;
Structure prediction by ZEFSAII (Michael W. Deem and Ramdas Pophale) SiO2 
 PCOD8173368
Probable space group: C M M 2
;
_chemical_formula_sum "Si O2"
_cell_formula_units_Z 64
_cell_length_a 8.740935
_cell_length_b 19.908608
_cell_length_c 20.095530
_cell_angle_alpha 90.000000
_cell_angle_beta 90.000000
_cell_angle_gamma 90.000000
_cell_volume 3497.021085
_symmetry_space_group_name_H-M "C M M 2"
_symmetry_group_IT_number 35
_symmetry_cell_setting 'orthorhombic'
loop_
_space_group_symop_operation_xyz
x,y,z
-x,-y,z
-x,y,z
x,-y,z
1/2+x,1/2+y,z
1/2-x,1/2-y,z
1/2-x,1/2+y,z
1/2+x,1/2-y,z
loop_
_atom_site_type_symbol
_atom_site_label
_atom_site_fract_x
_atom_site_fract_y
_atom_site_fract_z
Si Si1 0.179898 0.076309 0.043870
Si Si2 0.181142 0.575595 0.906248
Si Si3 0.681259 0.820058 0.798188
Si Si4 0.822706 0.922008 0.399251
Si Si5 0.181820 0.820864 0.156333
Si Si6 0.322742 0.076888 0.538115
Si Si7 0.180428 0.319687 0.648351
Si Si8 0.319283 0.179223 0.298165
O O1 0.235448 0.122681 0.104373
O O2 0.000000 0.081204 0.034332
O O3 0.231778 0.000000 0.059349
O O4 0.256569 0.103073 0.976298
O O5 0.241285 0.500000 0.893559
O O6 0.243993 0.621721 0.846506
O O7 0.000000 0.577568 0.908711
O O8 0.500000 0.815212 0.801532
O O9 0.750000 0.750000 0.823269
O O10 0.737568 0.836180 0.723147
O O11 0.777308 0.903493 0.474362
O O12 0.719821 0.878681 0.350099
O O13 0.000000 0.904832 0.388216
O O14 0.787831 0.000000 0.384891
O O15 0.250000 0.750000 0.132427
O O16 0.248504 0.841723 0.227569
O O17 0.000000 0.815457 0.161544
O O18 0.500000 0.090813 0.521337
O O19 0.263960 0.121230 0.599786
O O20 0.296416 0.000000 0.558906
O O21 0.250000 0.250000 0.622520
O O22 0.000000 0.312759 0.647047
O O23 0.500000 0.187024 0.291163
O O24 0.250000 0.250000 0.322829
#
# Coordination Sequence:
#
# PCOD8173368 Si02
#       8
#     8   8   8   8   8   8   8   8
#     4   9  19  35  53  73  99 132 168 205 247 297
#     4   9  18  32  50  72  98 128 164 207 250 293
#     4   9  18  32  49  71  99 130 165 204 249 299
#     4  10  21  37  56  78 106 139 173 211 256 305
#     4  10  20  35  54  76 103 134 168 207 252 301
#     4   9  18  33  52  74 100 131 169 211 253 299
#     4   9  18  32  50  72  99 131 165 205 251 299
#     4  11  22  37  57  80 107 137 172 213 256 304
#
# _framework density 18.301290999999999
#
# number of rings (size 3 to 8) (size 9 to 14) (size 15 to 20)
#    0.000    2.500    0.000    2.625    0.000    4.750 
#    0.000    7.500    0.000    0.000    0.000    7.000 
#    0.000    0.000    0.000    0.000    0.000    0.000 
#
# Total GULP energy -396855.053517 kJ/mol
# GULP energy per Si atom -12401.720422 kJ/mol
# Density = 1.825964 g / cm^3
# Si number density = 18.301291 Si / 1000 Ang^3
#
#
#
# Elastic Constant Matrix: (Units=GPa)
#
#
# Indices 1 2 3 4 5 6 
#
# 1 51.1858 33.4250 35.4164 0.0000 0.0000 0.0000
# 2 33.4250 115.3270 91.8332 0.0000 0.0000 0.0000
# 3 35.4164 91.8332 124.8274 0.0000 0.0000 0.0000
# 4 0.0000 0.0000 0.0000 39.9635 0.0000 0.0000
# 5 0.0000 0.0000 0.0000 0.0000 29.1948 0.0000
# 6 0.0000 0.0000 0.0000 0.0000 0.0000 29.1650
#
#
#
# Elastic Compliance Matrix: (Units=1/GPa)
#
#
# Indices 1 2 3 4 5 6 
#
# 1 0.025000 -0.003857 -0.004255 0.000000 0.000000 0.000000
# 2 -0.003857 0.021530 -0.014745 0.000000 0.000000 0.000000
# 3 -0.004255 -0.014745 0.020066 0.000000 0.000000 0.000000
# 4 0.000000 0.000000 0.000000 0.025023 0.000000 0.000000
# 5 0.000000 0.000000 0.000000 0.000000 0.034253 0.000000
# 6 0.000000 0.000000 0.000000 0.000000 0.000000 0.034288
#
#
# Mechanical properties :
#
#
# Convention : Reuss Voigt Hill
#
# Bulk Modulus (GPa) = 47.89054 68.07661 57.98358
# Shear Modulus (GPa) = 23.49246 28.37570 25.93408
#
# Velocity S-wave (km/s) = 3.58669 3.94188 3.76847
# Velocity P-wave (km/s) = 6.58613 7.61553 7.11946
#
# Compressibility (1/GPa) = 0.02088095
#
# Stress axis : x y z
#
# Youngs Moduli (GPa) = 40.00034 46.44665 49.83561
#
# Poissons Ratio (x) = 0.17915 0.21207
# Poissons Ratio (y) = 0.15429 0.73482
# Poissons Ratio (z) = 0.17022 0.68485
#
# Static dielectric constant tensor:
#      x y z
#    x 3.298970 0.000000 0.000000 
#    y 0.000000 3.505540 0.000000 
#    z 0.000000 0.000000 3.506780 
# 
# 
# High freq. dielectric constant tensor:
#      x y z
#    x 1.706720 0.000000 0.000000 
#    y 0.000000 1.710530 0.000000 
#    z 0.000000 0.000000 1.712680 
# 
# From -- ./inp_files/18332.got.cif
#   From: 2010.03.12/outbox.cif.g09.slc.cpg/sg35_10_cif.got.tgz:18332.got - 2010.04.14 02:02:04.
