data_PCOD8173871
_publ_section_title
;
Structure prediction by ZEFSAII (Michael W. Deem and Ramdas Pophale) SiO2 
 PCOD8173871
Probable space group: C M M 2
;
_chemical_formula_sum "Si O2"
_cell_formula_units_Z 40
_cell_length_a 22.307374
_cell_length_b 13.369736
_cell_length_c 6.149357
_cell_angle_alpha 90.000000
_cell_angle_beta 90.000000
_cell_angle_gamma 90.000000
_cell_volume 1834.006992
_symmetry_space_group_name_H-M "C M M 2"
_symmetry_group_IT_number 35
_symmetry_cell_setting 'orthorhombic'
loop_
_space_group_symop_operation_xyz
x,y,z
-x,-y,z
-x,y,z
x,-y,z
1/2+x,1/2+y,z
1/2-x,1/2-y,z
1/2-x,1/2+y,z
1/2+x,1/2-y,z
loop_
_atom_site_type_symbol
_atom_site_label
_atom_site_fract_x
_atom_site_fract_y
_atom_site_fract_z
Si Si1 0.067427 0.207466 0.179390
Si Si2 0.169737 0.884559 0.927842
Si Si3 0.221737 0.387083 0.222653
Si Si4 0.150410 0.737260 0.555721
Si Si5 0.607677 0.111899 0.930864
O O1 0.101153 0.206994 0.409023
O O2 0.000000 0.167326 0.210796
O O3 0.102454 0.134458 0.013514
O O4 0.064828 0.319258 0.078150
O O5 0.181198 0.819360 0.712091
O O6 0.179878 0.000000 0.867973
O O7 0.215329 0.849629 0.119158
O O8 0.228467 0.500000 0.313207
O O9 0.203148 0.315086 0.419147
O O10 0.174013 0.384049 0.029500
O O11 0.113348 0.652985 0.686678
O O12 0.581069 0.000000 0.926669
#
# Coordination Sequence:
#
# PCOD8173871 Si02
#       5
#     8   8   8   8   8
#     4  10  23  40  57  83 120 161 207 254 297 343
#     4  10  23  41  62  89 120 157 202 248 295 352
#     4   9  19  37  61  92 124 150 184 237 304 373
#     4  10  21  37  63  89 119 158 198 242 298 358
#     4   9  19  36  60  91 123 152 188 241 304 368
#
# _framework density 21.810168000000001
#
# number of rings (size 3 to 8) (size 9 to 14) (size 15 to 20)
#    0.000    2.400    0.000    0.600    0.000   16.000 
#    0.000    4.000    0.000    6.000    0.000    0.000 
#    0.000    0.000    0.000    0.000    0.000    0.000 
#
# Total GULP energy -248043.960013 kJ/mol
# GULP energy per Si atom -12402.198001 kJ/mol
# Density = 2.176053 g / cm^3
# Si number density = 21.810168 Si / 1000 Ang^3
#
#
#
# Elastic Constant Matrix: (Units=GPa)
#
#
# Indices 1 2 3 4 5 6 
#
# 1 121.1510 30.8894 43.8860 0.0000 0.0000 0.0000
# 2 30.8894 85.3256 59.6083 0.0000 0.0000 0.0000
# 3 43.8860 59.6083 131.9942 0.0000 0.0000 0.0000
# 4 0.0000 0.0000 0.0000 30.8906 0.0000 0.0000
# 5 0.0000 0.0000 0.0000 0.0000 16.7387 0.0000
# 6 0.0000 0.0000 0.0000 0.0000 0.0000 20.7822
#
#
#
# Elastic Compliance Matrix: (Units=1/GPa)
#
#
# Indices 1 2 3 4 5 6 
#
# 1 0.009573 -0.001814 -0.002363 0.000000 0.000000 0.000000
# 2 -0.001814 0.017465 -0.007284 0.000000 0.000000 0.000000
# 3 -0.002363 -0.007284 0.011651 0.000000 0.000000 0.000000
# 4 0.000000 0.000000 0.000000 0.032372 0.000000 0.000000
# 5 0.000000 0.000000 0.000000 0.000000 0.059742 0.000000
# 6 0.000000 0.000000 0.000000 0.000000 0.000000 0.048118
#
#
# Mechanical properties :
#
#
# Convention : Reuss Voigt Hill
#
# Bulk Modulus (GPa) = 63.42878 67.47092 65.44985
# Shear Modulus (GPa) = 24.14284 27.28810 25.71547
#
# Velocity S-wave (km/s) = 3.33070 3.54102 3.43747
# Velocity P-wave (km/s) = 6.62848 6.90805 6.76971
#
# Compressibility (1/GPa) = 0.01576571
#
# Stress axis : x y z
#
# Youngs Moduli (GPa) = 104.46123 57.25643 85.82712
#
# Poissons Ratio (x) = 0.10389 0.20285
# Poissons Ratio (y) = 0.18954 0.62516
# Poissons Ratio (z) = 0.24689 0.41706
#
# Static dielectric constant tensor:
#      x y z
#    x 3.617140 0.000000 0.000000 
#    y 0.000000 4.083260 0.000000 
#    z 0.000000 0.000000 3.903210 
# 
# 
# High freq. dielectric constant tensor:
#      x y z
#    x 1.836780 0.000000 0.000000 
#    y 0.000000 1.861470 0.000000 
#    z 0.000000 0.000000 1.859020 
# 
# From -- ./inp_files/1766.got.cif
#   From: 2010.03.12/outbox.cif.g09.slc.cpg/sg35_1_cif.got.tgz:1766.got - 2010.04.14 02:02:04.
