data_PCOD8173735
_publ_section_title
;
Structure prediction by ZEFSAII (Michael W. Deem and Ramdas Pophale) SiO2 
 PCOD8173735
Probable space group: C M M 2
;
_chemical_formula_sum "Si O2"
_cell_formula_units_Z 56
_cell_length_a 9.620741
_cell_length_b 18.949523
_cell_length_c 17.721216
_cell_angle_alpha 90.000000
_cell_angle_beta 90.000000
_cell_angle_gamma 90.000000
_cell_volume 3230.727472
_symmetry_space_group_name_H-M "C M M 2"
_symmetry_group_IT_number 35
_symmetry_cell_setting 'orthorhombic'
loop_
_space_group_symop_operation_xyz
x,y,z
-x,-y,z
-x,y,z
x,-y,z
1/2+x,1/2+y,z
1/2-x,1/2-y,z
1/2-x,1/2+y,z
1/2+x,1/2-y,z
loop_
_atom_site_type_symbol
_atom_site_label
_atom_site_fract_x
_atom_site_fract_y
_atom_site_fract_z
Si Si1 0.659778 0.418833 0.856060
Si Si2 0.840222 0.918833 0.420035
Si Si3 0.660572 0.682895 0.723313
Si Si4 0.337207 0.178370 0.138048
Si Si5 0.838492 0.581218 0.278759
Si Si6 0.160572 0.182895 0.552782
Si Si7 0.661508 0.918782 0.997336
O O1 0.500000 0.405116 0.877779
O O2 0.690354 0.500000 0.839527
O O3 0.702426 0.379471 0.779584
O O4 0.752407 0.391681 0.925398
O O5 0.747594 0.891681 0.350697
O O6 0.797574 0.879472 0.496511
O O7 0.000000 0.905115 0.398316
O O8 0.809646 0.000000 0.436568
O O9 0.500000 0.703880 0.731595
O O10 0.750000 0.750000 0.746534
O O11 0.694374 0.657962 0.638048
O O12 0.500000 0.197400 0.138047
O O13 0.250000 0.250000 0.138048
O O14 0.296529 0.131434 0.210008
O O15 0.296528 0.131434 0.066087
O O16 0.801205 0.500000 0.258152
O O17 0.000000 0.588200 0.298535
O O18 0.250000 0.250000 0.529561
O O19 0.000000 0.203879 0.544501
O O20 0.500000 0.911800 0.977561
O O21 0.698797 0.000000 0.017943
#
# Coordination Sequence:
#
# PCOD8173735 Si02
#       7
#     8   8   8   8   8   8   8
#     4   9  18  32  50  73  98 123 156 198 240 281
#     4   9  18  32  50  73  98 123 156 198 240 281
#     4   9  18  32  49  69  95 128 162 195 234 281
#     4  10  21  35  51  73  99 126 158 196 236 280
#     4   9  18  34  54  72  93 125 162 196 233 280
#     4   9  18  32  49  69  95 128 162 195 234 281
#     4   9  18  34  54  72  93 125 162 196 233 280
#
# _framework density 17.333556999999999
#
# number of rings (size 3 to 8) (size 9 to 14) (size 15 to 20)
#    0.000    2.857    0.000    0.429    0.000    5.714 
#    0.000    8.571    0.000    4.286    0.000    8.000 
#    0.000    0.000    0.000    0.000    0.000    0.000 
#
# Total GULP energy -347220.731666 kJ/mol
# GULP energy per Si atom -12400.740417 kJ/mol
# Density = 1.729411 g / cm^3
# Si number density = 17.333557 Si / 1000 Ang^3
#
#
#
# Elastic Constant Matrix: (Units=GPa)
#
#
# Indices 1 2 3 4 5 6 
#
# 1 59.5855 54.2422 69.0609 0.0000 0.0000 0.0000
# 2 54.2422 98.5510 87.4279 0.0000 0.0000 0.0000
# 3 69.0609 87.4279 152.0796 0.0000 0.0000 0.0000
# 4 0.0000 0.0000 0.0000 22.1596 0.0000 0.0000
# 5 0.0000 0.0000 0.0000 0.0000 32.1960 0.0000
# 6 0.0000 0.0000 0.0000 0.0000 0.0000 30.4886
#
#
#
# Elastic Compliance Matrix: (Units=1/GPa)
#
#
# Indices 1 2 3 4 5 6 
#
# 1 0.041935 -0.012627 -0.011784 0.000000 0.000000 0.000000
# 2 -0.012627 0.024510 -0.008356 0.000000 0.000000 0.000000
# 3 -0.011784 -0.008356 0.016731 0.000000 0.000000 0.000000
# 4 0.000000 0.000000 0.000000 0.045127 0.000000 0.000000
# 5 0.000000 0.000000 0.000000 0.000000 0.031060 0.000000
# 6 0.000000 0.000000 0.000000 0.000000 0.000000 0.032799
#
#
# Mechanical properties :
#
#
# Convention : Reuss Voigt Hill
#
# Bulk Modulus (GPa) = 56.68578 81.29757 68.99168
# Shear Modulus (GPa) = 18.96971 23.60120 21.28545
#
# Velocity S-wave (km/s) = 3.31175 3.69398 3.50807
# Velocity P-wave (km/s) = 6.88458 8.07450 7.50317
#
# Compressibility (1/GPa) = 0.01764111
#
# Stress axis : x y z
#
# Youngs Moduli (GPa) = 23.84619 40.79950 59.76980
#
# Poissons Ratio (x) = 0.51517 0.70435
# Poissons Ratio (y) = 0.30110 0.49946
# Poissons Ratio (z) = 0.28101 0.34094
#
# Static dielectric constant tensor:
#      x y z
#    x 3.231080 0.000000 0.000000 
#    y 0.000000 3.184980 0.000000 
#    z 0.000000 0.000000 3.374130 
# 
# 
# High freq. dielectric constant tensor:
#      x y z
#    x 1.666760 0.000000 0.000000 
#    y 0.000000 1.662990 0.000000 
#    z 0.000000 0.000000 1.677220 
# 
# From -- ./inp_files/15607.got.cif
#   From: 2010.03.12/outbox.cif.g09.slc.cpg/sg35_8_cif.got.tgz:15607.got - 2010.04.14 02:02:04.
