data_PCOD8173431
_publ_section_title
;
Structure prediction by ZEFSAII (Michael W. Deem and Ramdas Pophale) SiO2 
 PCOD8173431
Probable space group: C M M 2
;
_chemical_formula_sum "Si O2"
_cell_formula_units_Z 48
_cell_length_a 15.774146
_cell_length_b 8.547462
_cell_length_c 17.317029
_cell_angle_alpha 90.000000
_cell_angle_beta 90.000000
_cell_angle_gamma 90.000000
_cell_volume 2334.836205
_symmetry_space_group_name_H-M "C M M 2"
_symmetry_group_IT_number 35
_symmetry_cell_setting 'orthorhombic'
loop_
_space_group_symop_operation_xyz
x,y,z
-x,-y,z
-x,y,z
x,-y,z
1/2+x,1/2+y,z
1/2-x,1/2-y,z
1/2-x,1/2+y,z
1/2+x,1/2-y,z
loop_
_atom_site_type_symbol
_atom_site_label
_atom_site_fract_x
_atom_site_fract_y
_atom_site_fract_z
Si Si1 0.095865 0.171494 0.477350
Si Si2 0.500000 0.814589 0.072725
Si Si3 0.843845 0.184639 0.167621
Si Si4 0.158746 0.185666 0.637962
Si Si5 0.844793 0.314484 0.793757
Si Si6 0.660305 0.182367 0.330626
Si Si7 0.500000 0.814951 0.897528
O O1 0.132810 0.254126 0.554304
O O2 0.100709 0.284798 0.403609
O O3 0.000000 0.141973 0.498015
O O4 0.138422 0.000000 0.460595
O O5 0.414064 0.751302 0.110634
O O6 0.500000 0.000000 0.079965
O O7 0.500000 0.753830 0.985200
O O8 0.750000 0.250000 0.148681
O O9 0.872527 0.230720 0.254207
O O10 0.840654 0.000000 0.160011
O O11 0.250000 0.250000 0.656452
O O12 0.111360 0.251833 0.713629
O O13 0.151362 0.000000 0.634925
O O14 0.837615 0.500000 0.789962
O O15 0.750000 0.250000 0.812603
O O16 0.912448 0.256304 0.858037
O O17 0.750000 0.250000 0.356531
O O18 0.664872 0.000000 0.311767
O O19 0.500000 0.000000 0.895085
#
# Coordination Sequence:
#
# PCOD8173431 Si02
#       7
#     8   4   8   8   8   8   4
#     4  10  22  37  53  79 117 155 195 244 296 347
#     4  11  23  43  67  94 127 162 201 251 308 373
#     4  11  23  42  66  94 126 164 206 253 307 366
#     4  10  20  35  56  81 111 152 195 242 293 346
#     4  10  20  38  61  88 119 157 199 245 297 355
#     4  11  22  38  60  85 114 153 200 246 295 353
#     4   9  22  41  63  90 123 158 193 241 302 361
#
# _framework density 20.558187
#
# number of rings (size 3 to 8) (size 9 to 14) (size 15 to 20)
#    0.000    1.667    0.000    6.750    2.333    3.667 
#    0.000    6.250    0.000    0.000    0.000    0.000 
#    0.000    0.000    0.000    0.000    0.000    0.000 
#
# Total GULP energy -297435.555404 kJ/mol
# GULP energy per Si atom -12393.148142 kJ/mol
# Density = 2.051140 g / cm^3
# Si number density = 20.558187 Si / 1000 Ang^3
#
#
#
# Elastic Constant Matrix: (Units=GPa)
#
#
# Indices 1 2 3 4 5 6 
#
# 1 101.3923 35.3016 78.7480 0.0000 0.0000 0.0000
# 2 35.3016 111.1859 47.1865 0.0000 0.0000 0.0000
# 3 78.7480 47.1865 182.2105 0.0000 0.0000 0.0000
# 4 0.0000 0.0000 0.0000 28.9621 0.0000 0.0000
# 5 0.0000 0.0000 0.0000 0.0000 44.7629 0.0000
# 6 0.0000 0.0000 0.0000 0.0000 0.0000 26.1186
#
#
#
# Elastic Compliance Matrix: (Units=1/GPa)
#
#
# Indices 1 2 3 4 5 6 
#
# 1 0.015358 -0.002314 -0.006038 0.000000 0.000000 0.000000
# 2 -0.002314 0.010453 -0.001707 0.000000 0.000000 0.000000
# 3 -0.006038 -0.001707 0.008540 0.000000 0.000000 0.000000
# 4 0.000000 0.000000 0.000000 0.034528 0.000000 0.000000
# 5 0.000000 0.000000 0.000000 0.000000 0.022340 0.000000
# 6 0.000000 0.000000 0.000000 0.000000 0.000000 0.038287
#
#
# Mechanical properties :
#
#
# Convention : Reuss Voigt Hill
#
# Bulk Modulus (GPa) = 70.25969 79.69568 74.97768
# Shear Modulus (GPa) = 32.39021 35.53889 33.96455
#
# Velocity S-wave (km/s) = 3.97361 4.16227 4.06903
# Velocity P-wave (km/s) = 7.43660 7.87079 7.65677
#
# Compressibility (1/GPa) = 0.01423291
#
# Stress axis : x y z
#
# Youngs Moduli (GPa) = 65.11304 95.66645 117.09774
#
# Poissons Ratio (x) = 0.22133 0.70707
# Poissons Ratio (y) = 0.15064 0.19990
# Poissons Ratio (z) = 0.39317 0.16331
#
# Static dielectric constant tensor:
#      x y z
#    x 3.654820 0.000000 0.000000 
#    y 0.000000 3.704550 0.000000 
#    z 0.000000 0.000000 4.003050 
# 
# 
# High freq. dielectric constant tensor:
#      x y z
#    x 1.800860 0.000000 0.000000 
#    y 0.000000 1.802180 0.000000 
#    z 0.000000 0.000000 1.813850 
# 
# From -- ./inp_files/15247.got.cif
#   From: 2010.03.12/outbox.cif.g09.slc.cpg/sg35_8_cif.got.tgz:15247.got - 2010.04.14 02:02:04.
