data_PCOD8173393
_publ_section_title
;
Structure prediction by ZEFSAII (Michael W. Deem and Ramdas Pophale) SiO2 
 PCOD8173393
Probable space group: C M M 2
;
_chemical_formula_sum "Si O2"
_cell_formula_units_Z 64
_cell_length_a 8.676379
_cell_length_b 19.747697
_cell_length_c 19.978043
_cell_angle_alpha 90.000000
_cell_angle_beta 90.000000
_cell_angle_gamma 90.000000
_cell_volume 3423.007991
_symmetry_space_group_name_H-M "C M M 2"
_symmetry_group_IT_number 35
_symmetry_cell_setting 'orthorhombic'
loop_
_space_group_symop_operation_xyz
x,y,z
-x,-y,z
-x,y,z
x,-y,z
1/2+x,1/2+y,z
1/2-x,1/2-y,z
1/2-x,1/2+y,z
1/2+x,1/2-y,z
loop_
_atom_site_type_symbol
_atom_site_label
_atom_site_fract_x
_atom_site_fract_y
_atom_site_fract_z
Si Si1 0.679396 0.577592 0.849920
Si Si2 0.818735 0.178882 0.093290
Si Si3 0.178579 0.421385 0.481246
Si Si4 0.318656 0.319987 0.738159
Si Si5 0.182764 0.178619 0.586284
Si Si6 0.678899 0.578886 0.341107
Si Si7 0.321584 0.078816 0.989477
Si Si8 0.681470 0.178730 0.236510
O O1 0.500000 0.590509 0.865067
O O2 0.711801 0.500000 0.831595
O O3 0.739170 0.620412 0.786655
O O4 0.775455 0.600361 0.914614
O O5 0.750000 0.250000 0.067601
O O6 0.780654 0.120233 0.041241
O O7 0.749096 0.158441 0.164697
O O8 0.000000 0.186790 0.100901
O O9 0.205307 0.500000 0.496765
O O10 0.245490 0.381393 0.543716
O O11 0.270013 0.398954 0.415076
O O12 0.000000 0.404253 0.470474
O O13 0.500000 0.313626 0.740038
O O14 0.250000 0.250000 0.765192
O O15 0.263381 0.334854 0.662577
O O16 0.250000 0.250000 0.560786
O O17 0.000000 0.179126 0.578410
O O18 0.500000 0.595944 0.331701
O O19 0.714150 0.500000 0.329394
O O20 0.778143 0.619913 0.287995
O O21 0.500000 0.095529 0.001130
O O22 0.284822 0.000000 0.000983
O O23 0.500000 0.186293 0.230108
O O24 0.750000 0.250000 0.261919
#
# Coordination Sequence:
#
# PCOD8173393 Si02
#       8
#     8   8   8   8   8   8   8   8
#     4   9  18  34  54  76 104 139 179 221 266 317
#     4  11  22  38  59  82 110 143 181 223 269 320
#     4  10  21  37  56  80 110 142 178 222 271 321
#     4   9  19  34  53  77 105 138 175 219 267 318
#     4  10  20  35  55  79 108 142 181 223 269 320
#     4  10  21  38  59  83 111 143 181 223 267 318
#     4  10  21  37  56  80 110 143 181 224 269 318
#     4  11  22  38  59  83 113 145 180 222 268 318
#
# _framework density 18.697005000000001
#
# number of rings (size 3 to 8) (size 9 to 14) (size 15 to 20)
#    0.000    2.000    0.000    4.500    0.000    5.250 
#    0.000    5.000    0.000    1.500    0.000    0.000 
#    0.000    0.000    0.000    0.000    0.000    0.000 
#
# Total GULP energy -396942.210098 kJ/mol
# GULP energy per Si atom -12404.444066 kJ/mol
# Density = 1.865445 g / cm^3
# Si number density = 18.697005 Si / 1000 Ang^3
#
#
#
# Elastic Constant Matrix: (Units=GPa)
#
#
# Indices 1 2 3 4 5 6 
#
# 1 103.5519 45.8433 44.6307 0.0000 0.0000 0.0000
# 2 45.8433 92.7585 74.0606 0.0000 0.0000 0.0000
# 3 44.6307 74.0606 109.2609 0.0000 0.0000 0.0000
# 4 0.0000 0.0000 0.0000 55.0299 0.0000 0.0000
# 5 0.0000 0.0000 0.0000 0.0000 32.5689 0.0000
# 6 0.0000 0.0000 0.0000 0.0000 0.0000 33.0110
#
#
#
# Elastic Compliance Matrix: (Units=1/GPa)
#
#
# Indices 1 2 3 4 5 6 
#
# 1 0.012561 -0.004602 -0.002012 0.000000 0.000000 0.000000
# 2 -0.004602 0.025183 -0.015190 0.000000 0.000000 0.000000
# 3 -0.002012 -0.015190 0.020271 0.000000 0.000000 0.000000
# 4 0.000000 0.000000 0.000000 0.018172 0.000000 0.000000
# 5 0.000000 0.000000 0.000000 0.000000 0.030704 0.000000
# 6 0.000000 0.000000 0.000000 0.000000 0.000000 0.030293
#
#
# Mechanical properties :
#
#
# Convention : Reuss Voigt Hill
#
# Bulk Modulus (GPa) = 69.40843 70.51559 69.96201
# Shear Modulus (GPa) = 26.94043 33.52441 30.23242
#
# Velocity S-wave (km/s) = 3.80003 4.23902 4.02551
# Velocity P-wave (km/s) = 7.51379 7.85849 7.68807
#
# Compressibility (1/GPa) = 0.01440747
#
# Stress axis : x y z
#
# Youngs Moduli (GPa) = 79.60939 39.70880 49.33241
#
# Poissons Ratio (x) = 0.18273 0.09924
# Poissons Ratio (y) = 0.36635 0.74938
# Poissons Ratio (z) = 0.16015 0.60319
#
# Static dielectric constant tensor:
#      x y z
#    x 3.509090 0.000000 0.000000 
#    y 0.000000 3.431810 0.000000 
#    z 0.000000 0.000000 3.509310 
# 
# 
# High freq. dielectric constant tensor:
#      x y z
#    x 1.737950 0.000000 0.000000 
#    y 0.000000 1.726480 0.000000 
#    z 0.000000 0.000000 1.729140 
# 
# From -- ./inp_files/18322.got.cif
#   From: 2010.03.12/outbox.cif.g09.slc.cpg/sg35_10_cif.got.tgz:18322.got - 2010.04.14 02:02:04.
