data_PCOD8173776
_publ_section_title
;
Structure prediction by ZEFSAII (Michael W. Deem and Ramdas Pophale) SiO2 
 PCOD8173776
Probable space group: C M M 2
;
_chemical_formula_sum "Si O2"
_cell_formula_units_Z 64
_cell_length_a 9.170374
_cell_length_b 18.332680
_cell_length_c 20.554559
_cell_angle_alpha 90.000000
_cell_angle_beta 90.000000
_cell_angle_gamma 90.000000
_cell_volume 3455.581731
_symmetry_space_group_name_H-M "C M M 2"
_symmetry_group_IT_number 35
_symmetry_cell_setting 'orthorhombic'
loop_
_space_group_symop_operation_xyz
x,y,z
-x,-y,z
-x,y,z
x,-y,z
1/2+x,1/2+y,z
1/2-x,1/2-y,z
1/2-x,1/2+y,z
1/2+x,1/2-y,z
loop_
_atom_site_type_symbol
_atom_site_label
_atom_site_fract_x
_atom_site_fract_y
_atom_site_fract_z
Si Si1 0.672763 0.918825 0.088670
Si Si2 0.832155 0.085448 0.854569
Si Si3 0.668251 0.915488 0.474818
Si Si4 0.828984 0.675029 0.208051
Si Si5 0.826426 0.672235 0.964598
Si Si6 0.670411 0.175961 0.353583
Si Si7 0.669751 0.674109 0.725539
Si Si8 0.827738 0.916564 0.602047
O O1 0.500000 0.924368 0.086794
O O2 0.725861 0.886143 0.157569
O O3 0.740260 0.000000 0.080636
O O4 0.726590 0.866446 0.030897
O O5 0.723523 0.121016 0.906008
O O6 0.797772 0.120626 0.785136
O O7 0.000000 0.099590 0.874934
O O8 0.798282 0.000000 0.849818
O O9 0.500000 0.897435 0.487528
O O10 0.723765 0.881570 0.407124
O O11 0.757813 0.884408 0.536055
O O12 0.699065 0.000000 0.467084
O O13 0.750000 0.750000 0.191068
O O14 0.789598 0.647876 0.280964
O O15 0.000000 0.689337 0.200044
O O16 0.750000 0.750000 0.958952
O O17 0.000000 0.682648 0.961679
O O18 0.500000 0.190724 0.358705
O O19 0.750000 0.250000 0.370154
O O20 0.500000 0.691419 0.719175
O O21 0.750000 0.750000 0.736379
O O22 0.728218 0.633377 0.661165
O O23 0.000000 0.912827 0.595162
O O24 0.776552 0.000000 0.614233
#
# Coordination Sequence:
#
# PCOD8173776 Si02
#       8
#     8   8   8   8   8   8   8   8
#     4   9  18  32  51  76 103 131 167 211 255 299
#     4  10  21  38  59  81 106 137 172 211 256 305
#     4   9  18  32  49  71  99 128 161 204 250 294
#     4   9  17  31  51  72  96 129 167 205 247 296
#     4  11  22  36  55  79 108 140 174 213 256 303
#     4   9  18  31  48  71  98 129 164 203 247 295
#     4  10  21  36  54  77 104 133 167 208 251 297
#     4   9  18  34  54  73  95 128 168 205 245 296
#
# _framework density 18.520759999999999
#
# number of rings (size 3 to 8) (size 9 to 14) (size 15 to 20)
#    0.000    2.500    0.000    1.875    0.000    5.750 
#    0.000    5.625    0.000    4.125    0.000    3.500 
#    0.000    0.000    0.000    0.000    0.000    0.000 
#
# Total GULP energy -396800.148591 kJ/mol
# GULP energy per Si atom -12400.004643 kJ/mol
# Density = 1.847861 g / cm^3
# Si number density = 18.520760 Si / 1000 Ang^3
#
#
#
# Elastic Constant Matrix: (Units=GPa)
#
#
# Indices 1 2 3 4 5 6 
#
# 1 39.0655 40.0908 42.2151 0.0000 0.0000 0.0000
# 2 40.0908 124.0563 76.6129 0.0000 0.0000 0.0000
# 3 42.2151 76.6129 145.7625 0.0000 0.0000 0.0000
# 4 0.0000 0.0000 0.0000 34.6920 0.0000 0.0000
# 5 0.0000 0.0000 0.0000 0.0000 23.8017 0.0000
# 6 0.0000 0.0000 0.0000 0.0000 0.0000 24.7637
#
#
#
# Elastic Compliance Matrix: (Units=1/GPa)
#
#
# Indices 1 2 3 4 5 6 
#
# 1 0.043451 -0.009284 -0.007705 0.000000 0.000000 0.000000
# 2 -0.009284 0.013918 -0.004627 0.000000 0.000000 0.000000
# 3 -0.007705 -0.004627 0.011524 0.000000 0.000000 0.000000
# 4 0.000000 0.000000 0.000000 0.028825 0.000000 0.000000
# 5 0.000000 0.000000 0.000000 0.000000 0.042014 0.000000
# 6 0.000000 0.000000 0.000000 0.000000 0.000000 0.040382
#
#
# Mechanical properties :
#
#
# Convention : Reuss Voigt Hill
#
# Bulk Modulus (GPa) = 38.96667 69.63577 54.30122
# Shear Modulus (GPa) = 21.56112 26.64920 24.10516
#
# Velocity S-wave (km/s) = 3.41568 3.79738 3.61157
# Velocity P-wave (km/s) = 6.05318 7.54368 6.83916
#
# Compressibility (1/GPa) = 0.02566296
#
# Stress axis : x y z
#
# Youngs Moduli (GPa) = 23.01423 71.84709 86.77799
#
# Poissons Ratio (x) = 0.66703 0.66858
# Poissons Ratio (y) = 0.21366 0.40150
# Poissons Ratio (z) = 0.17731 0.33242
#
# Static dielectric constant tensor:
#      x y z
#    x 3.250960 0.000000 0.000000 
#    y 0.000000 3.649970 0.000000 
#    z 0.000000 0.000000 3.748530 
# 
# 
# High freq. dielectric constant tensor:
#      x y z
#    x 1.698600 0.000000 0.000000 
#    y 0.000000 1.719230 0.000000 
#    z 0.000000 0.000000 1.735670 
# 
# From -- ./inp_files/18438.got.cif
#   From: 2010.03.12/outbox.cif.g09.slc.cpg/sg35_10_cif.got.tgz:18438.got - 2010.04.14 02:02:04.
