data_PCOD8173317
_publ_section_title
;
Structure prediction by ZEFSAII (Michael W. Deem and Ramdas Pophale) SiO2 
 PCOD8173317
Probable space group: C M M 2
;
_chemical_formula_sum "Si O2"
_cell_formula_units_Z 48
_cell_length_a 15.453352
_cell_length_b 8.566058
_cell_length_c 16.975305
_cell_angle_alpha 90.000000
_cell_angle_beta 90.000000
_cell_angle_gamma 90.000000
_cell_volume 2247.094278
_symmetry_space_group_name_H-M "C M M 2"
_symmetry_group_IT_number 35
_symmetry_cell_setting 'orthorhombic'
loop_
_space_group_symop_operation_xyz
x,y,z
-x,-y,z
-x,y,z
x,-y,z
1/2+x,1/2+y,z
1/2-x,1/2-y,z
1/2-x,1/2+y,z
1/2+x,1/2-y,z
loop_
_atom_site_type_symbol
_atom_site_label
_atom_site_fract_x
_atom_site_fract_y
_atom_site_fract_z
Si Si1 0.652989 0.816437 0.139000
Si Si2 0.845380 0.817785 0.470422
Si Si3 0.500000 0.182420 0.868848
Si Si4 0.655514 0.317958 0.298364
Si Si5 0.000000 0.182302 0.038951
Si Si6 0.159644 0.182772 0.776509
Si Si7 0.402131 0.174971 0.625655
O O1 0.750000 0.750000 0.127389
O O2 0.611519 0.768315 0.224119
O O3 0.588025 0.754866 0.073082
O O4 0.658744 0.000000 0.132163
O O5 0.750000 0.750000 0.475110
O O6 0.889059 0.788286 0.383740
O O7 0.902976 0.735827 0.536275
O O8 0.840841 0.000000 0.488023
O O9 0.415197 0.222369 0.819365
O O10 0.500000 0.000000 0.890208
O O11 0.500000 0.286414 0.946624
O O12 0.659128 0.500000 0.277981
O O13 0.750000 0.250000 0.306998
O O14 0.000000 0.000000 0.056749
O O15 0.250000 0.250000 0.808798
O O16 0.153693 0.214013 0.682560
O O17 0.151919 0.000000 0.794418
O O18 0.500000 0.175488 0.656425
O O19 0.363572 0.000000 0.629263
#
# Coordination Sequence:
#
# PCOD8173317 Si02
#       7
#     8   8   4   8   4   8   8
#     4  11  22  40  66  97 131 172 216 265 321 381
#     4  10  20  34  55  83 118 160 211 263 316 373
#     4  12  26  48  72 101 136 165 206 262 318 383
#     4   9  17  32  55  84 118 163 210 263 317 371
#     4  12  26  46  70  99 132 169 212 260 318 383
#     4  12  25  44  71 100 131 172 215 260 317 380
#     4  11  23  39  59  85 123 167 213 267 321 374
#
# _framework density 21.360918999999999
#
# number of rings (size 3 to 8) (size 9 to 14) (size 15 to 20)
#    0.000    1.167    0.833    7.500    0.000    3.667 
#    1.500    3.333    0.000    0.000    0.000    0.000 
#    0.000    0.000    0.000    0.000    0.000    0.000 
#
# Total GULP energy -297568.065215 kJ/mol
# GULP energy per Si atom -12398.669384 kJ/mol
# Density = 2.131230 g / cm^3
# Si number density = 21.360919 Si / 1000 Ang^3
#
#
#
# Elastic Constant Matrix: (Units=GPa)
#
#
# Indices 1 2 3 4 5 6 
#
# 1 100.4804 33.2749 37.3270 0.0000 0.0000 0.0000
# 2 33.2749 146.8703 27.3819 0.0000 0.0000 0.0000
# 3 37.3270 27.3819 111.4945 0.0000 0.0000 0.0000
# 4 0.0000 0.0000 0.0000 38.9672 0.0000 0.0000
# 5 0.0000 0.0000 0.0000 0.0000 21.3474 0.0000
# 6 0.0000 0.0000 0.0000 0.0000 0.0000 30.7693
#
#
#
# Elastic Compliance Matrix: (Units=1/GPa)
#
#
# Indices 1 2 3 4 5 6 
#
# 1 0.011928 -0.002052 -0.003489 0.000000 0.000000 0.000000
# 2 -0.002052 0.007488 -0.001152 0.000000 0.000000 0.000000
# 3 -0.003489 -0.001152 0.010420 0.000000 0.000000 0.000000
# 4 0.000000 0.000000 0.000000 0.025663 0.000000 0.000000
# 5 0.000000 0.000000 0.000000 0.000000 0.046844 0.000000
# 6 0.000000 0.000000 0.000000 0.000000 0.000000 0.032500
#
#
# Mechanical properties :
#
#
# Convention : Reuss Voigt Hill
#
# Bulk Modulus (GPa) = 60.79117 61.64587 61.21852
# Shear Modulus (GPa) = 32.52808 35.60753 34.06781
#
# Velocity S-wave (km/s) = 3.90652 4.08726 3.99791
# Velocity P-wave (km/s) = 6.99062 7.15514 7.07336
#
# Compressibility (1/GPa) = 0.01644976
#
# Stress axis : x y z
#
# Youngs Moduli (GPa) = 83.83674 133.54005 95.96724
#
# Poissons Ratio (x) = 0.27400 0.33487
# Poissons Ratio (y) = 0.17202 0.11057
# Poissons Ratio (z) = 0.29254 0.15386
#
# Static dielectric constant tensor:
#      x y z
#    x 3.569440 0.000000 0.000000 
#    y 0.000000 4.005150 0.000000 
#    z 0.000000 0.000000 4.261140 
# 
# 
# High freq. dielectric constant tensor:
#      x y z
#    x 1.823960 0.000000 0.000000 
#    y 0.000000 1.853520 0.000000 
#    z 0.000000 0.000000 1.847140 
# 
# From -- ./inp_files/18770.got.cif
#   From: 2010.03.12/outbox.cif.g09.slc.cpg/sg35_10_cif.got.tgz:18770.got - 2010.04.14 02:02:04.
