data_PCOD8173020
_publ_section_title
;
Structure prediction by ZEFSAII (Michael W. Deem and Ramdas Pophale) SiO2 
 PCOD8173020
Probable space group: C M M 2
;
_chemical_formula_sum "Si O2"
_cell_formula_units_Z 48
_cell_length_a 33.302355
_cell_length_b 9.114437
_cell_length_c 9.005924
_cell_angle_alpha 90.000000
_cell_angle_beta 90.000000
_cell_angle_gamma 90.000000
_cell_volume 2733.588074
_symmetry_space_group_name_H-M "C M M 2"
_symmetry_group_IT_number 35
_symmetry_cell_setting 'orthorhombic'
loop_
_space_group_symop_operation_xyz
x,y,z
-x,-y,z
-x,y,z
x,-y,z
1/2+x,1/2+y,z
1/2-x,1/2-y,z
1/2-x,1/2+y,z
1/2+x,1/2-y,z
loop_
_atom_site_type_symbol
_atom_site_label
_atom_site_fract_x
_atom_site_fract_y
_atom_site_fract_z
Si Si1 0.954867 0.827069 0.189820
Si Si2 0.291185 0.674478 0.830772
Si Si3 0.617425 0.830796 0.340317
Si Si4 0.412379 0.338466 0.906126
Si Si5 0.335372 0.339071 0.113199
Si Si6 0.635119 0.829963 0.682194
O O1 0.924205 0.747365 0.299705
O O2 0.000000 0.780971 0.233721
O O3 0.947765 0.000000 0.208160
O O4 0.947797 0.783470 0.016189
O O5 0.289049 0.500000 0.807642
O O6 0.250000 0.750000 0.781505
O O7 0.325846 0.737297 0.725104
O O8 0.299428 0.714146 0.004668
O O9 0.655829 0.771440 0.247807
O O10 0.626285 0.802463 0.511081
O O11 0.612516 0.000000 0.301270
O O12 0.422229 0.500000 0.839270
O O13 0.404179 0.224784 0.773110
O O14 0.373664 0.350326 0.008756
O O15 0.325622 0.500000 0.180131
O O16 0.642613 0.000000 0.718816
#
# Coordination Sequence:
#
# PCOD8173020 Si02
#       6
#     8   8   8   8   8   8
#     4   9  18  33  52  73  97 126 163 207 251 294
#     4  10  20  34  53  76  99 126 162 204 248 291
#     4  10  20  32  49  74 102 132 165 201 242 290
#     4   8  15  29  49  71  93 121 160 201 239 284
#     4   8  16  31  50  71  94 123 160 197 235 285
#     4  10  20  33  49  72 102 134 166 199 240 292
#
# _framework density 17.559339000000001
#
# number of rings (size 3 to 8) (size 9 to 14) (size 15 to 20)
#    0.000    2.833    0.000    3.500    0.000    9.667 
#    0.000    1.667    0.000    5.000    0.000    0.000 
#    0.000    0.000    0.000    0.000    0.000    0.000 
#
# Total GULP energy -297460.451028 kJ/mol
# GULP energy per Si atom -12394.185460 kJ/mol
# Density = 1.751937 g / cm^3
# Si number density = 17.559339 Si / 1000 Ang^3
#
#
#
# Elastic Constant Matrix: (Units=GPa)
#
#
# Indices 1 2 3 4 5 6 
#
# 1 83.9055 51.6293 37.8195 0.0000 0.0000 0.0000
# 2 51.6293 108.1910 67.3189 0.0000 0.0000 0.0000
# 3 37.8195 67.3189 94.1679 0.0000 0.0000 0.0000
# 4 0.0000 0.0000 0.0000 31.3183 0.0000 0.0000
# 5 0.0000 0.0000 0.0000 0.0000 18.7793 0.0000
# 6 0.0000 0.0000 0.0000 0.0000 0.0000 13.9882
#
#
#
# Elastic Compliance Matrix: (Units=1/GPa)
#
#
# Indices 1 2 3 4 5 6 
#
# 1 0.017051 -0.006981 -0.001857 0.000000 0.000000 0.000000
# 2 -0.006981 0.019507 -0.011141 0.000000 0.000000 0.000000
# 3 -0.001857 -0.011141 0.019330 0.000000 0.000000 0.000000
# 4 0.000000 0.000000 0.000000 0.031930 0.000000 0.000000
# 5 0.000000 0.000000 0.000000 0.000000 0.053250 0.000000
# 6 0.000000 0.000000 0.000000 0.000000 0.000000 0.071489
#
#
# Mechanical properties :
#
#
# Convention : Reuss Voigt Hill
#
# Bulk Modulus (GPa) = 62.78145 66.64440 64.71293
# Shear Modulus (GPa) = 19.39298 21.45029 20.42163
#
# Velocity S-wave (km/s) = 3.32690 3.49891 3.41399
# Velocity P-wave (km/s) = 7.11260 7.37288 7.24391
#
# Compressibility (1/GPa) = 0.01592827
#
# Stress axis : x y z
#
# Youngs Moduli (GPa) = 58.64744 51.26446 51.73343
#
# Poissons Ratio (x) = 0.35789 0.09608
# Poissons Ratio (y) = 0.40943 0.57637
# Poissons Ratio (z) = 0.10892 0.57115
#
# Static dielectric constant tensor:
#      x y z
#    x 3.500460 0.000000 0.000000 
#    y 0.000000 3.352940 0.000000 
#    z 0.000000 0.000000 3.280090 
# 
# 
# High freq. dielectric constant tensor:
#      x y z
#    x 1.660490 0.000000 0.000000 
#    y 0.000000 1.683940 0.000000 
#    z 0.000000 0.000000 1.665700 
# 
# From -- ./inp_files/10473.got.cif
#   From: 2010.03.12/outbox.cif.g09.slc.cpg/sg35_6_cif.got.tgz:10473.got - 2010.04.14 02:02:04.
