data_PCOD8173093
_publ_section_title
;
Structure prediction by ZEFSAII (Michael W. Deem and Ramdas Pophale) SiO2 
 PCOD8173093
Probable space group: C M M 2
;
_chemical_formula_sum "Si O2"
_cell_formula_units_Z 48
_cell_length_a 8.708971
_cell_length_b 19.326901
_cell_length_c 15.615084
_cell_angle_alpha 90.000000
_cell_angle_beta 90.000000
_cell_angle_gamma 90.000000
_cell_volume 2628.290657
_symmetry_space_group_name_H-M "C M M 2"
_symmetry_group_IT_number 35
_symmetry_cell_setting 'orthorhombic'
loop_
_space_group_symop_operation_xyz
x,y,z
-x,-y,z
-x,y,z
x,-y,z
1/2+x,1/2+y,z
1/2-x,1/2-y,z
1/2-x,1/2+y,z
1/2+x,1/2-y,z
loop_
_atom_site_type_symbol
_atom_site_label
_atom_site_fract_x
_atom_site_fract_y
_atom_site_fract_z
Si Si1 0.180752 0.322939 0.573390
Si Si2 0.674170 0.417760 0.081791
Si Si3 0.319398 0.323036 0.391973
Si Si4 0.819284 0.919060 0.713206
Si Si5 0.172096 0.081990 0.898340
Si Si6 0.324011 0.081564 0.254071
O O1 0.250000 0.250000 0.603350
O O2 0.249850 0.346201 0.482635
O O3 0.220874 0.380288 0.642731
O O4 0.000000 0.315491 0.563638
O O5 0.500000 0.389956 0.092890
O O6 0.671552 0.500000 0.083160
O O7 0.778260 0.390430 0.159643
O O8 0.747686 0.393456 0.989183
O O9 0.500000 0.314853 0.401987
O O10 0.250000 0.250000 0.361455
O O11 0.282126 0.381808 0.323459
O O12 0.755930 0.893436 0.807444
O O13 0.000000 0.902378 0.704155
O O14 0.789233 0.000000 0.700198
O O15 0.000000 0.110486 0.901755
O O16 0.169720 0.000000 0.894636
O O17 0.500000 0.100978 0.270965
O O18 0.294849 0.000000 0.261772
#
# Coordination Sequence:
#
# PCOD8173093 Si02
#       6
#     8   8   8   8   8   8
#     4  11  22  37  55  74  99 131 168 207 250 301
#     4   8  13  24  44  70  99 132 169 205 244 291
#     4  11  22  38  58  76  97 128 167 207 251 304
#     4   9  17  31  52  78 106 135 168 206 249 295
#     4   7  11  22  43  70  99 131 166 203 242 288
#     4  10  20  33  50  76 108 137 167 206 249 291
#
# _framework density 18.262820000000001
#
# number of rings (size 3 to 8) (size 9 to 14) (size 15 to 20)
#    0.000    2.667    0.000    6.500    0.000    2.000 
#    0.000    0.833    0.000    4.000    0.000    4.667 
#    0.000    0.000    0.000    0.000    0.000    0.000 
#
# Total GULP energy -297348.114098 kJ/mol
# GULP energy per Si atom -12389.504754 kJ/mol
# Density = 1.822125 g / cm^3
# Si number density = 18.262820 Si / 1000 Ang^3
#
#
#
# Elastic Constant Matrix: (Units=GPa)
#
#
# Indices 1 2 3 4 5 6 
#
# 1 108.2785 31.7937 54.5327 0.0000 0.0000 0.0000
# 2 31.7937 40.6714 51.3105 0.0000 0.0000 0.0000
# 3 54.5327 51.3105 151.2609 0.0000 0.0000 0.0000
# 4 0.0000 0.0000 0.0000 -4.0550 0.0000 0.0000
# 5 0.0000 0.0000 0.0000 0.0000 24.2456 0.0000
# 6 0.0000 0.0000 0.0000 0.0000 0.0000 21.7449
#
#
#
# Elastic Compliance Matrix: (Units=1/GPa)
#
#
# Indices 1 2 3 4 5 6 
#
# 1 0.012342 -0.007053 -0.002057 0.000000 0.000000 0.000000
# 2 -0.007053 0.047012 -0.013404 0.000000 0.000000 0.000000
# 3 -0.002057 -0.013404 0.011900 0.000000 0.000000 0.000000
# 4 0.000000 0.000000 0.000000 -0.246610 0.000000 0.000000
# 5 0.000000 0.000000 0.000000 0.000000 0.041245 0.000000
# 6 0.000000 0.000000 0.000000 0.000000 0.000000 0.045988
#
#
# Mechanical properties :
#
#
# Convention : Reuss Voigt Hill
#
# Bulk Modulus (GPa) = 38.13217 63.94273 51.03745
# Shear Modulus (GPa) = -145.54746 19.22537 -63.16104
#
# Velocity S-wave (km/s) = -8.93695 3.24806 -5.88724
# Velocity P-wave (km/s) = 9.25025 7.01107 4.26685
#
# Compressibility (1/GPa) = 0.02622457
#
# Stress axis : x y z
#
# Youngs Moduli (GPa) = 81.02089 21.27129 84.03500
#
# Poissons Ratio (x) = 0.15003 0.17288
# Poissons Ratio (y) = 0.57144 1.12645
# Poissons Ratio (z) = 0.16668 0.28513
#
# Static dielectric constant tensor:
#      x y z
#    x 3.250990 0.000000 0.000000 
#    y 0.000000 2.948130 0.000000 
#    z 0.000000 0.000000 3.907680 
# 
# 
# High freq. dielectric constant tensor:
#      x y z
#    x 1.693510 0.000000 0.000000 
#    y 0.000000 1.660770 0.000000 
#    z 0.000000 0.000000 1.733930 
# 
# From -- ./inp_files/15380.got.cif
#   From: 2010.03.12/outbox.cif.g09.slc.cpg/sg35_8_cif.got.tgz:15380.got - 2010.04.14 02:02:04.
