data_PCOD8173548
_publ_section_title
;
Structure prediction by ZEFSAII (Michael W. Deem and Ramdas Pophale) SiO2 
 PCOD8173548
Probable space group: C M M 2
;
_chemical_formula_sum "Si O2"
_cell_formula_units_Z 64
_cell_length_a 18.906260
_cell_length_b 19.655382
_cell_length_c 8.605831
_cell_angle_alpha 90.000000
_cell_angle_beta 90.000000
_cell_angle_gamma 90.000000
_cell_volume 3198.010814
_symmetry_space_group_name_H-M "C M M 2"
_symmetry_group_IT_number 35
_symmetry_cell_setting 'orthorhombic'
loop_
_space_group_symop_operation_xyz
x,y,z
-x,-y,z
-x,y,z
x,-y,z
1/2+x,1/2+y,z
1/2-x,1/2-y,z
1/2-x,1/2+y,z
1/2+x,1/2-y,z
loop_
_atom_site_type_symbol
_atom_site_label
_atom_site_fract_x
_atom_site_fract_y
_atom_site_fract_z
Si Si1 0.918835 0.312174 0.223570
Si Si2 0.687786 0.422234 0.225067
Si Si3 0.323024 0.791993 0.924575
Si Si4 0.646899 0.574371 0.880542
Si Si5 0.079827 0.826799 0.393266
Si Si6 0.080174 0.804565 0.741568
Si Si7 0.830719 0.579362 0.387803
Si Si8 0.210046 0.423162 0.738367
O O1 0.911017 0.250489 0.341832
O O2 0.896808 0.379330 0.319250
O O3 0.000000 0.320987 0.166349
O O4 0.867939 0.295248 0.080787
O O5 0.674274 0.500000 0.274644
O O6 0.625941 0.377461 0.293673
O O7 0.762626 0.396933 0.289825
O O8 0.689201 0.412315 0.040219
O O9 0.250000 0.750000 0.951549
O O10 0.366969 0.754211 0.791528
O O11 0.315649 0.869063 0.865339
O O12 0.610379 0.500000 0.883568
O O13 0.586910 0.630813 0.857023
O O14 0.704393 0.578285 0.741360
O O15 0.102345 0.830100 0.572108
O O16 0.000000 0.852073 0.370301
O O17 0.000000 0.777202 0.747103
O O18 0.846917 0.500000 0.364650
O O19 0.817640 0.596905 0.568138
O O20 0.184067 0.500000 0.782999
#
# Coordination Sequence:
#
# PCOD8173548 Si02
#       8
#     8   8   8   8   8   8   8   8
#     4  11  25  43  63  90 126 163 202 256 313 370
#     4  10  21  36  59  89 123 160 206 254 302 363
#     4  12  24  39  63  97 122 164 210 252 310 374
#     4  10  20  36  57  87 124 162 202 250 307 368
#     4  10  23  40  59  86 122 164 206 251 308 363
#     4  11  23  40  60  86 124 163 205 258 306 362
#     4  10  22  40  65  93 120 160 207 256 307 362
#     4  10  21  40  64  93 126 156 201 258 307 359
#
# _framework density 20.012440000000002
#
# number of rings (size 3 to 8) (size 9 to 14) (size 15 to 20)
#    0.000    1.500    1.250    3.375    1.750    5.250 
#    0.000    3.125    0.000    2.625    0.000    0.000 
#    0.000    0.000    0.000    0.000    0.000    0.000 
#
# Total GULP energy -396821.126650 kJ/mol
# GULP energy per Si atom -12400.660208 kJ/mol
# Density = 1.996689 g / cm^3
# Si number density = 20.012440 Si / 1000 Ang^3
#
#
#
# Elastic Constant Matrix: (Units=GPa)
#
#
# Indices 1 2 3 4 5 6 
#
# 1 102.6066 49.5006 46.7782 0.0000 0.0000 0.0000
# 2 49.5006 103.3878 38.0021 0.0000 0.0000 0.0000
# 3 46.7782 38.0021 73.3835 0.0000 0.0000 0.0000
# 4 0.0000 0.0000 0.0000 31.9088 0.0000 0.0000
# 5 0.0000 0.0000 0.0000 0.0000 32.0680 0.0000
# 6 0.0000 0.0000 0.0000 0.0000 0.0000 28.8347
#
#
#
# Elastic Compliance Matrix: (Units=1/GPa)
#
#
# Indices 1 2 3 4 5 6 
#
# 1 0.015348 -0.004634 -0.007384 0.000000 0.000000 0.000000
# 2 -0.004634 0.013346 -0.003957 0.000000 0.000000 0.000000
# 3 -0.007384 -0.003957 0.020383 0.000000 0.000000 0.000000
# 4 0.000000 0.000000 0.000000 0.031339 0.000000 0.000000
# 5 0.000000 0.000000 0.000000 0.000000 0.031184 0.000000
# 6 0.000000 0.000000 0.000000 0.000000 0.000000 0.034680
#
#
# Mechanical properties :
#
#
# Convention : Reuss Voigt Hill
#
# Bulk Modulus (GPa) = 58.38877 60.88220 59.63549
# Shear Modulus (GPa) = 27.18301 28.23542 27.70921
#
# Velocity S-wave (km/s) = 3.68952 3.76026 3.72506
# Velocity P-wave (km/s) = 6.88401 7.02431 6.95452
#
# Compressibility (1/GPa) = 0.01712658
#
# Stress axis : x y z
#
# Youngs Moduli (GPa) = 65.15564 74.93076 49.06105
#
# Poissons Ratio (x) = 0.34726 0.36224
# Poissons Ratio (y) = 0.30196 0.19413
# Poissons Ratio (z) = 0.48108 0.29650
#
# Static dielectric constant tensor:
#      x y z
#    x 3.538080 0.000000 0.000000 
#    y 0.000000 3.778550 0.000000 
#    z 0.000000 0.000000 3.695760 
# 
# 
# High freq. dielectric constant tensor:
#      x y z
#    x 1.768420 0.000000 0.000000 
#    y 0.000000 1.791380 0.000000 
#    z 0.000000 0.000000 1.791570 
# 
# From -- ./inp_files/8783.got.cif
#   From: 2010.03.12/outbox.cif.g09.slc.cpg/sg35_5_cif.got.tgz:8783.got - 2010.04.14 02:02:04.
