data_PCOD8173129
_publ_section_title
;
Structure prediction by ZEFSAII (Michael W. Deem and Ramdas Pophale) SiO2 
 PCOD8173129
Probable space group: C M M 2
;
_chemical_formula_sum "Si O2"
_cell_formula_units_Z 52
_cell_length_a 21.123489
_cell_length_b 10.115607
_cell_length_c 13.165333
_cell_angle_alpha 90.000000
_cell_angle_beta 90.000000
_cell_angle_gamma 90.000000
_cell_volume 2813.127717
_symmetry_space_group_name_H-M "C M M 2"
_symmetry_group_IT_number 35
_symmetry_cell_setting 'orthorhombic'
loop_
_space_group_symop_operation_xyz
x,y,z
-x,-y,z
-x,y,z
x,-y,z
1/2+x,1/2+y,z
1/2-x,1/2-y,z
1/2-x,1/2+y,z
1/2+x,1/2-y,z
loop_
_atom_site_type_symbol
_atom_site_label
_atom_site_fract_x
_atom_site_fract_y
_atom_site_fract_z
Si Si1 0.367460 0.649799 0.382890
Si Si2 0.072357 0.851438 0.174335
Si Si3 0.573006 0.847370 0.536011
Si Si4 0.803477 0.651710 0.874133
Si Si5 0.569396 0.155642 0.768616
Si Si6 0.164582 0.643980 0.100248
Si Si7 0.750000 0.250000 0.269147
O O1 0.375361 0.500000 0.423752
O O2 0.416933 0.679797 0.292796
O O3 0.381190 0.753504 0.471595
O O4 0.296457 0.666597 0.340789
O O5 0.111118 0.754939 0.102280
O O6 0.000000 0.831040 0.146757
O O7 0.095456 0.000000 0.150803
O O8 0.500000 0.824868 0.505207
O O9 0.583929 0.806520 0.652436
O O10 0.592171 0.000000 0.516818
O O11 0.792340 0.500000 0.836127
O O12 0.750000 0.750000 0.828321
O O13 0.872656 0.705565 0.838617
O O14 0.797743 0.658464 0.995457
O O15 0.500000 0.215465 0.800949
O O16 0.563917 0.000000 0.778686
O O17 0.131589 0.500000 0.104721
O O18 0.211967 0.651319 0.195521
#
# Coordination Sequence:
#
# PCOD8173129 Si02
#       7
#     8   8   8   8   8   8   4
#     4  10  20  33  52  75 102 138 177 217 262 311
#     4   9  19  34  50  72 105 140 170 210 267 321
#     4   9  18  34  56  79 104 137 174 214 262 315
#     4  10  20  35  57  83 108 140 178 222 269 319
#     4   8  16  34  58  81 107 141 179 218 267 323
#     4  10  20  33  53  77 100 135 180 219 256 306
#     4  10  20  36  50  70 104 144 176 216 258 316
#
# _framework density 18.484763000000001
#
# number of rings (size 3 to 8) (size 9 to 14) (size 15 to 20)
#    0.000    2.615    0.769    1.846    0.000    6.154 
#    1.385    2.308    0.000    1.385    0.000    0.000 
#    0.000    0.000    0.000    0.000    0.000    0.000 
#
# Total GULP energy -322288.916789 kJ/mol
# GULP energy per Si atom -12395.727569 kJ/mol
# Density = 1.844269 g / cm^3
# Si number density = 18.484763 Si / 1000 Ang^3
#
#
#
# Elastic Constant Matrix: (Units=GPa)
#
#
# Indices 1 2 3 4 5 6 
#
# 1 108.8907 50.9669 39.0094 0.0000 0.0000 0.0000
# 2 50.9669 94.5038 32.5593 0.0000 0.0000 0.0000
# 3 39.0094 32.5593 57.4837 0.0000 0.0000 0.0000
# 4 0.0000 0.0000 0.0000 21.5368 0.0000 0.0000
# 5 0.0000 0.0000 0.0000 0.0000 4.6440 0.0000
# 6 0.0000 0.0000 0.0000 0.0000 0.0000 29.1954
#
#
#
# Elastic Compliance Matrix: (Units=1/GPa)
#
#
# Indices 1 2 3 4 5 6 
#
# 1 0.013994 -0.005312 -0.006488 0.000000 0.000000 0.000000
# 2 -0.005312 0.015163 -0.004984 0.000000 0.000000 0.000000
# 3 -0.006488 -0.004984 0.024622 0.000000 0.000000 0.000000
# 4 0.000000 0.000000 0.000000 0.046432 0.000000 0.000000
# 5 0.000000 0.000000 0.000000 0.000000 0.215334 0.000000
# 6 0.000000 0.000000 0.000000 0.000000 0.000000 0.034252
#
#
# Mechanical properties :
#
#
# Convention : Reuss Voigt Hill
#
# Bulk Modulus (GPa) = 49.47564 56.21663 52.84613
# Shear Modulus (GPa) = 12.81715 20.29806 16.55761
#
# Velocity S-wave (km/s) = 2.63609 3.31735 2.99614
# Velocity P-wave (km/s) = 6.00741 6.71949 6.37340
#
# Compressibility (1/GPa) = 0.02021197
#
# Stress axis : x y z
#
# Youngs Moduli (GPa) = 71.45913 65.94798 40.61405
#
# Poissons Ratio (x) = 0.35031 0.26350
# Poissons Ratio (y) = 0.37958 0.20242
# Poissons Ratio (z) = 0.46362 0.32869
#
# Static dielectric constant tensor:
#      x y z
#    x 6.293530 0.000000 0.000000 
#    y 0.000000 3.336780 0.000000 
#    z 0.000000 0.000000 3.242860 
# 
# 
# High freq. dielectric constant tensor:
#      x y z
#    x 1.716230 0.000000 0.000000 
#    y 0.000000 1.705610 0.000000 
#    z 0.000000 0.000000 1.699760 
# 
# From -- ./inp_files/17326.got.cif
#   From: 2010.03.12/outbox.cif.g09.slc.cpg/sg35_9_cif.got.tgz:17326.got - 2010.04.14 02:02:04.
