data_PCOD8173525
_publ_section_title
;
Structure prediction by ZEFSAII (Michael W. Deem and Ramdas Pophale) SiO2 
 PCOD8173525
Probable space group: C M M 2
;
_chemical_formula_sum "Si O2"
_cell_formula_units_Z 64
_cell_length_a 15.388476
_cell_length_b 21.125512
_cell_length_c 10.012386
_cell_angle_alpha 90.000000
_cell_angle_beta 90.000000
_cell_angle_gamma 90.000000
_cell_volume 3254.920902
_symmetry_space_group_name_H-M "C M M 2"
_symmetry_group_IT_number 35
_symmetry_cell_setting 'orthorhombic'
loop_
_space_group_symop_operation_xyz
x,y,z
-x,-y,z
-x,y,z
x,-y,z
1/2+x,1/2+y,z
1/2-x,1/2-y,z
1/2-x,1/2+y,z
1/2+x,1/2-y,z
loop_
_atom_site_type_symbol
_atom_site_label
_atom_site_fract_x
_atom_site_fract_y
_atom_site_fract_z
Si Si1 0.676462 0.697950 0.352860
Si Si2 0.228081 0.070095 0.760365
Si Si3 0.763320 0.571168 0.049215
Si Si4 0.200345 0.612236 0.495299
Si Si5 0.404167 0.926574 0.248859
Si Si6 0.336437 0.706944 0.820185
Si Si7 0.100284 0.156807 0.083508
Si Si8 0.594605 0.227848 0.577835
O O1 0.750000 0.750000 0.322463
O O2 0.718269 0.631102 0.400727
O O3 0.617266 0.690568 0.223326
O O4 0.610965 0.719054 0.467544
O O5 0.277144 0.065817 0.617857
O O6 0.171102 0.134119 0.765181
O O7 0.180466 0.000000 0.773110
O O8 0.290576 0.075790 0.892181
O O9 0.756360 0.500000 0.101142
O O10 0.837074 0.605251 0.141592
O O11 0.667146 0.598942 0.068363
O O12 0.127386 0.581819 0.401138
O O13 0.168605 0.675609 0.567778
O O14 0.500000 0.894965 0.233862
O O15 0.412624 0.000000 0.216093
O O16 0.250000 0.750000 0.823400
O O17 0.403605 0.740504 0.722549
O O18 0.378988 0.706905 0.966383
O O19 0.000000 0.133584 0.075384
O O20 0.500000 0.197364 0.556136
#
# Coordination Sequence:
#
# PCOD8173525 Si02
#       8
#     8   8   8   8   8   8   8   8
#     4  10  20  36  56  80 115 154 187 242 300 353
#     4  10  20  36  62  88 114 154 201 242 295 361
#     4   9  20  38  59  83 116 159 197 244 304 358
#     4  11  19  36  58  87 116 158 195 247 302 358
#     4  10  20  36  59  87 120 160 205 248 297 362
#     4  11  20  39  61  84 118 158 197 248 299 356
#     4  11  22  36  59  87 114 151 198 249 299 355
#     4  11  21  35  56  85 118 155 197 240 300 363
#
# _framework density 19.662538000000001
#
# number of rings (size 3 to 8) (size 9 to 14) (size 15 to 20)
#    0.000    1.625    3.750    2.250    0.000    0.250 
#    0.000    1.250    0.000    4.125    0.000    0.000 
#    0.000    0.000    0.000    0.000    0.000    0.000 
#
# Total GULP energy -396469.403968 kJ/mol
# GULP energy per Si atom -12389.668874 kJ/mol
# Density = 1.961778 g / cm^3
# Si number density = 19.662538 Si / 1000 Ang^3
#
#
#
# Elastic Constant Matrix: (Units=GPa)
#
#
# Indices 1 2 3 4 5 6 
#
# 1 109.9556 19.7914 50.7537 0.0000 0.0000 0.0000
# 2 19.7914 59.2799 17.2408 0.0000 0.0000 0.0000
# 3 50.7537 17.2408 136.1564 0.0000 0.0000 0.0000
# 4 0.0000 0.0000 0.0000 24.0114 0.0000 0.0000
# 5 0.0000 0.0000 0.0000 0.0000 15.2712 0.0000
# 6 0.0000 0.0000 0.0000 0.0000 0.0000 17.5435
#
#
#
# Elastic Compliance Matrix: (Units=1/GPa)
#
#
# Indices 1 2 3 4 5 6 
#
# 1 0.011375 -0.002663 -0.003903 0.000000 0.000000 0.000000
# 2 -0.002663 0.018137 -0.001304 0.000000 0.000000 0.000000
# 3 -0.003903 -0.001304 0.008965 0.000000 0.000000 0.000000
# 4 0.000000 0.000000 0.000000 0.041647 0.000000 0.000000
# 5 0.000000 0.000000 0.000000 0.000000 0.065483 0.000000
# 6 0.000000 0.000000 0.000000 0.000000 0.000000 0.057001
#
#
# Mechanical properties :
#
#
# Convention : Reuss Voigt Hill
#
# Bulk Modulus (GPa) = 43.98013 53.44041 48.71027
# Shear Modulus (GPa) = 22.13099 25.87226 24.00163
#
# Velocity S-wave (km/s) = 3.35855 3.63135 3.49761
# Velocity P-wave (km/s) = 6.12012 6.69478 6.41389
#
# Compressibility (1/GPa) = 0.02273754
#
# Stress axis : x y z
#
# Youngs Moduli (GPa) = 87.90826 55.13479 111.55012
#
# Poissons Ratio (x) = 0.14681 0.43540
# Poissons Ratio (y) = 0.23407 0.14547
# Poissons Ratio (z) = 0.34312 0.07190
#
# Static dielectric constant tensor:
#      x y z
#    x 3.475070 0.000000 0.000000 
#    y 0.000000 3.535210 0.000000 
#    z 0.000000 0.000000 3.921500 
# 
# 
# High freq. dielectric constant tensor:
#      x y z
#    x 1.738560 0.000000 0.000000 
#    y 0.000000 1.753100 0.000000 
#    z 0.000000 0.000000 1.790500 
# 
# From -- ./inp_files/7882.got.cif
#   From: 2010.03.12/outbox.cif.g09.slc.cpg/sg35_4_cif.got.tgz:7882.got - 2010.04.14 02:02:04.
