data_PCOD8173765
_publ_section_title
;
Structure prediction by ZEFSAII (Michael W. Deem and Ramdas Pophale) SiO2 
 PCOD8173765
Probable space group: C M M 2
;
_chemical_formula_sum "Si O2"
_cell_formula_units_Z 64
_cell_length_a 25.805385
_cell_length_b 18.355294
_cell_length_c 7.498606
_cell_angle_alpha 90.000000
_cell_angle_beta 90.000000
_cell_angle_gamma 90.000000
_cell_volume 3551.830424
_symmetry_space_group_name_H-M "C M M 2"
_symmetry_group_IT_number 35
_symmetry_cell_setting 'orthorhombic'
loop_
_space_group_symop_operation_xyz
x,y,z
-x,-y,z
-x,y,z
x,-y,z
1/2+x,1/2+y,z
1/2-x,1/2-y,z
1/2-x,1/2+y,z
1/2+x,1/2-y,z
loop_
_atom_site_type_symbol
_atom_site_label
_atom_site_fract_x
_atom_site_fract_y
_atom_site_fract_z
Si Si1 0.881763 0.217580 0.813500
Si Si2 0.557631 0.419840 0.820250
Si Si3 0.057631 0.080160 0.397718
Si Si4 0.867205 0.418347 0.108984
Si Si5 0.059339 0.637712 0.812323
Si Si6 0.940661 0.637712 0.405645
Si Si7 0.809046 0.272920 0.108984
Si Si8 0.618237 0.282420 0.404468
O O1 0.903832 0.141870 0.892720
O O2 0.927181 0.277073 0.832581
O O3 0.863152 0.210341 0.608984
O O4 0.832637 0.239036 0.930217
O O5 0.500000 0.408296 0.899244
O O6 0.578392 0.500000 0.876414
O O7 0.554582 0.412887 0.608984
O O8 0.096168 0.141870 0.325248
O O9 0.000000 0.091704 0.318724
O O10 0.078392 0.000000 0.341553
O O11 0.843675 0.500000 0.108984
O O12 0.903091 0.409722 0.282861
O O13 0.819808 0.360317 0.108984
O O14 0.903091 0.409722 0.935107
O O15 0.067484 0.611803 0.608984
O O16 0.000000 0.626591 0.872241
O O17 0.927181 0.722927 0.385387
O O18 0.000000 0.626591 0.345727
O O19 0.750000 0.250000 0.108984
O O20 0.832637 0.239036 0.287751
#
# Coordination Sequence:
#
# PCOD8173765 Si02
#       8
#     8   8   8   8   8   8   8   8
#     4   9  17  31  51  72  97 129 163 200 239 282
#     4   8  13  23  43  72 105 137 162 187 228 282
#     4   8  13  23  43  72 105 137 162 187 228 282
#     4  10  21  36  52  71  98 128 156 194 243 287
#     4   9  17  29  48  75 104 134 164 189 221 277
#     4   9  17  29  48  75 104 134 164 189 221 277
#     4  10  22  39  55  71  89 117 164 211 249 289
#     4   9  17  31  51  72  97 129 163 200 239 282
#
# _framework density 18.018878999999998
#
# number of rings (size 3 to 8) (size 9 to 14) (size 15 to 20)
#    0.000    3.000    0.000    1.875    0.000    5.000 
#    0.000    5.000    0.000    1.500    0.000    0.000 
#    0.000    0.000    0.000    0.000    0.000    0.000 
#
# Total GULP energy -396657.106920 kJ/mol
# GULP energy per Si atom -12395.534591 kJ/mol
# Density = 1.797787 g / cm^3
# Si number density = 18.018879 Si / 1000 Ang^3
#
#
#
# Elastic Constant Matrix: (Units=GPa)
#
#
# Indices 1 2 3 4 5 6 
#
# 1 108.0323 59.0250 37.1528 0.0000 0.0000 0.0000
# 2 59.0250 145.7679 35.6318 0.0000 0.0000 0.0000
# 3 37.1528 35.6318 75.4077 0.0000 0.0000 0.0000
# 4 0.0000 0.0000 0.0000 12.2631 0.0000 0.0000
# 5 0.0000 0.0000 0.0000 0.0000 11.8380 0.0000
# 6 0.0000 0.0000 0.0000 0.0000 0.0000 15.8119
#
#
#
# Elastic Compliance Matrix: (Units=1/GPa)
#
#
# Indices 1 2 3 4 5 6 
#
# 1 0.013091 -0.004211 -0.004460 0.000000 0.000000 0.000000
# 2 -0.004211 0.009110 -0.002230 0.000000 0.000000 0.000000
# 3 -0.004460 -0.002230 0.016513 0.000000 0.000000 0.000000
# 4 0.000000 0.000000 0.000000 0.081546 0.000000 0.000000
# 5 0.000000 0.000000 0.000000 0.000000 0.084473 0.000000
# 6 0.000000 0.000000 0.000000 0.000000 0.000000 0.063243
#
#
# Mechanical properties :
#
#
# Convention : Reuss Voigt Hill
#
# Bulk Modulus (GPa) = 59.13066 65.86965 62.50015
# Shear Modulus (GPa) = 16.92530 21.14250 19.03390
#
# Velocity S-wave (km/s) = 3.06814 3.42914 3.25365
# Velocity P-wave (km/s) = 6.74081 7.23284 6.99115
#
# Compressibility (1/GPa) = 0.01691170
#
# Stress axis : x y z
#
# Youngs Moduli (GPa) = 76.38912 109.76506 60.55970
#
# Poissons Ratio (x) = 0.46217 0.27011
# Poissons Ratio (y) = 0.32164 0.13507
# Poissons Ratio (z) = 0.34071 0.24481
#
# Static dielectric constant tensor:
#      x y z
#    x 2.920280 0.000000 0.000000 
#    y 0.000000 3.491030 0.000000 
#    z 0.000000 0.000000 3.458300 
# 
# 
# High freq. dielectric constant tensor:
#      x y z
#    x 1.650660 0.000000 0.000000 
#    y 0.000000 1.701250 0.000000 
#    z 0.000000 0.000000 1.702460 
# 
# From -- ./inp_files/9429.got.cif
#   From: 2010.03.12/outbox.cif.g09.slc.cpg/sg35_5_cif.got.tgz:9429.got - 2010.04.14 02:02:04.
