data_PCOD8173621
_publ_section_title
;
Structure prediction by ZEFSAII (Michael W. Deem and Ramdas Pophale) SiO2 
 PCOD8173621
Probable space group: C M M 2
;
_chemical_formula_sum "Si O2"
_cell_formula_units_Z 64
_cell_length_a 30.559020
_cell_length_b 8.684952
_cell_length_c 11.791346
_cell_angle_alpha 90.000000
_cell_angle_beta 90.000000
_cell_angle_gamma 90.000000
_cell_volume 3129.465935
_symmetry_space_group_name_H-M "C M M 2"
_symmetry_group_IT_number 35
_symmetry_cell_setting 'orthorhombic'
loop_
_space_group_symop_operation_xyz
x,y,z
-x,-y,z
-x,y,z
x,-y,z
1/2+x,1/2+y,z
1/2-x,1/2-y,z
1/2-x,1/2+y,z
1/2+x,1/2-y,z
loop_
_atom_site_type_symbol
_atom_site_label
_atom_site_fract_x
_atom_site_fract_y
_atom_site_fract_z
Si Si1 0.126246 0.678911 0.903580
Si Si2 0.450291 0.323434 0.039509
Si Si3 0.205341 0.818985 0.038801
Si Si4 0.205448 0.181639 0.507345
Si Si5 0.950189 0.676509 0.516987
Si Si6 0.123637 0.179276 0.660663
Si Si7 0.075959 0.678552 0.266933
Si Si8 0.822518 0.319334 0.272704
O O1 0.136109 0.500000 0.920655
O O2 0.122950 0.718228 0.772191
O O3 0.080458 0.717016 0.963404
O O4 0.165110 0.773595 0.959870
O O5 0.500000 0.298207 0.998641
O O6 0.435915 0.500000 0.023795
O O7 0.446866 0.280092 0.171315
O O8 0.250000 0.750000 0.986649
O O9 0.199830 0.757994 0.165472
O O10 0.209235 0.000000 0.041331
O O11 0.250000 0.250000 0.561227
O O12 0.165452 0.230505 0.587528
O O13 0.199816 0.254162 0.384236
O O14 0.208780 0.000000 0.495977
O O15 0.934701 0.500000 0.533986
O O16 0.920251 0.788809 0.590371
O O17 0.946652 0.721385 0.385234
O O18 0.000000 0.698933 0.557167
O O19 0.125397 0.000000 0.693120
O O20 0.069318 0.500000 0.236347
O O21 0.126623 0.722843 0.273955
O O22 0.814385 0.500000 0.266594
#
# Coordination Sequence:
#
# PCOD8173621 Si02
#       8
#     8   8   8   8   8   8   8   8
#     4  12  26  45  68  92 122 164 213 263 316 371
#     4  11  24  41  64  95 130 167 208 258 315 374
#     4  12  25  43  67  95 130 166 208 257 312 374
#     4  11  24  41  64  93 126 165 207 255 311 370
#     4  10  21  39  64  94 127 165 208 254 307 369
#     4  11  25  44  65  90 123 163 209 261 315 369
#     4  10  20  36  63  94 129 168 207 254 310 373
#     4  11  21  37  64  96 130 167 207 252 311 372
#
# _framework density 20.450773000000002
#
# number of rings (size 3 to 8) (size 9 to 14) (size 15 to 20)
#    0.000    1.000    2.500    4.500    0.000    5.250 
#    0.000    1.250    0.000    0.000    0.000    0.000 
#    0.000    0.000    0.000    0.000    0.000    0.000 
#
# Total GULP energy -397034.225877 kJ/mol
# GULP energy per Si atom -12407.319559 kJ/mol
# Density = 2.040423 g / cm^3
# Si number density = 20.450773 Si / 1000 Ang^3
#
#
#
# Elastic Constant Matrix: (Units=GPa)
#
#
# Indices 1 2 3 4 5 6 
#
# 1 121.6071 24.8536 37.8951 0.0000 0.0000 0.0000
# 2 24.8536 25.1517 14.9320 0.0000 0.0000 0.0000
# 3 37.8951 14.9320 96.0855 0.0000 0.0000 0.0000
# 4 0.0000 0.0000 0.0000 34.9675 0.0000 0.0000
# 5 0.0000 0.0000 0.0000 0.0000 -2.7454 0.0000
# 6 0.0000 0.0000 0.0000 0.0000 0.0000 33.8922
#
#
#
# Elastic Compliance Matrix: (Units=1/GPa)
#
#
# Indices 1 2 3 4 5 6 
#
# 1 0.011000 -0.009137 -0.002918 0.000000 0.000000 0.000000
# 2 -0.009137 0.051389 -0.004382 0.000000 0.000000 0.000000
# 3 -0.002918 -0.004382 0.012239 0.000000 0.000000 0.000000
# 4 0.000000 0.000000 0.000000 0.028598 0.000000 0.000000
# 5 0.000000 0.000000 0.000000 0.000000 -0.364250 0.000000
# 6 0.000000 0.000000 0.000000 0.000000 0.000000 0.029505
#
#
# Mechanical properties :
#
#
# Convention : Reuss Voigt Hill
#
# Bulk Modulus (GPa) = 23.95046 44.24507 34.09776
# Shear Modulus (GPa) = -27.06733 24.23377 -1.41678
#
# Velocity S-wave (km/s) = -3.64199 3.44609 -0.83323
# Velocity P-wave (km/s) = 2.43901 6.12502 3.97286
#
# Compressibility (1/GPa) = 0.04175286
#
# Stress axis : x y z
#
# Youngs Moduli (GPa) = 90.90899 19.45933 81.70322
#
# Poissons Ratio (x) = 0.17780 0.23844
# Poissons Ratio (y) = 0.83064 0.35806
# Poissons Ratio (z) = 0.26531 0.08528
#
# Static dielectric constant tensor:
#      x y z
#    x 3.927440 0.000000 0.000000 
#    y 0.000000 3.717870 0.000000 
#    z 0.000000 0.000000 3.657270 
# 
# 
# High freq. dielectric constant tensor:
#      x y z
#    x 1.817380 0.000000 0.000000 
#    y 0.000000 1.806150 0.000000 
#    z 0.000000 0.000000 1.795690 
# 
# From -- ./inp_files/14591.got.cif
#   From: 2010.03.12/outbox.cif.g09.slc.cpg/sg35_8_cif.got.tgz:14591.got - 2010.04.14 02:02:04.
