data_PCOD8173893
_publ_section_title
;
Structure prediction by ZEFSAII (Michael W. Deem and Ramdas Pophale) SiO2 
 PCOD8173893
Probable space group: C M M 2
;
_chemical_formula_sum "Si O2"
_cell_formula_units_Z 56
_cell_length_a 21.951668
_cell_length_b 15.461481
_cell_length_c 7.640147
_cell_angle_alpha 90.000000
_cell_angle_beta 90.000000
_cell_angle_gamma 90.000000
_cell_volume 2593.106367
_symmetry_space_group_name_H-M "C M M 2"
_symmetry_group_IT_number 35
_symmetry_cell_setting 'orthorhombic'
loop_
_space_group_symop_operation_xyz
x,y,z
-x,-y,z
-x,y,z
x,-y,z
1/2+x,1/2+y,z
1/2-x,1/2-y,z
1/2-x,1/2+y,z
1/2+x,1/2-y,z
loop_
_atom_site_type_symbol
_atom_site_label
_atom_site_fract_x
_atom_site_fract_y
_atom_site_fract_z
Si Si1 0.882175 0.594995 0.330720
Si Si2 0.068514 0.408103 0.973381
Si Si3 0.932611 0.237072 0.481213
Si Si4 0.329251 0.599866 0.888743
Si Si5 0.246678 0.648498 0.201112
Si Si6 0.339141 0.402672 0.485726
Si Si7 0.932373 0.774468 0.881824
O O1 0.877604 0.500000 0.423448
O O2 0.934376 0.593238 0.184006
O O3 0.899603 0.669311 0.469220
O O4 0.821871 0.615871 0.219023
O O5 0.099380 0.500000 0.910789
O O6 0.000000 0.406629 0.899466
O O7 0.099844 0.319764 0.906793
O O8 0.889466 0.162298 0.402125
O O9 0.940606 0.208703 0.679106
O O10 0.000000 0.238344 0.392352
O O11 0.345664 0.500000 0.912549
O O12 0.317347 0.622892 0.683628
O O13 0.387197 0.653971 0.962076
O O14 0.270917 0.623500 0.007471
O O15 0.250000 0.750000 0.231168
O O16 0.282113 0.600617 0.356907
O O17 0.365894 0.500000 0.487639
O O18 0.000000 0.779887 0.971503
#
# Coordination Sequence:
#
# PCOD8173893 Si02
#       7
#     8   8   8   8   8   8   8
#     4  11  22  37  57  85 119 159 204 250 306 367
#     4   9  18  34  55  80 114 153 194 246 302 355
#     4  10  21  38  60  88 120 158 203 251 311 374
#     4  10  22  40  62  90 125 162 202 252 309 368
#     4  12  23  41  65  88 123 166 205 259 308 364
#     4  10  22  42  64  90 126 162 202 256 310 367
#     4   9  19  36  59  87 118 156 203 252 310 375
#
# _framework density 21.59572
#
# number of rings (size 3 to 8) (size 9 to 14) (size 15 to 20)
#    0.000    1.857    1.429    2.571    0.000    2.571 
#    2.571    4.286    0.000    1.714    0.000    0.000 
#    0.000    0.000    0.000    0.000    0.000    0.000 
#
# Total GULP energy -346945.673803 kJ/mol
# GULP energy per Si atom -12390.916922 kJ/mol
# Density = 2.154657 g / cm^3
# Si number density = 21.595720 Si / 1000 Ang^3
#
#
#
# Elastic Constant Matrix: (Units=GPa)
#
#
# Indices 1 2 3 4 5 6 
#
# 1 92.3958 37.5637 23.3560 0.0000 0.0000 0.0000
# 2 37.5637 148.4828 11.4210 0.0000 0.0000 0.0000
# 3 23.3560 11.4210 58.6469 0.0000 0.0000 0.0000
# 4 0.0000 0.0000 0.0000 29.4462 0.0000 0.0000
# 5 0.0000 0.0000 0.0000 0.0000 24.5537 0.0000
# 6 0.0000 0.0000 0.0000 0.0000 0.0000 22.1762
#
#
#
# Elastic Compliance Matrix: (Units=1/GPa)
#
#
# Indices 1 2 3 4 5 6 
#
# 1 0.013220 -0.002984 -0.004684 0.000000 0.000000 0.000000
# 2 -0.002984 0.007511 -0.000274 0.000000 0.000000 0.000000
# 3 -0.004684 -0.000274 0.018970 0.000000 0.000000 0.000000
# 4 0.000000 0.000000 0.000000 0.033960 0.000000 0.000000
# 5 0.000000 0.000000 0.000000 0.000000 0.040727 0.000000
# 6 0.000000 0.000000 0.000000 0.000000 0.000000 0.045093
#
#
# Mechanical properties :
#
#
# Convention : Reuss Voigt Hill
#
# Bulk Modulus (GPa) = 41.98763 49.35633 45.67198
# Shear Modulus (GPa) = 27.27694 30.38086 28.82890
#
# Velocity S-wave (km/s) = 3.55783 3.75480 3.65764
# Velocity P-wave (km/s) = 6.03012 6.45774 6.24759
#
# Compressibility (1/GPa) = 0.02381654
#
# Stress axis : x y z
#
# Youngs Moduli (GPa) = 75.64164 133.14091 52.71507
#
# Poissons Ratio (x) = 0.39732 0.24691
# Poissons Ratio (y) = 0.22573 0.01445
# Poissons Ratio (z) = 0.35429 0.03651
#
# Static dielectric constant tensor:
#      x y z
#    x 4.079630 0.000000 0.000000 
#    y 0.000000 4.210280 0.000000 
#    z 0.000000 0.000000 3.624670 
# 
# 
# High freq. dielectric constant tensor:
#      x y z
#    x 1.834450 0.000000 0.000000 
#    y 0.000000 1.869160 0.000000 
#    z 0.000000 0.000000 1.826700 
# 
# From -- ./inp_files/7624.got.cif
#   From: 2010.03.12/outbox.cif.g09.slc.cpg/sg35_4_cif.got.tgz:7624.got - 2010.04.14 02:02:04.
