data_PCOD8173605
_publ_section_title
;
Structure prediction by ZEFSAII (Michael W. Deem and Ramdas Pophale) SiO2 
 PCOD8173605
Probable space group: C M M 2
;
_chemical_formula_sum "Si O2"
_cell_formula_units_Z 48
_cell_length_a 14.289381
_cell_length_b 10.116603
_cell_length_c 15.907711
_cell_angle_alpha 90.000000
_cell_angle_beta 90.000000
_cell_angle_gamma 90.000000
_cell_volume 2299.618618
_symmetry_space_group_name_H-M "C M M 2"
_symmetry_group_IT_number 35
_symmetry_cell_setting 'orthorhombic'
loop_
_space_group_symop_operation_xyz
x,y,z
-x,-y,z
-x,y,z
x,-y,z
1/2+x,1/2+y,z
1/2-x,1/2-y,z
1/2-x,1/2+y,z
1/2+x,1/2-y,z
loop_
_atom_site_type_symbol
_atom_site_label
_atom_site_fract_x
_atom_site_fract_y
_atom_site_fract_z
Si Si1 0.888425 0.500000 0.864491
Si Si2 0.388784 0.350862 0.328424
Si Si3 0.610717 0.244696 0.972789
Si Si4 0.110476 0.000000 0.876790
Si Si5 0.889445 0.346498 0.471860
Si Si6 0.388649 0.648515 0.142744
Si Si7 0.738413 0.500000 0.723628
Si Si8 0.750000 0.750000 0.608712
O O1 0.851715 0.378553 0.920406
O O2 0.837036 0.500000 0.774366
O O3 0.000000 0.500000 0.847604
O O4 0.500000 0.350949 0.329197
O O5 0.353766 0.500000 0.351768
O O6 0.351752 0.240810 0.393451
O O7 0.352286 0.309255 0.235317
O O8 0.500000 0.239533 0.973549
O O9 0.648426 0.373493 0.926041
O O10 0.647834 0.250991 0.069788
O O11 0.150185 0.000000 0.784007
O O12 0.000000 0.000000 0.869581
O O13 0.862604 0.500000 0.456637
O O14 0.840187 0.288260 0.553858
O O15 0.000000 0.330579 0.484964
O O16 0.500000 0.649594 0.142683
O O17 0.354421 0.500000 0.121861
O O18 0.725881 0.627210 0.666494
#
# Coordination Sequence:
#
# PCOD8173605 Si02
#       8
#     4   8   8   4   8   8   4   4
#     4  10  22  38  56  81 117 159 197 238 296 356
#     4   8  15  28  53  88 120 154 197 241 283 339
#     4   9  16  30  53  82 116 155 193 232 284 342
#     4  10  20  36  60  85 109 143 187 240 296 348
#     4  10  22  42  64  89 124 160 193 241 308 366
#     4   8  12  23  47  83 120 151 194 240 275 328
#     4  12  26  42  62  86 114 146 196 254 310 356
#     4  12  26  44  64  90 114 154 200 248 310 374
#
# _framework density 20.873025999999999
#
# number of rings (size 3 to 8) (size 9 to 14) (size 15 to 20)
#    0.000    2.500    1.667    2.000    1.167    1.333 
#    1.500    0.000    0.000    2.000    0.000    0.000 
#    0.000    0.000    0.000    0.000    0.000    0.000 
#
# Total GULP energy -297440.845120 kJ/mol
# GULP energy per Si atom -12393.368547 kJ/mol
# Density = 2.082552 g / cm^3
# Si number density = 20.873026 Si / 1000 Ang^3
#
#
#
# Elastic Constant Matrix: (Units=GPa)
#
#
# Indices 1 2 3 4 5 6 
#
# 1 43.7882 23.8278 24.6236 0.0000 0.0000 0.0000
# 2 23.8278 173.9791 97.2823 0.0000 0.0000 0.0000
# 3 24.6236 97.2823 172.7304 0.0000 0.0000 0.0000
# 4 0.0000 0.0000 0.0000 -10.2988 0.0000 0.0000
# 5 0.0000 0.0000 0.0000 0.0000 -33.4685 0.0000
# 6 0.0000 0.0000 0.0000 0.0000 0.0000 5.1706
#
#
#
# Elastic Compliance Matrix: (Units=1/GPa)
#
#
# Indices 1 2 3 4 5 6 
#
# 1 0.025351 -0.002118 -0.002421 0.000000 0.000000 0.000000
# 2 -0.002118 0.008567 -0.004523 0.000000 0.000000 0.000000
# 3 -0.002421 -0.004523 0.008682 0.000000 0.000000 0.000000
# 4 0.000000 0.000000 0.000000 -0.097099 0.000000 0.000000
# 5 0.000000 0.000000 0.000000 0.000000 -0.029879 0.000000
# 6 0.000000 0.000000 0.000000 0.000000 0.000000 0.193402
#
#
# Mechanical properties :
#
#
# Convention : Reuss Voigt Hill
#
# Bulk Modulus (GPa) = 40.85697 75.77391 58.31544
# Shear Modulus (GPa) = 36.95290 8.59826 22.77558
#
# Velocity S-wave (km/s) = 4.21214 2.03181 3.30684
# Velocity P-wave (km/s) = 6.57820 6.47190 6.52526
#
# Compressibility (1/GPa) = 0.02447563
#
# Stress axis : x y z
#
# Youngs Moduli (GPa) = 39.44577 116.72661 115.18304
#
# Poissons Ratio (x) = 0.24728 0.27884
# Poissons Ratio (y) = 0.08356 0.52097
# Poissons Ratio (z) = 0.09549 0.52795
#
# Static dielectric constant tensor:
#      x y z
#    x 3.358150 0.000000 0.000000 
#    y 0.000000 4.190170 0.000000 
#    z 0.000000 0.000000 4.145030 
# 
# 
# High freq. dielectric constant tensor:
#      x y z
#    x 1.798350 0.000000 0.000000 
#    y 0.000000 1.819130 0.000000 
#    z 0.000000 0.000000 1.826860 
# 
# From -- ./inp_files/17154.got.cif
#   From: 2010.03.12/outbox.cif.g09.slc.cpg/sg35_9_cif.got.tgz:17154.got - 2010.04.14 02:02:04.
