data_PCOD8173900
_publ_section_title
;
Structure prediction by ZEFSAII (Michael W. Deem and Ramdas Pophale) SiO2 
 PCOD8173900
Probable space group: C M M 2
;
_chemical_formula_sum "Si O2"
_cell_formula_units_Z 40
_cell_length_a 30.142940
_cell_length_b 8.614365
_cell_length_c 7.327393
_cell_angle_alpha 90.000000
_cell_angle_beta 90.000000
_cell_angle_gamma 90.000000
_cell_volume 1902.647627
_symmetry_space_group_name_H-M "C M M 2"
_symmetry_group_IT_number 35
_symmetry_cell_setting 'orthorhombic'
loop_
_space_group_symop_operation_xyz
x,y,z
-x,-y,z
-x,y,z
x,-y,z
1/2+x,1/2+y,z
1/2-x,1/2-y,z
1/2-x,1/2+y,z
1/2+x,1/2-y,z
loop_
_atom_site_type_symbol
_atom_site_label
_atom_site_fract_x
_atom_site_fract_y
_atom_site_fract_z
Si Si1 0.798525 0.817281 0.780750
Si Si2 0.863585 0.819739 0.100973
Si Si3 0.452217 0.679705 0.478324
Si Si4 0.451817 0.180750 0.085175
Si Si5 0.864065 0.318037 0.498879
O O1 0.750000 0.750000 0.802856
O O2 0.821294 0.742787 0.604601
O O3 0.796848 0.000000 0.751555
O O4 0.824841 0.771463 0.963577
O O5 0.910776 0.778498 0.002454
O O6 0.857813 0.723356 0.286419
O O7 0.862061 0.000000 0.149551
O O8 0.500000 0.701693 0.582107
O O9 0.445538 0.500000 0.424820
O O10 0.453524 0.784643 0.299309
O O11 0.408801 0.739483 0.587227
O O12 0.500000 0.227431 0.998969
O O13 0.442483 0.000000 0.054102
O O14 0.868083 0.500000 0.523779
#
# Coordination Sequence:
#
# PCOD8173900 Si02
#       5
#     8   8   8   8   8
#     4  11  25  44  64  86 113 147 191 243 295 347
#     4  10  21  38  61  87 117 153 193 238 286 342
#     4   9  16  28  50  80 115 154 194 235 279 332
#     4   9  16  27  48  80 116 152 190 231 277 334
#     4  11  22  37  61  89 120 156 192 236 287 344
#
# _framework density 21.023334999999999
#
# number of rings (size 3 to 8) (size 9 to 14) (size 15 to 20)
#    0.000    2.000    0.000    6.600    0.000    6.400 
#    0.000    3.000    0.000    1.200    0.000    0.000 
#    0.000    0.000    0.000    0.000    0.000    0.000 
#
# Total GULP energy -247859.468380 kJ/mol
# GULP energy per Si atom -12392.973419 kJ/mol
# Density = 2.097548 g / cm^3
# Si number density = 21.023335 Si / 1000 Ang^3
#
#
#
# Elastic Constant Matrix: (Units=GPa)
#
#
# Indices 1 2 3 4 5 6 
#
# 1 212.4212 60.6506 55.7771 0.0000 0.0000 0.0000
# 2 60.6506 90.0066 33.9017 0.0000 0.0000 0.0000
# 3 55.7771 33.9017 60.6303 0.0000 0.0000 0.0000
# 4 0.0000 0.0000 0.0000 18.1406 0.0000 0.0000
# 5 0.0000 0.0000 0.0000 0.0000 -112.3768 0.0000
# 6 0.0000 0.0000 0.0000 0.0000 0.0000 37.5351
#
#
#
# Elastic Compliance Matrix: (Units=1/GPa)
#
#
# Indices 1 2 3 4 5 6 
#
# 1 0.006716 -0.002785 -0.004621 0.000000 0.000000 0.000000
# 2 -0.002785 0.015229 -0.005953 0.000000 0.000000 0.000000
# 3 -0.004621 -0.005953 0.024074 0.000000 0.000000 0.000000
# 4 0.000000 0.000000 0.000000 0.055125 0.000000 0.000000
# 5 0.000000 0.000000 0.000000 0.000000 -0.008899 0.000000
# 6 0.000000 0.000000 0.000000 0.000000 0.000000 0.026642
#
#
# Mechanical properties :
#
#
# Convention : Reuss Voigt Hill
#
# Bulk Modulus (GPa) = 51.81444 73.74631 62.78037
# Shear Modulus (GPa) = 32.88593 2.84171 17.86382
#
# Velocity S-wave (km/s) = 3.95936 1.16388 2.91815
# Velocity P-wave (km/s) = 6.75290 6.07953 6.42504
#
# Compressibility (1/GPa) = 0.01929964
#
# Stress axis : x y z
#
# Youngs Moduli (GPa) = 148.89156 65.66239 41.53894
#
# Poissons Ratio (x) = 0.18287 0.19197
# Poissons Ratio (y) = 0.41467 0.24730
# Poissons Ratio (z) = 0.68809 0.39092
#
# Static dielectric constant tensor:
#      x y z
#    x 4.546070 0.000000 0.000000 
#    y 0.000000 3.789640 0.000000 
#    z 0.000000 0.000000 3.354080 
# 
# 
# High freq. dielectric constant tensor:
#      x y z
#    x 1.842940 0.000000 0.000000 
#    y 0.000000 1.834100 0.000000 
#    z 0.000000 0.000000 1.786370 
# 
# From -- ./inp_files/9645.got.cif
#   From: 2010.03.12/outbox.cif.g09.slc.cpg/sg35_5_cif.got.tgz:9645.got - 2010.04.14 02:02:04.
