data_PCOD8173567
_publ_section_title
;
Structure prediction by ZEFSAII (Michael W. Deem and Ramdas Pophale) SiO2 
 PCOD8173567
Probable space group: C M M 2
;
_chemical_formula_sum "Si O2"
_cell_formula_units_Z 48
_cell_length_a 8.784371
_cell_length_b 30.293908
_cell_length_c 9.339109
_cell_angle_alpha 90.000000
_cell_angle_beta 90.000000
_cell_angle_gamma 90.000000
_cell_volume 2485.257631
_symmetry_space_group_name_H-M "C M M 2"
_symmetry_group_IT_number 35
_symmetry_cell_setting 'orthorhombic'
loop_
_space_group_symop_operation_xyz
x,y,z
-x,-y,z
-x,y,z
x,-y,z
1/2+x,1/2+y,z
1/2-x,1/2-y,z
1/2-x,1/2+y,z
1/2+x,1/2-y,z
loop_
_atom_site_type_symbol
_atom_site_label
_atom_site_fract_x
_atom_site_fract_y
_atom_site_fract_z
Si Si1 0.829161 0.500000 0.462101
Si Si2 0.676322 0.639078 0.832110
Si Si3 0.330716 0.644461 0.373417
Si Si4 0.681064 0.000000 0.150275
Si Si5 0.661370 0.571926 0.608019
Si Si6 0.181048 0.598942 0.102934
Si Si7 0.818747 0.297659 0.597872
O O1 0.742611 0.500000 0.310064
O O2 0.799275 0.541973 0.559812
O O3 0.000000 0.500000 0.414632
O O4 0.500000 0.654038 0.844427
O O5 0.691718 0.589914 0.766473
O O6 0.768260 0.673556 0.735233
O O7 0.749590 0.632831 0.987981
O O8 0.500000 0.658356 0.316415
O O9 0.353239 0.613877 0.508857
O O10 0.236063 0.617957 0.254831
O O11 0.240036 0.685891 0.441232
O O12 0.734543 0.952906 0.080667
O O13 0.500000 0.000000 0.152152
O O14 0.500000 0.545611 0.603296
O O15 0.000000 0.601454 0.097672
O O16 0.750000 0.250000 0.625661
O O17 0.000000 0.296336 0.593307
#
# Coordination Sequence:
#
# PCOD8173567 Si02
#       7
#     4   8   8   4   8   8   8
#     4  11  19  30  51  78 108 146 193 247 292 337
#     4  10  22  40  58  83 117 154 194 240 294 352
#     4  10  20  36  58  85 115 150 190 237 287 343
#     4   9  20  34  51  80 118 156 199 247 292 343
#     4   9  19  34  52  75 107 145 189 237 286 339
#     4  11  21  37  58  85 120 160 202 244 293 347
#     4  11  22  40  66  93 118 150 189 237 293 353
#
# _framework density 19.313894000000001
#
# number of rings (size 3 to 8) (size 9 to 14) (size 15 to 20)
#    0.000    1.833    1.667    4.250    0.000    4.000 
#    0.000    4.167    0.000    0.000    0.000    0.000 
#    0.000    0.000    0.000    0.000    0.000    0.000 
#
# Total GULP energy -297318.592980 kJ/mol
# GULP energy per Si atom -12388.274707 kJ/mol
# Density = 1.926994 g / cm^3
# Si number density = 19.313894 Si / 1000 Ang^3
#
#
#
# Elastic Constant Matrix: (Units=GPa)
#
#
# Indices 1 2 3 4 5 6 
#
# 1 118.4664 41.6154 25.6268 0.0000 0.0000 0.0000
# 2 41.6154 98.1667 29.5962 0.0000 0.0000 0.0000
# 3 25.6268 29.5962 70.1577 0.0000 0.0000 0.0000
# 4 0.0000 0.0000 0.0000 20.6995 0.0000 0.0000
# 5 0.0000 0.0000 0.0000 0.0000 29.1175 0.0000
# 6 0.0000 0.0000 0.0000 0.0000 0.0000 29.5682
#
#
#
# Elastic Compliance Matrix: (Units=1/GPa)
#
#
# Indices 1 2 3 4 5 6 
#
# 1 0.010201 -0.003667 -0.002179 0.000000 0.000000 0.000000
# 2 -0.003667 0.012990 -0.004140 0.000000 0.000000 0.000000
# 3 -0.002179 -0.004140 0.016796 0.000000 0.000000 0.000000
# 4 0.000000 0.000000 0.000000 0.048310 0.000000 0.000000
# 5 0.000000 0.000000 0.000000 0.000000 0.034344 0.000000
# 6 0.000000 0.000000 0.000000 0.000000 0.000000 0.033820
#
#
# Mechanical properties :
#
#
# Convention : Reuss Voigt Hill
#
# Bulk Modulus (GPa) = 49.96628 53.38529 51.67578
# Shear Modulus (GPa) = 27.30677 28.54056 27.92366
#
# Velocity S-wave (km/s) = 3.76419 3.84829 3.80647
# Velocity P-wave (km/s) = 6.69469 6.88815 6.79211
#
# Compressibility (1/GPa) = 0.02001350
#
# Stress axis : x y z
#
# Youngs Moduli (GPa) = 98.03058 76.98417 59.53789
#
# Poissons Ratio (x) = 0.28234 0.12973
# Poissons Ratio (y) = 0.35953 0.24649
# Poissons Ratio (z) = 0.21361 0.31872
#
# Static dielectric constant tensor:
#      x y z
#    x 3.676930 0.000000 0.000000 
#    y 0.000000 3.647570 0.000000 
#    z 0.000000 0.000000 3.450490 
# 
# 
# High freq. dielectric constant tensor:
#      x y z
#    x 1.757460 0.000000 0.000000 
#    y 0.000000 1.738850 0.000000 
#    z 0.000000 0.000000 1.745600 
# 
# From -- ./inp_files/5388.got.cif
#   From: 2010.03.12/outbox.cif.g09.slc.cpg/sg35_3_cif.got.tgz:5388.got - 2010.04.14 02:02:04.
