data_PCOD8173979
_publ_section_title
;
Structure prediction by ZEFSAII (Michael W. Deem and Ramdas Pophale) SiO2 
 PCOD8173979
Probable space group: C M M 2
;
_chemical_formula_sum "Si O2"
_cell_formula_units_Z 56
_cell_length_a 21.800783
_cell_length_b 8.454178
_cell_length_c 14.845721
_cell_angle_alpha 90.000000
_cell_angle_beta 90.000000
_cell_angle_gamma 90.000000
_cell_volume 2736.180693
_symmetry_space_group_name_H-M "C M M 2"
_symmetry_group_IT_number 35
_symmetry_cell_setting 'orthorhombic'
loop_
_space_group_symop_operation_xyz
x,y,z
-x,-y,z
-x,y,z
x,-y,z
1/2+x,1/2+y,z
1/2-x,1/2-y,z
1/2-x,1/2+y,z
1/2+x,1/2-y,z
loop_
_atom_site_type_symbol
_atom_site_label
_atom_site_fract_x
_atom_site_fract_y
_atom_site_fract_z
Si Si1 0.000000 0.817253 0.951990
Si Si2 0.814780 0.185944 0.915087
Si Si3 0.184162 0.686350 0.564560
Si Si4 0.819800 0.811025 0.380301
Si Si5 0.000000 0.321925 0.765954
Si Si6 0.392904 0.183009 0.061545
Si Si7 0.570043 0.315359 0.250468
Si Si8 0.880892 0.816837 0.732041
O O1 0.000000 0.808501 0.844685
O O2 0.941676 0.723305 0.985539
O O3 0.000000 0.000000 0.982967
O O4 0.750000 0.250000 0.882875
O O5 0.859112 0.231273 0.832127
O O6 0.814375 0.000000 0.930781
O O7 0.830171 0.268058 0.011149
O O8 0.180022 0.500000 0.580206
O O9 0.250000 0.750000 0.538807
O O10 0.150386 0.740397 0.472819
O O11 0.167476 0.777181 0.655305
O O12 0.750000 0.750000 0.355296
O O13 0.873013 0.751159 0.310655
O O14 0.815964 0.000000 0.384372
O O15 0.940080 0.288276 0.706231
O O16 0.000000 0.500000 0.802730
O O17 0.409069 0.283347 0.148740
O O18 0.392280 0.000000 0.088160
O O19 0.500000 0.244303 0.268097
O O20 0.564543 0.500000 0.265867
O O21 0.896989 0.000000 0.727961
#
# Coordination Sequence:
#
# PCOD8173979 Si02
#       8
#     4   8   8   8   4   8   8   8
#     4  12  22  38  60  83 116 159 204 246 292 350
#     4  11  24  40  60  86 122 162 205 254 304 357
#     4  11  22  39  64  91 122 159 203 254 305 366
#     4  10  21  40  66  93 122 160 206 255 316 380
#     4  12  24  38  60  89 122 159 206 254 302 356
#     4  12  24  38  61  90 120 158 204 250 301 362
#     4  10  22  41  65  91 123 163 207 257 316 380
#     4  11  23  40  62  88 122 164 205 248 304 364
#
# _framework density 20.466484000000001
#
# number of rings (size 3 to 8) (size 9 to 14) (size 15 to 20)
#    0.000    1.000    2.143    6.429    0.000    4.571 
#    1.286    1.429    0.000    0.000    0.000    0.000 
#    0.000    0.000    0.000    0.000    0.000    0.000 
#
# Total GULP energy -346973.136944 kJ/mol
# GULP energy per Si atom -12391.897748 kJ/mol
# Density = 2.041990 g / cm^3
# Si number density = 20.466484 Si / 1000 Ang^3
#
#
#
# Elastic Constant Matrix: (Units=GPa)
#
#
# Indices 1 2 3 4 5 6 
#
# 1 99.7712 35.9876 37.4201 0.0000 0.0000 0.0000
# 2 35.9876 69.6670 19.8137 0.0000 0.0000 0.0000
# 3 37.4201 19.8137 99.5449 0.0000 0.0000 0.0000
# 4 0.0000 0.0000 0.0000 31.1837 0.0000 0.0000
# 5 0.0000 0.0000 0.0000 0.0000 29.5020 0.0000
# 6 0.0000 0.0000 0.0000 0.0000 0.0000 30.3104
#
#
#
# Elastic Compliance Matrix: (Units=1/GPa)
#
#
# Indices 1 2 3 4 5 6 
#
# 1 0.013640 -0.005923 -0.003949 0.000000 0.000000 0.000000
# 2 -0.005923 0.017787 -0.001314 0.000000 0.000000 0.000000
# 3 -0.003949 -0.001314 0.011792 0.000000 0.000000 0.000000
# 4 0.000000 0.000000 0.000000 0.032068 0.000000 0.000000
# 5 0.000000 0.000000 0.000000 0.000000 0.033896 0.000000
# 6 0.000000 0.000000 0.000000 0.000000 0.000000 0.032992
#
#
# Mechanical properties :
#
#
# Convention : Reuss Voigt Hill
#
# Bulk Modulus (GPa) = 47.96613 50.60288 49.28450
# Shear Modulus (GPa) = 29.15520 29.91666 29.53593
#
# Velocity S-wave (km/s) = 3.77839 3.82742 3.80299
# Velocity P-wave (km/s) = 6.52091 6.65662 6.58912
#
# Compressibility (1/GPa) = 0.02084805
#
# Stress axis : x y z
#
# Youngs Moduli (GPa) = 73.31173 56.21969 84.80635
#
# Poissons Ratio (x) = 0.33300 0.33487
# Poissons Ratio (y) = 0.43424 0.11142
# Poissons Ratio (z) = 0.28948 0.07387
#
# Static dielectric constant tensor:
#      x y z
#    x 3.932620 0.000000 0.000000 
#    y 0.000000 3.621520 0.000000 
#    z 0.000000 0.000000 3.696530 
# 
# 
# High freq. dielectric constant tensor:
#      x y z
#    x 1.805210 0.000000 0.000000 
#    y 0.000000 1.803010 0.000000 
#    z 0.000000 0.000000 1.797970 
# 
# From -- ./inp_files/17456.got.cif
#   From: 2010.03.12/outbox.cif.g09.slc.cpg/sg35_9_cif.got.tgz:17456.got - 2010.04.14 02:02:04.
