data_PCOD8173388
_publ_section_title
;
Structure prediction by ZEFSAII (Michael W. Deem and Ramdas Pophale) SiO2 
 PCOD8173388
Probable space group: C M M 2
;
_chemical_formula_sum "Si O2"
_cell_formula_units_Z 40
_cell_length_a 7.788481
_cell_length_b 18.456699
_cell_length_c 14.635750
_cell_angle_alpha 90.000000
_cell_angle_beta 90.000000
_cell_angle_gamma 90.000000
_cell_volume 2103.883932
_symmetry_space_group_name_H-M "C M M 2"
_symmetry_group_IT_number 35
_symmetry_cell_setting 'orthorhombic'
loop_
_space_group_symop_operation_xyz
x,y,z
-x,-y,z
-x,y,z
x,-y,z
1/2+x,1/2+y,z
1/2-x,1/2-y,z
1/2-x,1/2+y,z
1/2+x,1/2-y,z
loop_
_atom_site_type_symbol
_atom_site_label
_atom_site_fract_x
_atom_site_fract_y
_atom_site_fract_z
Si Si1 0.797092 0.581999 0.282660
Si Si2 0.500000 0.913289 0.599952
Si Si3 0.701439 0.833139 0.105240
Si Si4 0.000000 0.414112 0.804583
Si Si5 0.807652 0.083277 0.930546
Si Si6 0.810059 0.914152 0.478448
O O1 0.732702 0.500000 0.265450
O O2 0.732817 0.630888 0.198921
O O3 0.718192 0.615147 0.375661
O O4 0.000000 0.583832 0.293046
O O5 0.500000 0.881461 0.702537
O O6 0.668947 0.882711 0.548415
O O7 0.500000 0.000000 0.601147
O O8 0.500000 0.845387 0.091737
O O9 0.750000 0.750000 0.107970
O O10 0.799159 0.870511 0.022207
O O11 0.828933 0.386823 0.856700
O O12 0.000000 0.500000 0.798098
O O13 0.000000 0.090600 0.889478
O O14 0.764723 0.000000 0.954839
O O15 0.000000 0.891427 0.512616
O O16 0.788504 0.000000 0.474683
#
# Coordination Sequence:
#
# PCOD8173388 Si02
#       6
#     8   4   8   4   8   8
#     4   9  17  31  51  73 102 141 178 212 256 313
#     4   9  16  28  45  71 107 135 166 214 260 304
#     4  11  22  35  52  76 109 140 180 220 265 316
#     4   9  18  32  51  75 105 139 173 216 266 310
#     4  10  20  35  55  78 106 141 179 217 264 320
#     4   9  16  26  44  71 103 138 172 206 252 307
#
# _framework density 19.012454999999999
#
# number of rings (size 3 to 8) (size 9 to 14) (size 15 to 20)
#    0.000    2.400    2.000    1.200    0.000    3.200 
#    0.000    6.000    0.000    0.000    0.000    1.400 
#    0.000    0.000    0.000    0.000    0.000    0.000 
#
# Total GULP energy -247981.869064 kJ/mol
# GULP energy per Si atom -12399.093453 kJ/mol
# Density = 1.896918 g / cm^3
# Si number density = 19.012455 Si / 1000 Ang^3
#
#
#
# Elastic Constant Matrix: (Units=GPa)
#
#
# Indices 1 2 3 4 5 6 
#
# 1 129.8133 21.0814 77.5379 0.0000 0.0000 0.0000
# 2 21.0814 53.2801 38.4738 0.0000 0.0000 0.0000
# 3 77.5379 38.4738 165.0572 0.0000 0.0000 0.0000
# 4 0.0000 0.0000 0.0000 3.5195 0.0000 0.0000
# 5 0.0000 0.0000 0.0000 0.0000 15.5314 0.0000
# 6 0.0000 0.0000 0.0000 0.0000 0.0000 15.8164
#
#
#
# Elastic Compliance Matrix: (Units=1/GPa)
#
#
# Indices 1 2 3 4 5 6 
#
# 1 0.010731 -0.000728 -0.004871 0.000000 0.000000 0.000000
# 2 -0.000728 0.022617 -0.004930 0.000000 0.000000 0.000000
# 3 -0.004871 -0.004930 0.009496 0.000000 0.000000 0.000000
# 4 0.000000 0.000000 0.000000 0.284134 0.000000 0.000000
# 5 0.000000 0.000000 0.000000 0.000000 0.064386 0.000000
# 6 0.000000 0.000000 0.000000 0.000000 0.000000 0.063225
#
#
# Mechanical properties :
#
#
# Convention : Reuss Voigt Hill
#
# Bulk Modulus (GPa) = 45.90294 69.14853 57.52574
# Shear Modulus (GPa) = 10.35391 21.04397 15.69894
#
# Velocity S-wave (km/s) = 2.33617 3.33055 2.87665
# Velocity P-wave (km/s) = 5.61007 7.15815 6.43087
#
# Compressibility (1/GPa) = 0.02178510
#
# Stress axis : x y z
#
# Youngs Moduli (GPa) = 93.18469 44.21524 105.30771
#
# Poissons Ratio (x) = 0.03221 0.51300
# Poissons Ratio (y) = 0.06788 0.51913
# Poissons Ratio (z) = 0.45394 0.21796
#
# Static dielectric constant tensor:
#      x y z
#    x 3.638020 0.000000 0.000000 
#    y 0.000000 2.921140 0.000000 
#    z 0.000000 0.000000 3.620940 
# 
# 
# High freq. dielectric constant tensor:
#      x y z
#    x 1.753210 0.000000 0.000000 
#    y 0.000000 1.679580 0.000000 
#    z 0.000000 0.000000 1.738900 
# 
# From -- ./inp_files/11231.got.cif
#   From: 2010.03.12/outbox.cif.g09.slc.cpg/sg35_6_cif.got.tgz:11231.got - 2010.04.14 02:02:04.
