data_PCOD8173305
_publ_section_title
;
Structure prediction by ZEFSAII (Michael W. Deem and Ramdas Pophale) SiO2 
 PCOD8173305
Probable space group: C M M 2
;
_chemical_formula_sum "Si O2"
_cell_formula_units_Z 56
_cell_length_a 8.901775
_cell_length_b 18.295315
_cell_length_c 18.126512
_cell_angle_alpha 90.000000
_cell_angle_beta 90.000000
_cell_angle_gamma 90.000000
_cell_volume 2952.097841
_symmetry_space_group_name_H-M "C M M 2"
_symmetry_group_IT_number 35
_symmetry_cell_setting 'orthorhombic'
loop_
_space_group_symop_operation_xyz
x,y,z
-x,-y,z
-x,y,z
x,-y,z
1/2+x,1/2+y,z
1/2-x,1/2-y,z
1/2-x,1/2+y,z
1/2+x,1/2-y,z
loop_
_atom_site_type_symbol
_atom_site_label
_atom_site_fract_x
_atom_site_fract_y
_atom_site_fract_z
Si Si1 0.177774 0.170121 0.436480
Si Si2 0.323112 0.915999 0.018987
Si Si3 0.829904 0.086443 0.870244
Si Si4 0.324954 0.828206 0.580017
Si Si5 0.176582 0.328282 0.160899
Si Si6 0.174464 0.328360 0.742619
Si Si7 0.826388 0.585564 0.306745
O O1 0.250000 0.250000 0.424834
O O2 0.241045 0.131668 0.511907
O O3 0.221029 0.117737 0.369811
O O4 0.000000 0.178211 0.440949
O O5 0.500000 0.908295 0.007885
O O6 0.263934 0.868316 0.087430
O O7 0.278169 0.000000 0.033870
O O8 0.243642 0.884746 0.945859
O O9 0.740992 0.115455 0.800304
O O10 0.000000 0.114880 0.867089
O O11 0.819762 0.000000 0.867351
O O12 0.500000 0.821518 0.560563
O O13 0.250000 0.750000 0.585148
O O14 0.300563 0.864023 0.660801
O O15 0.250000 0.250000 0.169805
O O16 0.221891 0.377898 0.230078
O O17 0.000000 0.317627 0.156331
O O18 0.250000 0.250000 0.751170
O O19 0.000000 0.317044 0.758424
O O20 0.796222 0.500000 0.299430
O O21 0.000000 0.602190 0.325539
#
# Coordination Sequence:
#
# PCOD8173305 Si02
#       7
#     8   8   8   8   8   8   8
#     4  11  21  34  55  81 109 141 179 221 266 317
#     4   9  18  35  57  77 101 137 180 221 263 316
#     4  10  21  36  54  78 109 144 181 221 267 318
#     4   9  17  31  52  78 106 138 177 220 268 318
#     4  10  21  36  56  82 108 137 174 217 266 317
#     4  10  20  34  55  81 108 140 179 223 269 318
#     4  10  21  38  58  79 107 142 179 220 267 318
#
# _framework density 18.969560999999999
#
# number of rings (size 3 to 8) (size 9 to 14) (size 15 to 20)
#    0.000    2.143    0.000    4.286    0.000    7.429 
#    0.000    2.143    0.000    3.429    0.000    0.000 
#    0.000    0.000    0.000    0.000    0.000    0.000 
#
# Total GULP energy -347156.844531 kJ/mol
# GULP energy per Si atom -12398.458733 kJ/mol
# Density = 1.892639 g / cm^3
# Si number density = 18.969561 Si / 1000 Ang^3
#
#
#
# Elastic Constant Matrix: (Units=GPa)
#
#
# Indices 1 2 3 4 5 6 
#
# 1 112.9914 39.9259 78.1671 0.0000 0.0000 0.0000
# 2 39.9259 69.8662 57.7038 0.0000 0.0000 0.0000
# 3 78.1671 57.7038 179.5787 0.0000 0.0000 0.0000
# 4 0.0000 0.0000 0.0000 47.7674 0.0000 0.0000
# 5 0.0000 0.0000 0.0000 0.0000 -7.9997 0.0000
# 6 0.0000 0.0000 0.0000 0.0000 0.0000 27.1007
#
#
#
# Elastic Compliance Matrix: (Units=1/GPa)
#
#
# Indices 1 2 3 4 5 6 
#
# 1 0.013388 -0.003863 -0.004586 0.000000 0.000000 0.000000
# 2 -0.003863 0.020598 -0.004937 0.000000 0.000000 0.000000
# 3 -0.004586 -0.004937 0.009151 0.000000 0.000000 0.000000
# 4 0.000000 0.000000 0.000000 0.020935 0.000000 0.000000
# 5 0.000000 0.000000 0.000000 0.000000 -0.125005 0.000000
# 6 0.000000 0.000000 0.000000 0.000000 0.000000 0.036899
#
#
# Mechanical properties :
#
#
# Convention : Reuss Voigt Hill
#
# Bulk Modulus (GPa) = 61.10699 79.33666 70.22182
# Shear Modulus (GPa) = 610.09990 25.81632 317.95811
#
# Velocity S-wave (km/s) = 17.95324 3.69309 12.96066
# Velocity P-wave (km/s) = 21.49515 7.75236 16.15767
#
# Compressibility (1/GPa) = 0.01636474
#
# Stress axis : x y z
#
# Youngs Moduli (GPa) = 74.69408 48.54732 109.27223
#
# Poissons Ratio (x) = 0.18753 0.50115
# Poissons Ratio (y) = 0.28853 0.53953
# Poissons Ratio (z) = 0.34257 0.23970
#
# Static dielectric constant tensor:
#      x y z
#    x 3.614420 0.000000 0.000000 
#    y 0.000000 3.194320 0.000000 
#    z 0.000000 0.000000 4.082410 
# 
# 
# High freq. dielectric constant tensor:
#      x y z
#    x 1.742030 0.000000 0.000000 
#    y 0.000000 1.710170 0.000000 
#    z 0.000000 0.000000 1.760700 
# 
# From -- ./inp_files/15619.got.cif
#   From: 2010.03.12/outbox.cif.g09.slc.cpg/sg35_8_cif.got.tgz:15619.got - 2010.04.14 02:02:04.
