data_PCOD8173779
_publ_section_title
;
Structure prediction by ZEFSAII (Michael W. Deem and Ramdas Pophale) SiO2 
 PCOD8173779
Probable space group: C M M 2
;
_chemical_formula_sum "Si O2"
_cell_formula_units_Z 56
_cell_length_a 9.285970
_cell_length_b 18.678890
_cell_length_c 17.935615
_cell_angle_alpha 90.000000
_cell_angle_beta 90.000000
_cell_angle_gamma 90.000000
_cell_volume 3110.961337
_symmetry_space_group_name_H-M "C M M 2"
_symmetry_group_IT_number 35
_symmetry_cell_setting 'orthorhombic'
loop_
_space_group_symop_operation_xyz
x,y,z
-x,-y,z
-x,y,z
x,-y,z
1/2+x,1/2+y,z
1/2-x,1/2-y,z
1/2-x,1/2+y,z
1/2+x,1/2-y,z
loop_
_atom_site_type_symbol
_atom_site_label
_atom_site_fract_x
_atom_site_fract_y
_atom_site_fract_z
Si Si1 0.667813 0.081900 0.240630
Si Si2 0.328949 0.420216 0.938079
Si Si3 0.172196 0.174148 0.799879
Si Si4 0.334243 0.179856 0.541973
Si Si5 0.666464 0.083488 0.678806
Si Si6 0.831262 0.679134 0.374406
Si Si7 0.660083 0.585235 0.101099
O O1 0.500000 0.091744 0.227345
O O2 0.719212 0.118273 0.317133
O O3 0.743574 0.116721 0.168074
O O4 0.713233 0.000000 0.249207
O O5 0.500000 0.425515 0.939944
O O6 0.267200 0.500000 0.919608
O O7 0.277947 0.363301 0.876717
O O8 0.275569 0.393229 0.019728
O O9 0.250000 0.250000 0.793822
O O10 0.225792 0.123399 0.733963
O O11 0.000000 0.183723 0.794496
O O12 0.500000 0.202230 0.543468
O O13 0.250000 0.250000 0.569709
O O14 0.303395 0.113294 0.595994
O O15 0.287270 0.156446 0.458514
O O16 0.500000 0.096789 0.701961
O O17 0.704498 0.000000 0.678799
O O18 0.750000 0.750000 0.349726
O O19 0.000000 0.693500 0.368380
O O20 0.500000 0.616791 0.111279
O O21 0.656642 0.500000 0.104194
#
# Coordination Sequence:
#
# PCOD8173779 Si02
#       7
#     8   8   8   8   8   8   8
#     4   9  17  29  46  70  98 125 157 199 244 288
#     4   8  15  30  52  74  94 122 163 205 243 289
#     4  11  22  36  54  75 102 135 169 204 246 296
#     4   9  18  33  52  72  96 129 165 200 241 289
#     4  10  21  36  54  78 105 130 162 205 249 295
#     4   9  18  32  49  69  95 129 165 199 238 286
#     4   8  14  27  48  71  94 123 160 199 240 288
#
# _framework density 18.000867
#
# number of rings (size 3 to 8) (size 9 to 14) (size 15 to 20)
#    0.000    2.857    0.000    2.143    0.000    3.714 
#    0.000    5.000    0.000    6.857    0.000    6.000 
#    0.000    0.000    0.000    0.000    0.000    0.000 
#
# Total GULP energy -347092.314824 kJ/mol
# GULP energy per Si atom -12396.154101 kJ/mol
# Density = 1.795990 g / cm^3
# Si number density = 18.000867 Si / 1000 Ang^3
#
#
#
# Elastic Constant Matrix: (Units=GPa)
#
#
# Indices 1 2 3 4 5 6 
#
# 1 50.0985 42.8253 50.5332 0.0000 0.0000 0.0000
# 2 42.8253 103.3236 72.5706 0.0000 0.0000 0.0000
# 3 50.5332 72.5706 141.2640 0.0000 0.0000 0.0000
# 4 0.0000 0.0000 0.0000 19.4081 0.0000 0.0000
# 5 0.0000 0.0000 0.0000 0.0000 25.7929 0.0000
# 6 0.0000 0.0000 0.0000 0.0000 0.0000 20.1327
#
#
#
# Elastic Compliance Matrix: (Units=1/GPa)
#
#
# Indices 1 2 3 4 5 6 
#
# 1 0.036082 -0.009214 -0.008174 0.000000 0.000000 0.000000
# 2 -0.009214 0.017495 -0.005691 0.000000 0.000000 0.000000
# 3 -0.008174 -0.005691 0.012927 0.000000 0.000000 0.000000
# 4 0.000000 0.000000 0.000000 0.051525 0.000000 0.000000
# 5 0.000000 0.000000 0.000000 0.000000 0.038770 0.000000
# 6 0.000000 0.000000 0.000000 0.000000 0.000000 0.049670
#
#
# Mechanical properties :
#
#
# Convention : Reuss Voigt Hill
#
# Bulk Modulus (GPa) = 49.15282 69.61604 59.38443
# Shear Modulus (GPa) = 19.27460 21.65055 20.46257
#
# Velocity S-wave (km/s) = 3.27580 3.47183 3.37524
# Velocity P-wave (km/s) = 6.45545 7.40467 6.94630
#
# Compressibility (1/GPa) = 0.02034471
#
# Stress axis : x y z
#
# Youngs Moduli (GPa) = 27.71488 57.15987 77.35961
#
# Poissons Ratio (x) = 0.52668 0.63231
# Poissons Ratio (y) = 0.25537 0.44028
# Poissons Ratio (z) = 0.22653 0.32532
#
# Static dielectric constant tensor:
#      x y z
#    x 3.233750 0.000000 0.000000 
#    y 0.000000 3.304030 0.000000 
#    z 0.000000 0.000000 3.776550 
# 
# 
# High freq. dielectric constant tensor:
#      x y z
#    x 1.679910 0.000000 0.000000 
#    y 0.000000 1.676560 0.000000 
#    z 0.000000 0.000000 1.714090 
# 
# From -- ./inp_files/18228.got.cif
#   From: 2010.03.12/outbox.cif.g09.slc.cpg/sg35_10_cif.got.tgz:18228.got - 2010.04.14 02:02:04.
