data_PCOD8173208
_publ_section_title
;
Structure prediction by ZEFSAII (Michael W. Deem and Ramdas Pophale) SiO2 
 PCOD8173208
Probable space group: C M M 2
;
_chemical_formula_sum "Si O2"
_cell_formula_units_Z 48
_cell_length_a 8.818861
_cell_length_b 30.011835
_cell_length_c 10.008734
_cell_angle_alpha 90.000000
_cell_angle_beta 90.000000
_cell_angle_gamma 90.000000
_cell_volume 2649.013642
_symmetry_space_group_name_H-M "C M M 2"
_symmetry_group_IT_number 35
_symmetry_cell_setting 'orthorhombic'
loop_
_space_group_symop_operation_xyz
x,y,z
-x,-y,z
-x,y,z
x,-y,z
1/2+x,1/2+y,z
1/2-x,1/2-y,z
1/2-x,1/2+y,z
1/2+x,1/2-y,z
loop_
_atom_site_type_symbol
_atom_site_label
_atom_site_fract_x
_atom_site_fract_y
_atom_site_fract_z
Si Si1 0.333986 0.207508 0.539770
Si Si2 0.818379 0.610432 0.524627
Si Si3 0.820821 0.114557 0.238741
Si Si4 0.330433 0.206210 0.222799
Si Si5 0.675397 0.052395 0.024958
Si Si6 0.826561 0.947597 0.749454
O O1 0.500000 0.209473 0.602612
O O2 0.250000 0.250000 0.603578
O O3 0.260982 0.159402 0.574803
O O4 0.339445 0.211582 0.381003
O O5 0.757543 0.600939 0.377022
O O6 0.752173 0.573608 0.621425
O O7 0.000000 0.608756 0.519903
O O8 0.764041 0.162313 0.184305
O O9 0.777115 0.076800 0.133773
O O10 0.000000 0.116336 0.258878
O O11 0.500000 0.202101 0.163162
O O12 0.250000 0.250000 0.160839
O O13 0.500000 0.066208 0.039023
O O14 0.698568 0.000000 0.046019
O O15 0.734262 0.067298 0.879855
O O16 0.000000 0.931493 0.762652
O O17 0.817488 0.000000 0.728113
#
# Coordination Sequence:
#
# PCOD8173208 Si02
#       6
#     8   8   8   8   8   8
#     4   8  15  26  43  68  98 131 166 204 245 293
#     4  10  20  34  52  77 107 138 174 214 257 306
#     4  11  21  33  52  79 109 139 173 217 265 307
#     4   9  16  28  46  71 103 137 173 211 254 306
#     4  10  21  38  58  77 100 135 175 213 259 317
#     4  10  21  37  56  78 103 133 171 213 259 314
#
# _framework density 18.119952000000001
#
# number of rings (size 3 to 8) (size 9 to 14) (size 15 to 20)
#    0.000    2.333    0.000    4.500    0.000    7.333 
#    0.000    0.000    0.000    1.000    0.000    4.667 
#    0.000    0.000    0.000    0.000    0.000    0.000 
#
# Total GULP energy -297552.549658 kJ/mol
# GULP energy per Si atom -12398.022902 kJ/mol
# Density = 1.807871 g / cm^3
# Si number density = 18.119952 Si / 1000 Ang^3
#
#
#
# Elastic Constant Matrix: (Units=GPa)
#
#
# Indices 1 2 3 4 5 6 
#
# 1 98.6413 42.0928 19.4148 0.0000 0.0000 0.0000
# 2 42.0928 67.6103 44.1961 0.0000 0.0000 0.0000
# 3 19.4148 44.1961 59.7334 0.0000 0.0000 0.0000
# 4 0.0000 0.0000 0.0000 -2.2532 0.0000 0.0000
# 5 0.0000 0.0000 0.0000 0.0000 25.6643 0.0000
# 6 0.0000 0.0000 0.0000 0.0000 0.0000 34.4589
#
#
#
# Elastic Compliance Matrix: (Units=1/GPa)
#
#
# Indices 1 2 3 4 5 6 
#
# 1 0.014223 -0.011297 0.003736 0.000000 0.000000 0.000000
# 2 -0.011297 0.037618 -0.024161 0.000000 0.000000 0.000000
# 3 0.003736 -0.024161 0.033403 0.000000 0.000000 0.000000
# 4 0.000000 0.000000 0.000000 -0.443813 0.000000 0.000000
# 5 0.000000 0.000000 0.000000 0.000000 0.038965 0.000000
# 6 0.000000 0.000000 0.000000 0.000000 0.000000 0.029020
#
#
# Mechanical properties :
#
#
# Convention : Reuss Voigt Hill
#
# Bulk Modulus (GPa) = 45.87291 48.59917 47.23604
# Shear Modulus (GPa) = -22.74057 19.59274 -1.57392
#
# Velocity S-wave (km/s) = -3.54644 3.29185 -0.93300
# Velocity P-wave (km/s) = 2.93284 6.42864 4.99644
#
# Compressibility (1/GPa) = 0.02179936
#
# Stress axis : x y z
#
# Youngs Moduli (GPa) = 70.30754 26.58309 29.93698
#
# Poissons Ratio (x) = 0.30031 -0.11184
# Poissons Ratio (y) = 0.79427 0.72331
# Poissons Ratio (z) = -0.26265 0.64228
#
# Static dielectric constant tensor:
#      x y z
#    x 3.592450 0.000000 0.000000 
#    y 0.000000 3.542460 0.000000 
#    z 0.000000 0.000000 2.961720 
# 
# 
# High freq. dielectric constant tensor:
#      x y z
#    x 1.717670 0.000000 0.000000 
#    y 0.000000 1.711280 0.000000 
#    z 0.000000 0.000000 1.659510 
# 
# From -- ./inp_files/5318.got.cif
#   From: 2010.03.12/outbox.cif.g09.slc.cpg/sg35_3_cif.got.tgz:5318.got - 2010.04.14 02:02:04.
