data_PCOD8173086
_publ_section_title
;
Structure prediction by ZEFSAII (Michael W. Deem and Ramdas Pophale) SiO2 
 PCOD8173086
Probable space group: C M M 2
;
_chemical_formula_sum "Si O2"
_cell_formula_units_Z 48
_cell_length_a 18.652247
_cell_length_b 9.106585
_cell_length_c 15.368062
_cell_angle_alpha 90.000000
_cell_angle_beta 90.000000
_cell_angle_gamma 90.000000
_cell_volume 2610.392467
_symmetry_space_group_name_H-M "C M M 2"
_symmetry_group_IT_number 35
_symmetry_cell_setting 'orthorhombic'
loop_
_space_group_symop_operation_xyz
x,y,z
-x,-y,z
-x,y,z
x,-y,z
1/2+x,1/2+y,z
1/2-x,1/2-y,z
1/2-x,1/2+y,z
1/2+x,1/2-y,z
loop_
_atom_site_type_symbol
_atom_site_label
_atom_site_fract_x
_atom_site_fract_y
_atom_site_fract_z
Si Si1 0.420887 0.673372 0.421250
Si Si2 0.917954 0.171510 0.099398
Si Si3 0.081711 0.327536 0.926160
Si Si4 0.083986 0.169304 0.617471
Si Si5 0.326363 0.173909 0.761180
Si Si6 0.825651 0.174091 0.264389
O O1 0.500000 0.741115 0.404039
O O2 0.426941 0.500000 0.410293
O O3 0.395144 0.711733 0.518593
O O4 0.364909 0.735540 0.350919
O O5 0.871944 0.223151 0.181473
O O6 0.000000 0.215535 0.118324
O O7 0.909889 0.000000 0.082537
O O8 0.888791 0.252387 0.013569
O O9 0.086742 0.500000 0.939637
O O10 0.130422 0.274754 0.846380
O O11 0.000000 0.277930 0.907116
O O12 0.129541 0.276395 0.677285
O O13 0.000000 0.196355 0.633593
O O14 0.103610 0.000000 0.636962
O O15 0.250000 0.250000 0.762597
O O16 0.316464 0.000000 0.757661
O O17 0.750000 0.250000 0.256844
O O18 0.815709 0.000000 0.268110
#
# Coordination Sequence:
#
# PCOD8173086 Si02
#       6
#     8   8   8   8   8   8
#     4   8  15  31  55  78 100 131 171 211 249 294
#     4   9  18  33  54  77  98 127 170 213 249 292
#     4   9  19  36  56  76  99 130 167 209 259 309
#     4   9  18  34  57  82 105 133 172 215 259 308
#     4  11  23  37  53  75 106 141 175 212 258 310
#     4  10  20  33  50  74 105 137 168 204 249 300
#
# _framework density 18.38804
#
# number of rings (size 3 to 8) (size 9 to 14) (size 15 to 20)
#    0.000    2.667    0.000    2.500    0.000    6.333 
#    0.000    7.500    0.000    2.500    0.000    0.000 
#    0.000    0.000    0.000    0.000    0.000    0.000 
#
# Total GULP energy -297607.188461 kJ/mol
# GULP energy per Si atom -12400.299519 kJ/mol
# Density = 1.834619 g / cm^3
# Si number density = 18.388040 Si / 1000 Ang^3
#
#
#
# Elastic Constant Matrix: (Units=GPa)
#
#
# Indices 1 2 3 4 5 6 
#
# 1 114.7356 41.5029 92.5527 0.0000 0.0000 0.0000
# 2 41.5029 40.2574 49.8999 0.0000 0.0000 0.0000
# 3 92.5527 49.8999 170.3286 0.0000 0.0000 0.0000
# 4 0.0000 0.0000 0.0000 26.6254 0.0000 0.0000
# 5 0.0000 0.0000 0.0000 0.0000 10.1782 0.0000
# 6 0.0000 0.0000 0.0000 0.0000 0.0000 24.5397
#
#
#
# Elastic Compliance Matrix: (Units=1/GPa)
#
#
# Indices 1 2 3 4 5 6 
#
# 1 0.017740 -0.009956 -0.006723 0.000000 0.000000 0.000000
# 2 -0.009956 0.044591 -0.007654 0.000000 0.000000 0.000000
# 3 -0.006723 -0.007654 0.011766 0.000000 0.000000 0.000000
# 4 0.000000 0.000000 0.000000 0.037558 0.000000 0.000000
# 5 0.000000 0.000000 0.000000 0.000000 0.098249 0.000000
# 6 0.000000 0.000000 0.000000 0.000000 0.000000 0.040750
#
#
# Mechanical properties :
#
#
# Convention : Reuss Voigt Hill
#
# Bulk Modulus (GPa) = 39.31976 77.02585 58.17280
# Shear Modulus (GPa) = 16.24450 21.69308 18.96879
#
# Velocity S-wave (km/s) = 2.97548 3.43846 3.21531
# Velocity P-wave (km/s) = 5.76492 7.59895 6.74457
#
# Compressibility (1/GPa) = 0.02543251
#
# Stress axis : x y z
#
# Youngs Moduli (GPa) = 56.36977 22.42616 84.98840
#
# Poissons Ratio (x) = 0.22327 0.57137
# Poissons Ratio (y) = 0.56120 0.65048
# Poissons Ratio (z) = 0.37897 0.17164
#
# Static dielectric constant tensor:
#      x y z
#    x 3.471630 0.000000 0.000000 
#    y 0.000000 3.125300 0.000000 
#    z 0.000000 0.000000 3.636680 
# 
# 
# High freq. dielectric constant tensor:
#      x y z
#    x 1.711680 0.000000 0.000000 
#    y 0.000000 1.689150 0.000000 
#    z 0.000000 0.000000 1.728090 
# 
# From -- ./inp_files/15119.got.cif
#   From: 2010.03.12/outbox.cif.g09.slc.cpg/sg35_8_cif.got.tgz:15119.got - 2010.04.14 02:02:04.
