data_PCOD8173432
_publ_section_title
;
Structure prediction by ZEFSAII (Michael W. Deem and Ramdas Pophale) SiO2 
 PCOD8173432
Probable space group: C M M 2
;
_chemical_formula_sum "Si O2"
_cell_formula_units_Z 56
_cell_length_a 20.375807
_cell_length_b 9.093797
_cell_length_c 14.532816
_cell_angle_alpha 90.000000
_cell_angle_beta 90.000000
_cell_angle_gamma 90.000000
_cell_volume 2692.835652
_symmetry_space_group_name_H-M "C M M 2"
_symmetry_group_IT_number 35
_symmetry_cell_setting 'orthorhombic'
loop_
_space_group_symop_operation_xyz
x,y,z
-x,-y,z
-x,y,z
x,-y,z
1/2+x,1/2+y,z
1/2-x,1/2-y,z
1/2-x,1/2+y,z
1/2+x,1/2-y,z
loop_
_atom_site_type_symbol
_atom_site_label
_atom_site_fract_x
_atom_site_fract_y
_atom_site_fract_z
Si Si1 0.680677 0.172461 0.054280
Si Si2 0.122841 0.672309 0.857239
Si Si3 0.000000 0.174917 0.785872
Si Si4 0.184785 0.829082 0.333977
Si Si5 0.873604 0.661639 0.494245
Si Si6 0.000000 0.323853 0.583211
Si Si7 0.193405 0.343181 0.680897
Si Si8 0.922459 0.828113 0.183280
O O1 0.750000 0.250000 0.080789
O O2 0.617118 0.237516 0.106526
O O3 0.687304 0.000000 0.077685
O O4 0.665339 0.200895 0.947866
O O5 0.103903 0.500000 0.846624
O O6 0.058865 0.772312 0.851405
O O7 0.164798 0.732468 0.771600
O O8 0.000000 0.245318 0.683214
O O9 0.000000 0.000000 0.774896
O O10 0.250000 0.750000 0.292053
O O11 0.172707 0.770425 0.437079
O O12 0.118052 0.796626 0.277193
O O13 0.201323 0.000000 0.338025
O O14 0.872018 0.500000 0.446089
O O15 0.944792 0.728654 0.510618
O O16 0.858282 0.640467 0.601318
O O17 0.000000 0.500000 0.600602
O O18 0.221861 0.500000 0.711790
O O19 0.250000 0.250000 0.635493
O O20 0.000000 0.779004 0.191220
O O21 0.919311 0.000000 0.158276
#
# Coordination Sequence:
#
# PCOD8173432 Si02
#       8
#     8   8   4   8   8   4   8   8
#     4  11  24  42  69  99 128 167 212 262 319 380
#     4  10  22  41  61  84 123 168 207 253 310 373
#     4  12  24  36  58  91 122 163 214 263 312 364
#     4  11  24  42  66  93 127 167 208 259 317 377
#     4  10  21  37  61  89 120 163 208 253 310 368
#     4  10  20  40  62  83 122 169 208 253 314 376
#     4  10  20  35  56  81 116 159 200 246 300 357
#     4  10  24  46  69  95 131 168 204 259 324 380
#
# _framework density 20.795919999999999
#
# number of rings (size 3 to 8) (size 9 to 14) (size 15 to 20)
#    0.000    1.571    1.429    2.786    2.000    6.571 
#    0.000    0.000    0.000    0.000    0.000    0.000 
#    0.000    0.000    0.000    0.000    0.000    0.000 
#
# Total GULP energy -346869.491414 kJ/mol
# GULP energy per Si atom -12388.196122 kJ/mol
# Density = 2.074859 g / cm^3
# Si number density = 20.795920 Si / 1000 Ang^3
#
#
#
# Elastic Constant Matrix: (Units=GPa)
#
#
# Indices 1 2 3 4 5 6 
#
# 1 157.5848 62.0866 39.3987 0.0000 0.0000 0.0000
# 2 62.0866 99.3325 38.0839 0.0000 0.0000 0.0000
# 3 39.3987 38.0839 89.2294 0.0000 0.0000 0.0000
# 4 0.0000 0.0000 0.0000 26.6325 0.0000 0.0000
# 5 0.0000 0.0000 0.0000 0.0000 33.2359 0.0000
# 6 0.0000 0.0000 0.0000 0.0000 0.0000 30.4746
#
#
#
# Elastic Compliance Matrix: (Units=1/GPa)
#
#
# Indices 1 2 3 4 5 6 
#
# 1 0.008657 -0.004717 -0.001809 0.000000 0.000000 0.000000
# 2 -0.004717 0.014607 -0.004152 0.000000 0.000000 0.000000
# 3 -0.001809 -0.004152 0.013778 0.000000 0.000000 0.000000
# 4 0.000000 0.000000 0.000000 0.037548 0.000000 0.000000
# 5 0.000000 0.000000 0.000000 0.000000 0.030088 0.000000
# 6 0.000000 0.000000 0.000000 0.000000 0.000000 0.032814
#
#
# Mechanical properties :
#
#
# Convention : Reuss Voigt Hill
#
# Bulk Modulus (GPa) = 63.75069 69.47612 66.61340
# Shear Modulus (GPa) = 30.47363 31.84042 31.15702
#
# Velocity S-wave (km/s) = 3.83216 3.91716 3.87489
# Velocity P-wave (km/s) = 7.09243 7.34438 7.21950
#
# Compressibility (1/GPa) = 0.01568610
#
# Stress axis : x y z
#
# Youngs Moduli (GPa) = 115.51947 68.45871 72.58066
#
# Poissons Ratio (x) = 0.32293 0.13129
# Poissons Ratio (y) = 0.54492 0.30133
# Poissons Ratio (z) = 0.20897 0.28422
#
# Static dielectric constant tensor:
#      x y z
#    x 6.472410 0.000000 0.000000 
#    y 0.000000 3.765240 0.000000 
#    z 0.000000 0.000000 3.654120 
# 
# 
# High freq. dielectric constant tensor:
#      x y z
#    x 1.828550 0.000000 0.000000 
#    y 0.000000 1.806550 0.000000 
#    z 0.000000 0.000000 1.812790 
# 
# From -- ./inp_files/17476.got.cif
#   From: 2010.03.12/outbox.cif.g09.slc.cpg/sg35_9_cif.got.tgz:17476.got - 2010.04.14 02:02:04.
