data_PCOD8173965
_publ_section_title
;
Structure prediction by ZEFSAII (Michael W. Deem and Ramdas Pophale) SiO2 
 PCOD8173965
Probable space group: C M M 2
;
_chemical_formula_sum "Si O2"
_cell_formula_units_Z 48
_cell_length_a 34.257437
_cell_length_b 8.421264
_cell_length_c 7.879896
_cell_angle_alpha 90.000000
_cell_angle_beta 90.000000
_cell_angle_gamma 90.000000
_cell_volume 2273.278454
_symmetry_space_group_name_H-M "C M M 2"
_symmetry_group_IT_number 35
_symmetry_cell_setting 'orthorhombic'
loop_
_space_group_symop_operation_xyz
x,y,z
-x,-y,z
-x,y,z
x,-y,z
1/2+x,1/2+y,z
1/2-x,1/2-y,z
1/2-x,1/2+y,z
1/2+x,1/2-y,z
loop_
_atom_site_type_symbol
_atom_site_label
_atom_site_fract_x
_atom_site_fract_y
_atom_site_fract_z
Si Si1 0.661165 0.180435 0.534290
Si Si2 0.000000 0.679043 0.998308
Si Si3 0.343995 0.186369 0.144376
Si Si4 0.292952 0.315013 0.844464
Si Si5 0.500000 0.320376 0.659920
Si Si6 0.425541 0.820540 0.496671
Si Si7 0.925633 0.179503 0.149141
O O1 0.666637 0.241126 0.338091
O O2 0.684589 0.286840 0.667565
O O3 0.615859 0.189539 0.593317
O O4 0.676573 0.000000 0.548748
O O5 0.039243 0.702484 0.104651
O O6 0.000000 0.500000 0.924584
O O7 0.000000 0.819094 0.861290
O O8 0.383865 0.266352 0.075340
O O9 0.351397 0.000000 0.149598
O O10 0.310733 0.228622 0.009628
O O11 0.292525 0.500000 0.884688
O O12 0.250000 0.250000 0.818054
O O13 0.500000 0.500000 0.588606
O O14 0.538661 0.223860 0.614914
O O15 0.423499 0.689548 0.351071
O O16 0.431084 0.000000 0.425985
O O17 0.934325 0.000000 0.090839
#
# Coordination Sequence:
#
# PCOD8173965 Si02
#       7
#     8   4   8   8   4   8   8
#     4   9  21  42  68  95 126 166 212 261 314 378
#     4  12  25  40  57  82 120 166 210 256 311 370
#     4  10  22  43  69  96 129 169 214 261 318 383
#     4  12  26  43  67  97 131 168 208 259 319 382
#     4  12  25  38  55  86 124 160 208 264 311 362
#     4  10  21  40  63  87 119 164 209 251 310 375
#     4  11  22  39  62  90 122 159 207 260 311 365
#
# _framework density 21.114878999999998
#
# number of rings (size 3 to 8) (size 9 to 14) (size 15 to 20)
#    0.000    1.333    0.000    7.000    2.333    4.667 
#    0.000    0.000    0.000    0.000    0.000    0.000 
#    0.000    0.000    0.000    0.000    0.000    0.000 
#
# Total GULP energy -297521.369527 kJ/mol
# GULP energy per Si atom -12396.723730 kJ/mol
# Density = 2.106682 g / cm^3
# Si number density = 21.114879 Si / 1000 Ang^3
#
#
#
# Elastic Constant Matrix: (Units=GPa)
#
#
# Indices 1 2 3 4 5 6 
#
# 1 134.0616 31.9272 52.8791 0.0000 0.0000 0.0000
# 2 31.9272 98.4609 24.9835 0.0000 0.0000 0.0000
# 3 52.8791 24.9835 92.3119 0.0000 0.0000 0.0000
# 4 0.0000 0.0000 0.0000 33.8464 0.0000 0.0000
# 5 0.0000 0.0000 0.0000 0.0000 36.8390 0.0000
# 6 0.0000 0.0000 0.0000 0.0000 0.0000 26.4409
#
#
#
# Elastic Compliance Matrix: (Units=1/GPa)
#
#
# Indices 1 2 3 4 5 6 
#
# 1 0.009961 -0.001914 -0.005188 0.000000 0.000000 0.000000
# 2 -0.001914 0.011273 -0.001955 0.000000 0.000000 0.000000
# 3 -0.005188 -0.001955 0.014334 0.000000 0.000000 0.000000
# 4 0.000000 0.000000 0.000000 0.029545 0.000000 0.000000
# 5 0.000000 0.000000 0.000000 0.000000 0.027145 0.000000
# 6 0.000000 0.000000 0.000000 0.000000 0.000000 0.037820
#
#
# Mechanical properties :
#
#
# Convention : Reuss Voigt Hill
#
# Bulk Modulus (GPa) = 57.29067 60.49042 58.89054
# Shear Modulus (GPa) = 32.46534 33.76157 33.11345
#
# Velocity S-wave (km/s) = 3.92542 4.00302 3.96441
# Velocity P-wave (km/s) = 6.90920 7.07644 6.99332
#
# Compressibility (1/GPa) = 0.01745485
#
# Stress axis : x y z
#
# Youngs Moduli (GPa) = 100.38673 88.70886 69.76471
#
# Poissons Ratio (x) = 0.16976 0.36196
# Poissons Ratio (y) = 0.19211 0.13637
# Poissons Ratio (z) = 0.52084 0.17340
#
# Static dielectric constant tensor:
#      x y z
#    x 4.395610 0.000000 0.000000 
#    y 0.000000 3.698530 0.000000 
#    z 0.000000 0.000000 3.674930 
# 
# 
# High freq. dielectric constant tensor:
#      x y z
#    x 1.833730 0.000000 0.000000 
#    y 0.000000 1.832720 0.000000 
#    z 0.000000 0.000000 1.820320 
# 
# From -- ./inp_files/10498.got.cif
#   From: 2010.03.12/outbox.cif.g09.slc.cpg/sg35_6_cif.got.tgz:10498.got - 2010.04.14 02:02:04.
