data_PCOD8173876
_publ_section_title
;
Structure prediction by ZEFSAII (Michael W. Deem and Ramdas Pophale) SiO2 
 PCOD8173876
Probable space group: C M M 2
;
_chemical_formula_sum "Si O2"
_cell_formula_units_Z 32
_cell_length_a 28.289378
_cell_length_b 8.911793
_cell_length_c 6.908452
_cell_angle_alpha 90.000000
_cell_angle_beta 90.000000
_cell_angle_gamma 90.000000
_cell_volume 1741.683484
_symmetry_space_group_name_H-M "C M M 2"
_symmetry_group_IT_number 35
_symmetry_cell_setting 'orthorhombic'
loop_
_space_group_symop_operation_xyz
x,y,z
-x,-y,z
-x,y,z
x,-y,z
1/2+x,1/2+y,z
1/2-x,1/2-y,z
1/2-x,1/2+y,z
1/2+x,1/2-y,z
loop_
_atom_site_type_symbol
_atom_site_label
_atom_site_fract_x
_atom_site_fract_y
_atom_site_fract_z
Si Si1 0.127441 0.175919 0.816720
Si Si2 0.700065 0.173630 0.543137
Si Si3 0.375439 0.829342 0.217543
Si Si4 0.054239 0.674334 0.550841
O O1 0.173048 0.254011 0.723838
O O2 0.079015 0.230876 0.718832
O O3 0.132485 0.000000 0.787957
O O4 0.125810 0.213868 0.042514
O O5 0.750000 0.250000 0.511560
O O6 0.670771 0.197190 0.347206
O O7 0.707187 0.000000 0.591778
O O8 0.421917 0.793392 0.343945
O O9 0.377084 0.000000 0.139733
O O10 0.060176 0.500000 0.605361
O O11 0.000000 0.723853 0.537822
#
# Coordination Sequence:
#
# PCOD8173876 Si02
#       4
#     8   8   8   8
#     4  11  22  35  54  81 113 145 177 218 267 319
#     4  10  21  38  59  81 107 140 179 223 268 316
#     4   9  19  36  56  79 108 142 181 222 265 317
#     4   9  19  37  59  80 105 141 183 225 268 316
#
# _framework density 18.37303
#
# number of rings (size 3 to 8) (size 9 to 14) (size 15 to 20)
#    0.000    2.250    0.000    4.500    0.000    7.500 
#    0.000    5.000    0.000    0.000    0.000    0.000 
#    0.000    0.000    0.000    0.000    0.000    0.000 
#
# Total GULP energy -198465.646492 kJ/mol
# GULP energy per Si atom -12404.102906 kJ/mol
# Density = 1.833121 g / cm^3
# Si number density = 18.373030 Si / 1000 Ang^3
#
#
#
# Elastic Constant Matrix: (Units=GPa)
#
#
# Indices 1 2 3 4 5 6 
#
# 1 156.2536 65.8425 50.0154 0.0000 0.0000 0.0000
# 2 65.8425 127.8750 60.2311 0.0000 0.0000 0.0000
# 3 50.0154 60.2311 105.0557 0.0000 0.0000 0.0000
# 4 0.0000 0.0000 0.0000 28.1026 0.0000 0.0000
# 5 0.0000 0.0000 0.0000 0.0000 11.4311 0.0000
# 6 0.0000 0.0000 0.0000 0.0000 0.0000 31.9340
#
#
#
# Elastic Compliance Matrix: (Units=1/GPa)
#
#
# Indices 1 2 3 4 5 6 
#
# 1 0.008500 -0.003385 -0.002106 0.000000 0.000000 0.000000
# 2 -0.003385 0.012061 -0.005303 0.000000 0.000000 0.000000
# 3 -0.002106 -0.005303 0.013562 0.000000 0.000000 0.000000
# 4 0.000000 0.000000 0.000000 0.035584 0.000000 0.000000
# 5 0.000000 0.000000 0.000000 0.000000 0.087480 0.000000
# 6 0.000000 0.000000 0.000000 0.000000 0.000000 0.031315
#
#
# Mechanical properties :
#
#
# Convention : Reuss Voigt Hill
#
# Bulk Modulus (GPa) = 79.78005 82.37359 81.07682
# Shear Modulus (GPa) = 23.33513 28.49990 25.91751
#
# Velocity S-wave (km/s) = 3.56768 3.94278 3.75991
# Velocity P-wave (km/s) = 7.77739 8.10300 7.94186
#
# Compressibility (1/GPa) = 0.01253446
#
# Stress axis : x y z
#
# Youngs Moduli (GPa) = 117.64265 82.91261 73.73458
#
# Poissons Ratio (x) = 0.28063 0.15531
# Poissons Ratio (y) = 0.39818 0.39105
# Poissons Ratio (z) = 0.24780 0.43972
#
# Static dielectric constant tensor:
#      x y z
#    x 3.532800 0.000000 0.000000 
#    y 0.000000 3.358370 0.000000 
#    z 0.000000 0.000000 3.240650 
# 
# 
# High freq. dielectric constant tensor:
#      x y z
#    x 1.718390 0.000000 0.000000 
#    y 0.000000 1.714080 0.000000 
#    z 0.000000 0.000000 1.710240 
# 
# From -- ./inp_files/527.got.cif
#   From: 2010.03.12/outbox.cif.g09.slc.cpg/sg35_1_cif.got.tgz:527.got - 2010.04.14 02:02:04.
