data_PCOD8173263
_publ_section_title
;
Structure prediction by ZEFSAII (Michael W. Deem and Ramdas Pophale) SiO2 
 PCOD8173263
Probable space group: C M M 2
;
_chemical_formula_sum "Si O2"
_cell_formula_units_Z 64
_cell_length_a 27.162955
_cell_length_b 9.055167
_cell_length_c 13.035716
_cell_angle_alpha 90.000000
_cell_angle_beta 90.000000
_cell_angle_gamma 90.000000
_cell_volume 3206.331108
_symmetry_space_group_name_H-M "C M M 2"
_symmetry_group_IT_number 35
_symmetry_cell_setting 'orthorhombic'
loop_
_space_group_symop_operation_xyz
x,y,z
-x,-y,z
-x,y,z
x,-y,z
1/2+x,1/2+y,z
1/2-x,1/2-y,z
1/2-x,1/2+y,z
1/2+x,1/2-y,z
loop_
_atom_site_type_symbol
_atom_site_label
_atom_site_fract_x
_atom_site_fract_y
_atom_site_fract_z
Si Si1 0.898635 0.831259 0.938920
Si Si2 0.700218 0.170433 0.459082
Si Si3 0.058348 0.834035 0.329721
Si Si4 0.197628 0.674693 0.231213
Si Si5 0.941519 0.665937 0.130446
Si Si6 0.800604 0.169877 0.040060
Si Si7 0.096458 0.672684 0.529538
Si Si8 0.442665 0.669116 0.726724
O O1 0.839382 0.818291 0.946921
O O2 0.913512 0.773849 0.826442
O O3 0.916164 0.000000 0.952550
O O4 0.926875 0.738296 0.023754
O O5 0.750000 0.250000 0.495015
O O6 0.680961 0.220843 0.345622
O O7 0.655350 0.204439 0.535565
O O8 0.714404 0.000000 0.454930
O O9 0.080585 0.750091 0.230357
O O10 0.072668 0.752834 0.433504
O O11 0.000000 0.838062 0.322386
O O12 0.079830 0.000000 0.331064
O O13 0.199171 0.500000 0.217657
O O14 0.250000 0.750000 0.210324
O O15 0.169189 0.750345 0.135537
O O16 0.920198 0.500000 0.135612
O O17 0.000000 0.665243 0.137237
O O18 0.750000 0.250000 0.006530
O O19 0.789061 0.000000 0.067763
O O20 0.086211 0.500000 0.515984
O O21 0.072146 0.728244 0.632857
O O22 0.500000 0.687042 0.749299
O O23 0.429192 0.500000 0.699749
#
# Coordination Sequence:
#
# PCOD8173263 Si02
#       8
#     8   8   8   8   8   8   8   8
#     4  10  22  39  60  85 113 150 197 242 288 346
#     4   9  20  36  54  80 114 152 191 234 284 339
#     4  10  21  37  57  83 116 154 194 233 282 348
#     4   9  16  29  49  74 107 147 186 226 274 329
#     4  10  21  36  56  85 119 151 185 232 293 353
#     4  10  20  34  53  81 114 150 192 235 284 338
#     4  11  23  38  58  87 119 150 191 242 297 348
#     4  10  22  42  65  86 111 149 197 245 292 347
#
# _framework density 19.960507
#
# number of rings (size 3 to 8) (size 9 to 14) (size 15 to 20)
#    0.000    2.125    0.000    3.375    1.750    6.750 
#    0.000    0.625    0.000    3.000    0.000    0.000 
#    0.000    0.000    0.000    0.000    0.000    0.000 
#
# Total GULP energy -396717.219483 kJ/mol
# GULP energy per Si atom -12397.413109 kJ/mol
# Density = 1.991508 g / cm^3
# Si number density = 19.960507 Si / 1000 Ang^3
#
#
#
# Elastic Constant Matrix: (Units=GPa)
#
#
# Indices 1 2 3 4 5 6 
#
# 1 46.5992 28.1624 34.5504 0.0000 0.0000 0.0000
# 2 28.1624 127.5097 64.4563 0.0000 0.0000 0.0000
# 3 34.5504 64.4563 122.2786 0.0000 0.0000 0.0000
# 4 0.0000 0.0000 0.0000 -42.2265 0.0000 0.0000
# 5 0.0000 0.0000 0.0000 0.0000 51.8840 0.0000
# 6 0.0000 0.0000 0.0000 0.0000 0.0000 24.2156
#
#
#
# Elastic Compliance Matrix: (Units=1/GPa)
#
#
# Indices 1 2 3 4 5 6 
#
# 1 0.027950 -0.002973 -0.006330 0.000000 0.000000 0.000000
# 2 -0.002973 0.011008 -0.004962 0.000000 0.000000 0.000000
# 3 -0.006330 -0.004962 0.012582 0.000000 0.000000 0.000000
# 4 0.000000 0.000000 0.000000 -0.023682 0.000000 0.000000
# 5 0.000000 0.000000 0.000000 0.000000 0.019274 0.000000
# 6 0.000000 0.000000 0.000000 0.000000 0.000000 0.041296
#
#
# Mechanical properties :
#
#
# Convention : Reuss Voigt Hill
#
# Bulk Modulus (GPa) = 43.46204 61.19175 52.32689
# Shear Modulus (GPa) = 40.11921 18.05584 29.08752
#
# Velocity S-wave (km/s) = 4.48809 3.01088 3.82154
# Velocity P-wave (km/s) = 6.97700 6.54295 6.76346
#
# Compressibility (1/GPa) = 0.02300858
#
# Stress axis : x y z
#
# Youngs Moduli (GPa) = 35.77839 90.84545 79.47593
#
# Poissons Ratio (x) = 0.27011 0.50309
# Poissons Ratio (y) = 0.10638 0.39439
# Poissons Ratio (z) = 0.22648 0.45081
#
# Static dielectric constant tensor:
#      x y z
#    x 3.501350 0.000000 0.000000 
#    y 0.000000 3.831300 0.000000 
#    z 0.000000 0.000000 3.652570 
# 
# 
# High freq. dielectric constant tensor:
#      x y z
#    x 1.784590 0.000000 0.000000 
#    y 0.000000 1.785200 0.000000 
#    z 0.000000 0.000000 1.764930 
# 
# From -- ./inp_files/14543.got.cif
#   From: 2010.03.12/outbox.cif.g09.slc.cpg/sg35_8_cif.got.tgz:14543.got - 2010.04.14 02:02:04.
