data_PCOD8173647
_publ_section_title
;
Structure prediction by ZEFSAII (Michael W. Deem and Ramdas Pophale) SiO2 
 PCOD8173647
Probable space group: C M M 2
;
_chemical_formula_sum "Si O2"
_cell_formula_units_Z 56
_cell_length_a 8.573024
_cell_length_b 22.187474
_cell_length_c 14.818307
_cell_angle_alpha 90.000000
_cell_angle_beta 90.000000
_cell_angle_gamma 90.000000
_cell_volume 2818.645700
_symmetry_space_group_name_H-M "C M M 2"
_symmetry_group_IT_number 35
_symmetry_cell_setting 'orthorhombic'
loop_
_space_group_symop_operation_xyz
x,y,z
-x,-y,z
-x,y,z
x,-y,z
1/2+x,1/2+y,z
1/2-x,1/2-y,z
1/2-x,1/2+y,z
1/2+x,1/2-y,z
loop_
_atom_site_type_symbol
_atom_site_label
_atom_site_fract_x
_atom_site_fract_y
_atom_site_fract_z
Si Si1 0.817395 0.109436 0.471660
Si Si2 0.314943 0.814445 0.622525
Si Si3 0.817480 0.311799 0.962560
Si Si4 0.678453 0.000000 0.568886
Si Si5 0.174679 0.872363 0.797654
Si Si6 0.332802 0.500000 0.742070
Si Si7 0.816122 0.569956 0.282544
Si Si8 0.685422 0.815502 0.165618
O O1 0.757681 0.168611 0.524524
O O2 0.727028 0.094864 0.380383
O O3 0.000000 0.114655 0.451177
O O4 0.776736 0.056972 0.539828
O O5 0.500000 0.815841 0.613492
O O6 0.250000 0.750000 0.649428
O O7 0.263927 0.856554 0.705262
O O8 0.750000 0.250000 0.924921
O O9 0.765988 0.359287 0.889040
O O10 0.000000 0.308097 0.967886
O O11 0.753908 0.325202 0.063284
O O12 0.682913 0.000000 0.676645
O O13 0.500000 0.000000 0.533237
O O14 0.000000 0.843979 0.796136
O O15 0.170522 0.943512 0.807312
O O16 0.500000 0.500000 0.687862
O O17 0.751007 0.500000 0.266589
O O18 0.752511 0.623464 0.216368
O O19 0.000000 0.565747 0.273284
O O20 0.500000 0.811887 0.174494
O O21 0.750000 0.750000 0.202117
#
# Coordination Sequence:
#
# PCOD8173647 Si02
#       8
#     8   8   8   4   8   4   8   8
#     4  12  24  39  60  87 120 156 197 243 294 352
#     4  12  25  41  60  86 119 157 201 247 298 351
#     4  10  20  37  60  87 116 152 198 243 294 356
#     4  12  22  36  60  85 112 153 200 241 284 342
#     4  11  22  38  59  85 118 157 197 243 296 351
#     4  10  22  38  58  81 116 157 198 241 294 350
#     4  10  21  39  63  89 120 158 204 251 305 368
#     4   9  20  39  63  90 118 155 199 249 307 365
#
# _framework density 19.867697
#
# number of rings (size 3 to 8) (size 9 to 14) (size 15 to 20)
#    0.000    1.286    2.143    4.500    0.000    2.286 
#    1.286    1.429    0.000    0.000    0.000    0.000 
#    0.000    0.000    0.000    0.000    0.000    0.000 
#
# Total GULP energy -346915.543260 kJ/mol
# GULP energy per Si atom -12389.840831 kJ/mol
# Density = 1.982248 g / cm^3
# Si number density = 19.867697 Si / 1000 Ang^3
#
#
#
# Elastic Constant Matrix: (Units=GPa)
#
#
# Indices 1 2 3 4 5 6 
#
# 1 49.6330 20.2916 11.0359 0.0000 0.0000 0.0000
# 2 20.2916 129.6057 57.5607 0.0000 0.0000 0.0000
# 3 11.0359 57.5607 100.9428 0.0000 0.0000 0.0000
# 4 0.0000 0.0000 0.0000 33.2102 0.0000 0.0000
# 5 0.0000 0.0000 0.0000 0.0000 25.3063 0.0000
# 6 0.0000 0.0000 0.0000 0.0000 0.0000 28.0044
#
#
#
# Elastic Compliance Matrix: (Units=1/GPa)
#
#
# Indices 1 2 3 4 5 6 
#
# 1 0.021551 -0.003117 -0.000579 0.000000 0.000000 0.000000
# 2 -0.003117 0.010783 -0.005808 0.000000 0.000000 0.000000
# 3 -0.000579 -0.005808 0.013282 0.000000 0.000000 0.000000
# 4 0.000000 0.000000 0.000000 0.030111 0.000000 0.000000
# 5 0.000000 0.000000 0.000000 0.000000 0.039516 0.000000
# 6 0.000000 0.000000 0.000000 0.000000 0.000000 0.035709
#
#
# Mechanical properties :
#
#
# Convention : Reuss Voigt Hill
#
# Bulk Modulus (GPa) = 37.58240 50.88421 44.23331
# Shear Modulus (GPa) = 27.95967 30.05707 29.00837
#
# Velocity S-wave (km/s) = 3.75546 3.89377 3.82524
# Velocity P-wave (km/s) = 6.14508 6.77366 6.46701
#
# Compressibility (1/GPa) = 0.02660820
#
# Stress axis : x y z
#
# Youngs Moduli (GPa) = 46.40171 92.73628 75.29072
#
# Poissons Ratio (x) = 0.28907 0.04357
# Poissons Ratio (y) = 0.14464 0.43730
# Poissons Ratio (z) = 0.02685 0.53863
#
# Static dielectric constant tensor:
#      x y z
#    x 3.686130 0.000000 0.000000 
#    y 0.000000 3.987800 0.000000 
#    z 0.000000 0.000000 3.647540 
# 
# 
# High freq. dielectric constant tensor:
#      x y z
#    x 1.775700 0.000000 0.000000 
#    y 0.000000 1.784940 0.000000 
#    z 0.000000 0.000000 1.767830 
# 
# From -- ./inp_files/15660.got.cif
#   From: 2010.03.12/outbox.cif.g09.slc.cpg/sg35_8_cif.got.tgz:15660.got - 2010.04.14 02:02:04.
