data_PCOD8173975
_publ_section_title
;
Structure prediction by ZEFSAII (Michael W. Deem and Ramdas Pophale) SiO2 
 PCOD8173975
Probable space group: C M M 2
;
_chemical_formula_sum "Si O2"
_cell_formula_units_Z 56
_cell_length_a 21.917596
_cell_length_b 8.572909
_cell_length_c 14.950864
_cell_angle_alpha 90.000000
_cell_angle_beta 90.000000
_cell_angle_gamma 90.000000
_cell_volume 2809.230806
_symmetry_space_group_name_H-M "C M M 2"
_symmetry_group_IT_number 35
_symmetry_cell_setting 'orthorhombic'
loop_
_space_group_symop_operation_xyz
x,y,z
-x,-y,z
-x,y,z
x,-y,z
1/2+x,1/2+y,z
1/2-x,1/2-y,z
1/2-x,1/2+y,z
1/2+x,1/2-y,z
loop_
_atom_site_type_symbol
_atom_site_label
_atom_site_fract_x
_atom_site_fract_y
_atom_site_fract_z
Si Si1 0.000000 0.824191 0.939270
Si Si2 0.815581 0.321814 0.900140
Si Si3 0.184217 0.682140 0.560220
Si Si4 0.819010 0.816869 0.377245
Si Si5 0.000000 0.318255 0.755187
Si Si6 0.401897 0.177530 0.053911
Si Si7 0.571973 0.316337 0.241979
Si Si8 0.875651 0.818613 0.730704
O O1 0.000000 0.694957 0.862284
O O2 0.942521 0.801014 0.001964
O O3 0.000000 0.000000 0.899299
O O4 0.814176 0.500000 0.868249
O O5 0.750000 0.250000 0.891150
O O6 0.859561 0.231188 0.831742
O O7 0.836605 0.308368 0.003772
O O8 0.183520 0.500000 0.543032
O O9 0.250000 0.750000 0.563800
O O10 0.154262 0.763080 0.473434
O O11 0.157748 0.719211 0.656362
O O12 0.750000 0.750000 0.354409
O O13 0.876391 0.767161 0.314245
O O14 0.809948 0.000000 0.374522
O O15 0.055027 0.223838 0.712650
O O16 0.000000 0.500000 0.728174
O O17 0.401717 0.225909 0.156429
O O18 0.426330 0.000000 0.045850
O O19 0.500000 0.269052 0.263900
O O20 0.573743 0.500000 0.224490
O O21 0.862099 0.000000 0.717121
#
# Coordination Sequence:
#
# PCOD8173975 Si02
#       8
#     4   8   8   8   4   8   8   8
#     4  12  22  36  60  85 114 157 202 242 290 352
#     4  11  24  40  58  85 123 161 204 256 303 355
#     4  11  22  40  65  91 121 158 202 252 303 366
#     4  10  21  40  65  92 123 159 204 257 313 376
#     4  12  24  40  60  87 122 159 204 252 300 354
#     4  11  23  38  60  87 119 158 201 251 300 354
#     4  10  22  40  63  91 123 161 205 255 311 375
#     4  12  24  40  62  89 121 162 204 246 303 364
#
# _framework density 19.934283000000001
#
# number of rings (size 3 to 8) (size 9 to 14) (size 15 to 20)
#    0.000    1.000    2.143    6.429    0.000    3.429 
#    1.286    2.857    0.000    0.000    0.000    0.000 
#    0.000    0.000    0.000    0.000    0.000    0.000 
#
# Total GULP energy -346926.568122 kJ/mol
# GULP energy per Si atom -12390.234576 kJ/mol
# Density = 1.988891 g / cm^3
# Si number density = 19.934283 Si / 1000 Ang^3
#
#
#
# Elastic Constant Matrix: (Units=GPa)
#
#
# Indices 1 2 3 4 5 6 
#
# 1 149.7607 -11.6425 51.5523 0.0000 0.0000 0.0000
# 2 -11.6425 113.9719 19.6165 0.0000 0.0000 0.0000
# 3 51.5523 19.6165 118.3206 0.0000 0.0000 0.0000
# 4 0.0000 0.0000 0.0000 34.7695 0.0000 0.0000
# 5 0.0000 0.0000 0.0000 0.0000 25.5052 0.0000
# 6 0.0000 0.0000 0.0000 0.0000 0.0000 18.1616
#
#
#
# Elastic Compliance Matrix: (Units=1/GPa)
#
#
# Indices 1 2 3 4 5 6 
#
# 1 0.008089 0.001475 -0.003769 0.000000 0.000000 0.000000
# 2 0.001475 0.009301 -0.002185 0.000000 0.000000 0.000000
# 3 -0.003769 -0.002185 0.010456 0.000000 0.000000 0.000000
# 4 0.000000 0.000000 0.000000 0.028761 0.000000 0.000000
# 5 0.000000 0.000000 0.000000 0.000000 0.039208 0.000000
# 6 0.000000 0.000000 0.000000 0.000000 0.000000 0.055061
#
#
# Mechanical properties :
#
#
# Convention : Reuss Voigt Hill
#
# Bulk Modulus (GPa) = 52.94140 55.67843 54.30991
# Shear Modulus (GPa) = 30.09697 37.18906 33.64301
#
# Velocity S-wave (km/s) = 3.88984 4.32393 4.11261
# Velocity P-wave (km/s) = 6.84033 7.27462 7.06081
#
# Compressibility (1/GPa) = 0.01888881
#
# Stress axis : x y z
#
# Youngs Moduli (GPa) = 123.61790 107.51769 95.63860
#
# Poissons Ratio (x) = -0.15860 0.36047
# Poissons Ratio (y) = -0.18235 0.20894
# Poissons Ratio (z) = 0.46593 0.23489
#
# Static dielectric constant tensor:
#      x y z
#    x 3.908340 0.000000 0.000000 
#    y 0.000000 3.902560 0.000000 
#    z 0.000000 0.000000 3.298830 
# 
# 
# High freq. dielectric constant tensor:
#      x y z
#    x 1.781260 0.000000 0.000000 
#    y 0.000000 1.791060 0.000000 
#    z 0.000000 0.000000 1.776290 
# 
# From -- ./inp_files/17457.got.cif
#   From: 2010.03.12/outbox.cif.g09.slc.cpg/sg35_9_cif.got.tgz:17457.got - 2010.04.14 02:02:04.
