data_PCOD8173902
_publ_section_title
;
Structure prediction by ZEFSAII (Michael W. Deem and Ramdas Pophale) SiO2 
 PCOD8173902
Probable space group: C M M 2
;
_chemical_formula_sum "Si O2"
_cell_formula_units_Z 64
_cell_length_a 8.787423
_cell_length_b 18.208826
_cell_length_c 20.410376
_cell_angle_alpha 90.000000
_cell_angle_beta 90.000000
_cell_angle_gamma 90.000000
_cell_volume 3265.836840
_symmetry_space_group_name_H-M "C M M 2"
_symmetry_group_IT_number 35
_symmetry_cell_setting 'orthorhombic'
loop_
_space_group_symop_operation_xyz
x,y,z
-x,-y,z
-x,y,z
x,-y,z
1/2+x,1/2+y,z
1/2-x,1/2-y,z
1/2-x,1/2+y,z
1/2+x,1/2-y,z
loop_
_atom_site_type_symbol
_atom_site_label
_atom_site_fract_x
_atom_site_fract_y
_atom_site_fract_z
Si Si1 0.324744 0.585200 0.692640
Si Si2 0.179045 0.329044 0.198110
Si Si3 0.178004 0.584699 0.449072
Si Si4 0.321311 0.170753 0.576435
Si Si5 0.678584 0.915803 0.941738
Si Si6 0.178625 0.828508 0.823671
Si Si7 0.821448 0.084553 0.079724
Si Si8 0.826404 0.913275 0.314662
O O1 0.500000 0.598831 0.673966
O O2 0.284645 0.500000 0.697452
O O3 0.220369 0.620602 0.637647
O O4 0.284939 0.620110 0.762281
O O5 0.250000 0.250000 0.208920
O O6 0.240922 0.364562 0.132139
O O7 0.220448 0.378609 0.259932
O O8 0.000000 0.321747 0.192459
O O9 0.214890 0.500000 0.464741
O O10 0.237552 0.632374 0.510073
O O11 0.269543 0.612705 0.385822
O O12 0.000000 0.596072 0.435773
O O13 0.500000 0.179889 0.574233
O O14 0.250000 0.250000 0.584714
O O15 0.500000 0.903408 0.949931
O O16 0.742449 0.862985 0.886560
O O17 0.717148 0.000000 0.923588
O O18 0.759589 0.893065 0.008884
O O19 0.250000 0.750000 0.808391
O O20 0.000000 0.821039 0.836822
O O21 0.000000 0.099224 0.082173
O O22 0.782461 0.000000 0.095605
O O23 0.000000 0.887453 0.304749
O O24 0.810592 0.000000 0.308120
#
# Coordination Sequence:
#
# PCOD8173902 Si02
#       8
#     8   8   8   8   8   8   8   8
#     4  10  22  40  62  87 115 149 191 239 289 343
#     4  12  25  40  59  84 117 154 193 239 290 343
#     4   9  19  37  59  83 112 149 194 240 286 338
#     4  11  23  38  58  85 118 155 193 236 287 342
#     4  10  21  38  61  89 118 150 192 238 284 338
#     4  11  23  39  59  85 118 154 192 235 287 343
#     4  10  21  39  63  89 118 152 191 236 285 340
#     4  10  21  38  61  88 117 151 192 236 284 341
#
# _framework density 19.596814999999999
#
# number of rings (size 3 to 8) (size 9 to 14) (size 15 to 20)
#    0.000    1.625    0.000    4.500    0.000    9.000 
#    0.000    5.000    0.000    0.000    0.000    0.000 
#    0.000    0.000    0.000    0.000    0.000    0.000 
#
# Total GULP energy -396992.506332 kJ/mol
# GULP energy per Si atom -12406.015823 kJ/mol
# Density = 1.955221 g / cm^3
# Si number density = 19.596815 Si / 1000 Ang^3
#
#
#
# Elastic Constant Matrix: (Units=GPa)
#
#
# Indices 1 2 3 4 5 6 
#
# 1 83.2914 28.1720 40.8970 0.0000 0.0000 0.0000
# 2 28.1720 80.1699 41.9468 0.0000 0.0000 0.0000
# 3 40.8970 41.9468 106.9025 0.0000 0.0000 0.0000
# 4 0.0000 0.0000 0.0000 -51.6235 0.0000 0.0000
# 5 0.0000 0.0000 0.0000 0.0000 40.4621 0.0000
# 6 0.0000 0.0000 0.0000 0.0000 0.0000 30.0193
#
#
#
# Elastic Compliance Matrix: (Units=1/GPa)
#
#
# Indices 1 2 3 4 5 6 
#
# 1 0.015305 -0.002913 -0.004712 0.000000 0.000000 0.000000
# 2 -0.002913 0.016250 -0.005262 0.000000 0.000000 0.000000
# 3 -0.004712 -0.005262 0.013222 0.000000 0.000000 0.000000
# 4 0.000000 0.000000 0.000000 -0.019371 0.000000 0.000000
# 5 0.000000 0.000000 0.000000 0.000000 0.024714 0.000000
# 6 0.000000 0.000000 0.000000 0.000000 0.000000 0.033312
#
#
# Mechanical properties :
#
#
# Convention : Reuss Voigt Hill
#
# Bulk Modulus (GPa) = 52.62302 54.71062 53.66682
# Shear Modulus (GPa) = 43.27480 14.39479 28.83480
#
# Velocity S-wave (km/s) = 4.70431 2.71319 3.84005
# Velocity P-wave (km/s) = 7.51122 6.14768 6.86340
#
# Compressibility (1/GPa) = 0.01900309
#
# Stress axis : x y z
#
# Youngs Moduli (GPa) = 65.33831 61.53741 75.63274
#
# Poissons Ratio (x) = 0.17924 0.35640
# Poissons Ratio (y) = 0.19031 0.39798
# Poissons Ratio (z) = 0.30789 0.32381
#
# Static dielectric constant tensor:
#      x y z
#    x 3.671870 0.000000 0.000000 
#    y 0.000000 3.671050 0.000000 
#    z 0.000000 0.000000 3.711410 
# 
# 
# High freq. dielectric constant tensor:
#      x y z
#    x 1.773810 0.000000 0.000000 
#    y 0.000000 1.767020 0.000000 
#    z 0.000000 0.000000 1.778720 
# 
# From -- ./inp_files/18326.got.cif
#   From: 2010.03.12/outbox.cif.g09.slc.cpg/sg35_10_cif.got.tgz:18326.got - 2010.04.14 02:02:04.
