data_PCOD8173021
_publ_section_title
;
Structure prediction by ZEFSAII (Michael W. Deem and Ramdas Pophale) SiO2 
 PCOD8173021
Probable space group: C M M 2
;
_chemical_formula_sum "Si O2"
_cell_formula_units_Z 64
_cell_length_a 9.859664
_cell_length_b 28.378579
_cell_length_c 12.319899
_cell_angle_alpha 90.000000
_cell_angle_beta 90.000000
_cell_angle_gamma 90.000000
_cell_volume 3447.147826
_symmetry_space_group_name_H-M "C M M 2"
_symmetry_group_IT_number 35
_symmetry_cell_setting 'orthorhombic'
loop_
_space_group_symop_operation_xyz
x,y,z
-x,-y,z
-x,y,z
x,-y,z
1/2+x,1/2+y,z
1/2-x,1/2-y,z
1/2-x,1/2+y,z
1/2+x,1/2-y,z
loop_
_atom_site_type_symbol
_atom_site_label
_atom_site_fract_x
_atom_site_fract_y
_atom_site_fract_z
Si Si1 0.159544 0.296909 0.066620
Si Si2 0.655587 0.552641 0.331669
Si Si3 0.351638 0.211734 0.427865
Si Si4 0.342740 0.862237 0.866779
Si Si5 0.650861 0.158971 0.628760
Si Si6 0.345119 0.133773 0.262378
Si Si7 0.656279 0.447422 0.808545
Si Si8 0.845711 0.079908 0.569851
O O1 0.250000 0.250000 0.072146
O O2 0.195982 0.330269 0.167440
O O3 0.000000 0.283229 0.065554
O O4 0.201265 0.326515 0.960395
O O5 0.500000 0.567822 0.312069
O O6 0.682054 0.500000 0.287168
O O7 0.749834 0.587968 0.263317
O O8 0.687998 0.551088 0.460735
O O9 0.500000 0.229507 0.392365
O O10 0.250000 0.250000 0.380932
O O11 0.341740 0.207317 0.559215
O O12 0.323408 0.160821 0.375646
O O13 0.500000 0.877164 0.879475
O O14 0.314689 0.833553 0.755186
O O15 0.253123 0.909915 0.868783
O O16 0.500000 0.136942 0.618815
O O17 0.755677 0.125851 0.569339
O O18 0.500000 0.116663 0.247319
O O19 0.500000 0.433301 0.831365
O O20 0.686648 0.500000 0.853772
O O21 0.684439 0.449716 0.678960
O O22 0.000000 0.097188 0.568705
#
# Coordination Sequence:
#
# PCOD8173021 Si02
#       8
#     8   8   8   8   8   8   8   8
#     4  10  22  40  61  82 103 134 178 225 270 316
#     4  10  20  33  52  80 111 142 177 217 262 312
#     4  10  20  32  49  74 103 134 168 209 259 315
#     4   9  19  35  54  77 106 138 175 219 264 312
#     4   9  17  31  49  72 106 140 169 210 259 309
#     4  10  21  38  56  76 105 138 176 220 263 313
#     4   9  17  30  50  78 111 145 180 216 257 308
#     4   9  16  28  48  74 106 143 177 212 254 305
#
# _framework density 18.566072999999999
#
# number of rings (size 3 to 8) (size 9 to 14) (size 15 to 20)
#    0.000    2.500    1.250    0.750    0.000    4.500 
#    0.000    0.625    0.000    6.000    0.000    0.000 
#    0.000    0.000    0.000    0.000    0.000    0.000 
#
# Total GULP energy -396607.248108 kJ/mol
# GULP energy per Si atom -12393.976503 kJ/mol
# Density = 1.852382 g / cm^3
# Si number density = 18.566073 Si / 1000 Ang^3
#
#
#
# Elastic Constant Matrix: (Units=GPa)
#
#
# Indices 1 2 3 4 5 6 
#
# 1 93.4420 76.2448 42.1741 0.0000 0.0000 0.0000
# 2 76.2448 116.1313 50.0170 0.0000 0.0000 0.0000
# 3 42.1741 50.0170 87.3748 0.0000 0.0000 0.0000
# 4 0.0000 0.0000 0.0000 22.7189 0.0000 0.0000
# 5 0.0000 0.0000 0.0000 0.0000 22.0314 0.0000
# 6 0.0000 0.0000 0.0000 0.0000 0.0000 36.5694
#
#
#
# Elastic Compliance Matrix: (Units=1/GPa)
#
#
# Indices 1 2 3 4 5 6 
#
# 1 0.023775 -0.014157 -0.003372 0.000000 0.000000 0.000000
# 2 -0.014157 0.019859 -0.004535 0.000000 0.000000 0.000000
# 3 -0.003372 -0.004535 0.015668 0.000000 0.000000 0.000000
# 4 0.000000 0.000000 0.000000 0.044016 0.000000 0.000000
# 5 0.000000 0.000000 0.000000 0.000000 0.045390 0.000000
# 6 0.000000 0.000000 0.000000 0.000000 0.000000 0.027345
#
#
# Mechanical properties :
#
#
# Convention : Reuss Voigt Hill
#
# Bulk Modulus (GPa) = 65.89676 70.42443 68.16060
# Shear Modulus (GPa) = 22.19864 24.83141 23.51502
#
# Velocity S-wave (km/s) = 3.46158 3.66110 3.56274
# Velocity P-wave (km/s) = 7.17961 7.47567 7.32914
#
# Compressibility (1/GPa) = 0.01517525
#
# Stress axis : x y z
#
# Youngs Moduli (GPa) = 42.06032 50.35557 63.82374
#
# Poissons Ratio (x) = 0.71290 0.21519
# Poissons Ratio (y) = 0.59546 0.28941
# Poissons Ratio (z) = 0.14181 0.22834
#
# Static dielectric constant tensor:
#      x y z
#    x 3.444780 0.000000 0.000000 
#    y 0.000000 3.207460 0.000000 
#    z 0.000000 0.000000 3.398560 
# 
# 
# High freq. dielectric constant tensor:
#      x y z
#    x 1.721620 0.000000 0.000000 
#    y 0.000000 1.701420 0.000000 
#    z 0.000000 0.000000 1.714500 
# 
# From -- ./inp_files/11883.got.cif
#   From: 2010.03.12/outbox.cif.g09.slc.cpg/sg35_6_cif.got.tgz:11883.got - 2010.04.14 02:02:04.
