data_PCOD8173427
_publ_section_title
;
Structure prediction by ZEFSAII (Michael W. Deem and Ramdas Pophale) SiO2 
 PCOD8173427
Probable space group: C M M 2
;
_chemical_formula_sum "Si O2"
_cell_formula_units_Z 56
_cell_length_a 19.292227
_cell_length_b 8.951334
_cell_length_c 17.315273
_cell_angle_alpha 90.000000
_cell_angle_beta 90.000000
_cell_angle_gamma 90.000000
_cell_volume 2990.194710
_symmetry_space_group_name_H-M "C M M 2"
_symmetry_group_IT_number 35
_symmetry_cell_setting 'orthorhombic'
loop_
_space_group_symop_operation_xyz
x,y,z
-x,-y,z
-x,y,z
x,-y,z
1/2+x,1/2+y,z
1/2-x,1/2-y,z
1/2-x,1/2+y,z
1/2+x,1/2-y,z
loop_
_atom_site_type_symbol
_atom_site_label
_atom_site_fract_x
_atom_site_fract_y
_atom_site_fract_z
Si Si1 0.819944 0.174220 0.890950
Si Si2 0.320946 0.174409 0.320623
Si Si3 0.320823 0.826357 0.140865
Si Si4 0.081538 0.172286 0.438061
Si Si5 0.321628 0.323236 0.715115
Si Si6 0.579336 0.324311 0.024972
Si Si7 0.918351 0.672330 0.595007
O O1 0.750000 0.250000 0.921738
O O2 0.836989 0.223273 0.803554
O O3 0.806368 0.000000 0.895344
O O4 0.883496 0.223170 0.945229
O O5 0.250000 0.250000 0.349017
O O6 0.333479 0.205712 0.230693
O O7 0.384437 0.249058 0.364808
O O8 0.317416 0.000000 0.339581
O O9 0.250000 0.750000 0.111982
O O10 0.386267 0.759061 0.096756
O O11 0.314300 0.000000 0.122474
O O12 0.107448 0.253288 0.515641
O O13 0.000000 0.190823 0.427508
O O14 0.103883 0.000000 0.442359
O O15 0.317146 0.500000 0.704068
O O16 0.250000 0.250000 0.686690
O O17 0.384298 0.258093 0.665997
O O18 0.500000 0.272599 0.018693
O O19 0.585605 0.500000 0.039607
O O20 0.895714 0.500000 0.594796
O O21 0.000000 0.691397 0.604845
#
# Coordination Sequence:
#
# PCOD8173427 Si02
#       7
#     8   8   8   8   8   8   8
#     4   9  19  35  55  78 105 140 179 220 267 318
#     4  10  21  37  57  81 109 140 177 222 269 317
#     4  10  21  37  57  80 107 141 180 221 267 319
#     4  10  21  37  57  81 109 142 180 219 263 318
#     4  10  20  35  56  81 109 140 178 223 268 317
#     4  10  21  36  54  79 111 144 179 220 266 316
#     4  10  21  37  56  79 109 143 179 220 267 318
#
# _framework density 18.727876999999999
#
# number of rings (size 3 to 8) (size 9 to 14) (size 15 to 20)
#    0.000    2.143    0.000    2.571    0.000    7.714 
#    0.000    7.143    0.000    0.000    0.000    0.000 
#    0.000    0.000    0.000    0.000    0.000    0.000 
#
# Total GULP energy -347337.568901 kJ/mol
# GULP energy per Si atom -12404.913175 kJ/mol
# Density = 1.868525 g / cm^3
# Si number density = 18.727877 Si / 1000 Ang^3
#
#
#
# Elastic Constant Matrix: (Units=GPa)
#
#
# Indices 1 2 3 4 5 6 
#
# 1 107.2177 57.0200 65.9194 0.0000 0.0000 0.0000
# 2 57.0200 104.4977 57.0259 0.0000 0.0000 0.0000
# 3 65.9194 57.0259 95.6303 0.0000 0.0000 0.0000
# 4 0.0000 0.0000 0.0000 33.4858 0.0000 0.0000
# 5 0.0000 0.0000 0.0000 0.0000 32.3819 0.0000
# 6 0.0000 0.0000 0.0000 0.0000 0.0000 35.6223
#
#
#
# Elastic Compliance Matrix: (Units=1/GPa)
#
#
# Indices 1 2 3 4 5 6 
#
# 1 0.017443 -0.004383 -0.009411 0.000000 0.000000 0.000000
# 2 -0.004383 0.015287 -0.006095 0.000000 0.000000 0.000000
# 3 -0.009411 -0.006095 0.020578 0.000000 0.000000 0.000000
# 4 0.000000 0.000000 0.000000 0.029863 0.000000 0.000000
# 5 0.000000 0.000000 0.000000 0.000000 0.030881 0.000000
# 6 0.000000 0.000000 0.000000 0.000000 0.000000 0.028072
#
#
# Mechanical properties :
#
#
# Convention : Reuss Voigt Hill
#
# Bulk Modulus (GPa) = 73.89607 74.14183 74.01895
# Shear Modulus (GPa) = 26.82220 28.79002 27.80611
#
# Velocity S-wave (km/s) = 3.78856 3.92507 3.85742
# Velocity P-wave (km/s) = 7.66035 7.75993 7.71030
#
# Compressibility (1/GPa) = 0.01353252
#
# Stress axis : x y z
#
# Youngs Moduli (GPa) = 57.32853 65.41471 48.59508
#
# Poissons Ratio (x) = 0.28669 0.45730
# Poissons Ratio (y) = 0.25125 0.29618
# Poissons Ratio (z) = 0.53949 0.39870
#
# Static dielectric constant tensor:
#      x y z
#    x 3.418900 0.000000 0.000000 
#    y 0.000000 3.578110 0.000000 
#    z 0.000000 0.000000 3.516830 
# 
# 
# High freq. dielectric constant tensor:
#      x y z
#    x 1.724050 0.000000 0.000000 
#    y 0.000000 1.738040 0.000000 
#    z 0.000000 0.000000 1.733520 
# 
# From -- ./inp_files/15586.got.cif
#   From: 2010.03.12/outbox.cif.g09.slc.cpg/sg35_8_cif.got.tgz:15586.got - 2010.04.14 02:02:04.
