data_PCOD8173896
_publ_section_title
;
Structure prediction by ZEFSAII (Michael W. Deem and Ramdas Pophale) SiO2 
 PCOD8173896
Probable space group: C M M 2
;
_chemical_formula_sum "Si O2"
_cell_formula_units_Z 40
_cell_length_a 15.497881
_cell_length_b 10.200464
_cell_length_c 12.742865
_cell_angle_alpha 90.000000
_cell_angle_beta 90.000000
_cell_angle_gamma 90.000000
_cell_volume 2014.463169
_symmetry_space_group_name_H-M "C M M 2"
_symmetry_group_IT_number 35
_symmetry_cell_setting 'orthorhombic'
loop_
_space_group_symop_operation_xyz
x,y,z
-x,-y,z
-x,y,z
x,-y,z
1/2+x,1/2+y,z
1/2-x,1/2-y,z
1/2-x,1/2+y,z
1/2+x,1/2-y,z
loop_
_atom_site_type_symbol
_atom_site_label
_atom_site_fract_x
_atom_site_fract_y
_atom_site_fract_z
Si Si1 0.760723 0.000000 0.651870
Si Si2 0.904354 0.350735 0.924533
Si Si3 0.250000 0.750000 0.793059
Si Si4 0.101203 0.000000 0.466399
Si Si5 0.400959 0.231811 0.353422
Si Si6 0.679062 0.850423 0.136882
Si Si7 0.900017 0.500000 0.509491
O O1 0.772190 0.872648 0.721524
O O2 0.663326 0.000000 0.607844
O O3 0.836467 0.000000 0.565923
O O4 0.891545 0.500000 0.887090
O O5 0.833828 0.264819 0.865512
O O6 0.000000 0.300146 0.894695
O O7 0.896639 0.342665 0.050969
O O8 0.123340 0.874997 0.395095
O O9 0.000000 0.000000 0.501436
O O10 0.500000 0.220353 0.322057
O O11 0.348491 0.199985 0.250105
O O12 0.377826 0.128565 0.443170
O O13 0.750000 0.750000 0.094103
O O14 0.714036 0.000000 0.145079
O O15 0.000000 0.500000 0.547441
#
# Coordination Sequence:
#
# PCOD8173896 Si02
#       7
#     4   8   4   4   8   8   4
#     4  12  26  40  66  88 126 166 212 272 324 366
#     4  10  22  44  71  95 128 169 210 258 321 386
#     4  12  24  44  64  98 126 158 222 276 316 374
#     4  10  24  42  59  87 130 169 207 258 319 372
#     4  10  21  38  60  90 128 166 208 252 303 376
#     4  11  23  37  64  97 130 164 203 252 310 382
#     4  10  22  40  61  91 122 163 221 260 299 380
#
# _framework density 19.856407000000001
#
# number of rings (size 3 to 8) (size 9 to 14) (size 15 to 20)
#    0.000    1.400    3.000    1.800    4.200    2.400 
#    0.000    0.000    0.000    0.000    0.000    0.000 
#    0.000    0.000    0.000    0.000    0.000    0.000 
#
# Total GULP energy -248018.363513 kJ/mol
# GULP energy per Si atom -12400.918176 kJ/mol
# Density = 1.981121 g / cm^3
# Si number density = 19.856407 Si / 1000 Ang^3
#
#
#
# Elastic Constant Matrix: (Units=GPa)
#
#
# Indices 1 2 3 4 5 6 
#
# 1 131.6967 55.0282 65.9135 0.0000 0.0000 0.0000
# 2 55.0282 159.0234 59.3851 0.0000 0.0000 0.0000
# 3 65.9135 59.3851 106.9878 0.0000 0.0000 0.0000
# 4 0.0000 0.0000 0.0000 5.6034 0.0000 0.0000
# 5 0.0000 0.0000 0.0000 0.0000 27.0741 0.0000
# 6 0.0000 0.0000 0.0000 0.0000 0.0000 240.3636
#
#
#
# Elastic Compliance Matrix: (Units=1/GPa)
#
#
# Indices 1 2 3 4 5 6 
#
# 1 0.011313 -0.001655 -0.006051 0.000000 0.000000 0.000000
# 2 -0.001655 0.008175 -0.003518 0.000000 0.000000 0.000000
# 3 -0.006051 -0.003518 0.015028 0.000000 0.000000 0.000000
# 4 0.000000 0.000000 0.000000 0.178463 0.000000 0.000000
# 5 0.000000 0.000000 0.000000 0.000000 0.036936 0.000000
# 6 0.000000 0.000000 0.000000 0.000000 0.000000 0.004160
#
#
# Mechanical properties :
#
#
# Convention : Reuss Voigt Hill
#
# Bulk Modulus (GPa) = 82.86879 84.26242 83.56560
# Shear Modulus (GPa) = 17.82239 69.10029 43.46134
#
# Velocity S-wave (km/s) = 2.99919 5.90555 4.68352
# Velocity P-wave (km/s) = 7.33608 9.43550 8.45124
#
# Compressibility (1/GPa) = 0.01206727
#
# Stress axis : x y z
#
# Youngs Moduli (GPa) = 88.39044 122.32708 66.54403
#
# Poissons Ratio (x) = 0.20246 0.40268
# Poissons Ratio (y) = 0.14629 0.23409
# Poissons Ratio (z) = 0.53488 0.43033
#
# Static dielectric constant tensor:
#      x y z
#    x 3.679940 0.000000 0.000000 
#    y 0.000000 4.104780 0.000000 
#    z 0.000000 0.000000 3.531100 
# 
# 
# High freq. dielectric constant tensor:
#      x y z
#    x 1.777420 0.000000 0.000000 
#    y 0.000000 1.783610 0.000000 
#    z 0.000000 0.000000 1.779750 
# 
# From -- ./inp_files/14866.got.cif
#   From: 2010.03.12/outbox.cif.g09.slc.cpg/sg35_8_cif.got.tgz:14866.got - 2010.04.14 02:02:04.
