data_PCOD8173511
_publ_section_title
;
Structure prediction by ZEFSAII (Michael W. Deem and Ramdas Pophale) SiO2 
 PCOD8173511
Probable space group: C M M 2
;
_chemical_formula_sum "Si O2"
_cell_formula_units_Z 46
_cell_length_a 7.393959
_cell_length_b 25.099570
_cell_length_c 13.583485
_cell_angle_alpha 90.000000
_cell_angle_beta 90.000000
_cell_angle_gamma 90.000000
_cell_volume 2520.893665
_symmetry_space_group_name_H-M "C M M 2"
_symmetry_group_IT_number 35
_symmetry_cell_setting 'orthorhombic'
loop_
_space_group_symop_operation_xyz
x,y,z
-x,-y,z
-x,y,z
x,-y,z
1/2+x,1/2+y,z
1/2-x,1/2-y,z
1/2-x,1/2+y,z
1/2+x,1/2-y,z
loop_
_atom_site_type_symbol
_atom_site_label
_atom_site_fract_x
_atom_site_fract_y
_atom_site_fract_z
Si Si1 0.213862 0.500000 0.738081
Si Si2 0.785313 0.403897 0.601446
Si Si3 0.500000 0.389713 0.025406
Si Si4 0.000000 0.062358 0.236225
Si Si5 0.212252 0.309822 0.945475
Si Si6 0.000000 0.000000 0.905210
Si Si7 0.703984 0.062514 0.392430
Si Si8 0.209728 0.307790 0.723529
O O1 0.278443 0.550270 0.675082
O O2 0.317502 0.500000 0.841343
O O3 0.000000 0.500000 0.761000
O O4 0.711197 0.410588 0.490644
O O5 0.703885 0.349807 0.647857
O O6 0.000000 0.404952 0.593603
O O7 0.500000 0.401449 0.140714
O O8 0.321137 0.354780 0.004470
O O9 0.500000 0.446104 0.969334
O O10 0.176956 0.077824 0.298663
O O11 0.000000 0.000000 0.208457
O O12 0.250000 0.250000 0.986321
O O13 0.289293 0.312613 0.833598
O O14 0.000000 0.323139 0.953533
O O15 0.500000 0.082097 0.370837
O O16 0.708184 0.000000 0.413215
O O17 0.250000 0.250000 0.678866
O O18 0.000000 0.319863 0.731295
#
# Coordination Sequence:
#
# PCOD8173511 Si02
#       8
#     4   8   4   4   8   2   8   8
#     4  10  20  36  53  79 121 155 188 226 281 346
#     4   9  16  31  54  79 110 146 183 226 271 334
#     4  12  24  40  59  84 121 151 198 253 302 348
#     4  10  22  39  56  80 116 145 187 246 293 347
#     4  10  20  38  63  88 112 152 203 244 283 341
#     4  12  26  36  50  86 126 166 184 232 306 366
#     4   9  17  33  57  80 106 144 188 230 279 338
#     4   9  18  31  49  78 112 146 181 219 268 330
#
# _framework density 18.247496000000002
#
# number of rings (size 3 to 8) (size 9 to 14) (size 15 to 20)
#    0.000    2.261    2.174    1.043    1.217    3.478 
#    3.130    0.000    0.000    1.043    0.000    0.000 
#    0.000    0.000    0.000    0.000    0.000    0.000 
#
# Total GULP energy -285124.859161 kJ/mol
# GULP energy per Si atom -12396.733007 kJ/mol
# Density = 1.820596 g / cm^3
# Si number density = 18.247496 Si / 1000 Ang^3
#
#
#
# Elastic Constant Matrix: (Units=GPa)
#
#
# Indices 1 2 3 4 5 6 
#
# 1 88.6581 36.9538 45.9468 0.0000 0.0000 0.0000
# 2 36.9538 138.4120 78.9066 0.0000 0.0000 0.0000
# 3 45.9468 78.9066 135.6411 0.0000 0.0000 0.0000
# 4 0.0000 0.0000 0.0000 24.8933 0.0000 0.0000
# 5 0.0000 0.0000 0.0000 0.0000 8.8164 0.0000
# 6 0.0000 0.0000 0.0000 0.0000 0.0000 20.0503
#
#
#
# Elastic Compliance Matrix: (Units=1/GPa)
#
#
# Indices 1 2 3 4 5 6 
#
# 1 0.013896 -0.001536 -0.003814 0.000000 0.000000 0.000000
# 2 -0.001536 0.010979 -0.005867 0.000000 0.000000 0.000000
# 3 -0.003814 -0.005867 0.012077 0.000000 0.000000 0.000000
# 4 0.000000 0.000000 0.000000 0.040171 0.000000 0.000000
# 5 0.000000 0.000000 0.000000 0.000000 0.113425 0.000000
# 6 0.000000 0.000000 0.000000 0.000000 0.000000 0.049875
#
#
# Mechanical properties :
#
#
# Convention : Reuss Voigt Hill
#
# Bulk Modulus (GPa) = 68.87140 76.25841 72.56490
# Shear Modulus (GPa) = 18.67790 24.14560 21.41175
#
# Velocity S-wave (km/s) = 3.20283 3.64157 3.42922
# Velocity P-wave (km/s) = 7.17651 7.71772 7.45203
#
# Compressibility (1/GPa) = 0.01451982
#
# Stress axis : x y z
#
# Youngs Moduli (GPa) = 71.96395 91.07922 82.80138
#
# Poissons Ratio (x) = 0.13989 0.31577
# Poissons Ratio (y) = 0.11053 0.48578
# Poissons Ratio (z) = 0.27444 0.53434
#
# Static dielectric constant tensor:
#      x y z
#    x 3.613390 0.000000 0.000000 
#    y 0.000000 3.473150 0.000000 
#    z 0.000000 0.000000 3.272490 
# 
# 
# High freq. dielectric constant tensor:
#      x y z
#    x 1.712070 0.000000 0.000000 
#    y 0.000000 1.699740 0.000000 
#    z 0.000000 0.000000 1.686370 
# 
# From -- ./inp_files/11438.got.cif
#   From: 2010.03.12/outbox.cif.g09.slc.cpg/sg35_6_cif.got.tgz:11438.got - 2010.04.14 02:02:04.
