data_PCOD8173395
_publ_section_title
;
Structure prediction by ZEFSAII (Michael W. Deem and Ramdas Pophale) SiO2 
 PCOD8173395
Probable space group: C M M 2
;
_chemical_formula_sum "Si O2"
_cell_formula_units_Z 64
_cell_length_a 8.839058
_cell_length_b 28.396925
_cell_length_c 12.957471
_cell_angle_alpha 90.000000
_cell_angle_beta 90.000000
_cell_angle_gamma 90.000000
_cell_volume 3252.352005
_symmetry_space_group_name_H-M "C M M 2"
_symmetry_group_IT_number 35
_symmetry_cell_setting 'orthorhombic'
loop_
_space_group_symop_operation_xyz
x,y,z
-x,-y,z
-x,y,z
x,-y,z
1/2+x,1/2+y,z
1/2-x,1/2-y,z
1/2-x,1/2+y,z
1/2+x,1/2-y,z
loop_
_atom_site_type_symbol
_atom_site_label
_atom_site_fract_x
_atom_site_fract_y
_atom_site_fract_z
Si Si1 0.666625 0.444434 0.846450
Si Si2 0.177888 0.948630 0.621999
Si Si3 0.177489 0.139826 0.138175
Si Si4 0.322343 0.053413 0.052596
Si Si5 0.822848 0.147783 0.541291
Si Si6 0.678747 0.300758 0.938774
Si Si7 0.178681 0.198801 0.332526
Si Si8 0.679416 0.801050 0.730186
O O1 0.500000 0.420906 0.862610
O O2 0.648808 0.500000 0.849449
O O3 0.739379 0.431436 0.734694
O O4 0.773488 0.427809 0.939464
O O5 0.212995 0.908517 0.537136
O O6 0.000000 0.954640 0.637321
O O7 0.246145 0.000000 0.589006
O O8 0.251664 0.087967 0.138402
O O9 0.240505 0.169622 0.234801
O O10 0.000000 0.132890 0.149126
O O11 0.223683 0.166663 0.034256
O O12 0.500000 0.055866 0.060538
O O13 0.264582 0.000000 0.072817
O O14 0.771103 0.170517 0.434252
O O15 0.721697 0.168291 0.631951
O O16 0.000000 0.157155 0.563385
O O17 0.500000 0.295245 0.926089
O O18 0.750000 0.250000 0.959407
O O19 0.749220 0.323498 0.834551
O O20 0.250000 0.250000 0.334039
O O21 0.000000 0.204832 0.326657
O O22 0.500000 0.797263 0.741255
O O23 0.750000 0.750000 0.713122
#
# Coordination Sequence:
#
# PCOD8173395 Si02
#       8
#     8   8   8   8   8   8   8   8
#     4   8  14  27  48  73 103 143 186 224 266 319
#     4   8  15  29  51  79 110 146 187 226 267 319
#     4  10  22  38  57  81 109 145 190 233 280 335
#     4  10  21  35  52  79 114 149 187 231 278 328
#     4  10  20  35  57  84 115 147 186 231 278 330
#     4  10  20  35  55  79 109 142 179 226 282 342
#     4  10  22  40  61  85 111 143 186 237 285 333
#     4  11  22  36  54  79 112 145 181 224 278 341
#
# _framework density 19.678068
#
# number of rings (size 3 to 8) (size 9 to 14) (size 15 to 20)
#    0.000    2.375    0.000    4.125    1.750    3.750 
#    0.000    0.625    0.000    2.625    0.000    0.000 
#    0.000    0.000    0.000    0.000    0.000    0.000 
#
# Total GULP energy -396694.944059 kJ/mol
# GULP energy per Si atom -12396.717002 kJ/mol
# Density = 1.963328 g / cm^3
# Si number density = 19.678068 Si / 1000 Ang^3
#
#
#
# Elastic Constant Matrix: (Units=GPa)
#
#
# Indices 1 2 3 4 5 6 
#
# 1 59.4999 36.8513 41.1042 0.0000 0.0000 0.0000
# 2 36.8513 129.7035 89.7719 0.0000 0.0000 0.0000
# 3 41.1042 89.7719 134.4724 0.0000 0.0000 0.0000
# 4 0.0000 0.0000 0.0000 37.1088 0.0000 0.0000
# 5 0.0000 0.0000 0.0000 0.0000 15.2832 0.0000
# 6 0.0000 0.0000 0.0000 0.0000 0.0000 25.3642
#
#
#
# Elastic Compliance Matrix: (Units=1/GPa)
#
#
# Indices 1 2 3 4 5 6 
#
# 1 0.021898 -0.002954 -0.004722 0.000000 0.000000 0.000000
# 2 -0.002954 0.014731 -0.008931 0.000000 0.000000 0.000000
# 3 -0.004722 -0.008931 0.014842 0.000000 0.000000 0.000000
# 4 0.000000 0.000000 0.000000 0.026948 0.000000 0.000000
# 5 0.000000 0.000000 0.000000 0.000000 0.065432 0.000000
# 6 0.000000 0.000000 0.000000 0.000000 0.000000 0.039426
#
#
# Mechanical properties :
#
#
# Convention : Reuss Voigt Hill
#
# Bulk Modulus (GPa) = 54.77140 73.23673 64.00406
# Shear Modulus (GPa) = 22.46440 25.94779 24.20609
#
# Velocity S-wave (km/s) = 3.38242 3.63521 3.51109
# Velocity P-wave (km/s) = 6.56875 7.41066 7.00237
#
# Compressibility (1/GPa) = 0.01825771
#
# Stress axis : x y z
#
# Youngs Moduli (GPa) = 45.66626 67.88617 67.37596
#
# Poissons Ratio (x) = 0.20050 0.31814
# Poissons Ratio (y) = 0.13488 0.60174
# Poissons Ratio (z) = 0.21563 0.60630
#
# Static dielectric constant tensor:
#      x y z
#    x 3.364750 0.000000 0.000000 
#    y 0.000000 3.767810 0.000000 
#    z 0.000000 0.000000 3.703710 
# 
# 
# High freq. dielectric constant tensor:
#      x y z
#    x 1.744380 0.000000 0.000000 
#    y 0.000000 1.777890 0.000000 
#    z 0.000000 0.000000 1.753670 
# 
# From -- ./inp_files/11881.got.cif
#   From: 2010.03.12/outbox.cif.g09.slc.cpg/sg35_6_cif.got.tgz:11881.got - 2010.04.14 02:02:04.
