data_PCOD8173599
_publ_section_title
;
Structure prediction by ZEFSAII (Michael W. Deem and Ramdas Pophale) SiO2 
 PCOD8173599
Probable space group: C M M 2
;
_chemical_formula_sum "Si O2"
_cell_formula_units_Z 48
_cell_length_a 17.701473
_cell_length_b 10.119288
_cell_length_c 13.909732
_cell_angle_alpha 90.000000
_cell_angle_beta 90.000000
_cell_angle_gamma 90.000000
_cell_volume 2491.598873
_symmetry_space_group_name_H-M "C M M 2"
_symmetry_group_IT_number 35
_symmetry_cell_setting 'orthorhombic'
loop_
_space_group_symop_operation_xyz
x,y,z
-x,-y,z
-x,y,z
x,-y,z
1/2+x,1/2+y,z
1/2-x,1/2-y,z
1/2-x,1/2+y,z
1/2+x,1/2-y,z
loop_
_atom_site_type_symbol
_atom_site_label
_atom_site_fract_x
_atom_site_fract_y
_atom_site_fract_z
Si Si1 0.342777 0.500000 0.233001
Si Si2 0.090302 0.500000 0.013082
Si Si3 0.660732 0.260287 0.928068
Si Si4 0.087943 0.850244 0.531358
Si Si5 0.319200 0.345740 0.719006
Si Si6 0.087584 0.000000 0.034266
Si Si7 0.665972 0.000000 0.221573
Si Si8 0.162456 0.253355 0.352327
O O1 0.402252 0.500000 0.147633
O O2 0.255395 0.500000 0.198475
O O3 0.363248 0.373998 0.295017
O O4 0.122097 0.500000 0.121316
O O5 0.000000 0.500000 0.017699
O O6 0.119790 0.624531 0.953431
O O7 0.750000 0.250000 0.945861
O O8 0.642679 0.301414 0.818868
O O9 0.628180 0.370279 0.997144
O O10 0.120275 0.821378 0.636384
O O11 0.119616 0.745314 0.454210
O O12 0.000000 0.828403 0.539618
O O13 0.108858 0.000000 0.499633
O O14 0.293532 0.500000 0.725021
O O15 0.250000 0.250000 0.695441
O O16 0.000000 0.000000 0.005336
O O17 0.641063 0.876166 0.285642
O O18 0.250000 0.250000 0.378054
#
# Coordination Sequence:
#
# PCOD8173599 Si02
#       8
#     4   4   8   8   8   4   4   8
#     4  10  20  36  59  86 117 160 211 256 302 362
#     4  12  26  42  61  92 133 170 203 260 330 380
#     4  11  23  42  66  90 122 167 213 258 309 372
#     4  10  21  38  61  90 124 162 199 248 312 370
#     4  10  22  41  68  95 121 158 208 257 304 363
#     4  12  24  38  61  96 125 158 209 266 314 372
#     4  10  22  38  61  86 121 166 209 254 310 368
#     4  10  20  37  60  88 117 159 208 255 300 356
#
# _framework density 19.264738000000001
#
# number of rings (size 3 to 8) (size 9 to 14) (size 15 to 20)
#    0.000    1.500    1.667    3.500    3.500    4.000 
#    1.500    0.000    0.000    0.000    0.000    0.000 
#    0.000    0.000    0.000    0.000    0.000    0.000 
#
# Total GULP energy -297647.554191 kJ/mol
# GULP energy per Si atom -12401.981425 kJ/mol
# Density = 1.922089 g / cm^3
# Si number density = 19.264738 Si / 1000 Ang^3
#
#
#
# Elastic Constant Matrix: (Units=GPa)
#
#
# Indices 1 2 3 4 5 6 
#
# 1 80.3825 39.0251 60.2489 0.0000 0.0000 0.0000
# 2 39.0251 146.9219 64.4475 0.0000 0.0000 0.0000
# 3 60.2489 64.4475 141.1786 0.0000 0.0000 0.0000
# 4 0.0000 0.0000 0.0000 39.2423 0.0000 0.0000
# 5 0.0000 0.0000 0.0000 0.0000 11.6496 0.0000
# 6 0.0000 0.0000 0.0000 0.0000 0.0000 20.0314
#
#
#
# Elastic Compliance Matrix: (Units=1/GPa)
#
#
# Indices 1 2 3 4 5 6 
#
# 1 0.018677 -0.001831 -0.007135 0.000000 0.000000 0.000000
# 2 -0.001831 0.008690 -0.003185 0.000000 0.000000 0.000000
# 3 -0.007135 -0.003185 0.011582 0.000000 0.000000 0.000000
# 4 0.000000 0.000000 0.000000 0.025483 0.000000 0.000000
# 5 0.000000 0.000000 0.000000 0.000000 0.085840 0.000000
# 6 0.000000 0.000000 0.000000 0.000000 0.000000 0.049922
#
#
# Mechanical properties :
#
#
# Convention : Reuss Voigt Hill
#
# Bulk Modulus (GPa) = 68.27550 77.32513 72.80031
# Shear Modulus (GPa) = 21.79800 27.83542 24.81671
#
# Velocity S-wave (km/s) = 3.36742 3.80529 3.59304
# Velocity P-wave (km/s) = 7.11597 7.71572 7.42190
#
# Compressibility (1/GPa) = 0.01464654
#
# Stress axis : x y z
#
# Youngs Moduli (GPa) = 53.54112 115.07374 86.34014
#
# Poissons Ratio (x) = 0.21075 0.61600
# Poissons Ratio (y) = 0.09806 0.27503
# Poissons Ratio (z) = 0.38199 0.36656
#
# Static dielectric constant tensor:
#      x y z
#    x 3.413050 0.000000 0.000000 
#    y 0.000000 3.713950 0.000000 
#    z 0.000000 0.000000 3.624210 
# 
# 
# High freq. dielectric constant tensor:
#      x y z
#    x 1.742110 0.000000 0.000000 
#    y 0.000000 1.758680 0.000000 
#    z 0.000000 0.000000 1.766100 
# 
# From -- ./inp_files/15299.got.cif
#   From: 2010.03.12/outbox.cif.g09.slc.cpg/sg35_8_cif.got.tgz:15299.got - 2010.04.14 02:02:04.
