data_PCOD8173215
_publ_section_title
;
Structure prediction by ZEFSAII (Michael W. Deem and Ramdas Pophale) SiO2 
 PCOD8173215
Probable space group: C M M 2
;
_chemical_formula_sum "Si O2"
_cell_formula_units_Z 48
_cell_length_a 15.745890
_cell_length_b 9.343410
_cell_length_c 16.955590
_cell_angle_alpha 90.000000
_cell_angle_beta 90.000000
_cell_angle_gamma 90.000000
_cell_volume 2494.511591
_symmetry_space_group_name_H-M "C M M 2"
_symmetry_group_IT_number 35
_symmetry_cell_setting 'orthorhombic'
loop_
_space_group_symop_operation_xyz
x,y,z
-x,-y,z
-x,y,z
x,-y,z
1/2+x,1/2+y,z
1/2-x,1/2-y,z
1/2-x,1/2+y,z
1/2+x,1/2-y,z
loop_
_atom_site_type_symbol
_atom_site_label
_atom_site_fract_x
_atom_site_fract_y
_atom_site_fract_z
Si Si1 0.000000 0.166569 0.128060
Si Si2 0.832240 0.168048 0.226249
Si Si3 0.164564 0.332925 0.868530
Si Si4 0.405692 0.669750 0.387423
Si Si5 0.500000 0.169798 0.965513
Si Si6 0.096855 0.844265 0.556729
Si Si7 0.833938 0.333268 0.688162
O O1 0.084195 0.207411 0.176258
O O2 0.000000 0.000000 0.105562
O O3 0.000000 0.258897 0.049572
O O4 0.750000 0.250000 0.191537
O O5 0.847013 0.224413 0.315688
O O6 0.813696 0.000000 0.221727
O O7 0.183131 0.500000 0.880687
O O8 0.250000 0.250000 0.893943
O O9 0.140012 0.299625 0.777853
O O10 0.084581 0.279635 0.919210
O O11 0.500000 0.737002 0.377268
O O12 0.412630 0.500000 0.380028
O O13 0.363619 0.710866 0.472982
O O14 0.500000 0.000000 0.973691
O O15 0.098266 0.728819 0.626939
O O16 0.000000 0.869945 0.534471
O O17 0.135948 0.000000 0.582084
O O18 0.821952 0.500000 0.674046
O O19 0.750000 0.250000 0.663719
#
# Coordination Sequence:
#
# PCOD8173215 Si02
#       7
#     4   8   8   8   4   8   8
#     4  10  22  40  60  83 112 144 180 221 268 334
#     4  10  20  36  59  84 110 145 186 224 270 325
#     4   9  20  38  59  82 111 146 184 226 273 328
#     4   8  14  30  54  75 103 146 187 224 266 318
#     4  10  22  40  62  85 110 144 178 219 280 334
#     4   9  18  31  50  78 109 143 185 226 267 317
#     4  10  20  34  53  74 105 144 183 226 274 322
#
# _framework density 19.242243999999999
#
# number of rings (size 3 to 8) (size 9 to 14) (size 15 to 20)
#    0.000    2.667    0.833    1.500    1.167    3.667 
#    0.000    5.833    0.000    1.000    0.000    0.000 
#    0.000    0.000    0.000    0.000    0.000    0.000 
#
# Total GULP energy -297426.345964 kJ/mol
# GULP energy per Si atom -12392.764415 kJ/mol
# Density = 1.919845 g / cm^3
# Si number density = 19.242244 Si / 1000 Ang^3
#
#
#
# Elastic Constant Matrix: (Units=GPa)
#
#
# Indices 1 2 3 4 5 6 
#
# 1 121.5890 45.7832 63.8430 0.0000 0.0000 0.0000
# 2 45.7832 62.0735 52.8949 0.0000 0.0000 0.0000
# 3 63.8430 52.8949 127.4253 0.0000 0.0000 0.0000
# 4 0.0000 0.0000 0.0000 29.3246 0.0000 0.0000
# 5 0.0000 0.0000 0.0000 0.0000 13.2538 0.0000
# 6 0.0000 0.0000 0.0000 0.0000 0.0000 29.0162
#
#
#
# Elastic Compliance Matrix: (Units=1/GPa)
#
#
# Indices 1 2 3 4 5 6 
#
# 1 0.012448 -0.005983 -0.003753 0.000000 0.000000 0.000000
# 2 -0.005983 0.027803 -0.008544 0.000000 0.000000 0.000000
# 3 -0.003753 -0.008544 0.013275 0.000000 0.000000 0.000000
# 4 0.000000 0.000000 0.000000 0.034101 0.000000 0.000000
# 5 0.000000 0.000000 0.000000 0.000000 0.075450 0.000000
# 6 0.000000 0.000000 0.000000 0.000000 0.000000 0.034464
#
#
# Mechanical properties :
#
#
# Convention : Reuss Voigt Hill
#
# Bulk Modulus (GPa) = 58.94068 70.68112 64.81090
# Shear Modulus (GPa) = 20.85460 24.22334 22.53897
#
# Velocity S-wave (km/s) = 3.29567 3.55189 3.42618
# Velocity P-wave (km/s) = 6.72156 7.32347 7.02896
#
# Compressibility (1/GPa) = 0.01696621
#
# Stress axis : x y z
#
# Youngs Moduli (GPa) = 80.33465 35.96736 75.33175
#
# Poissons Ratio (x) = 0.21519 0.28273
# Poissons Ratio (y) = 0.48064 0.64360
# Poissons Ratio (z) = 0.30151 0.30729
#
# Static dielectric constant tensor:
#      x y z
#    x 3.450720 0.000000 0.000000 
#    y 0.000000 3.277170 0.000000 
#    z 0.000000 0.000000 3.619040 
# 
# 
# High freq. dielectric constant tensor:
#      x y z
#    x 1.742180 0.000000 0.000000 
#    y 0.000000 1.723730 0.000000 
#    z 0.000000 0.000000 1.755370 
# 
# From -- ./inp_files/15256.got.cif
#   From: 2010.03.12/outbox.cif.g09.slc.cpg/sg35_8_cif.got.tgz:15256.got - 2010.04.14 02:02:04.
