data_PCOD8173154
_publ_section_title
;
Structure prediction by ZEFSAII (Michael W. Deem and Ramdas Pophale) SiO2 
 PCOD8173154
Probable space group: C M M 2
;
_chemical_formula_sum "Si O2"
_cell_formula_units_Z 56
_cell_length_a 8.940074
_cell_length_b 18.444507
_cell_length_c 17.944360
_cell_angle_alpha 90.000000
_cell_angle_beta 90.000000
_cell_angle_gamma 90.000000
_cell_volume 2958.939862
_symmetry_space_group_name_H-M "C M M 2"
_symmetry_group_IT_number 35
_symmetry_cell_setting 'orthorhombic'
loop_
_space_group_symop_operation_xyz
x,y,z
-x,-y,z
-x,y,z
x,-y,z
1/2+x,1/2+y,z
1/2-x,1/2-y,z
1/2-x,1/2+y,z
1/2+x,1/2-y,z
loop_
_atom_site_type_symbol
_atom_site_label
_atom_site_fract_x
_atom_site_fract_y
_atom_site_fract_z
Si Si1 0.322713 0.829037 0.945350
Si Si2 0.825562 0.173507 0.220421
Si Si3 0.675605 0.672111 0.800512
Si Si4 0.672301 0.584640 0.073845
Si Si5 0.172809 0.826505 0.637226
Si Si6 0.166562 0.414884 0.515198
Si Si7 0.675778 0.082621 0.346444
O O1 0.500000 0.820806 0.940144
O O2 0.250000 0.750000 0.957492
O O3 0.257989 0.867618 0.869724
O O4 0.280959 0.880741 0.013201
O O5 0.750000 0.250000 0.203601
O O6 0.789028 0.119636 0.153024
O O7 0.764290 0.138329 0.295578
O O8 0.000000 0.187017 0.230383
O O9 0.500000 0.677423 0.818117
O O10 0.750000 0.750000 0.797325
O O11 0.705847 0.637158 0.718905
O O12 0.500000 0.599105 0.051711
O O13 0.707684 0.500000 0.079886
O O14 0.250000 0.750000 0.625989
O O15 0.219496 0.881396 0.573419
O O16 0.000000 0.810122 0.629532
O O17 0.168441 0.500000 0.526532
O O18 0.215679 0.395744 0.431213
O O19 0.000000 0.384613 0.530534
O O20 0.500000 0.090378 0.331975
O O21 0.726778 0.000000 0.330118
#
# Coordination Sequence:
#
# PCOD8173154 Si02
#       7
#     8   8   8   8   8   8   8
#     4  11  21  34  56  83 109 140 180 222 266 317
#     4  11  23  38  58  84 111 141 178 219 265 315
#     4   9  17  31  51  76 106 140 178 221 270 318
#     4  10  22  40  59  80 109 142 176 218 268 318
#     4  10  20  33  53  80 108 141 181 224 269 318
#     4   9  19  36  56  78 107 143 180 220 269 321
#     4   9  19  37  59  81 107 141 179 220 269 321
#
# _framework density 18.925695999999999
#
# number of rings (size 3 to 8) (size 9 to 14) (size 15 to 20)
#    0.000    2.143    0.000    5.143    0.000    6.571 
#    0.000    2.143    0.000    0.857    0.000    0.000 
#    0.000    0.000    0.000    0.000    0.000    0.000 
#
# Total GULP energy -347131.107429 kJ/mol
# GULP energy per Si atom -12397.539551 kJ/mol
# Density = 1.888262 g / cm^3
# Si number density = 18.925696 Si / 1000 Ang^3
#
#
#
# Elastic Constant Matrix: (Units=GPa)
#
#
# Indices 1 2 3 4 5 6 
#
# 1 110.3178 45.6155 70.5791 0.0000 0.0000 0.0000
# 2 45.6155 77.6956 58.0878 0.0000 0.0000 0.0000
# 3 70.5791 58.0878 141.1587 0.0000 0.0000 0.0000
# 4 0.0000 0.0000 0.0000 -36.8003 0.0000 0.0000
# 5 0.0000 0.0000 0.0000 0.0000 37.2290 0.0000
# 6 0.0000 0.0000 0.0000 0.0000 0.0000 27.9511
#
#
#
# Elastic Compliance Matrix: (Units=1/GPa)
#
#
# Indices 1 2 3 4 5 6 
#
# 1 0.014301 -0.004406 -0.005338 0.000000 0.000000 0.000000
# 2 -0.004406 0.019947 -0.006006 0.000000 0.000000 0.000000
# 3 -0.005338 -0.006006 0.012224 0.000000 0.000000 0.000000
# 4 0.000000 0.000000 0.000000 -0.027174 0.000000 0.000000
# 5 0.000000 0.000000 0.000000 0.000000 0.026861 0.000000
# 6 0.000000 0.000000 0.000000 0.000000 0.000000 0.035777
#
#
# Mechanical properties :
#
#
# Convention : Reuss Voigt Hill
#
# Bulk Modulus (GPa) = 66.77771 75.30410 71.04091
# Shear Modulus (GPa) = 42.22017 16.00195 29.11106
#
# Velocity S-wave (km/s) = 4.72830 2.91093 3.92621
# Velocity P-wave (km/s) = 8.07278 7.15358 7.62704
#
# Compressibility (1/GPa) = 0.01497506
#
# Stress axis : x y z
#
# Youngs Moduli (GPa) = 69.92320 50.13189 81.80383
#
# Poissons Ratio (x) = 0.22087 0.43664
# Poissons Ratio (y) = 0.30807 0.49128
# Poissons Ratio (z) = 0.37322 0.30107
#
# Static dielectric constant tensor:
#      x y z
#    x 2.914920 0.000000 0.000000 
#    y 0.000000 3.214950 0.000000 
#    z 0.000000 0.000000 4.003950 
# 
# 
# High freq. dielectric constant tensor:
#      x y z
#    x 1.741870 0.000000 0.000000 
#    y 0.000000 1.710740 0.000000 
#    z 0.000000 0.000000 1.755430 
# 
# From -- ./inp_files/15652.got.cif
#   From: 2010.03.12/outbox.cif.g09.slc.cpg/sg35_8_cif.got.tgz:15652.got - 2010.04.14 02:02:04.
