data_PCOD8173242
_publ_section_title
;
Structure prediction by ZEFSAII (Michael W. Deem and Ramdas Pophale) SiO2 
 PCOD8173242
Probable space group: C M M 2
;
_chemical_formula_sum "Si O2"
_cell_formula_units_Z 48
_cell_length_a 18.711210
_cell_length_b 9.071451
_cell_length_c 15.156900
_cell_angle_alpha 90.000000
_cell_angle_beta 90.000000
_cell_angle_gamma 90.000000
_cell_volume 2572.699235
_symmetry_space_group_name_H-M "C M M 2"
_symmetry_group_IT_number 35
_symmetry_cell_setting 'orthorhombic'
loop_
_space_group_symop_operation_xyz
x,y,z
-x,-y,z
-x,y,z
x,-y,z
1/2+x,1/2+y,z
1/2-x,1/2-y,z
1/2-x,1/2+y,z
1/2+x,1/2-y,z
loop_
_atom_site_type_symbol
_atom_site_label
_atom_site_fract_x
_atom_site_fract_y
_atom_site_fract_z
Si Si1 0.920619 0.174851 0.007140
Si Si2 0.915609 0.834729 0.811575
Si Si3 0.322275 0.173263 0.676369
Si Si4 0.173486 0.175310 0.168915
Si Si5 0.417029 0.829050 0.316333
Si Si6 0.320800 0.829641 0.477340
O O1 0.863862 0.231955 0.078861
O O2 0.000000 0.240026 0.027570
O O3 0.926112 0.000000 0.010406
O O4 0.894381 0.222806 0.909592
O O5 0.885886 0.723908 0.739095
O O6 0.000000 0.835679 0.802896
O O7 0.885575 0.000000 0.795896
O O8 0.250000 0.250000 0.709161
O O9 0.340580 0.222937 0.576234
O O10 0.312823 0.000000 0.684332
O O11 0.250000 0.250000 0.177497
O O12 0.123595 0.224308 0.248894
O O13 0.182615 0.000000 0.171161
O O14 0.500000 0.787249 0.315637
O O15 0.387472 0.795108 0.414164
O O16 0.404587 0.000000 0.291098
O O17 0.250000 0.750000 0.441244
O O18 0.301263 0.000000 0.477596
#
# Coordination Sequence:
#
# PCOD8173242 Si02
#       6
#     8   8   8   8   8   8
#     4   8  16  33  55  76 101 136 174 212 258 310
#     4   9  18  34  55  78 106 139 173 212 260 310
#     4  10  20  34  53  77 106 139 176 216 258 306
#     4  11  22  36  55  79 107 138 174 214 257 307
#     4  10  21  37  56  79 107 137 170 211 260 311
#     4   9  19  35  54  75 102 138 174 212 259 308
#
# _framework density 18.657447000000001
#
# number of rings (size 3 to 8) (size 9 to 14) (size 15 to 20)
#    0.000    2.500    0.000    3.000    0.000    5.333 
#    0.000    5.000    0.000    2.000    0.000    0.000 
#    0.000    0.000    0.000    0.000    0.000    0.000 
#
# Total GULP energy -297596.345190 kJ/mol
# GULP energy per Si atom -12399.847716 kJ/mol
# Density = 1.861498 g / cm^3
# Si number density = 18.657447 Si / 1000 Ang^3
#
#
#
# Elastic Constant Matrix: (Units=GPa)
#
#
# Indices 1 2 3 4 5 6 
#
# 1 111.7360 42.0851 68.2272 0.0000 0.0000 0.0000
# 2 42.0851 61.1207 43.5925 0.0000 0.0000 0.0000
# 3 68.2272 43.5925 118.5285 0.0000 0.0000 0.0000
# 4 0.0000 0.0000 0.0000 10.0310 0.0000 0.0000
# 5 0.0000 0.0000 0.0000 0.0000 35.2442 0.0000
# 6 0.0000 0.0000 0.0000 0.0000 0.0000 22.4527
#
#
#
# Elastic Compliance Matrix: (Units=1/GPa)
#
#
# Indices 1 2 3 4 5 6 
#
# 1 0.015138 -0.005705 -0.006615 0.000000 0.000000 0.000000
# 2 -0.005705 0.024329 -0.005664 0.000000 0.000000 0.000000
# 3 -0.006615 -0.005664 0.014328 0.000000 0.000000 0.000000
# 4 0.000000 0.000000 0.000000 0.099691 0.000000 0.000000
# 5 0.000000 0.000000 0.000000 0.000000 0.028373 0.000000
# 6 0.000000 0.000000 0.000000 0.000000 0.000000 0.044538
#
#
# Mechanical properties :
#
#
# Convention : Reuss Voigt Hill
#
# Bulk Modulus (GPa) = 56.09773 66.57719 61.33746
# Shear Modulus (GPa) = 18.63534 22.71094 20.67314
#
# Velocity S-wave (km/s) = 3.16383 3.49271 3.33233
# Velocity P-wave (km/s) = 6.59386 7.21296 6.91034
#
# Compressibility (1/GPa) = 0.01782603
#
# Stress axis : x y z
#
# Youngs Moduli (GPa) = 66.05923 41.10349 69.79449
#
# Poissons Ratio (x) = 0.23450 0.46172
# Poissons Ratio (y) = 0.37687 0.39530
# Poissons Ratio (z) = 0.43701 0.23280
#
# Static dielectric constant tensor:
#      x y z
#    x 3.543550 0.000000 0.000000 
#    y 0.000000 3.358560 0.000000 
#    z 0.000000 0.000000 3.728110 
# 
# 
# High freq. dielectric constant tensor:
#      x y z
#    x 1.722240 0.000000 0.000000 
#    y 0.000000 1.708200 0.000000 
#    z 0.000000 0.000000 1.735560 
# 
# From -- ./inp_files/15082.got.cif
#   From: 2010.03.12/outbox.cif.g09.slc.cpg/sg35_8_cif.got.tgz:15082.got - 2010.04.14 02:02:04.
