data_PCOD8173988
_publ_section_title
;
Structure prediction by ZEFSAII (Michael W. Deem and Ramdas Pophale) SiO2 
 PCOD8173988
Probable space group: C M M 2
;
_chemical_formula_sum "Si O2"
_cell_formula_units_Z 48
_cell_length_a 9.497924
_cell_length_b 16.276115
_cell_length_c 15.010335
_cell_angle_alpha 90.000000
_cell_angle_beta 90.000000
_cell_angle_gamma 90.000000
_cell_volume 2320.437230
_symmetry_space_group_name_H-M "C M M 2"
_symmetry_group_IT_number 35
_symmetry_cell_setting 'orthorhombic'
loop_
_space_group_symop_operation_xyz
x,y,z
-x,-y,z
-x,y,z
x,-y,z
1/2+x,1/2+y,z
1/2-x,1/2-y,z
1/2-x,1/2+y,z
1/2+x,1/2-y,z
loop_
_atom_site_type_symbol
_atom_site_label
_atom_site_fract_x
_atom_site_fract_y
_atom_site_fract_z
Si Si1 0.500000 0.764951 0.226810
Si Si2 0.256044 0.410925 0.478048
Si Si3 0.163095 0.093980 0.982201
Si Si4 0.250000 0.750000 0.101247
Si Si5 0.000000 0.862835 0.368605
Si Si6 0.500000 0.811488 0.417676
Si Si7 0.661940 0.673025 0.648232
Si Si8 0.337919 0.094483 0.804747
O O1 0.368662 0.783985 0.165794
O O2 0.500000 0.670644 0.266439
O O3 0.500000 0.827829 0.310726
O O4 0.184396 0.500000 0.483504
O O5 0.360597 0.413284 0.392691
O O6 0.337002 0.394980 0.570499
O O7 0.137084 0.344595 0.464410
O O8 0.268224 0.107256 0.900640
O O9 0.000000 0.102381 0.952597
O O10 0.186314 0.000000 0.021058
O O11 0.198051 0.169406 0.048138
O O12 0.000000 0.785470 0.437527
O O13 0.500000 0.694143 0.672815
O O14 0.750000 0.750000 0.611780
O O15 0.743571 0.643811 0.735847
O O16 0.500000 0.126783 0.807010
O O17 0.335783 0.000000 0.776151
#
# Coordination Sequence:
#
# PCOD8173988 Si02
#       8
#     4   8   8   4   4   4   8   8
#     4  10  24  42  70  96 128 174 214 272 348 400
#     4  12  24  40  65  99 131 174 223 273 327 387
#     4  10  23  44  70 101 139 181 226 276 335 403
#     4  12  22  44  72 104 130 178 220 280 340 420
#     4  10  21  43  68  87 128 169 221 263 329 395
#     4  10  23  43  66  89 130 173 215 269 333 397
#     4  12  26  42  64  96 133 180 231 275 323 390
#     4  10  23  43  68  99 138 178 217 276 332 387
#
# _framework density 20.685758
#
# number of rings (size 3 to 8) (size 9 to 14) (size 15 to 20)
#    0.500    0.667    1.667    4.500    4.667    1.667 
#    0.000    5.000    0.000    0.000    0.000    0.000 
#    0.000    0.000    0.000    0.000    0.000    0.000 
#
# Total GULP energy -297435.881849 kJ/mol
# GULP energy per Si atom -12393.161744 kJ/mol
# Density = 2.063868 g / cm^3
# Si number density = 20.685758 Si / 1000 Ang^3
#
#
#
# Elastic Constant Matrix: (Units=GPa)
#
#
# Indices 1 2 3 4 5 6 
#
# 1 159.4434 27.6296 42.0374 0.0000 0.0000 0.0000
# 2 27.6296 97.5861 29.4434 0.0000 0.0000 0.0000
# 3 42.0374 29.4434 79.2082 0.0000 0.0000 0.0000
# 4 0.0000 0.0000 0.0000 20.1594 0.0000 0.0000
# 5 0.0000 0.0000 0.0000 0.0000 43.2208 0.0000
# 6 0.0000 0.0000 0.0000 0.0000 0.0000 24.9878
#
#
#
# Elastic Compliance Matrix: (Units=1/GPa)
#
#
# Indices 1 2 3 4 5 6 
#
# 1 0.007382 -0.001023 -0.003537 0.000000 0.000000 0.000000
# 2 -0.001023 0.011684 -0.003800 0.000000 0.000000 0.000000
# 3 -0.003537 -0.003800 0.015915 0.000000 0.000000 0.000000
# 4 0.000000 0.000000 0.000000 0.049605 0.000000 0.000000
# 5 0.000000 0.000000 0.000000 0.000000 0.023137 0.000000
# 6 0.000000 0.000000 0.000000 0.000000 0.000000 0.040020
#
#
# Mechanical properties :
#
#
# Convention : Reuss Voigt Hill
#
# Bulk Modulus (GPa) = 54.76628 59.38430 57.07529
# Shear Modulus (GPa) = 29.31713 33.48208 31.39960
#
# Velocity S-wave (km/s) = 3.76874 4.02755 3.90029
# Velocity P-wave (km/s) = 6.74319 7.09918 6.92348
#
# Compressibility (1/GPa) = 0.01825941
#
# Stress axis : x y z
#
# Youngs Moduli (GPa) = 135.47032 85.59074 62.83377
#
# Poissons Ratio (x) = 0.08753 0.22227
# Poissons Ratio (y) = 0.13854 0.23878
# Poissons Ratio (z) = 0.47922 0.32527
#
# Static dielectric constant tensor:
#      x y z
#    x 3.460150 0.000000 0.000000 
#    y 0.000000 3.794830 0.000000 
#    z 0.000000 0.000000 3.579140 
# 
# 
# High freq. dielectric constant tensor:
#      x y z
#    x 1.825740 0.000000 0.000000 
#    y 0.000000 1.807260 0.000000 
#    z 0.000000 0.000000 1.800270 
# 
# From -- ./inp_files/15336.got.cif
#   From: 2010.03.12/outbox.cif.g09.slc.cpg/sg35_8_cif.got.tgz:15336.got - 2010.04.14 02:02:04.
