data_PCOD8173516
_publ_section_title
;
Structure prediction by ZEFSAII (Michael W. Deem and Ramdas Pophale) SiO2 
 PCOD8173516
Probable space group: C M M 2
;
_chemical_formula_sum "Si O2"
_cell_formula_units_Z 64
_cell_length_a 14.638449
_cell_length_b 23.927365
_cell_length_c 9.887752
_cell_angle_alpha 90.000000
_cell_angle_beta 90.000000
_cell_angle_gamma 90.000000
_cell_volume 3463.279193
_symmetry_space_group_name_H-M "C M M 2"
_symmetry_group_IT_number 35
_symmetry_cell_setting 'orthorhombic'
loop_
_space_group_symop_operation_xyz
x,y,z
-x,-y,z
-x,y,z
x,-y,z
1/2+x,1/2+y,z
1/2-x,1/2-y,z
1/2-x,1/2+y,z
1/2+x,1/2-y,z
loop_
_atom_site_type_symbol
_atom_site_label
_atom_site_fract_x
_atom_site_fract_y
_atom_site_fract_z
Si Si1 0.607070 0.878615 0.111280
Si Si2 0.400409 0.663930 0.593110
Si Si3 0.107703 0.266918 0.245126
Si Si4 0.605937 0.212686 0.542698
Si Si5 0.718995 0.890674 0.610818
Si Si6 0.601934 0.646394 0.274653
Si Si7 0.760160 0.565261 0.310174
Si Si8 0.103621 0.436992 0.840331
O O1 0.500000 0.886945 0.134579
O O2 0.635745 0.813645 0.135028
O O3 0.653437 0.919470 0.219117
O O4 0.634984 0.895237 0.959483
O O5 0.500000 0.647125 0.653569
O O6 0.379381 0.729063 0.622455
O O7 0.323243 0.623508 0.655234
O O8 0.403473 0.658327 0.432714
O O9 0.147841 0.285110 0.390822
O O10 0.140619 0.204059 0.204699
O O11 0.000000 0.261970 0.263624
O O12 0.500000 0.195600 0.540505
O O13 0.661569 0.166015 0.621737
O O14 0.717174 0.917791 0.463210
O O15 0.674054 0.933068 0.716370
O O16 0.500000 0.630675 0.220592
O O17 0.671617 0.596183 0.246842
O O18 0.739269 0.500000 0.303451
O O19 0.108285 0.500000 0.896611
O O20 0.000000 0.422972 0.792884
#
# Coordination Sequence:
#
# PCOD8173516 Si02
#       8
#     8   8   8   8   8   8   8   8
#     4  10  20  36  55  76 103 137 175 214 264 326
#     4   8  16  29  48  75 106 138 170 212 270 323
#     4   8  14  28  52  79 102 129 169 213 261 311
#     4   9  15  26  47  78 108 131 164 214 267 314
#     4  11  19  31  52  77 105 136 180 222 261 304
#     4   8  16  31  51  77 108 136 168 218 272 313
#     4  11  22  32  50  80 107 139 183 220 254 305
#     4  10  22  38  53  71 103 145 177 210 267 329
#
# _framework density 18.479596000000001
#
# number of rings (size 3 to 8) (size 9 to 14) (size 15 to 20)
#    0.000    2.625    1.250    3.000    0.000    2.000 
#    0.000    0.000    5.500    1.875    0.000    0.000 
#    0.000    0.000    0.000    0.000    0.000    0.000 
#
# Total GULP energy -396643.059145 kJ/mol
# GULP energy per Si atom -12395.095598 kJ/mol
# Density = 1.843754 g / cm^3
# Si number density = 18.479596 Si / 1000 Ang^3
#
#
#
# Elastic Constant Matrix: (Units=GPa)
#
#
# Indices 1 2 3 4 5 6 
#
# 1 86.8196 49.8899 37.7526 0.0000 0.0000 0.0000
# 2 49.8899 110.9992 32.9793 0.0000 0.0000 0.0000
# 3 37.7526 32.9793 61.4496 0.0000 0.0000 0.0000
# 4 0.0000 0.0000 0.0000 18.5331 0.0000 0.0000
# 5 0.0000 0.0000 0.0000 0.0000 13.9777 0.0000
# 6 0.0000 0.0000 0.0000 0.0000 0.0000 25.1441
#
#
#
# Elastic Compliance Matrix: (Units=1/GPa)
#
#
# Indices 1 2 3 4 5 6 
#
# 1 0.018445 -0.005857 -0.008188 0.000000 0.000000 0.000000
# 2 -0.005857 0.012578 -0.003152 0.000000 0.000000 0.000000
# 3 -0.008188 -0.003152 0.022996 0.000000 0.000000 0.000000
# 4 0.000000 0.000000 0.000000 0.053957 0.000000 0.000000
# 5 0.000000 0.000000 0.000000 0.000000 0.071542 0.000000
# 6 0.000000 0.000000 0.000000 0.000000 0.000000 0.039771
#
#
# Mechanical properties :
#
#
# Convention : Reuss Voigt Hill
#
# Bulk Modulus (GPa) = 50.95951 55.61243 53.28597
# Shear Modulus (GPa) = 19.21412 20.77409 19.99411
#
# Velocity S-wave (km/s) = 3.22801 3.35649 3.29288
# Velocity P-wave (km/s) = 6.44433 6.72166 6.58445
#
# Compressibility (1/GPa) = 0.01962342
#
# Stress axis : x y z
#
# Youngs Moduli (GPa) = 54.21666 79.50247 43.48639
#
# Poissons Ratio (x) = 0.46567 0.35607
# Poissons Ratio (y) = 0.31756 0.13707
# Poissons Ratio (z) = 0.44393 0.25060
#
# Static dielectric constant tensor:
#      x y z
#    x 3.658950 0.000000 0.000000 
#    y 0.000000 3.492330 0.000000 
#    z 0.000000 0.000000 2.939000 
# 
# 
# High freq. dielectric constant tensor:
#      x y z
#    x 1.720980 0.000000 0.000000 
#    y 0.000000 1.717840 0.000000 
#    z 0.000000 0.000000 1.661570 
# 
# From -- ./inp_files/7847.got.cif
#   From: 2010.03.12/outbox.cif.g09.slc.cpg/sg35_4_cif.got.tgz:7847.got - 2010.04.14 02:02:04.
