data_PCOD8173155
_publ_section_title
;
Structure prediction by ZEFSAII (Michael W. Deem and Ramdas Pophale) SiO2 
 PCOD8173155
Probable space group: C M M 2
;
_chemical_formula_sum "Si O2"
_cell_formula_units_Z 64
_cell_length_a 17.676524
_cell_length_b 14.288241
_cell_length_c 12.499745
_cell_angle_alpha 90.000000
_cell_angle_beta 90.000000
_cell_angle_gamma 90.000000
_cell_volume 3157.016032
_symmetry_space_group_name_H-M "C M M 2"
_symmetry_group_IT_number 35
_symmetry_cell_setting 'orthorhombic'
loop_
_space_group_symop_operation_xyz
x,y,z
-x,-y,z
-x,y,z
x,-y,z
1/2+x,1/2+y,z
1/2-x,1/2-y,z
1/2-x,1/2+y,z
1/2+x,1/2-y,z
loop_
_atom_site_type_symbol
_atom_site_label
_atom_site_fract_x
_atom_site_fract_y
_atom_site_fract_z
Si Si1 0.835249 0.606836 0.043830
Si Si2 0.175052 0.107609 0.105810
Si Si3 0.586872 0.100361 0.253658
Si Si4 0.589956 0.394855 0.514316
Si Si5 0.409867 0.700159 0.298593
Si Si6 0.320714 0.108758 0.811581
Si Si7 0.913522 0.239983 0.701711
Si Si8 0.352526 0.394288 0.862494
O O1 0.811929 0.500000 0.017834
O O2 0.760476 0.649029 0.101157
O O3 0.904447 0.617532 0.125582
O O4 0.854400 0.647193 0.926023
O O5 0.127036 0.166410 0.189311
O O6 0.172514 0.000000 0.142525
O O7 0.139610 0.121952 0.988835
O O8 0.500000 0.088429 0.279194
O O9 0.616551 0.191241 0.317664
O O10 0.627139 0.000000 0.284844
O O11 0.500000 0.396929 0.516307
O O12 0.621703 0.500000 0.535607
O O13 0.618952 0.360684 0.398278
O O14 0.618982 0.321094 0.602452
O O15 0.500000 0.694260 0.284945
O O16 0.360621 0.168839 0.717987
O O17 0.231242 0.127552 0.816815
O O18 0.339513 0.000000 0.789244
O O19 0.911510 0.173989 0.805624
O O20 0.000000 0.272349 0.681598
O O21 0.375060 0.500000 0.833550
#
# Coordination Sequence:
#
# PCOD8173155 Si02
#       8
#     8   8   8   8   8   8   8   8
#     4   8  16  32  52  74 105 144 180 214 260 323
#     4   9  18  32  52  79 107 137 174 219 274 328
#     4   9  18  32  50  73 104 142 180 218 262 316
#     4   9  19  37  57  77 106 145 184 225 280 341
#     4  10  20  33  53  80 108 142 186 224 271 333
#     4   9  19  36  56  78 109 152 190 220 270 335
#     4  11  22  34  55  84 110 141 188 236 279 327
#     4   9  19  36  56  79 110 147 183 224 279 340
#
# _framework density 20.272307999999999
#
# number of rings (size 3 to 8) (size 9 to 14) (size 15 to 20)
#    0.000    2.750    0.000    2.625    1.750    3.250 
#    0.000    3.125    5.500    2.250    0.000    0.000 
#    0.000    0.000    0.000    0.000    0.000    0.000 
#
# Total GULP energy -396521.804520 kJ/mol
# GULP energy per Si atom -12391.306391 kJ/mol
# Density = 2.022617 g / cm^3
# Si number density = 20.272308 Si / 1000 Ang^3
#
#
#
# Elastic Constant Matrix: (Units=GPa)
#
#
# Indices 1 2 3 4 5 6 
#
# 1 32.2625 29.3650 25.5914 0.0000 0.0000 0.0000
# 2 29.3650 130.3081 58.9381 0.0000 0.0000 0.0000
# 3 25.5914 58.9381 88.6031 0.0000 0.0000 0.0000
# 4 0.0000 0.0000 0.0000 31.4926 0.0000 0.0000
# 5 0.0000 0.0000 0.0000 0.0000 22.3456 0.0000
# 6 0.0000 0.0000 0.0000 0.0000 0.0000 24.3080
#
#
#
# Elastic Compliance Matrix: (Units=1/GPa)
#
#
# Indices 1 2 3 4 5 6 
#
# 1 0.043105 -0.005839 -0.008566 0.000000 0.000000 0.000000
# 2 -0.005839 0.011768 -0.006141 0.000000 0.000000 0.000000
# 3 -0.008566 -0.006141 0.017845 0.000000 0.000000 0.000000
# 4 0.000000 0.000000 0.000000 0.031753 0.000000 0.000000
# 5 0.000000 0.000000 0.000000 0.000000 0.044752 0.000000
# 6 0.000000 0.000000 0.000000 0.000000 0.000000 0.041139
#
#
# Mechanical properties :
#
#
# Convention : Reuss Voigt Hill
#
# Bulk Modulus (GPa) = 31.62002 53.21808 42.41905
# Shear Modulus (GPa) = 20.66142 24.78119 22.72131
#
# Velocity S-wave (km/s) = 3.19595 3.50010 3.35147
# Velocity P-wave (km/s) = 5.40835 6.53015 5.99555
#
# Compressibility (1/GPa) = 0.03162553
#
# Stress axis : x y z
#
# Youngs Moduli (GPa) = 23.19900 84.97853 56.03686
#
# Poissons Ratio (x) = 0.49623 0.48000
# Poissons Ratio (y) = 0.13547 0.34413
# Poissons Ratio (z) = 0.19872 0.52187
#
# Static dielectric constant tensor:
#      x y z
#    x 3.320440 0.000000 0.000000 
#    y 0.000000 4.105470 0.000000 
#    z 0.000000 0.000000 3.525380 
# 
# 
# High freq. dielectric constant tensor:
#      x y z
#    x 1.754680 0.000000 0.000000 
#    y 0.000000 1.809140 0.000000 
#    z 0.000000 0.000000 1.770010 
# 
# From -- ./inp_files/13209.got.cif
#   From: 2010.03.12/outbox.cif.g09.slc.cpg/sg35_7_cif.got.tgz:13209.got - 2010.04.14 02:02:04.
