data_PCOD8173167
_publ_section_title
;
Structure prediction by ZEFSAII (Michael W. Deem and Ramdas Pophale) SiO2 
 PCOD8173167
Probable space group: C M M 2
;
_chemical_formula_sum "Si O2"
_cell_formula_units_Z 48
_cell_length_a 10.123045
_cell_length_b 17.728824
_cell_length_c 14.175513
_cell_angle_alpha 90.000000
_cell_angle_beta 90.000000
_cell_angle_gamma 90.000000
_cell_volume 2544.074827
_symmetry_space_group_name_H-M "C M M 2"
_symmetry_group_IT_number 35
_symmetry_cell_setting 'orthorhombic'
loop_
_space_group_symop_operation_xyz
x,y,z
-x,-y,z
-x,y,z
x,-y,z
1/2+x,1/2+y,z
1/2-x,1/2-y,z
1/2-x,1/2+y,z
1/2+x,1/2-y,z
loop_
_atom_site_type_symbol
_atom_site_label
_atom_site_fract_x
_atom_site_fract_y
_atom_site_fract_z
Si Si1 0.740726 0.840060 0.783210
Si Si2 0.761344 0.412669 0.200647
Si Si3 0.656816 0.821400 0.584564
Si Si4 0.000000 0.331745 0.902050
Si Si5 0.649130 0.085732 0.401154
Si Si6 0.000000 0.676198 0.115448
Si Si7 0.000000 0.855944 0.102391
Si Si8 0.000000 0.847030 0.883926
O O1 0.750000 0.750000 0.781166
O O2 0.702199 0.867923 0.677903
O O3 0.628522 0.867742 0.854710
O O4 0.874859 0.876363 0.823828
O O5 0.801187 0.500000 0.181685
O O6 0.752737 0.398424 0.313507
O O7 0.869366 0.355144 0.162816
O O8 0.624574 0.393967 0.151497
O O9 0.500000 0.801067 0.591704
O O10 0.750000 0.750000 0.576770
O O11 0.691982 0.867844 0.491945
O O12 0.000000 0.242503 0.888619
O O13 0.000000 0.354697 0.009954
O O14 0.500000 0.106327 0.368684
O O15 0.657226 0.000000 0.433792
O O16 0.000000 0.766643 0.119609
O O17 0.000000 0.877533 0.991333
#
# Coordination Sequence:
#
# PCOD8173167 Si02
#       8
#     8   8   8   4   8   4   4   4
#     4   9  16  28  48  76 111 144 176 217 278 338
#     4  11  22  40  60  82 114 159 197 232 292 361
#     4  10  20  33  55  87 115 140 180 235 287 326
#     4   9  16  29  48  77 110 136 181 229 274 329
#     4   9  19  39  61  78 104 150 195 227 275 347
#     4  11  21  35  60  87 114 146 199 247 284 331
#     4  11  23  37  58  91 120 148 191 251 296 327
#     4   9  18  31  50  77 112 150 177 221 282 339
#
# _framework density 18.867369
#
# number of rings (size 3 to 8) (size 9 to 14) (size 15 to 20)
#    0.000    2.167    1.667    2.000    3.500    4.000 
#    1.500    0.000    0.000    6.000    0.000    0.000 
#    0.000    0.000    0.000    0.000    0.000    0.000 
#
# Total GULP energy -297487.929057 kJ/mol
# GULP energy per Si atom -12395.330377 kJ/mol
# Density = 1.882443 g / cm^3
# Si number density = 18.867369 Si / 1000 Ang^3
#
#
#
# Elastic Constant Matrix: (Units=GPa)
#
#
# Indices 1 2 3 4 5 6 
#
# 1 127.3327 17.4657 67.6108 0.0000 0.0000 0.0000
# 2 17.4657 44.0403 39.5477 0.0000 0.0000 0.0000
# 3 67.6108 39.5477 166.6917 0.0000 0.0000 0.0000
# 4 0.0000 0.0000 0.0000 -3.4364 0.0000 0.0000
# 5 0.0000 0.0000 0.0000 0.0000 39.3436 0.0000
# 6 0.0000 0.0000 0.0000 0.0000 0.0000 20.4881
#
#
#
# Elastic Compliance Matrix: (Units=1/GPa)
#
#
# Indices 1 2 3 4 5 6 
#
# 1 0.010015 -0.000412 -0.003964 0.000000 0.000000 0.000000
# 2 -0.000412 0.028871 -0.006683 0.000000 0.000000 0.000000
# 3 -0.003964 -0.006683 0.009193 0.000000 0.000000 0.000000
# 4 0.000000 0.000000 0.000000 -0.291002 0.000000 0.000000
# 5 0.000000 0.000000 0.000000 0.000000 0.025417 0.000000
# 6 0.000000 0.000000 0.000000 0.000000 0.000000 0.048809
#
#
# Mechanical properties :
#
#
# Convention : Reuss Voigt Hill
#
# Bulk Modulus (GPa) = 38.51992 65.25704 51.88848
# Shear Modulus (GPa) = -36.25101 25.50844 -5.37129
#
# Velocity S-wave (km/s) = -4.38809 3.68093 -1.68910
# Velocity P-wave (km/s) = 2.28326 7.26140 4.87415
#
# Compressibility (1/GPa) = 0.02596059
#
# Stress axis : x y z
#
# Youngs Moduli (GPa) = 99.85091 34.63730 108.78416
#
# Poissons Ratio (x) = 0.01426 0.43126
# Poissons Ratio (y) = 0.04112 0.72696
# Poissons Ratio (z) = 0.39585 0.23147
#
# Static dielectric constant tensor:
#      x y z
#    x 3.509820 0.000000 0.000000 
#    y 0.000000 3.075920 0.000000 
#    z 0.000000 0.000000 3.807510 
# 
# 
# High freq. dielectric constant tensor:
#      x y z
#    x 1.738390 0.000000 0.000000 
#    y 0.000000 1.691800 0.000000 
#    z 0.000000 0.000000 1.754340 
# 
# From -- ./inp_files/15292.got.cif
#   From: 2010.03.12/outbox.cif.g09.slc.cpg/sg35_8_cif.got.tgz:15292.got - 2010.04.14 02:02:04.
