data_PCOD8173224
_publ_section_title
;
Structure prediction by ZEFSAII (Michael W. Deem and Ramdas Pophale) SiO2 
 PCOD8173224
Probable space group: C M M 2
;
_chemical_formula_sum "Si O2"
_cell_formula_units_Z 64
_cell_length_a 8.845401
_cell_length_b 19.209075
_cell_length_c 20.489490
_cell_angle_alpha 90.000000
_cell_angle_beta 90.000000
_cell_angle_gamma 90.000000
_cell_volume 3481.409635
_symmetry_space_group_name_H-M "C M M 2"
_symmetry_group_IT_number 35
_symmetry_cell_setting 'orthorhombic'
loop_
_space_group_symop_operation_xyz
x,y,z
-x,-y,z
-x,y,z
x,-y,z
1/2+x,1/2+y,z
1/2-x,1/2-y,z
1/2-x,1/2+y,z
1/2+x,1/2-y,z
loop_
_atom_site_type_symbol
_atom_site_label
_atom_site_fract_x
_atom_site_fract_y
_atom_site_fract_z
Si Si1 0.322312 0.080501 0.553220
Si Si2 0.821579 0.323612 0.312010
Si Si3 0.179768 0.826438 0.663595
Si Si4 0.327346 0.418794 0.417286
Si Si5 0.832149 0.582828 0.911622
Si Si6 0.822547 0.322160 0.163662
Si Si7 0.321880 0.578460 0.781724
Si Si8 0.680470 0.922915 0.053164
O O1 0.500000 0.094300 0.559271
O O2 0.232604 0.131036 0.600855
O O3 0.268671 0.100538 0.481012
O O4 0.282129 0.000000 0.569144
O O5 0.750000 0.250000 0.331434
O O6 0.747611 0.382473 0.355694
O O7 0.780744 0.343431 0.237490
O O8 0.000000 0.320285 0.323729
O O9 0.250000 0.750000 0.664384
O O10 0.239259 0.869268 0.726503
O O11 0.000000 0.819784 0.662601
O O12 0.500000 0.393975 0.427049
O O13 0.319654 0.500000 0.402671
O O14 0.836523 0.500000 0.915265
O O15 0.727310 0.608268 0.852232
O O16 0.000000 0.612340 0.898461
O O17 0.769891 0.608793 0.982318
O O18 0.750000 0.250000 0.143822
O O19 0.754970 0.377945 0.112957
O O20 0.000000 0.314827 0.155404
O O21 0.500000 0.575523 0.779337
O O22 0.256541 0.500000 0.770046
O O23 0.500000 0.925825 0.054505
O O24 0.748056 0.000000 0.062509
#
# Coordination Sequence:
#
# PCOD8173224 Si02
#       8
#     8   8   8   8   8   8   8   8
#     4  10  21  38  60  84 108 135 170 210 251 302
#     4  10  20  34  53  76 103 137 177 217 258 307
#     4  11  23  38  55  77 107 140 174 213 258 305
#     4  10  21  37  57  81 109 138 168 208 257 305
#     4   8  14  26  47  73  98 126 164 209 251 296
#     4   9  18  32  50  71  98 133 169 208 252 301
#     4   9  18  33  53  75 100 132 168 207 254 307
#     4   8  14  27  48  73  98 126 165 210 253 297
#
# _framework density 18.383357
#
# number of rings (size 3 to 8) (size 9 to 14) (size 15 to 20)
#    0.000    2.625    0.000    2.625    0.000    4.500 
#    0.000    6.250    0.000    4.125    0.000    0.000 
#    0.000    0.000    0.000    0.000    0.000    0.000 
#
# Total GULP energy -396717.170577 kJ/mol
# GULP energy per Si atom -12397.411581 kJ/mol
# Density = 1.834152 g / cm^3
# Si number density = 18.383357 Si / 1000 Ang^3
#
#
#
# Elastic Constant Matrix: (Units=GPa)
#
#
# Indices 1 2 3 4 5 6 
#
# 1 49.2306 33.9013 32.6378 0.0000 0.0000 0.0000
# 2 33.9013 92.2516 78.9123 0.0000 0.0000 0.0000
# 3 32.6378 78.9123 140.5397 0.0000 0.0000 0.0000
# 4 0.0000 0.0000 0.0000 8.3966 0.0000 0.0000
# 5 0.0000 0.0000 0.0000 0.0000 28.2466 0.0000
# 6 0.0000 0.0000 0.0000 0.0000 0.0000 24.9472
#
#
#
# Elastic Compliance Matrix: (Units=1/GPa)
#
#
# Indices 1 2 3 4 5 6 
#
# 1 0.027329 -0.008879 -0.001361 0.000000 0.000000 0.000000
# 2 -0.008879 0.023743 -0.011269 0.000000 0.000000 0.000000
# 3 -0.001361 -0.011269 0.013759 0.000000 0.000000 0.000000
# 4 0.000000 0.000000 0.000000 0.119095 0.000000 0.000000
# 5 0.000000 0.000000 0.000000 0.000000 0.035403 0.000000
# 6 0.000000 0.000000 0.000000 0.000000 0.000000 0.040085
#
#
# Mechanical properties :
#
#
# Convention : Reuss Voigt Hill
#
# Bulk Modulus (GPa) = 45.84598 63.65830 54.75214
# Shear Modulus (GPa) = 16.14449 21.42278 18.78363
#
# Velocity S-wave (km/s) = 2.96668 3.41740 3.19999
# Velocity P-wave (km/s) = 6.06036 7.09048 6.59556
#
# Compressibility (1/GPa) = 0.02181216
#
# Stress axis : x y z
#
# Youngs Moduli (GPa) = 36.59106 42.11839 72.67787
#
# Poissons Ratio (x) = 0.37395 0.09895
# Poissons Ratio (y) = 0.32487 0.81904
# Poissons Ratio (z) = 0.04982 0.47465
#
# Static dielectric constant tensor:
#      x y z
#    x 3.303950 0.000000 0.000000 
#    y 0.000000 3.395500 0.000000 
#    z 0.000000 0.000000 3.677140 
# 
# 
# High freq. dielectric constant tensor:
#      x y z
#    x 1.703200 0.000000 0.000000 
#    y 0.000000 1.694480 0.000000 
#    z 0.000000 0.000000 1.728100 
# 
# From -- ./inp_files/18421.got.cif
#   From: 2010.03.12/outbox.cif.g09.slc.cpg/sg35_10_cif.got.tgz:18421.got - 2010.04.14 02:02:04.
