data_PCOD8173258
_publ_section_title
;
Structure prediction by ZEFSAII (Michael W. Deem and Ramdas Pophale) SiO2 
 PCOD8173258
Probable space group: C M M 2
;
_chemical_formula_sum "Si O2"
_cell_formula_units_Z 32
_cell_length_a 18.366476
_cell_length_b 8.923605
_cell_length_c 10.368897
_cell_angle_alpha 90.000000
_cell_angle_beta 90.000000
_cell_angle_gamma 90.000000
_cell_volume 1699.412210
_symmetry_space_group_name_H-M "C M M 2"
_symmetry_group_IT_number 35
_symmetry_cell_setting 'orthorhombic'
loop_
_space_group_symop_operation_xyz
x,y,z
-x,-y,z
-x,y,z
x,-y,z
1/2+x,1/2+y,z
1/2-x,1/2-y,z
1/2-x,1/2+y,z
1/2+x,1/2-y,z
loop_
_atom_site_type_symbol
_atom_site_label
_atom_site_fract_x
_atom_site_fract_y
_atom_site_fract_z
Si Si1 0.418793 0.321674 0.424140
Si Si2 0.413746 0.170601 0.959198
Si Si3 0.327983 0.322641 0.182962
Si Si4 0.586535 0.666676 0.706323
O O1 0.500000 0.256126 0.399040
O O2 0.423014 0.500000 0.420002
O O3 0.364580 0.260701 0.314479
O O4 0.388718 0.271924 0.565334
O O5 0.500000 0.188036 0.969955
O O6 0.385848 0.222232 0.817986
O O7 0.388700 0.000000 0.980787
O O8 0.378651 0.277634 0.064468
O O9 0.319872 0.500000 0.185481
O O10 0.250000 0.250000 0.165984
O O11 0.500000 0.657733 0.704868
O O12 0.618303 0.500000 0.732008
#
# Coordination Sequence:
#
# PCOD8173258 Si02
#       4
#     8   8   8   8
#     4   8  15  30  54  80 101 127 169 215 256 305
#     4  10  20  34  53  79 108 136 171 214 257 304
#     4  11  22  36  53  74 104 140 177 215 258 306
#     4   8  14  28  52  79 103 129 166 211 257 305
#
# _framework density 18.830038999999999
#
# number of rings (size 3 to 8) (size 9 to 14) (size 15 to 20)
#    0.000    2.750    0.000    3.750    0.000    2.500 
#    0.000    3.750    0.000    9.000    0.000    0.000 
#    0.000    0.000    0.000    0.000    0.000    0.000 
#
# Total GULP energy -198343.431328 kJ/mol
# GULP energy per Si atom -12396.464458 kJ/mol
# Density = 1.878718 g / cm^3
# Si number density = 18.830039 Si / 1000 Ang^3
#
#
#
# Elastic Constant Matrix: (Units=GPa)
#
#
# Indices 1 2 3 4 5 6 
#
# 1 41.9347 27.0114 38.1700 0.0000 0.0000 0.0000
# 2 27.0114 64.0759 39.2672 0.0000 0.0000 0.0000
# 3 38.1700 39.2672 155.5886 0.0000 0.0000 0.0000
# 4 0.0000 0.0000 0.0000 15.5293 0.0000 0.0000
# 5 0.0000 0.0000 0.0000 0.0000 1.6871 0.0000
# 6 0.0000 0.0000 0.0000 0.0000 0.0000 17.1647
#
#
#
# Elastic Compliance Matrix: (Units=1/GPa)
#
#
# Indices 1 2 3 4 5 6 
#
# 1 0.037044 -0.011885 -0.006088 0.000000 0.000000 0.000000
# 2 -0.011885 0.022275 -0.002706 0.000000 0.000000 0.000000
# 3 -0.006088 -0.002706 0.008604 0.000000 0.000000 0.000000
# 4 0.000000 0.000000 0.000000 0.064394 0.000000 0.000000
# 5 0.000000 0.000000 0.000000 0.000000 0.592731 0.000000
# 6 0.000000 0.000000 0.000000 0.000000 0.000000 0.058259
#
#
# Mechanical properties :
#
#
# Convention : Reuss Voigt Hill
#
# Bulk Modulus (GPa) = 37.64492 52.27739 44.96115
# Shear Modulus (GPa) = 5.99866 17.35292 11.67579
#
# Velocity S-wave (km/s) = 1.78678 3.03901 2.49281
# Velocity P-wave (km/s) = 4.92871 6.33539 5.67579
#
# Compressibility (1/GPa) = 0.02656401
#
# Stress axis : x y z
#
# Youngs Moduli (GPa) = 26.99514 44.89357 116.22795
#
# Poissons Ratio (x) = 0.53355 0.70763
# Poissons Ratio (y) = 0.32083 0.31452
# Poissons Ratio (z) = 0.16436 0.12148
#
# Static dielectric constant tensor:
#      x y z
#    x 3.173930 0.000000 0.000000 
#    y 0.000000 3.287090 0.000000 
#    z 0.000000 0.000000 3.965970 
# 
# 
# High freq. dielectric constant tensor:
#      x y z
#    x 1.695780 0.000000 0.000000 
#    y 0.000000 1.709960 0.000000 
#    z 0.000000 0.000000 1.752660 
# 
# From -- ./inp_files/4563.got.cif
#   From: 2010.03.12/outbox.cif.g09.slc.cpg/sg35_3_cif.got.tgz:4563.got - 2010.04.14 02:02:04.
