data_PCOD8173588
_publ_section_title
;
Structure prediction by ZEFSAII (Michael W. Deem and Ramdas Pophale) SiO2 
 PCOD8173588
Probable space group: C M M 2
;
_chemical_formula_sum "Si O2"
_cell_formula_units_Z 40
_cell_length_a 8.706026
_cell_length_b 25.405970
_cell_length_c 9.129718
_cell_angle_alpha 90.000000
_cell_angle_beta 90.000000
_cell_angle_gamma 90.000000
_cell_volume 2019.356999
_symmetry_space_group_name_H-M "C M M 2"
_symmetry_group_IT_number 35
_symmetry_cell_setting 'orthorhombic'
loop_
_space_group_symop_operation_xyz
x,y,z
-x,-y,z
-x,y,z
x,-y,z
1/2+x,1/2+y,z
1/2-x,1/2-y,z
1/2-x,1/2+y,z
1/2+x,1/2-y,z
loop_
_atom_site_type_symbol
_atom_site_label
_atom_site_fract_x
_atom_site_fract_y
_atom_site_fract_z
Si Si1 0.177797 0.500000 0.404570
Si Si2 0.818884 0.000000 0.088421
Si Si3 0.179890 0.898611 0.916541
Si Si4 0.320538 0.694931 0.396453
Si Si5 0.176942 0.906784 0.577120
Si Si6 0.681048 0.194161 0.087373
O O1 0.273769 0.500000 0.256494
O O2 0.215891 0.551723 0.496596
O O3 0.000000 0.500000 0.363677
O O4 0.755124 0.948083 0.008006
O O5 0.000000 0.000000 0.073081
O O6 0.215034 0.909274 0.747603
O O7 0.272908 0.847457 0.964473
O O8 0.000000 0.888985 0.944704
O O9 0.500000 0.702954 0.369335
O O10 0.250000 0.750000 0.451171
O O11 0.285912 0.651569 0.519256
O O12 0.246123 0.675979 0.244383
O O13 0.000000 0.921725 0.546364
O O14 0.500000 0.199140 0.098355
O O15 0.750000 0.250000 0.040106
#
# Coordination Sequence:
#
# PCOD8173588 Si02
#       6
#     4   4   8   8   8   8
#     4  12  25  38  58  86 116 148 189 238 282 328
#     4  10  21  38  62  84 110 150 191 230 280 342
#     4  10  21  39  61  86 114 148 189 233 282 339
#     4  10  20  36  59  85 113 149 191 236 282 335
#     4  10  22  40  61  84 115 152 189 229 283 345
#     4  11  22  37  58  84 115 152 192 236 281 332
#
# _framework density 19.808285999999999
#
# number of rings (size 3 to 8) (size 9 to 14) (size 15 to 20)
#    0.000    1.600    0.000    6.300    0.000   10.400 
#    0.000    3.000    0.000    0.000    0.000    0.000 
#    0.000    0.000    0.000    0.000    0.000    0.000 
#
# Total GULP energy -248113.557491 kJ/mol
# GULP energy per Si atom -12405.677875 kJ/mol
# Density = 1.976320 g / cm^3
# Si number density = 19.808286 Si / 1000 Ang^3
#
#
#
# Elastic Constant Matrix: (Units=GPa)
#
#
# Indices 1 2 3 4 5 6 
#
# 1 80.7580 38.9810 20.4417 0.0000 0.0000 0.0000
# 2 38.9810 119.3263 58.3603 0.0000 0.0000 0.0000
# 3 20.4417 58.3603 96.2876 0.0000 0.0000 0.0000
# 4 0.0000 0.0000 0.0000 31.5954 0.0000 0.0000
# 5 0.0000 0.0000 0.0000 0.0000 20.9744 0.0000
# 6 0.0000 0.0000 0.0000 0.0000 0.0000 33.3650
#
#
#
# Elastic Compliance Matrix: (Units=1/GPa)
#
#
# Indices 1 2 3 4 5 6 
#
# 1 0.014707 -0.004658 -0.000299 0.000000 0.000000 0.000000
# 2 -0.004658 0.013387 -0.007125 0.000000 0.000000 0.000000
# 3 -0.000299 -0.007125 0.014767 0.000000 0.000000 0.000000
# 4 0.000000 0.000000 0.000000 0.031650 0.000000 0.000000
# 5 0.000000 0.000000 0.000000 0.000000 0.047677 0.000000
# 6 0.000000 0.000000 0.000000 0.000000 0.000000 0.029972
#
#
# Mechanical properties :
#
#
# Convention : Reuss Voigt Hill
#
# Bulk Modulus (GPa) = 53.48414 59.10419 56.29417
# Shear Modulus (GPa) = 27.38886 29.09288 28.24087
#
# Velocity S-wave (km/s) = 3.72250 3.83655 3.77995
# Velocity P-wave (km/s) = 6.74800 7.03764 6.89434
#
# Compressibility (1/GPa) = 0.01869713
#
# Stress axis : x y z
#
# Youngs Moduli (GPa) = 67.99593 74.70090 67.71670
#
# Poissons Ratio (x) = 0.34797 0.02024
# Poissons Ratio (y) = 0.31674 0.48247
# Poissons Ratio (z) = 0.02032 0.53223
#
# Static dielectric constant tensor:
#      x y z
#    x 3.547510 0.000000 0.000000 
#    y 0.000000 3.782650 0.000000 
#    z 0.000000 0.000000 3.551700 
# 
# 
# High freq. dielectric constant tensor:
#      x y z
#    x 1.768290 0.000000 0.000000 
#    y 0.000000 1.787710 0.000000 
#    z 0.000000 0.000000 1.774820 
# 
# From -- ./inp_files/5020.got.cif
#   From: 2010.03.12/outbox.cif.g09.slc.cpg/sg35_3_cif.got.tgz:5020.got - 2010.04.14 02:02:04.
