data_PCOD8173437
_publ_section_title
;
Structure prediction by ZEFSAII (Michael W. Deem and Ramdas Pophale) SiO2 
 PCOD8173437
Probable space group: C M M 2
;
_chemical_formula_sum "Si O2"
_cell_formula_units_Z 64
_cell_length_a 8.924204
_cell_length_b 28.021202
_cell_length_c 12.804435
_cell_angle_alpha 90.000000
_cell_angle_beta 90.000000
_cell_angle_gamma 90.000000
_cell_volume 3201.965661
_symmetry_space_group_name_H-M "C M M 2"
_symmetry_group_IT_number 35
_symmetry_cell_setting 'orthorhombic'
loop_
_space_group_symop_operation_xyz
x,y,z
-x,-y,z
-x,y,z
x,-y,z
1/2+x,1/2+y,z
1/2-x,1/2-y,z
1/2-x,1/2+y,z
1/2+x,1/2-y,z
loop_
_atom_site_type_symbol
_atom_site_label
_atom_site_fract_x
_atom_site_fract_y
_atom_site_fract_z
Si Si1 0.664602 0.443620 0.846450
Si Si2 0.177546 0.945587 0.614277
Si Si3 0.175583 0.138024 0.149900
Si Si4 0.324288 0.054284 0.052723
Si Si5 0.673049 0.142910 0.533185
Si Si6 0.677399 0.301261 0.950528
Si Si7 0.177748 0.198637 0.348324
Si Si8 0.674155 0.800306 0.742925
O O1 0.500000 0.420323 0.865239
O O2 0.647204 0.500000 0.849299
O O3 0.727497 0.430487 0.731816
O O4 0.772612 0.426184 0.939034
O O5 0.262827 0.911006 0.533559
O O6 0.000000 0.939517 0.602002
O O7 0.225186 0.000000 0.589212
O O8 0.253666 0.086289 0.144520
O O9 0.230591 0.165517 0.252618
O O10 0.000000 0.129591 0.153379
O O11 0.226417 0.167283 0.048494
O O12 0.500000 0.058557 0.058022
O O13 0.270329 0.000000 0.070622
O O14 0.500000 0.142336 0.499288
O O15 0.766460 0.175097 0.454411
O O16 0.696876 0.164397 0.647289
O O17 0.500000 0.296300 0.941678
O O18 0.750000 0.250000 0.967127
O O19 0.744349 0.323949 0.843784
O O20 0.250000 0.250000 0.332631
O O21 0.000000 0.204644 0.352116
O O22 0.500000 0.791496 0.767948
O O23 0.750000 0.750000 0.715087
#
# Coordination Sequence:
#
# PCOD8173437 Si02
#       8
#     8   8   8   8   8   8   8   8
#     4   8  15  30  52  78 112 155 197 237 284 340
#     4   9  19  36  58  85 118 158 203 247 294 350
#     4  10  23  40  60  87 115 151 197 241 292 354
#     4  10  21  35  54  84 120 157 198 244 292 343
#     4  11  24  39  59  88 120 155 199 245 297 355
#     4  10  20  35  56  83 115 148 185 231 287 350
#     4  11  24  44  68  91 117 150 196 249 301 357
#     4  10  21  36  54  81 116 151 188 232 286 349
#
# _framework density 19.987722000000002
#
# number of rings (size 3 to 8) (size 9 to 14) (size 15 to 20)
#    0.000    2.125    0.000    4.125    1.750    6.500 
#    0.000    1.875    0.000    0.750    0.000    0.000 
#    0.000    0.000    0.000    0.000    0.000    0.000 
#
# Total GULP energy -396823.359276 kJ/mol
# GULP energy per Si atom -12400.729977 kJ/mol
# Density = 1.994223 g / cm^3
# Si number density = 19.987722 Si / 1000 Ang^3
#
#
#
# Elastic Constant Matrix: (Units=GPa)
#
#
# Indices 1 2 3 4 5 6 
#
# 1 80.4841 44.5509 41.9154 0.0000 0.0000 0.0000
# 2 44.5509 83.8750 41.1445 0.0000 0.0000 0.0000
# 3 41.9154 41.1445 75.9422 0.0000 0.0000 0.0000
# 4 0.0000 0.0000 0.0000 35.9121 0.0000 0.0000
# 5 0.0000 0.0000 0.0000 0.0000 23.4422 0.0000
# 6 0.0000 0.0000 0.0000 0.0000 0.0000 30.0405
#
#
#
# Elastic Compliance Matrix: (Units=1/GPa)
#
#
# Indices 1 2 3 4 5 6 
#
# 1 0.020160 -0.007150 -0.007253 0.000000 0.000000 0.000000
# 2 -0.007150 0.018774 -0.006225 0.000000 0.000000 0.000000
# 3 -0.007253 -0.006225 0.020544 0.000000 0.000000 0.000000
# 4 0.000000 0.000000 0.000000 0.027846 0.000000 0.000000
# 5 0.000000 0.000000 0.000000 0.000000 0.042658 0.000000
# 6 0.000000 0.000000 0.000000 0.000000 0.000000 0.033288
#
#
# Mechanical properties :
#
#
# Convention : Reuss Voigt Hill
#
# Bulk Modulus (GPa) = 54.88151 55.05808 54.96980
# Shear Modulus (GPa) = 23.74156 25.39166 24.56661
#
# Velocity S-wave (km/s) = 3.45020 3.56808 3.50963
# Velocity P-wave (km/s) = 6.58704 6.67688 6.63211
#
# Compressibility (1/GPa) = 0.01822107
#
# Stress axis : x y z
#
# Youngs Moduli (GPa) = 49.60288 53.26502 48.67610
#
# Poissons Ratio (x) = 0.38085 0.35306
# Poissons Ratio (y) = 0.35467 0.30301
# Poissons Ratio (z) = 0.35978 0.33158
#
# Static dielectric constant tensor:
#      x y z
#    x 3.610430 0.000000 0.000000 
#    y 0.000000 3.686390 0.000000 
#    z 0.000000 0.000000 3.678360 
# 
# 
# High freq. dielectric constant tensor:
#      x y z
#    x 1.780600 0.000000 0.000000 
#    y 0.000000 1.787830 0.000000 
#    z 0.000000 0.000000 1.767130 
# 
# From -- ./inp_files/11882.got.cif
#   From: 2010.03.12/outbox.cif.g09.slc.cpg/sg35_6_cif.got.tgz:11882.got - 2010.04.14 02:02:04.
