data_PCOD8173821
_publ_section_title
;
Structure prediction by ZEFSAII (Michael W. Deem and Ramdas Pophale) SiO2 
 PCOD8173821
Probable space group: C M M 2
;
_chemical_formula_sum "Si O2"
_cell_formula_units_Z 64
_cell_length_a 8.756684
_cell_length_b 30.085575
_cell_length_c 12.283367
_cell_angle_alpha 90.000000
_cell_angle_beta 90.000000
_cell_angle_gamma 90.000000
_cell_volume 3236.051479
_symmetry_space_group_name_H-M "C M M 2"
_symmetry_group_IT_number 35
_symmetry_cell_setting 'orthorhombic'
loop_
_space_group_symop_operation_xyz
x,y,z
-x,-y,z
-x,y,z
x,-y,z
1/2+x,1/2+y,z
1/2-x,1/2-y,z
1/2-x,1/2+y,z
1/2+x,1/2-y,z
loop_
_atom_site_type_symbol
_atom_site_label
_atom_site_fract_x
_atom_site_fract_y
_atom_site_fract_z
Si Si1 0.821964 0.202135 0.165460
Si Si2 0.678077 0.298020 0.404757
Si Si3 0.831549 0.052532 0.409057
Si Si4 0.680767 0.799156 0.620345
Si Si5 0.323062 0.051829 0.627714
Si Si6 0.318328 0.624786 0.014958
Si Si7 0.680383 0.373234 0.767237
Si Si8 0.317674 0.549358 0.171296
O O1 0.750000 0.250000 0.148639
O O2 0.792075 0.180431 0.285905
O O3 0.754393 0.168648 0.075544
O O4 0.000000 0.209139 0.148715
O O5 0.500000 0.295067 0.432630
O O6 0.750000 0.250000 0.397187
O O7 0.762044 0.321909 0.506414
O O8 0.718177 0.067179 0.505118
O O9 0.766196 0.067364 0.291045
O O10 0.000000 0.073827 0.430376
O O11 0.849208 0.000000 0.406086
O O12 0.500000 0.795666 0.621131
O O13 0.750000 0.750000 0.636421
O O14 0.735159 0.830994 0.716553
O O15 0.500000 0.061832 0.647107
O O16 0.224422 0.080299 0.711721
O O17 0.283536 0.000000 0.646339
O O18 0.500000 0.624276 0.021742
O O19 0.252771 0.581652 0.077885
O O20 0.261860 0.624059 0.891397
O O21 0.500000 0.366053 0.759066
O O22 0.500000 0.548026 0.170907
O O23 0.252021 0.500000 0.148458
#
# Coordination Sequence:
#
# PCOD8173821 Si02
#       8
#     8   8   8   8   8   8   8   8
#     4   9  18  33  53  78 108 139 171 212 263 315
#     4   9  16  29  52  81 110 139 173 214 264 323
#     4   8  14  27  51  82 110 136 171 214 263 325
#     4  11  22  38  59  82 112 145 180 224 274 325
#     4  10  21  37  56  79 111 147 181 224 277 326
#     4   9  19  34  51  75 105 136 176 223 265 311
#     4  11  23  38  56  79 108 144 190 233 268 317
#     4   8  14  27  50  80 110 136 165 210 267 319
#
# _framework density 19.777187000000001
#
# number of rings (size 3 to 8) (size 9 to 14) (size 15 to 20)
#    0.000    2.625    0.000    3.750    0.000    3.250 
#    0.000    6.250    0.000    2.250    0.000    1.750 
#    0.000    0.000    0.000    0.000    0.000    0.000 
#
# Total GULP energy -396600.872920 kJ/mol
# GULP energy per Si atom -12393.777279 kJ/mol
# Density = 1.973217 g / cm^3
# Si number density = 19.777187 Si / 1000 Ang^3
#
#
#
# Elastic Constant Matrix: (Units=GPa)
#
#
# Indices 1 2 3 4 5 6 
#
# 1 77.1160 30.8230 46.1642 0.0000 0.0000 0.0000
# 2 30.8230 102.9987 76.0314 0.0000 0.0000 0.0000
# 3 46.1642 76.0314 183.4507 0.0000 0.0000 0.0000
# 4 0.0000 0.0000 0.0000 34.3964 0.0000 0.0000
# 5 0.0000 0.0000 0.0000 0.0000 17.2816 0.0000
# 6 0.0000 0.0000 0.0000 0.0000 0.0000 23.3023
#
#
#
# Elastic Compliance Matrix: (Units=1/GPa)
#
#
# Indices 1 2 3 4 5 6 
#
# 1 0.015726 -0.002572 -0.002892 0.000000 0.000000 0.000000
# 2 -0.002572 0.014409 -0.005325 0.000000 0.000000 0.000000
# 3 -0.002892 -0.005325 0.008386 0.000000 0.000000 0.000000
# 4 0.000000 0.000000 0.000000 0.029073 0.000000 0.000000
# 5 0.000000 0.000000 0.000000 0.000000 0.057865 0.000000
# 6 0.000000 0.000000 0.000000 0.000000 0.000000 0.042914
#
#
# Mechanical properties :
#
#
# Convention : Reuss Voigt Hill
#
# Bulk Modulus (GPa) = 59.01458 74.40029 66.70744
# Shear Modulus (GPa) = 25.56274 29.03252 27.29763
#
# Velocity S-wave (km/s) = 3.59909 3.83558 3.71921
# Velocity P-wave (km/s) = 6.86846 7.57076 7.22815
#
# Compressibility (1/GPa) = 0.01694496
#
# Stress axis : x y z
#
# Youngs Moduli (GPa) = 63.58743 69.40093 119.25294
#
# Poissons Ratio (x) = 0.17848 0.34483
# Poissons Ratio (y) = 0.16353 0.63499
# Poissons Ratio (z) = 0.18387 0.36954
#
# Static dielectric constant tensor:
#      x y z
#    x 3.358410 0.000000 0.000000 
#    y 0.000000 3.560640 0.000000 
#    z 0.000000 0.000000 4.138390 
# 
# 
# High freq. dielectric constant tensor:
#      x y z
#    x 1.744030 0.000000 0.000000 
#    y 0.000000 1.763330 0.000000 
#    z 0.000000 0.000000 1.778810 
# 
# From -- ./inp_files/11872.got.cif
#   From: 2010.03.12/outbox.cif.g09.slc.cpg/sg35_6_cif.got.tgz:11872.got - 2010.04.14 02:02:04.
