data_PCOD8173097
_publ_section_title
;
Structure prediction by ZEFSAII (Michael W. Deem and Ramdas Pophale) SiO2 
 PCOD8173097
Probable space group: C M M 2
;
_chemical_formula_sum "Si O2"
_cell_formula_units_Z 64
_cell_length_a 8.741560
_cell_length_b 28.545551
_cell_length_c 15.558664
_cell_angle_alpha 90.000000
_cell_angle_beta 90.000000
_cell_angle_gamma 90.000000
_cell_volume 3882.394609
_symmetry_space_group_name_H-M "C M M 2"
_symmetry_group_IT_number 35
_symmetry_cell_setting 'orthorhombic'
loop_
_space_group_symop_operation_xyz
x,y,z
-x,-y,z
-x,y,z
x,-y,z
1/2+x,1/2+y,z
1/2-x,1/2-y,z
1/2-x,1/2+y,z
1/2+x,1/2-y,z
loop_
_atom_site_type_symbol
_atom_site_label
_atom_site_fract_x
_atom_site_fract_y
_atom_site_fract_z
Si Si1 0.323136 0.552949 0.589050
Si Si2 0.321543 0.699336 0.184979
Si Si3 0.177826 0.641160 0.523271
Si Si4 0.677287 0.300692 0.374157
Si Si5 0.681351 0.449179 0.782851
Si Si6 0.817937 0.851779 0.853376
Si Si7 0.681277 0.199572 0.690674
Si Si8 0.318935 0.801857 0.014756
O O1 0.500000 0.568000 0.585045
O O2 0.301351 0.500000 0.555498
O O3 0.225520 0.586922 0.528463
O O4 0.258317 0.557660 0.685903
O O5 0.500000 0.702350 0.162306
O O6 0.250000 0.750000 0.191801
O O7 0.293016 0.676683 0.278980
O O8 0.235040 0.674327 0.105237
O O9 0.261215 0.662835 0.442137
O O10 0.227010 0.666847 0.610943
O O11 0.000000 0.645918 0.506503
O O12 0.500000 0.292840 0.389736
O O13 0.750000 0.250000 0.386935
O O14 0.500000 0.450132 0.778718
O O15 0.739961 0.500000 0.818708
O O16 0.736954 0.405758 0.840751
O O17 0.759316 0.819988 0.775962
O O18 0.000000 0.847387 0.858822
O O19 0.742032 0.835287 0.940762
O O20 0.500000 0.202614 0.704488
O O21 0.750000 0.250000 0.669886
O O22 0.500000 0.798555 0.010272
O O23 0.250000 0.750000 0.003848
#
# Coordination Sequence:
#
# PCOD8173097 Si02
#       8
#     8   8   8   8   8   8   8   8
#     4   9  17  32  53  73  94 124 164 207 249 292
#     4   9  17  31  50  72  95 123 160 201 244 286
#     4  11  22  33  48  71 100 132 166 202 243 293
#     4  10  20  33  51  73 100 130 164 204 244 290
#     4   8  15  29  50  73  93 119 158 201 243 285
#     4  11  20  32  51  71  95 127 161 200 241 286
#     4  11  23  35  45  63  94 131 168 200 233 278
#     4  11  21  33  49  70  99 130 163 200 239 288
#
# _framework density 16.484672
#
# number of rings (size 3 to 8) (size 9 to 14) (size 15 to 20)
#    0.000    2.000    1.250    5.250    0.000    4.250 
#    0.000    0.000    0.000    1.500    0.000    0.875 
#    0.000    3.000    0.000    0.000    0.000    0.000 
#
# Total GULP energy -396674.628117 kJ/mol
# GULP energy per Si atom -12396.082129 kJ/mol
# Density = 1.644715 g / cm^3
# Si number density = 16.484672 Si / 1000 Ang^3
#
#
#
# Elastic Constant Matrix: (Units=GPa)
#
#
# Indices 1 2 3 4 5 6 
#
# 1 85.7403 36.3946 50.2600 0.0000 0.0000 0.0000
# 2 36.3946 96.2066 50.8645 0.0000 0.0000 0.0000
# 3 50.2600 50.8645 119.9814 0.0000 0.0000 0.0000
# 4 0.0000 0.0000 0.0000 18.9786 0.0000 0.0000
# 5 0.0000 0.0000 0.0000 0.0000 24.8852 0.0000
# 6 0.0000 0.0000 0.0000 0.0000 0.0000 20.5874
#
#
#
# Elastic Compliance Matrix: (Units=1/GPa)
#
#
# Indices 1 2 3 4 5 6 
#
# 1 0.016224 -0.003279 -0.005406 0.000000 0.000000 0.000000
# 2 -0.003279 0.014060 -0.004587 0.000000 0.000000 0.000000
# 3 -0.005406 -0.004587 0.012544 0.000000 0.000000 0.000000
# 4 0.000000 0.000000 0.000000 0.052691 0.000000 0.000000
# 5 0.000000 0.000000 0.000000 0.000000 0.040185 0.000000
# 6 0.000000 0.000000 0.000000 0.000000 0.000000 0.048573
#
#
# Mechanical properties :
#
#
# Convention : Reuss Voigt Hill
#
# Bulk Modulus (GPa) = 61.41228 64.10739 62.75984
# Shear Modulus (GPa) = 23.12154 23.85085 23.48619
#
# Velocity S-wave (km/s) = 3.74920 3.80787 3.77865
# Velocity P-wave (km/s) = 7.48846 7.63588 7.56253
#
# Compressibility (1/GPa) = 0.01628339
#
# Stress axis : x y z
#
# Youngs Moduli (GPa) = 61.63688 71.12422 79.72127
#
# Poissons Ratio (x) = 0.23324 0.43097
# Poissons Ratio (y) = 0.20213 0.36567
# Poissons Ratio (z) = 0.33321 0.32623
#
# Static dielectric constant tensor:
#      x y z
#    x 3.157620 0.000000 0.000000 
#    y 0.000000 3.088720 0.000000 
#    z 0.000000 0.000000 3.509100 
# 
# 
# High freq. dielectric constant tensor:
#      x y z
#    x 1.641160 0.000000 0.000000 
#    y 0.000000 1.614180 0.000000 
#    z 0.000000 0.000000 1.629020 
# 
# From -- ./inp_files/16170.got.cif
#   From: 2010.03.12/outbox.cif.g09.slc.cpg/sg35_9_cif.got.tgz:16170.got - 2010.04.14 02:02:04.
