data_PCOD8173628
_publ_section_title
;
Structure prediction by ZEFSAII (Michael W. Deem and Ramdas Pophale) SiO2 
 PCOD8173628
Probable space group: C M M 2
;
_chemical_formula_sum "Si O2"
_cell_formula_units_Z 48
_cell_length_a 30.602076
_cell_length_b 8.737260
_cell_length_c 9.382165
_cell_angle_alpha 90.000000
_cell_angle_beta 90.000000
_cell_angle_gamma 90.000000
_cell_volume 2508.587277
_symmetry_space_group_name_H-M "C M M 2"
_symmetry_group_IT_number 35
_symmetry_cell_setting 'orthorhombic'
loop_
_space_group_symop_operation_xyz
x,y,z
-x,-y,z
-x,y,z
x,-y,z
1/2+x,1/2+y,z
1/2-x,1/2-y,z
1/2-x,1/2+y,z
1/2+x,1/2-y,z
loop_
_atom_site_type_symbol
_atom_site_label
_atom_site_fract_x
_atom_site_fract_y
_atom_site_fract_z
Si Si1 0.547903 0.318407 0.808730
Si Si2 0.123863 0.320341 0.304639
Si Si3 0.372979 0.680934 0.997098
Si Si4 0.204621 0.680255 0.497106
Si Si5 0.704596 0.180762 0.820252
Si Si6 0.449268 0.676824 0.486962
O O1 0.500000 0.252724 0.850846
O O2 0.545885 0.500000 0.813166
O O3 0.559992 0.267875 0.648330
O O4 0.583580 0.254893 0.918920
O O5 0.126514 0.500000 0.272062
O O6 0.124911 0.225180 0.160688
O O7 0.164799 0.263618 0.399158
O O8 0.078913 0.283950 0.384743
O O9 0.369181 0.500000 0.980200
O O10 0.331885 0.758701 0.925133
O O11 0.209456 0.500000 0.491623
O O12 0.250000 0.750000 0.439572
O O13 0.195074 0.735978 0.658522
O O14 0.750000 0.250000 0.874579
O O15 0.706894 0.000000 0.830719
O O16 0.500000 0.699289 0.448013
O O17 0.435683 0.500000 0.466054
#
# Coordination Sequence:
#
# PCOD8173628 Si02
#       6
#     8   8   8   8   8   8
#     4   8  16  33  57  82 106 135 177 227 272 318
#     4  11  23  37  52  77 114 149 180 219 269 323
#     4  11  22  35  54  81 111 146 184 221 267 321
#     4   9  20  37  58  81 105 137 178 224 271 321
#     4  10  20  37  59  82 107 137 177 224 273 323
#     4   9  18  35  59  83 105 135 179 227 272 321
#
# _framework density 19.134274999999999
#
# number of rings (size 3 to 8) (size 9 to 14) (size 15 to 20)
#    0.000    2.333    0.000    3.500    0.000    3.667 
#    0.000    4.167    0.000    3.500    0.000    0.000 
#    0.000    0.000    0.000    0.000    0.000    0.000 
#
# Total GULP energy -297637.141145 kJ/mol
# GULP energy per Si atom -12401.547548 kJ/mol
# Density = 1.909072 g / cm^3
# Si number density = 19.134275 Si / 1000 Ang^3
#
#
#
# Elastic Constant Matrix: (Units=GPa)
#
#
# Indices 1 2 3 4 5 6 
#
# 1 139.7266 28.0750 74.8888 0.0000 0.0000 0.0000
# 2 28.0750 40.4609 18.9709 0.0000 0.0000 0.0000
# 3 74.8888 18.9709 107.0051 0.0000 0.0000 0.0000
# 4 0.0000 0.0000 0.0000 29.4587 0.0000 0.0000
# 5 0.0000 0.0000 0.0000 0.0000 14.0002 0.0000
# 6 0.0000 0.0000 0.0000 0.0000 0.0000 31.7976
#
#
#
# Elastic Compliance Matrix: (Units=1/GPa)
#
#
# Indices 1 2 3 4 5 6 
#
# 1 0.012283 -0.004900 -0.007728 0.000000 0.000000 0.000000
# 2 -0.004900 0.028910 -0.001696 0.000000 0.000000 0.000000
# 3 -0.007728 -0.001696 0.015055 0.000000 0.000000 0.000000
# 4 0.000000 0.000000 0.000000 0.033946 0.000000 0.000000
# 5 0.000000 0.000000 0.000000 0.000000 0.071427 0.000000
# 6 0.000000 0.000000 0.000000 0.000000 0.000000 0.031449
#
#
# Mechanical properties :
#
#
# Convention : Reuss Voigt Hill
#
# Bulk Modulus (GPa) = 36.23162 59.00689 47.61925
# Shear Modulus (GPa) = 21.65267 26.06851 23.86059
#
# Velocity S-wave (km/s) = 3.36760 3.69507 3.53513
# Velocity P-wave (km/s) = 5.83931 7.00785 6.45010
#
# Compressibility (1/GPa) = 0.02760020
#
# Stress axis : x y z
#
# Youngs Moduli (GPa) = 81.41189 34.58960 66.42500
#
# Poissons Ratio (x) = 0.16948 0.51333
# Poissons Ratio (y) = 0.39889 0.11268
# Poissons Ratio (z) = 0.62914 0.05868
#
# Static dielectric constant tensor:
#      x y z
#    x 3.728890 0.000000 0.000000 
#    y 0.000000 3.297840 0.000000 
#    z 0.000000 0.000000 3.550880 
# 
# 
# High freq. dielectric constant tensor:
#      x y z
#    x 1.758240 0.000000 0.000000 
#    y 0.000000 1.728970 0.000000 
#    z 0.000000 0.000000 1.742000 
# 
# From -- ./inp_files/5285.got.cif
#   From: 2010.03.12/outbox.cif.g09.slc.cpg/sg35_3_cif.got.tgz:5285.got - 2010.04.14 02:02:04.
