data_PCOD8173858
_publ_section_title
;
Structure prediction by ZEFSAII (Michael W. Deem and Ramdas Pophale) SiO2 
 PCOD8173858
Probable space group: C M M 2
;
_chemical_formula_sum "Si O2"
_cell_formula_units_Z 64
_cell_length_a 14.914178
_cell_length_b 18.071674
_cell_length_c 11.163285
_cell_angle_alpha 90.000000
_cell_angle_beta 90.000000
_cell_angle_gamma 90.000000
_cell_volume 3008.775044
_symmetry_space_group_name_H-M "C M M 2"
_symmetry_group_IT_number 35
_symmetry_cell_setting 'orthorhombic'
loop_
_space_group_symop_operation_xyz
x,y,z
-x,-y,z
-x,y,z
x,-y,z
1/2+x,1/2+y,z
1/2-x,1/2-y,z
1/2-x,1/2+y,z
1/2+x,1/2-y,z
loop_
_atom_site_type_symbol
_atom_site_label
_atom_site_fract_x
_atom_site_fract_y
_atom_site_fract_z
Si Si1 0.606069 0.081416 0.707980
Si Si2 0.211678 0.916161 0.149437
Si Si3 0.895609 0.358145 0.198564
Si Si4 0.346414 0.766561 0.823024
Si Si5 0.097408 0.210645 0.062891
Si Si6 0.105128 0.349874 0.468718
Si Si7 0.103243 0.084862 0.389139
Si Si8 0.894089 0.202454 0.577817
O O1 0.500000 0.087955 0.720033
O O2 0.646555 0.147309 0.786842
O O3 0.634679 0.089831 0.568069
O O4 0.639127 0.000000 0.751531
O O5 0.319971 0.908672 0.135432
O O6 0.167785 0.856698 0.059841
O O7 0.169972 0.897036 0.279837
O O8 0.185727 0.000000 0.113091
O O9 0.878985 0.272987 0.162266
O O10 0.867752 0.372551 0.335941
O O11 0.000000 0.381786 0.171341
O O12 0.250000 0.750000 0.878126
O O13 0.359305 0.708797 0.713686
O O14 0.412083 0.749205 0.932868
O O15 0.000000 0.177477 0.094547
O O16 0.147650 0.271004 0.504049
O O17 0.000000 0.338796 0.472076
O O18 0.136897 0.128954 0.507325
O O19 0.000000 0.106741 0.355454
O O20 0.109016 0.000000 0.426024
O O21 0.000000 0.206215 0.586365
#
# Coordination Sequence:
#
# PCOD8173858 Si02
#       8
#     8   8   8   8   8   8   8   8
#     4   9  18  35  60  86 113 148 188 229 273 327
#     4  11  23  38  59  87 118 152 193 243 299 358
#     4  10  21  37  59  87 119 156 193 233 288 353
#     4  11  22  37  57  84 116 150 191 238 290 350
#     4  11  23  42  65  83 107 149 202 254 295 339
#     4   8  15  29  52  82 112 145 185 225 272 333
#     4   9  18  33  54  82 116 154 199 251 302 348
#     4   9  17  32  53  78 111 150 192 238 287 341
#
# _framework density 21.271115000000002
#
# number of rings (size 3 to 8) (size 9 to 14) (size 15 to 20)
#    0.000    2.250    0.000    4.125    0.000    5.500 
#    0.000    6.250    0.000    2.250    0.000    0.000 
#    0.000    0.000    0.000    0.000    0.000    0.000 
#
# Total GULP energy -396512.986461 kJ/mol
# GULP energy per Si atom -12391.030827 kJ/mol
# Density = 2.122270 g / cm^3
# Si number density = 21.271115 Si / 1000 Ang^3
#
#
#
# Elastic Constant Matrix: (Units=GPa)
#
#
# Indices 1 2 3 4 5 6 
#
# 1 83.3041 42.6466 16.0939 0.0000 0.0000 0.0000
# 2 42.6466 119.5335 45.2972 0.0000 0.0000 0.0000
# 3 16.0939 45.2972 80.5320 0.0000 0.0000 0.0000
# 4 0.0000 0.0000 0.0000 24.4121 0.0000 0.0000
# 5 0.0000 0.0000 0.0000 0.0000 21.8492 0.0000
# 6 0.0000 0.0000 0.0000 0.0000 0.0000 25.8086
#
#
#
# Elastic Compliance Matrix: (Units=1/GPa)
#
#
# Indices 1 2 3 4 5 6 
#
# 1 0.014687 -0.005246 0.000016 0.000000 0.000000 0.000000
# 2 -0.005246 0.012506 -0.005986 0.000000 0.000000 0.000000
# 3 0.000016 -0.005986 0.015781 0.000000 0.000000 0.000000
# 4 0.000000 0.000000 0.000000 0.040963 0.000000 0.000000
# 5 0.000000 0.000000 0.000000 0.000000 0.045768 0.000000
# 6 0.000000 0.000000 0.000000 0.000000 0.000000 0.038747
#
#
# Mechanical properties :
#
#
# Convention : Reuss Voigt Hill
#
# Bulk Modulus (GPa) = 48.68177 54.60501 51.64339
# Shear Modulus (GPa) = 25.28686 26.36945 25.82815
#
# Velocity S-wave (km/s) = 3.45162 3.52473 3.48837
# Velocity P-wave (km/s) = 6.23065 6.50321 6.36838
#
# Compressibility (1/GPa) = 0.02054157
#
# Stress axis : x y z
#
# Youngs Moduli (GPa) = 68.08877 79.96328 63.36656
#
# Poissons Ratio (x) = 0.41947 -0.00098
# Poissons Ratio (y) = 0.35718 0.37930
# Poissons Ratio (z) = -0.00106 0.47865
#
# Static dielectric constant tensor:
#      x y z
#    x 3.857710 0.000000 0.000000 
#    y 0.000000 3.821550 0.000000 
#    z 0.000000 0.000000 3.814700 
# 
# 
# High freq. dielectric constant tensor:
#      x y z
#    x 1.832710 0.000000 0.000000 
#    y 0.000000 1.821480 0.000000 
#    z 0.000000 0.000000 1.820160 
# 
# From -- ./inp_files/13198.got.cif
#   From: 2010.03.12/outbox.cif.g09.slc.cpg/sg35_7_cif.got.tgz:13198.got - 2010.04.14 02:02:04.
