data_PCOD8173657
_publ_section_title
;
Structure prediction by ZEFSAII (Michael W. Deem and Ramdas Pophale) SiO2 
 PCOD8173657
Probable space group: C M M 2
;
_chemical_formula_sum "Si O2"
_cell_formula_units_Z 64
_cell_length_a 8.943491
_cell_length_b 29.475655
_cell_length_c 12.158805
_cell_angle_alpha 90.000000
_cell_angle_beta 90.000000
_cell_angle_gamma 90.000000
_cell_volume 3205.246483
_symmetry_space_group_name_H-M "C M M 2"
_symmetry_group_IT_number 35
_symmetry_cell_setting 'orthorhombic'
loop_
_space_group_symop_operation_xyz
x,y,z
-x,-y,z
-x,y,z
x,-y,z
1/2+x,1/2+y,z
1/2-x,1/2-y,z
1/2-x,1/2+y,z
1/2+x,1/2-y,z
loop_
_atom_site_type_symbol
_atom_site_label
_atom_site_fract_x
_atom_site_fract_y
_atom_site_fract_z
Si Si1 0.167875 0.553852 0.137330
Si Si2 0.671330 0.297149 0.137330
Si Si3 0.673578 0.446726 0.916684
Si Si4 0.827339 0.376939 0.507924
Si Si5 0.673578 0.446726 0.357976
Si Si6 0.176368 0.799222 0.375818
Si Si7 0.672661 0.876939 0.766736
Si Si8 0.323633 0.299222 0.898842
O O1 0.163852 0.500000 0.137330
O O2 0.255241 0.571198 0.244432
O O3 0.000000 0.573869 0.137330
O O4 0.255241 0.571198 0.030229
O O5 0.500000 0.284405 0.137331
O O6 0.750000 0.250000 0.137328
O O7 0.710296 0.321537 0.253802
O O8 0.710294 0.321537 0.020858
O O9 0.500000 0.433886 0.919435
O O10 0.699406 0.500000 0.900274
O O11 0.752244 0.421897 0.815757
O O12 0.752244 0.421897 0.458904
O O13 0.746935 0.331840 0.465789
O O14 0.805928 0.379372 0.637330
O O15 0.000000 0.375519 0.473436
O O16 0.500000 0.433885 0.355225
O O17 0.699404 0.500000 0.374386
O O18 0.250000 0.750000 0.387747
O O19 0.000000 0.794857 0.397271
O O20 0.500000 0.875519 0.801225
O O21 0.753066 0.831840 0.808871
O O22 0.500000 0.294857 0.877388
O O23 0.250000 0.250000 0.886913
#
# Coordination Sequence:
#
# PCOD8173657 Si02
#       8
#     8   8   8   8   8   8   8   8
#     4   9  17  32  57  88 120 152 187 228 279 342
#     4   8  16  31  54  85 115 143 176 219 274 336
#     4  10  21  38  61  88 118 151 188 235 291 347
#     4  11  25  42  58  80 112 152 200 246 288 342
#     4  10  21  38  61  88 118 151 188 235 291 347
#     4  10  20  37  61  87 117 150 186 232 287 346
#     4  11  25  42  58  80 112 152 200 246 288 342
#     4  10  20  37  61  87 117 150 186 232 287 346
#
# _framework density 19.967262999999999
#
# number of rings (size 3 to 8) (size 9 to 14) (size 15 to 20)
#    0.000    2.125    0.000    2.625    0.000    8.000 
#    0.000    6.250    0.000    0.000    0.000    0.000 
#    0.000    0.000    0.000    0.000    0.000    0.000 
#
# Total GULP energy -396690.143278 kJ/mol
# GULP energy per Si atom -12396.566977 kJ/mol
# Density = 1.992182 g / cm^3
# Si number density = 19.967263 Si / 1000 Ang^3
#
#
#
# Elastic Constant Matrix: (Units=GPa)
#
#
# Indices 1 2 3 4 5 6 
#
# 1 156.5451 60.3195 82.5165 0.0000 0.0000 0.0000
# 2 60.3195 77.4080 54.6836 0.0000 0.0000 0.0000
# 3 82.5165 54.6836 121.1192 0.0000 0.0000 0.0000
# 4 0.0000 0.0000 0.0000 71.5453 0.0000 0.0000
# 5 0.0000 0.0000 0.0000 0.0000 34.9102 0.0000
# 6 0.0000 0.0000 0.0000 0.0000 0.0000 32.2760
#
#
#
# Elastic Compliance Matrix: (Units=1/GPa)
#
#
# Indices 1 2 3 4 5 6 
#
# 1 0.011082 -0.004848 -0.005361 0.000000 0.000000 0.000000
# 2 -0.004848 0.021090 -0.006219 0.000000 0.000000 0.000000
# 3 -0.005361 -0.006219 0.014716 0.000000 0.000000 0.000000
# 4 0.000000 0.000000 0.000000 0.013977 0.000000 0.000000
# 5 0.000000 0.000000 0.000000 0.000000 0.028645 0.000000
# 6 0.000000 0.000000 0.000000 0.000000 0.000000 0.030983
#
#
# Mechanical properties :
#
#
# Convention : Reuss Voigt Hill
#
# Bulk Modulus (GPa) = 71.26550 83.34573 77.30561
# Shear Modulus (GPa) = 31.64047 38.24983 34.94515
#
# Velocity S-wave (km/s) = 3.98504 4.38154 4.18798
# Velocity P-wave (km/s) = 7.54604 8.21151 7.88580
#
# Compressibility (1/GPa) = 0.01403203
#
# Stress axis : x y z
#
# Youngs Moduli (GPa) = 90.23733 47.41691 67.95200
#
# Poissons Ratio (x) = 0.22989 0.36429
# Poissons Ratio (y) = 0.43750 0.42256
# Poissons Ratio (z) = 0.48376 0.29486
#
# Static dielectric constant tensor:
#      x y z
#    x 3.802830 0.000000 0.000000 
#    y 0.000000 3.355870 0.000000 
#    z 0.000000 0.000000 3.956750 
# 
# 
# High freq. dielectric constant tensor:
#      x y z
#    x 1.796730 0.000000 0.000000 
#    y 0.000000 1.766880 0.000000 
#    z 0.000000 0.000000 1.785570 
# 
# From -- ./inp_files/11855.got.cif
#   From: 2010.03.12/outbox.cif.g09.slc.cpg/sg35_6_cif.got.tgz:11855.got - 2010.04.14 02:02:04.
