data_PCOD8173932
_publ_section_title
;
Structure prediction by ZEFSAII (Michael W. Deem and Ramdas Pophale) SiO2 
 PCOD8173932
Probable space group: C M M 2
;
_chemical_formula_sum "Si O2"
_cell_formula_units_Z 48
_cell_length_a 15.837829
_cell_length_b 8.625327
_cell_length_c 16.828700
_cell_angle_alpha 90.000000
_cell_angle_beta 90.000000
_cell_angle_gamma 90.000000
_cell_volume 2298.909034
_symmetry_space_group_name_H-M "C M M 2"
_symmetry_group_IT_number 35
_symmetry_cell_setting 'orthorhombic'
loop_
_space_group_symop_operation_xyz
x,y,z
-x,-y,z
-x,y,z
x,-y,z
1/2+x,1/2+y,z
1/2-x,1/2-y,z
1/2-x,1/2+y,z
1/2+x,1/2-y,z
loop_
_atom_site_type_symbol
_atom_site_label
_atom_site_fract_x
_atom_site_fract_y
_atom_site_fract_z
Si Si1 0.000000 0.682708 0.367041
Si Si2 0.661082 0.683495 0.456269
Si Si3 0.094771 0.326922 0.936650
Si Si4 0.500000 0.683470 0.193513
Si Si5 0.338108 0.680219 0.787940
Si Si6 0.839476 0.683736 0.103523
Si Si7 0.593940 0.315944 0.622975
O O1 0.084225 0.751193 0.405654
O O2 0.000000 0.725239 0.275470
O O3 0.000000 0.500000 0.378833
O O4 0.661002 0.500000 0.447138
O O5 0.750000 0.750000 0.424637
O O6 0.650332 0.735980 0.548196
O O7 0.118510 0.500000 0.907913
O O8 0.099618 0.214265 0.860881
O O9 0.000000 0.320860 0.970208
O O10 0.154355 0.276975 0.009595
O O11 0.500000 0.500000 0.208007
O O12 0.584719 0.730298 0.147629
O O13 0.329658 0.500000 0.774952
O O14 0.250000 0.750000 0.814265
O O15 0.369118 0.755464 0.704749
O O16 0.845551 0.500000 0.119189
O O17 0.750000 0.750000 0.134661
O O18 0.500000 0.248880 0.610686
O O19 0.589846 0.500000 0.628905
#
# Coordination Sequence:
#
# PCOD8173932 Si02
#       7
#     4   8   8   4   8   8   8
#     4  12  26  46  70  99 132 167 210 261 320 387
#     4  11  22  41  68  97 132 172 215 265 321 382
#     4  10  21  39  61  87 123 165 210 263 319 372
#     4  12  26  46  72 101 130 167 210 259 322 387
#     4  11  22  35  54  83 121 165 215 265 315 371
#     4  11  23  43  68  98 133 172 214 264 320 381
#     4   9  18  35  59  86 121 165 211 263 319 373
#
# _framework density 20.879469
#
# number of rings (size 3 to 8) (size 9 to 14) (size 15 to 20)
#    0.000    1.333    1.667    4.500    0.000    4.333 
#    0.000    5.833    0.000    0.000    0.000    0.000 
#    0.000    0.000    0.000    0.000    0.000    0.000 
#
# Total GULP energy -297630.179318 kJ/mol
# GULP energy per Si atom -12401.257472 kJ/mol
# Density = 2.083195 g / cm^3
# Si number density = 20.879469 Si / 1000 Ang^3
#
#
#
# Elastic Constant Matrix: (Units=GPa)
#
#
# Indices 1 2 3 4 5 6 
#
# 1 150.1348 34.2991 42.8475 0.0000 0.0000 0.0000
# 2 34.2991 75.9530 25.3140 0.0000 0.0000 0.0000
# 3 42.8475 25.3140 97.7331 0.0000 0.0000 0.0000
# 4 0.0000 0.0000 0.0000 31.1375 0.0000 0.0000
# 5 0.0000 0.0000 0.0000 0.0000 12.8897 0.0000
# 6 0.0000 0.0000 0.0000 0.0000 0.0000 31.4938
#
#
#
# Elastic Compliance Matrix: (Units=1/GPa)
#
#
# Indices 1 2 3 4 5 6 
#
# 1 0.008091 -0.002705 -0.002847 0.000000 0.000000 0.000000
# 2 -0.002705 0.015314 -0.002781 0.000000 0.000000 0.000000
# 3 -0.002847 -0.002781 0.012200 0.000000 0.000000 0.000000
# 4 0.000000 0.000000 0.000000 0.032116 0.000000 0.000000
# 5 0.000000 0.000000 0.000000 0.000000 0.077581 0.000000
# 6 0.000000 0.000000 0.000000 0.000000 0.000000 0.031752
#
#
# Mechanical properties :
#
#
# Convention : Reuss Voigt Hill
#
# Bulk Modulus (GPa) = 52.79564 58.74910 55.77237
# Shear Modulus (GPa) = 24.99588 29.86157 27.42873
#
# Velocity S-wave (km/s) = 3.46374 3.78589 3.62839
# Velocity P-wave (km/s) = 6.42942 6.87815 6.65757
#
# Compressibility (1/GPa) = 0.01894096
#
# Stress axis : x y z
#
# Youngs Moduli (GPa) = 123.59318 65.29823 81.96624
#
# Poissons Ratio (x) = 0.17664 0.23332
# Poissons Ratio (y) = 0.33433 0.22792
# Poissons Ratio (z) = 0.35182 0.18157
#
# Static dielectric constant tensor:
#      x y z
#    x 4.172040 0.000000 0.000000 
#    y 0.000000 3.643460 0.000000 
#    z 0.000000 0.000000 3.830770 
# 
# 
# High freq. dielectric constant tensor:
#      x y z
#    x 1.831870 0.000000 0.000000 
#    y 0.000000 1.805380 0.000000 
#    z 0.000000 0.000000 1.820840 
# 
# From -- ./inp_files/17091.got.cif
#   From: 2010.03.12/outbox.cif.g09.slc.cpg/sg35_9_cif.got.tgz:17091.got - 2010.04.14 02:02:04.
