data_PCOD8173741
_publ_section_title
;
Structure prediction by ZEFSAII (Michael W. Deem and Ramdas Pophale) SiO2 
 PCOD8173741
Probable space group: C M M 2
;
_chemical_formula_sum "Si O2"
_cell_formula_units_Z 56
_cell_length_a 19.467134
_cell_length_b 9.170777
_cell_length_c 17.351601
_cell_angle_alpha 90.000000
_cell_angle_beta 90.000000
_cell_angle_gamma 90.000000
_cell_volume 3097.759546
_symmetry_space_group_name_H-M "C M M 2"
_symmetry_group_IT_number 35
_symmetry_cell_setting 'orthorhombic'
loop_
_space_group_symop_operation_xyz
x,y,z
-x,-y,z
-x,y,z
x,-y,z
1/2+x,1/2+y,z
1/2-x,1/2-y,z
1/2-x,1/2+y,z
1/2+x,1/2-y,z
loop_
_atom_site_type_symbol
_atom_site_label
_atom_site_fract_x
_atom_site_fract_y
_atom_site_fract_z
Si Si1 0.181868 0.668754 0.809260
Si Si2 0.075521 0.172873 0.086782
Si Si3 0.579610 0.329428 0.520436
Si Si4 0.680686 0.170087 0.629479
Si Si5 0.319213 0.328104 0.212076
Si Si6 0.318782 0.330877 0.386479
Si Si7 0.418886 0.666293 0.915335
O O1 0.191452 0.500000 0.827692
O O2 0.250000 0.750000 0.838287
O O3 0.169064 0.697687 0.719462
O O4 0.116444 0.728292 0.854418
O O5 0.123598 0.234919 0.154199
O O6 0.000000 0.240988 0.099402
O O7 0.070392 0.000000 0.092496
O O8 0.103456 0.214174 0.001768
O O9 0.500000 0.284173 0.513230
O O10 0.587186 0.500000 0.539692
O O11 0.614324 0.237494 0.588329
O O12 0.617065 0.289357 0.440287
O O13 0.750000 0.250000 0.600678
O O14 0.687587 0.000000 0.609337
O O15 0.309532 0.500000 0.202467
O O16 0.250000 0.250000 0.187138
O O17 0.339532 0.286056 0.299546
O O18 0.301105 0.500000 0.391524
O O19 0.250000 0.250000 0.414470
O O20 0.500000 0.683342 0.905902
O O21 0.396485 0.500000 0.898935
#
# Coordination Sequence:
#
# PCOD8173741 Si02
#       7
#     8   8   8   8   8   8   8
#     4  10  21  36  54  76 101 129 165 208 250 296
#     4   8  15  29  49  72  97 128 166 203 240 287
#     4  10  21  35  51  75 105 133 165 206 249 294
#     4  10  21  37  56  76  99 130 167 205 248 299
#     4   9  17  30  49  72  98 128 163 204 246 288
#     4   9  18  32  50  72  98 130 166 203 245 293
#     4   9  18  33  52  74 102 135 169 205 248 298
#
# _framework density 18.077580999999999
#
# number of rings (size 3 to 8) (size 9 to 14) (size 15 to 20)
#    0.000    2.714    0.000    2.143    0.000    5.714 
#    0.000    7.857    0.000    1.286    0.000    4.000 
#    0.000    0.000    0.000    0.000    0.000    0.000 
#
# Total GULP energy -347205.917903 kJ/mol
# GULP energy per Si atom -12400.211354 kJ/mol
# Density = 1.803644 g / cm^3
# Si number density = 18.077581 Si / 1000 Ang^3
#
#
#
# Elastic Constant Matrix: (Units=GPa)
#
#
# Indices 1 2 3 4 5 6 
#
# 1 128.0947 54.7704 74.8780 0.0000 0.0000 0.0000
# 2 54.7704 66.5840 50.7760 0.0000 0.0000 0.0000
# 3 74.8780 50.7760 97.1246 0.0000 0.0000 0.0000
# 4 0.0000 0.0000 0.0000 19.5839 0.0000 0.0000
# 5 0.0000 0.0000 0.0000 0.0000 35.8172 0.0000
# 6 0.0000 0.0000 0.0000 0.0000 0.0000 31.4921
#
#
#
# Elastic Compliance Matrix: (Units=1/GPa)
#
#
# Indices 1 2 3 4 5 6 
#
# 1 0.015559 -0.006072 -0.008821 0.000000 0.000000 0.000000
# 2 -0.006072 0.027345 -0.009615 0.000000 0.000000 0.000000
# 3 -0.008821 -0.009615 0.022123 0.000000 0.000000 0.000000
# 4 0.000000 0.000000 0.000000 0.051062 0.000000 0.000000
# 5 0.000000 0.000000 0.000000 0.000000 0.027920 0.000000
# 6 0.000000 0.000000 0.000000 0.000000 0.000000 0.031754
#
#
# Mechanical properties :
#
#
# Convention : Reuss Voigt Hill
#
# Bulk Modulus (GPa) = 62.45210 72.51689 67.48450
# Shear Modulus (GPa) = 21.72810 24.80390 23.26600
#
# Velocity S-wave (km/s) = 3.47066 3.70818 3.59138
# Velocity P-wave (km/s) = 7.11915 7.65085 7.38978
#
# Compressibility (1/GPa) = 0.01601227
#
# Stress axis : x y z
#
# Youngs Moduli (GPa) = 64.27023 36.56924 45.20145
#
# Poissons Ratio (x) = 0.22204 0.39872
# Poissons Ratio (y) = 0.39024 0.43460
# Poissons Ratio (z) = 0.56693 0.35161
#
# Static dielectric constant tensor:
#      x y z
#    x 3.433970 0.000000 0.000000 
#    y 0.000000 3.189220 0.000000 
#    z 0.000000 0.000000 3.495410 
# 
# 
# High freq. dielectric constant tensor:
#      x y z
#    x 1.697730 0.000000 0.000000 
#    y 0.000000 1.683870 0.000000 
#    z 0.000000 0.000000 1.707900 
# 
# From -- ./inp_files/15644.got.cif
#   From: 2010.03.12/outbox.cif.g09.slc.cpg/sg35_8_cif.got.tgz:15644.got - 2010.04.14 02:02:04.
