data_PCOD8173751
_publ_section_title
;
Structure prediction by ZEFSAII (Michael W. Deem and Ramdas Pophale) SiO2 
 PCOD8173751
Probable space group: C M M 2
;
_chemical_formula_sum "Si O2"
_cell_formula_units_Z 48
_cell_length_a 8.715288
_cell_length_b 15.845680
_cell_length_c 17.182986
_cell_angle_alpha 90.000000
_cell_angle_beta 90.000000
_cell_angle_gamma 90.000000
_cell_volume 2372.964606
_symmetry_space_group_name_H-M "C M M 2"
_symmetry_group_IT_number 35
_symmetry_cell_setting 'orthorhombic'
loop_
_space_group_symop_operation_xyz
x,y,z
-x,-y,z
-x,y,z
x,-y,z
1/2+x,1/2+y,z
1/2-x,1/2-y,z
1/2-x,1/2+y,z
1/2+x,1/2-y,z
loop_
_atom_site_type_symbol
_atom_site_label
_atom_site_fract_x
_atom_site_fract_y
_atom_site_fract_z
Si Si1 0.319631 0.340691 0.473930
Si Si2 0.179784 0.661329 0.636994
Si Si3 0.319887 0.343980 0.111238
Si Si4 0.167468 0.904796 0.782062
Si Si5 0.820319 0.000000 0.367643
Si Si6 0.678244 0.661852 0.940991
Si Si7 0.819967 0.500000 0.201505
O O1 0.500000 0.328213 0.481606
O O2 0.250000 0.250000 0.448028
O O3 0.255505 0.370720 0.557302
O O4 0.277314 0.414992 0.414543
O O5 0.250000 0.750000 0.662076
O O6 0.218924 0.601134 0.708962
O O7 0.000000 0.667024 0.623543
O O8 0.500000 0.335429 0.128372
O O9 0.250000 0.250000 0.124441
O O10 0.249052 0.413269 0.168268
O O11 0.292078 0.383649 0.024074
O O12 0.252433 0.874411 0.861734
O O13 0.000000 0.860497 0.765898
O O14 0.131339 0.000000 0.798858
O O15 0.714828 0.000000 0.292635
O O16 0.000000 0.000000 0.346007
O O17 0.500000 0.667864 0.923130
O O18 0.750000 0.750000 0.958501
O O19 0.000000 0.500000 0.186046
#
# Coordination Sequence:
#
# PCOD8173751 Si02
#       7
#     8   8   8   8   4   8   4
#     4  10  21  40  65  92 120 157 200 246 301 360
#     4  11  22  37  57  82 114 153 198 243 293 347
#     4  10  21  40  66  93 126 163 207 256 309 368
#     4  10  21  35  53  80 116 155 197 242 293 348
#     4  10  24  44  66  91 122 159 198 243 304 369
#     4   9  19  35  58  83 111 152 197 244 296 350
#     4  12  26  42  64  95 128 163 204 249 306 369
#
# _framework density 20.227861000000001
#
# number of rings (size 3 to 8) (size 9 to 14) (size 15 to 20)
#    0.000    1.833    0.000    4.750    2.333    5.000 
#    0.000    1.667    0.000    0.000    0.000    0.000 
#    0.000    0.000    0.000    0.000    0.000    0.000 
#
# Total GULP energy -297364.838238 kJ/mol
# GULP energy per Si atom -12390.201593 kJ/mol
# Density = 2.018182 g / cm^3
# Si number density = 20.227861 Si / 1000 Ang^3
#
#
#
# Elastic Constant Matrix: (Units=GPa)
#
#
# Indices 1 2 3 4 5 6 
#
# 1 103.2338 45.7217 58.7235 0.0000 0.0000 0.0000
# 2 45.7217 101.8675 65.2959 0.0000 0.0000 0.0000
# 3 58.7235 65.2959 143.5602 0.0000 0.0000 0.0000
# 4 0.0000 0.0000 0.0000 37.4247 0.0000 0.0000
# 5 0.0000 0.0000 0.0000 0.0000 30.2227 0.0000
# 6 0.0000 0.0000 0.0000 0.0000 0.0000 28.4794
#
#
#
# Elastic Compliance Matrix: (Units=1/GPa)
#
#
# Indices 1 2 3 4 5 6 
#
# 1 0.013476 -0.003550 -0.003898 0.000000 0.000000 0.000000
# 2 -0.003550 0.014792 -0.005276 0.000000 0.000000 0.000000
# 3 -0.003898 -0.005276 0.010960 0.000000 0.000000 0.000000
# 4 0.000000 0.000000 0.000000 0.026720 0.000000 0.000000
# 5 0.000000 0.000000 0.000000 0.000000 0.033088 0.000000
# 6 0.000000 0.000000 0.000000 0.000000 0.000000 0.035113
#
#
# Mechanical properties :
#
#
# Convention : Reuss Voigt Hill
#
# Bulk Modulus (GPa) = 72.56583 76.46041 74.51312
# Shear Modulus (GPa) = 30.45265 31.15338 30.80302
#
# Velocity S-wave (km/s) = 3.88426 3.92870 3.90654
# Velocity P-wave (km/s) = 7.48791 7.64599 7.56736
#
# Compressibility (1/GPa) = 0.01378059
#
# Stress axis : x y z
#
# Youngs Moduli (GPa) = 74.20417 67.60547 91.24445
#
# Poissons Ratio (x) = 0.24002 0.35565
# Poissons Ratio (y) = 0.26344 0.48136
# Poissons Ratio (z) = 0.28923 0.35665
#
# Static dielectric constant tensor:
#      x y z
#    x 3.644840 0.000000 0.000000 
#    y 0.000000 3.618960 0.000000 
#    z 0.000000 0.000000 3.857830 
# 
# 
# High freq. dielectric constant tensor:
#      x y z
#    x 1.789860 0.000000 0.000000 
#    y 0.000000 1.784550 0.000000 
#    z 0.000000 0.000000 1.801810 
# 
# From -- ./inp_files/15254.got.cif
#   From: 2010.03.12/outbox.cif.g09.slc.cpg/sg35_8_cif.got.tgz:15254.got - 2010.04.14 02:02:04.
