data_PCOD8173591
_publ_section_title
;
Structure prediction by ZEFSAII (Michael W. Deem and Ramdas Pophale) SiO2 
 PCOD8173591
Probable space group: C M M 2
;
_chemical_formula_sum "Si O2"
_cell_formula_units_Z 40
_cell_length_a 9.056782
_cell_length_b 29.465623
_cell_length_c 7.447152
_cell_angle_alpha 90.000000
_cell_angle_beta 90.000000
_cell_angle_gamma 90.000000
_cell_volume 1987.374716
_symmetry_space_group_name_H-M "C M M 2"
_symmetry_group_IT_number 35
_symmetry_cell_setting 'orthorhombic'
loop_
_space_group_symop_operation_xyz
x,y,z
-x,-y,z
-x,y,z
x,-y,z
1/2+x,1/2+y,z
1/2-x,1/2-y,z
1/2-x,1/2+y,z
1/2+x,1/2-y,z
loop_
_atom_site_type_symbol
_atom_site_label
_atom_site_fract_x
_atom_site_fract_y
_atom_site_fract_z
Si Si1 0.334761 0.706688 0.966770
Si Si2 0.338456 0.707955 0.391865
Si Si3 0.168774 0.552492 0.660014
Si Si4 0.172330 0.384406 0.993012
Si Si5 0.324087 0.608697 0.365054
O O1 0.500000 0.703606 0.885302
O O2 0.250000 0.750000 0.882763
O O3 0.245404 0.661455 0.916642
O O4 0.344789 0.712533 0.178909
O O5 0.500000 0.711507 0.477140
O O6 0.250000 0.750000 0.477688
O O7 0.270619 0.658384 0.437410
O O8 0.205173 0.500000 0.688232
O O9 0.199858 0.576534 0.848369
O O10 0.276219 0.571006 0.506358
O O11 0.000000 0.560285 0.598571
O O12 0.000000 0.375362 0.029164
O O13 0.248547 0.401704 0.174915
O O14 0.500000 0.608584 0.336946
#
# Coordination Sequence:
#
# PCOD8173591 Si02
#       5
#     8   8   8   8   8
#     4   9  16  28  49  79 114 150 189 230 274 329
#     4   8  15  27  46  75 109 143 179 218 262 316
#     4  10  23  42  61  82 109 144 189 239 289 342
#     4  10  20  36  59  85 115 152 191 232 281 337
#     4  10  21  37  58  86 117 149 187 232 282 336
#
# _framework density 20.127056
#
# number of rings (size 3 to 8) (size 9 to 14) (size 15 to 20)
#    0.000    2.600    0.000    3.000    0.000    8.400 
#    0.000    3.000    0.000    2.400    0.000    0.000 
#    0.000    0.000    0.000    0.000    0.000    0.000 
#
# Total GULP energy -247962.695405 kJ/mol
# GULP energy per Si atom -12398.134770 kJ/mol
# Density = 2.008125 g / cm^3
# Si number density = 20.127056 Si / 1000 Ang^3
#
#
#
# Elastic Constant Matrix: (Units=GPa)
#
#
# Indices 1 2 3 4 5 6 
#
# 1 129.5507 74.6974 49.6969 0.0000 0.0000 0.0000
# 2 74.6974 163.8476 58.0479 0.0000 0.0000 0.0000
# 3 49.6969 58.0479 75.8487 0.0000 0.0000 0.0000
# 4 0.0000 0.0000 0.0000 96.6308 0.0000 0.0000
# 5 0.0000 0.0000 0.0000 0.0000 -4.7760 0.0000
# 6 0.0000 0.0000 0.0000 0.0000 0.0000 34.0470
#
#
#
# Elastic Compliance Matrix: (Units=1/GPa)
#
#
# Indices 1 2 3 4 5 6 
#
# 1 0.011664 -0.003581 -0.004902 0.000000 0.000000 0.000000
# 2 -0.003581 0.009473 -0.004903 0.000000 0.000000 0.000000
# 3 -0.004902 -0.004903 0.020149 0.000000 0.000000 0.000000
# 4 0.000000 0.000000 0.000000 0.010349 0.000000 0.000000
# 5 0.000000 0.000000 0.000000 0.000000 -0.209378 0.000000
# 6 0.000000 0.000000 0.000000 0.000000 0.000000 0.029371
#
#
# Mechanical properties :
#
#
# Convention : Reuss Voigt Hill
#
# Bulk Modulus (GPa) = 68.90373 81.57015 75.23694
# Shear Modulus (GPa) = -51.67309 37.63401 -7.01954
#
# Velocity S-wave (km/s) = -5.07239 4.32884 -1.86954
# Velocity P-wave (km/s) = 0.05590 8.09942 5.72729
#
# Compressibility (1/GPa) = 0.01451300
#
# Stress axis : x y z
#
# Youngs Moduli (GPa) = 85.73270 105.56322 49.63114
#
# Poissons Ratio (x) = 0.37802 0.24329
# Poissons Ratio (y) = 0.30701 0.24337
# Poissons Ratio (z) = 0.42025 0.51763
#
# Static dielectric constant tensor:
#      x y z
#    x 3.838930 0.000000 0.000000 
#    y 0.000000 3.777580 0.000000 
#    z 0.000000 0.000000 3.282140 
# 
# 
# High freq. dielectric constant tensor:
#      x y z
#    x 1.790740 0.000000 0.000000 
#    y 0.000000 1.788490 0.000000 
#    z 0.000000 0.000000 1.766780 
# 
# From -- ./inp_files/4961.got.cif
#   From: 2010.03.12/outbox.cif.g09.slc.cpg/sg35_3_cif.got.tgz:4961.got - 2010.04.14 02:02:04.
