data_PCOD8173136
_publ_section_title
;
Structure prediction by ZEFSAII (Michael W. Deem and Ramdas Pophale) SiO2 
 PCOD8173136
Probable space group: C M M 2
;
_chemical_formula_sum "Si O2"
_cell_formula_units_Z 64
_cell_length_a 8.917381
_cell_length_b 19.076552
_cell_length_c 20.394894
_cell_angle_alpha 90.000000
_cell_angle_beta 90.000000
_cell_angle_gamma 90.000000
_cell_volume 3469.434204
_symmetry_space_group_name_H-M "C M M 2"
_symmetry_group_IT_number 35
_symmetry_cell_setting 'orthorhombic'
loop_
_space_group_symop_operation_xyz
x,y,z
-x,-y,z
-x,y,z
x,-y,z
1/2+x,1/2+y,z
1/2-x,1/2-y,z
1/2-x,1/2+y,z
1/2+x,1/2-y,z
loop_
_atom_site_type_symbol
_atom_site_label
_atom_site_fract_x
_atom_site_fract_y
_atom_site_fract_z
Si Si1 0.324328 0.825344 0.603290
Si Si2 0.672794 0.919633 0.220781
Si Si3 0.822703 0.174331 0.115749
Si Si4 0.178172 0.922206 0.999011
Si Si5 0.829095 0.581023 0.372551
Si Si6 0.676710 0.326019 0.476507
Si Si7 0.329511 0.582387 0.852831
Si Si8 0.326109 0.824558 0.747582
O O1 0.500000 0.820103 0.588244
O O2 0.250000 0.750000 0.605189
O O3 0.243494 0.864521 0.542260
O O4 0.293602 0.858341 0.675263
O O5 0.500000 0.905528 0.202435
O O6 0.779381 0.868660 0.180223
O O7 0.701421 0.902864 0.296651
O O8 0.715395 0.000000 0.205171
O O9 0.750000 0.250000 0.117346
O O10 0.000000 0.182843 0.113228
O O11 0.760159 0.132947 0.052020
O O12 0.227449 0.898364 0.926099
O O13 0.000000 0.926147 0.001533
O O14 0.242708 0.000000 0.014767
O O15 0.798710 0.500000 0.387865
O O16 0.714178 0.626801 0.414111
O O17 0.000000 0.600739 0.390692
O O18 0.500000 0.317853 0.483311
O O19 0.750000 0.250000 0.466839
O O20 0.500000 0.607665 0.842775
O O21 0.316347 0.500000 0.841362
O O22 0.225221 0.620286 0.801068
O O23 0.500000 0.810281 0.756305
O O24 0.250000 0.750000 0.758311
#
# Coordination Sequence:
#
# PCOD8173136 Si02
#       8
#     8   8   8   8   8   8   8   8
#     4   9  17  31  50  72 100 135 173 213 258 307
#     4   9  19  37  59  80 103 134 172 212 256 309
#     4  11  22  35  53  78 109 140 171 213 259 303
#     4   8  16  33  55  76  99 133 175 213 255 309
#     4   9  19  37  58  78 104 137 170 209 259 310
#     4  11  21  33  53  79 106 136 173 216 257 304
#     4   9  18  34  55  77 104 137 171 211 259 309
#     4  10  20  33  52  77 104 135 173 216 259 307
#
# _framework density 18.446812000000001
#
# number of rings (size 3 to 8) (size 9 to 14) (size 15 to 20)
#    0.000    2.500    0.000    4.875    0.000    4.250 
#    0.000    4.375    0.000    2.250    0.000    0.000 
#    0.000    0.000    0.000    0.000    0.000    0.000 
#
# Total GULP energy -396682.265269 kJ/mol
# GULP energy per Si atom -12396.320790 kJ/mol
# Density = 1.840483 g / cm^3
# Si number density = 18.446812 Si / 1000 Ang^3
#
#
#
# Elastic Constant Matrix: (Units=GPa)
#
#
# Indices 1 2 3 4 5 6 
#
# 1 92.4971 42.5731 57.2791 0.0000 0.0000 0.0000
# 2 42.5731 80.7948 68.2832 0.0000 0.0000 0.0000
# 3 57.2791 68.2832 134.7970 0.0000 0.0000 0.0000
# 4 0.0000 0.0000 0.0000 2.5491 0.0000 0.0000
# 5 0.0000 0.0000 0.0000 0.0000 28.6243 0.0000
# 6 0.0000 0.0000 0.0000 0.0000 0.0000 21.7823
#
#
#
# Elastic Compliance Matrix: (Units=1/GPa)
#
#
# Indices 1 2 3 4 5 6 
#
# 1 0.015581 -0.004572 -0.004305 0.000000 0.000000 0.000000
# 2 -0.004572 0.022984 -0.009700 0.000000 0.000000 0.000000
# 3 -0.004305 -0.009700 0.014162 0.000000 0.000000 0.000000
# 4 0.000000 0.000000 0.000000 0.392290 0.000000 0.000000
# 5 0.000000 0.000000 0.000000 0.000000 0.034935 0.000000
# 6 0.000000 0.000000 0.000000 0.000000 0.000000 0.045909
#
#
# Mechanical properties :
#
#
# Convention : Reuss Voigt Hill
#
# Bulk Modulus (GPa) = 64.21397 71.59552 67.90474
# Shear Modulus (GPa) = 8.79963 19.92138 14.36050
#
# Velocity S-wave (km/s) = 2.18646 3.28980 2.79316
# Velocity P-wave (km/s) = 6.42340 7.30250 6.87701
#
# Compressibility (1/GPa) = 0.01557294
#
# Stress axis : x y z
#
# Youngs Moduli (GPa) = 64.17944 43.50817 70.61331
#
# Poissons Ratio (x) = 0.19892 0.30399
# Poissons Ratio (y) = 0.29342 0.68496
# Poissons Ratio (z) = 0.27629 0.42204
#
# Static dielectric constant tensor:
#      x y z
#    x 3.290320 0.000000 0.000000 
#    y 0.000000 3.543970 0.000000 
#    z 0.000000 0.000000 3.892130 
# 
# 
# High freq. dielectric constant tensor:
#      x y z
#    x 1.709040 0.000000 0.000000 
#    y 0.000000 1.693670 0.000000 
#    z 0.000000 0.000000 1.733180 
# 
# From -- ./inp_files/18394.got.cif
#   From: 2010.03.12/outbox.cif.g09.slc.cpg/sg35_10_cif.got.tgz:18394.got - 2010.04.14 02:02:04.
