data_PCOD8173128
_publ_section_title
;
Structure prediction by ZEFSAII (Michael W. Deem and Ramdas Pophale) SiO2 
 PCOD8173128
Probable space group: C M M 2
;
_chemical_formula_sum "Si O2"
_cell_formula_units_Z 40
_cell_length_a 28.848777
_cell_length_b 9.166429
_cell_length_c 7.921762
_cell_angle_alpha 90.000000
_cell_angle_beta 90.000000
_cell_angle_gamma 90.000000
_cell_volume 2094.832851
_symmetry_space_group_name_H-M "C M M 2"
_symmetry_group_IT_number 35
_symmetry_cell_setting 'orthorhombic'
loop_
_space_group_symop_operation_xyz
x,y,z
-x,-y,z
-x,y,z
x,-y,z
1/2+x,1/2+y,z
1/2-x,1/2-y,z
1/2-x,1/2+y,z
1/2+x,1/2-y,z
loop_
_atom_site_type_symbol
_atom_site_label
_atom_site_fract_x
_atom_site_fract_y
_atom_site_fract_z
Si Si1 0.645170 0.329478 0.876810
Si Si2 0.798696 0.173437 0.195158
Si Si3 0.137444 0.171804 0.507742
Si Si4 0.551205 0.667929 0.031763
Si Si5 0.947831 0.669466 0.379014
O O1 0.651061 0.500000 0.898306
O O2 0.660431 0.281300 0.688064
O O3 0.677513 0.262321 0.024333
O O4 0.591014 0.286431 0.899833
O O5 0.750000 0.250000 0.218005
O O6 0.829791 0.221284 0.354926
O O7 0.791971 0.000000 0.191381
O O8 0.087813 0.249653 0.501160
O O9 0.128246 0.000000 0.503594
O O10 0.500000 0.691611 0.950863
O O11 0.557668 0.500000 0.089713
O O12 0.557810 0.768578 0.192482
O O13 0.935512 0.500000 0.373792
O O14 0.000000 0.696442 0.446479
#
# Coordination Sequence:
#
# PCOD8173128 Si02
#       5
#     8   8   8   8   8
#     4   9  18  34  56  83 109 135 177 225 265 314
#     4  10  21  38  57  80 108 139 177 224 275 325
#     4  10  20  36  59  82 107 142 183 225 266 315
#     4   9  16  30  54  80 107 141 180 220 264 317
#     4  10  20  33  51  79 115 149 181 219 265 319
#
# _framework density 19.094601999999998
#
# number of rings (size 3 to 8) (size 9 to 14) (size 15 to 20)
#    0.000    2.400    2.000    0.600    0.000    3.600 
#    0.000    4.000    0.000    2.400    0.000    0.000 
#    0.000    0.000    0.000    0.000    0.000    0.000 
#
# Total GULP energy -247893.518243 kJ/mol
# GULP energy per Si atom -12394.675912 kJ/mol
# Density = 1.905114 g / cm^3
# Si number density = 19.094602 Si / 1000 Ang^3
#
#
#
# Elastic Constant Matrix: (Units=GPa)
#
#
# Indices 1 2 3 4 5 6 
#
# 1 126.2958 41.1530 70.2096 0.0000 0.0000 0.0000
# 2 41.1530 40.5832 35.4625 0.0000 0.0000 0.0000
# 3 70.2096 35.4625 142.8185 0.0000 0.0000 0.0000
# 4 0.0000 0.0000 0.0000 6.0142 0.0000 0.0000
# 5 0.0000 0.0000 0.0000 0.0000 15.5914 0.0000
# 6 0.0000 0.0000 0.0000 0.0000 0.0000 30.8915
#
#
#
# Elastic Compliance Matrix: (Units=1/GPa)
#
#
# Indices 1 2 3 4 5 6 
#
# 1 0.013500 -0.010076 -0.004134 0.000000 0.000000 0.000000
# 2 -0.010076 0.038990 -0.004728 0.000000 0.000000 0.000000
# 3 -0.004134 -0.004728 0.010208 0.000000 0.000000 0.000000
# 4 0.000000 0.000000 0.000000 0.166272 0.000000 0.000000
# 5 0.000000 0.000000 0.000000 0.000000 0.064138 0.000000
# 6 0.000000 0.000000 0.000000 0.000000 0.000000 0.032371
#
#
# Mechanical properties :
#
#
# Convention : Reuss Voigt Hill
#
# Bulk Modulus (GPa) = 40.28914 67.03863 53.66388
# Shear Modulus (GPa) = 13.45423 21.35759 17.40591
#
# Velocity S-wave (km/s) = 2.65733 3.34805 3.02248
# Velocity P-wave (km/s) = 5.52818 7.08031 6.35183
#
# Compressibility (1/GPa) = 0.02482059
#
# Stress axis : x y z
#
# Youngs Moduli (GPa) = 74.07582 25.64764 97.95948
#
# Poissons Ratio (x) = 0.25844 0.40501
# Poissons Ratio (y) = 0.74642 0.46313
# Poissons Ratio (z) = 0.30626 0.12126
#
# Static dielectric constant tensor:
#      x y z
#    x 3.621630 0.000000 0.000000 
#    y 0.000000 3.239610 0.000000 
#    z 0.000000 0.000000 3.679230 
# 
# 
# High freq. dielectric constant tensor:
#      x y z
#    x 1.744150 0.000000 0.000000 
#    y 0.000000 1.713350 0.000000 
#    z 0.000000 0.000000 1.739950 
# 
# From -- ./inp_files/4956.got.cif
#   From: 2010.03.12/outbox.cif.g09.slc.cpg/sg35_3_cif.got.tgz:4956.got - 2010.04.14 02:02:04.
