data_PCOD8173471
_publ_section_title
;
Structure prediction by ZEFSAII (Michael W. Deem and Ramdas Pophale) SiO2 
 PCOD8173471
Probable space group: C M M 2
;
_chemical_formula_sum "Si O2"
_cell_formula_units_Z 64
_cell_length_a 8.740561
_cell_length_b 31.035538
_cell_length_c 11.950643
_cell_angle_alpha 90.000000
_cell_angle_beta 90.000000
_cell_angle_gamma 90.000000
_cell_volume 3241.827181
_symmetry_space_group_name_H-M "C M M 2"
_symmetry_group_IT_number 35
_symmetry_cell_setting 'orthorhombic'
loop_
_space_group_symop_operation_xyz
x,y,z
-x,-y,z
-x,y,z
x,-y,z
1/2+x,1/2+y,z
1/2-x,1/2-y,z
1/2-x,1/2+y,z
1/2+x,1/2-y,z
loop_
_atom_site_type_symbol
_atom_site_label
_atom_site_fract_x
_atom_site_fract_y
_atom_site_fract_z
Si Si1 0.318364 0.452428 0.543210
Si Si2 0.681671 0.420647 0.307871
Si Si3 0.178388 0.951066 0.068871
Si Si4 0.819257 0.205789 0.070350
Si Si5 0.680084 0.706042 0.546322
Si Si6 0.818894 0.125185 0.697420
Si Si7 0.679443 0.873714 0.939179
Si Si8 0.681640 0.675796 0.309042
O O1 0.500000 0.449884 0.537253
O O2 0.263740 0.500000 0.581502
O O3 0.251355 0.443119 0.419242
O O4 0.260498 0.417142 0.631567
O O5 0.500000 0.419763 0.315512
O O6 0.733414 0.446376 0.197391
O O7 0.748120 0.372415 0.300738
O O8 0.000000 0.938857 0.058007
O O9 0.208512 0.000000 0.029836
O O10 0.273489 0.919628 0.989876
O O11 0.750000 0.250000 0.021116
O O12 0.764595 0.201588 0.199304
O O13 0.000000 0.207598 0.059678
O O14 0.762932 0.165045 0.001469
O O15 0.500000 0.710849 0.542763
O O16 0.750000 0.750000 0.595295
O O17 0.727716 0.666705 0.625218
O O18 0.746400 0.698152 0.421150
O O19 0.726067 0.127386 0.810789
O O20 0.000000 0.123578 0.721099
O O21 0.500000 0.867202 0.951694
O O22 0.500000 0.673313 0.315452
#
# Coordination Sequence:
#
# PCOD8173471 Si02
#       8
#     8   8   8   8   8   8   8   8
#     4   9  16  28  53  88 118 143 179 230 286 345
#     4   9  14  27  54  89 121 147 178 225 288 348
#     4  10  20  36  62  92 119 152 194 239 290 348
#     4  11  22  39  63  90 121 153 191 237 289 348
#     4  10  20  35  57  85 115 149 184 228 284 340
#     4  10  21  38  58  80 111 149 192 241 290 336
#     4  12  26  42  59  81 114 157 203 247 295 342
#     4   9  16  30  56  86 119 152 180 224 285 345
#
# _framework density 19.741952999999999
#
# number of rings (size 3 to 8) (size 9 to 14) (size 15 to 20)
#    0.000    2.000    2.500    2.250    0.000    3.250 
#    0.000    3.125    0.000    0.750    0.000    0.000 
#    0.000    0.000    0.000    0.000    0.000    0.000 
#
# Total GULP energy -396789.868297 kJ/mol
# GULP energy per Si atom -12399.683384 kJ/mol
# Density = 1.969702 g / cm^3
# Si number density = 19.741953 Si / 1000 Ang^3
#
#
#
# Elastic Constant Matrix: (Units=GPa)
#
#
# Indices 1 2 3 4 5 6 
#
# 1 45.1380 36.4028 37.7695 0.0000 0.0000 0.0000
# 2 36.4028 163.9713 62.0159 0.0000 0.0000 0.0000
# 3 37.7695 62.0159 130.8611 0.0000 0.0000 0.0000
# 4 0.0000 0.0000 0.0000 6.7361 0.0000 0.0000
# 5 0.0000 0.0000 0.0000 0.0000 10.3763 0.0000
# 6 0.0000 0.0000 0.0000 0.0000 0.0000 25.0684
#
#
#
# Elastic Compliance Matrix: (Units=1/GPa)
#
#
# Indices 1 2 3 4 5 6 
#
# 1 0.031553 -0.004338 -0.007051 0.000000 0.000000 0.000000
# 2 -0.004338 0.008027 -0.002552 0.000000 0.000000 0.000000
# 3 -0.007051 -0.002552 0.010886 0.000000 0.000000 0.000000
# 4 0.000000 0.000000 0.000000 0.148453 0.000000 0.000000
# 5 0.000000 0.000000 0.000000 0.000000 0.096373 0.000000
# 6 0.000000 0.000000 0.000000 0.000000 0.000000 0.039891
#
#
# Mechanical properties :
#
#
# Convention : Reuss Voigt Hill
#
# Bulk Modulus (GPa) = 44.27962 68.03851 56.15907
# Shear Modulus (GPa) = 13.49189 22.02166 17.75677
#
# Velocity S-wave (km/s) = 2.61705 3.34350 3.00233
# Velocity P-wave (km/s) = 5.62226 7.03165 6.36608
#
# Compressibility (1/GPa) = 0.02258375
#
# Stress axis : x y z
#
# Youngs Moduli (GPa) = 31.69286 124.58114 91.86014
#
# Poissons Ratio (x) = 0.54046 0.64770
# Poissons Ratio (y) = 0.13749 0.23442
# Poissons Ratio (z) = 0.22347 0.31792
#
# Static dielectric constant tensor:
#      x y z
#    x 3.096670 0.000000 0.000000 
#    y 0.000000 3.854680 0.000000 
#    z 0.000000 0.000000 3.709220 
# 
# 
# High freq. dielectric constant tensor:
#      x y z
#    x 1.719800 0.000000 0.000000 
#    y 0.000000 1.787400 0.000000 
#    z 0.000000 0.000000 1.772520 
# 
# From -- ./inp_files/11840.got.cif
#   From: 2010.03.12/outbox.cif.g09.slc.cpg/sg35_6_cif.got.tgz:11840.got - 2010.04.14 02:02:04.
