data_PCOD8173238
_publ_section_title
;
Structure prediction by ZEFSAII (Michael W. Deem and Ramdas Pophale) SiO2 
 PCOD8173238
Probable space group: C M M 2
;
_chemical_formula_sum "Si O2"
_cell_formula_units_Z 64
_cell_length_a 8.914085
_cell_length_b 19.961572
_cell_length_c 19.770884
_cell_angle_alpha 90.000000
_cell_angle_beta 90.000000
_cell_angle_gamma 90.000000
_cell_volume 3518.014285
_symmetry_space_group_name_H-M "C M M 2"
_symmetry_group_IT_number 35
_symmetry_cell_setting 'orthorhombic'
loop_
_space_group_symop_operation_xyz
x,y,z
-x,-y,z
-x,y,z
x,-y,z
1/2+x,1/2+y,z
1/2-x,1/2-y,z
1/2-x,1/2+y,z
1/2+x,1/2-y,z
loop_
_atom_site_type_symbol
_atom_site_label
_atom_site_fract_x
_atom_site_fract_y
_atom_site_fract_z
Si Si1 0.323932 0.318339 0.141650
Si Si2 0.178269 0.073822 0.037202
Si Si3 0.176761 0.318891 0.635379
Si Si4 0.824978 0.077952 0.537297
Si Si5 0.175148 0.422071 0.396744
Si Si6 0.176916 0.180212 0.296950
Si Si7 0.327270 0.578320 0.885790
Si Si8 0.825420 0.682327 0.791570
O O1 0.500000 0.311132 0.131814
O O2 0.250000 0.250000 0.117096
O O3 0.256643 0.376333 0.093806
O O4 0.282566 0.334342 0.219003
O O5 0.000000 0.070483 0.041182
O O6 0.244514 0.000000 0.052157
O O7 0.224684 0.097233 0.961905
O O8 0.250000 0.250000 0.608560
O O9 0.248164 0.381382 0.597116
O O10 0.217545 0.329648 0.713651
O O11 0.000000 0.316140 0.622142
O O12 0.748896 0.099553 0.467231
O O13 0.000000 0.095163 0.533182
O O14 0.796866 0.000000 0.552429
O O15 0.204405 0.500000 0.381671
O O16 0.253467 0.380968 0.337616
O O17 0.000000 0.405035 0.399660
O O18 0.250000 0.250000 0.320947
O O19 0.000000 0.184201 0.309416
O O20 0.500000 0.597791 0.874537
O O21 0.301829 0.500000 0.872573
O O22 0.227377 0.618414 0.833205
O O23 0.750000 0.750000 0.819397
O O24 0.000000 0.691640 0.801438
#
# Coordination Sequence:
#
# PCOD8173238 Si02
#       8
#     8   8   8   8   8   8   8   8
#     4   9  18  32  51  74 101 133 168 210 256 303
#     4   8  15  30  51  74 100 132 171 211 252 301
#     4  10  21  37  56  78 105 137 173 213 258 307
#     4  10  21  37  57  81 108 137 171 211 253 302
#     4  10  21  37  56  78 106 138 171 211 258 306
#     4  10  20  34  53  77 105 137 174 215 258 306
#     4   9  18  33  53  76 104 138 174 213 257 307
#     4  10  21  36  54  76 104 137 173 215 259 306
#
# _framework density 18.192081999999999
#
# number of rings (size 3 to 8) (size 9 to 14) (size 15 to 20)
#    0.000    2.500    0.000    2.625    0.000    5.750 
#    0.000    8.125    0.000    1.125    0.000    0.000 
#    0.000    0.000    0.000    0.000    0.000    0.000 
#
# Total GULP energy -396862.381597 kJ/mol
# GULP energy per Si atom -12401.949425 kJ/mol
# Density = 1.815068 g / cm^3
# Si number density = 18.192082 Si / 1000 Ang^3
#
#
#
# Elastic Constant Matrix: (Units=GPa)
#
#
# Indices 1 2 3 4 5 6 
#
# 1 78.1767 49.9978 49.9485 0.0000 0.0000 0.0000
# 2 49.9978 104.6952 75.4764 0.0000 0.0000 0.0000
# 3 49.9485 75.4764 100.8514 0.0000 0.0000 0.0000
# 4 0.0000 0.0000 0.0000 34.7892 0.0000 0.0000
# 5 0.0000 0.0000 0.0000 0.0000 25.4143 0.0000
# 6 0.0000 0.0000 0.0000 0.0000 0.0000 34.8839
#
#
#
# Elastic Compliance Matrix: (Units=1/GPa)
#
#
# Indices 1 2 3 4 5 6 
#
# 1 0.019945 -0.005220 -0.005972 0.000000 0.000000 0.000000
# 2 -0.005220 0.022109 -0.013961 0.000000 0.000000 0.000000
# 3 -0.005972 -0.013961 0.023322 0.000000 0.000000 0.000000
# 4 0.000000 0.000000 0.000000 0.028745 0.000000 0.000000
# 5 0.000000 0.000000 0.000000 0.000000 0.039348 0.000000
# 6 0.000000 0.000000 0.000000 0.000000 0.000000 0.028666
#
#
# Mechanical properties :
#
#
# Convention : Reuss Voigt Hill
#
# Bulk Modulus (GPa) = 66.35434 70.50763 68.43099
# Shear Modulus (GPa) = 22.99235 26.23753 24.61494
#
# Velocity S-wave (km/s) = 3.55895 3.80182 3.68238
# Velocity P-wave (km/s) = 7.31038 7.62320 7.46843
#
# Compressibility (1/GPa) = 0.01507060
#
# Stress axis : x y z
#
# Youngs Moduli (GPa) = 50.13690 45.23053 42.87885
#
# Poissons Ratio (x) = 0.23610 0.25607
# Poissons Ratio (y) = 0.26171 0.59863
# Poissons Ratio (z) = 0.29941 0.63146
#
# Static dielectric constant tensor:
#      x y z
#    x 3.313120 0.000000 0.000000 
#    y 0.000000 3.477760 0.000000 
#    z 0.000000 0.000000 3.418970 
# 
# 
# High freq. dielectric constant tensor:
#      x y z
#    x 1.702030 0.000000 0.000000 
#    y 0.000000 1.709240 0.000000 
#    z 0.000000 0.000000 1.706490 
# 
# From -- ./inp_files/18354.got.cif
#   From: 2010.03.12/outbox.cif.g09.slc.cpg/sg35_10_cif.got.tgz:18354.got - 2010.04.14 02:02:04.
