data_PCOD8173119
_publ_section_title
;
Structure prediction by ZEFSAII (Michael W. Deem and Ramdas Pophale) SiO2 
 PCOD8173119
Probable space group: C M M 2
;
_chemical_formula_sum "Si O2"
_cell_formula_units_Z 56
_cell_length_a 8.758036
_cell_length_b 28.551706
_cell_length_c 12.733358
_cell_angle_alpha 90.000000
_cell_angle_beta 90.000000
_cell_angle_gamma 90.000000
_cell_volume 3184.063633
_symmetry_space_group_name_H-M "C M M 2"
_symmetry_group_IT_number 35
_symmetry_cell_setting 'orthorhombic'
loop_
_space_group_symop_operation_xyz
x,y,z
-x,-y,z
-x,y,z
x,-y,z
1/2+x,1/2+y,z
1/2-x,1/2-y,z
1/2-x,1/2+y,z
1/2+x,1/2-y,z
loop_
_atom_site_type_symbol
_atom_site_label
_atom_site_fract_x
_atom_site_fract_y
_atom_site_fract_z
Si Si1 0.820143 0.198835 0.793110
Si Si2 0.319334 0.299531 0.166345
Si Si3 0.678737 0.298502 0.405006
Si Si4 0.179934 0.357229 0.986459
Si Si5 0.175022 0.552645 0.686720
Si Si6 0.321084 0.637308 0.591566
Si Si7 0.322348 0.446868 0.908308
O O1 0.750000 0.250000 0.785025
O O2 0.753136 0.171678 0.892034
O O3 0.776677 0.170871 0.688084
O O4 0.000000 0.203297 0.808347
O O5 0.500000 0.298059 0.150071
O O6 0.250000 0.250000 0.130686
O O7 0.272740 0.310973 0.286307
O O8 0.245367 0.339846 0.096832
O O9 0.500000 0.291722 0.414480
O O10 0.750000 0.250000 0.442885
O O11 0.734407 0.339160 0.483159
O O12 0.223926 0.411943 0.979551
O O13 0.000000 0.350781 0.983333
O O14 0.195488 0.500000 0.642907
O O15 0.229361 0.588607 0.597725
O O16 0.280671 0.561082 0.787291
O O17 0.000000 0.562129 0.718789
O O18 0.500000 0.626383 0.590476
O O19 0.500000 0.435194 0.922060
O O20 0.284337 0.500000 0.942972
#
# Coordination Sequence:
#
# PCOD8173119 Si02
#       7
#     8   8   8   8   8   8   8
#     4  11  22  34  49  73 107 142 174 209 257 314
#     4  10  20  36  56  77 105 138 180 224 264 311
#     4   9  19  35  55  79 104 137 179 221 261 308
#     4  12  23  35  53  77 107 139 176 216 262 314
#     4  10  20  33  51  77 107 139 176 215 257 309
#     4  10  20  34  53  77 106 139 175 214 261 314
#     4  10  20  35  55  78 105 137 173 214 262 315
#
# _framework density 17.587589000000001
#
# number of rings (size 3 to 8) (size 9 to 14) (size 15 to 20)
#    0.000    1.714    1.429    3.857    0.000    3.429 
#    0.000    0.000    0.000    0.857    0.000    2.000 
#    0.000    0.000    0.000    0.000    0.000    0.000 
#
# Total GULP energy -347297.264959 kJ/mol
# GULP energy per Si atom -12403.473749 kJ/mol
# Density = 1.754756 g / cm^3
# Si number density = 17.587589 Si / 1000 Ang^3
#
#
#
# Elastic Constant Matrix: (Units=GPa)
#
#
# Indices 1 2 3 4 5 6 
#
# 1 74.3989 49.4285 36.9020 0.0000 0.0000 0.0000
# 2 49.4285 133.8890 61.5412 0.0000 0.0000 0.0000
# 3 36.9020 61.5412 92.0113 0.0000 0.0000 0.0000
# 4 0.0000 0.0000 0.0000 27.6669 0.0000 0.0000
# 5 0.0000 0.0000 0.0000 0.0000 19.5731 0.0000
# 6 0.0000 0.0000 0.0000 0.0000 0.0000 34.8477
#
#
#
# Elastic Compliance Matrix: (Units=1/GPa)
#
#
# Indices 1 2 3 4 5 6 
#
# 1 0.018870 -0.005036 -0.004200 0.000000 0.000000 0.000000
# 2 -0.005036 0.012128 -0.006092 0.000000 0.000000 0.000000
# 3 -0.004200 -0.006092 0.016627 0.000000 0.000000 0.000000
# 4 0.000000 0.000000 0.000000 0.036144 0.000000 0.000000
# 5 0.000000 0.000000 0.000000 0.000000 0.051091 0.000000
# 6 0.000000 0.000000 0.000000 0.000000 0.000000 0.028696
#
#
# Mechanical properties :
#
#
# Convention : Reuss Voigt Hill
#
# Bulk Modulus (GPa) = 58.92834 66.22694 62.57764
# Shear Modulus (GPa) = 25.01643 26.57937 25.79790
#
# Velocity S-wave (km/s) = 3.77555 3.89171 3.83407
# Velocity P-wave (km/s) = 7.25154 7.61125 7.43357
#
# Compressibility (1/GPa) = 0.01696976
#
# Stress axis : x y z
#
# Youngs Moduli (GPa) = 52.99472 82.45211 60.14210
#
# Poissons Ratio (x) = 0.41522 0.25258
# Poissons Ratio (y) = 0.26688 0.36640
# Poissons Ratio (z) = 0.22256 0.50232
#
# Static dielectric constant tensor:
#      x y z
#    x 3.335470 0.000000 0.000000 
#    y 0.000000 3.468900 0.000000 
#    z 0.000000 0.000000 3.270510 
# 
# 
# High freq. dielectric constant tensor:
#      x y z
#    x 1.692280 0.000000 0.000000 
#    y 0.000000 1.684220 0.000000 
#    z 0.000000 0.000000 1.661060 
# 
# From -- ./inp_files/16111.got.cif
#   From: 2010.03.12/outbox.cif.g09.slc.cpg/sg35_9_cif.got.tgz:16111.got - 2010.04.14 02:02:04.
