data_PCOD8173237
_publ_section_title
;
Structure prediction by ZEFSAII (Michael W. Deem and Ramdas Pophale) SiO2 
 PCOD8173237
Probable space group: C M M 2
;
_chemical_formula_sum "Si O2"
_cell_formula_units_Z 64
_cell_length_a 9.055511
_cell_length_b 19.289752
_cell_length_c 20.060527
_cell_angle_alpha 90.000000
_cell_angle_beta 90.000000
_cell_angle_gamma 90.000000
_cell_volume 3504.143998
_symmetry_space_group_name_H-M "C M M 2"
_symmetry_group_IT_number 35
_symmetry_cell_setting 'orthorhombic'
loop_
_space_group_symop_operation_xyz
x,y,z
-x,-y,z
-x,y,z
x,-y,z
1/2+x,1/2+y,z
1/2-x,1/2-y,z
1/2-x,1/2+y,z
1/2+x,1/2-y,z
loop_
_atom_site_type_symbol
_atom_site_label
_atom_site_fract_x
_atom_site_fract_y
_atom_site_fract_z
Si Si1 0.674219 0.178696 0.219810
Si Si2 0.674826 0.321141 0.851180
Si Si3 0.671112 0.318879 0.003285
Si Si4 0.327692 0.079583 0.486682
Si Si5 0.172146 0.319172 0.371748
Si Si6 0.327420 0.579999 0.119215
Si Si7 0.833194 0.082471 0.617663
Si Si8 0.170448 0.418009 0.749555
O O1 0.500000 0.186169 0.209535
O O2 0.750000 0.250000 0.195685
O O3 0.717785 0.162577 0.296229
O O4 0.734328 0.114281 0.178112
O O5 0.500000 0.316201 0.840460
O O6 0.750000 0.250000 0.826743
O O7 0.740039 0.384692 0.809982
O O8 0.718325 0.336140 0.927816
O O9 0.500000 0.302090 0.007223
O O10 0.750000 0.250000 0.030397
O O11 0.714376 0.383948 0.049207
O O12 0.500000 0.089019 0.502013
O O13 0.277862 0.118696 0.419782
O O14 0.239643 0.110757 0.549694
O O15 0.286322 0.000000 0.474520
O O16 0.250000 0.250000 0.397167
O O17 0.000000 0.305438 0.376625
O O18 0.500000 0.588649 0.135354
O O19 0.281523 0.500000 0.113492
O O20 0.739145 0.109670 0.680335
O O21 0.000000 0.110723 0.623355
O O22 0.829737 0.000000 0.616658
O O23 0.189104 0.500000 0.756237
O O24 0.000000 0.395578 0.752168
#
# Coordination Sequence:
#
# PCOD8173237 Si02
#       8
#     8   8   8   8   8   8   8   8
#     4  10  20  35  55  77 102 136 177 215 255 307
#     4  10  20  35  55  78 105 136 171 212 257 306
#     4   9  19  35  55  76 100 135 174 210 252 306
#     4   9  17  31  51  73  98 130 167 207 253 303
#     4   9  19  34  52  74 101 133 167 207 253 302
#     4  10  21  36  53  77 109 139 169 211 260 305
#     4   9  17  30  49  74 102 132 169 211 254 303
#     4  10  20  34  53  77 105 137 173 214 259 306
#
# _framework density 18.264088999999998
#
# number of rings (size 3 to 8) (size 9 to 14) (size 15 to 20)
#    0.000    2.500    0.000    1.875    0.000    6.500 
#    0.000    3.125    0.000    3.000    0.000    0.000 
#    0.000    0.000    0.000    0.000    0.000    0.000 
#
# Total GULP energy -396870.633225 kJ/mol
# GULP energy per Si atom -12402.207288 kJ/mol
# Density = 1.822252 g / cm^3
# Si number density = 18.264089 Si / 1000 Ang^3
#
#
#
# Elastic Constant Matrix: (Units=GPa)
#
#
# Indices 1 2 3 4 5 6 
#
# 1 83.8431 49.1244 54.9475 0.0000 0.0000 0.0000
# 2 49.1244 99.9108 67.2602 0.0000 0.0000 0.0000
# 3 54.9475 67.2602 116.5934 0.0000 0.0000 0.0000
# 4 0.0000 0.0000 0.0000 23.9922 0.0000 0.0000
# 5 0.0000 0.0000 0.0000 0.0000 29.4331 0.0000
# 6 0.0000 0.0000 0.0000 0.0000 0.0000 29.5998
#
#
#
# Elastic Compliance Matrix: (Units=1/GPa)
#
#
# Indices 1 2 3 4 5 6 
#
# 1 0.018876 -0.005383 -0.005790 0.000000 0.000000 0.000000
# 2 -0.005383 0.017899 -0.007789 0.000000 0.000000 0.000000
# 3 -0.005790 -0.007789 0.015799 0.000000 0.000000 0.000000
# 4 0.000000 0.000000 0.000000 0.041680 0.000000 0.000000
# 5 0.000000 0.000000 0.000000 0.000000 0.033975 0.000000
# 6 0.000000 0.000000 0.000000 0.000000 0.000000 0.033784
#
#
# Mechanical properties :
#
#
# Convention : Reuss Voigt Hill
#
# Bulk Modulus (GPa) = 68.26115 71.44571 69.85343
# Shear Modulus (GPa) = 24.41167 25.20603 24.80885
#
# Velocity S-wave (km/s) = 3.65991 3.71898 3.68957
# Velocity P-wave (km/s) = 7.43745 7.59238 7.51531
#
# Compressibility (1/GPa) = 0.01464962
#
# Stress axis : x y z
#
# Youngs Moduli (GPa) = 52.97831 55.86934 63.29557
#
# Poissons Ratio (x) = 0.30073 0.36651
# Poissons Ratio (y) = 0.28516 0.49299
# Poissons Ratio (z) = 0.30677 0.43515
#
# Static dielectric constant tensor:
#      x y z
#    x 3.421840 0.000000 0.000000 
#    y 0.000000 3.252560 0.000000 
#    z 0.000000 0.000000 3.567110 
# 
# 
# High freq. dielectric constant tensor:
#      x y z
#    x 1.712970 0.000000 0.000000 
#    y 0.000000 1.688720 0.000000 
#    z 0.000000 0.000000 1.717180 
# 
# From -- ./inp_files/18397.got.cif
#   From: 2010.03.12/outbox.cif.g09.slc.cpg/sg35_10_cif.got.tgz:18397.got - 2010.04.14 02:02:04.
