data_PCOD8173952
_publ_section_title
;
Structure prediction by ZEFSAII (Michael W. Deem and Ramdas Pophale) SiO2 
 PCOD8173952
Probable space group: C M M 2
;
_chemical_formula_sum "Si O2"
_cell_formula_units_Z 64
_cell_length_a 15.226772
_cell_length_b 17.517902
_cell_length_c 11.822653
_cell_angle_alpha 90.000000
_cell_angle_beta 90.000000
_cell_angle_gamma 90.000000
_cell_volume 3153.587462
_symmetry_space_group_name_H-M "C M M 2"
_symmetry_group_IT_number 35
_symmetry_cell_setting 'orthorhombic'
loop_
_space_group_symop_operation_xyz
x,y,z
-x,-y,z
-x,y,z
x,-y,z
1/2+x,1/2+y,z
1/2-x,1/2-y,z
1/2-x,1/2+y,z
1/2+x,1/2-y,z
loop_
_atom_site_type_symbol
_atom_site_label
_atom_site_fract_x
_atom_site_fract_y
_atom_site_fract_z
Si Si1 0.190921 0.676150 0.284720
Si Si2 0.766505 0.412689 0.660202
Si Si3 0.097003 0.909636 0.062432
Si Si4 0.857023 0.911075 0.309711
Si Si5 0.253194 0.911139 0.910817
Si Si6 0.903993 0.140862 0.546334
Si Si7 0.101450 0.412517 0.089271
Si Si8 0.600641 0.187814 0.519337
O O1 0.250000 0.750000 0.253175
O O2 0.253343 0.605360 0.317598
O O3 0.130324 0.649269 0.181577
O O4 0.128132 0.693821 0.389124
O O5 0.797197 0.500000 0.666472
O O6 0.760885 0.375437 0.785533
O O7 0.670605 0.409966 0.603421
O O8 0.838447 0.369680 0.587066
O O9 0.108068 0.878046 0.189994
O O10 0.000000 0.887707 0.017009
O O11 0.110294 0.000000 0.068985
O O12 0.171131 0.873871 0.979912
O O13 0.906218 0.868390 0.410783
O O14 0.875717 0.000000 0.322276
O O15 0.232691 0.000000 0.896886
O O16 0.343841 0.896160 0.975798
O O17 0.886706 0.229271 0.575010
O O18 0.000000 0.116127 0.593023
O O19 0.118318 0.500000 0.130832
O O20 0.000000 0.399664 0.059355
O O21 0.500000 0.159987 0.526899
#
# Coordination Sequence:
#
# PCOD8173952 Si02
#       8
#     8   8   8   8   8   8   8   8
#     4  12  21  37  61  89 123 159 192 235 300 357
#     4  11  23  39  62  90 117 151 201 257 303 351
#     4   9  17  31  54  85 120 154 188 233 292 354
#     4  11  20  34  60  90 120 153 192 237 288 350
#     4   9  19  36  58  85 116 152 197 251 304 347
#     4  11  23  40  61  86 120 160 197 242 301 362
#     4  10  21  39  64  91 120 157 201 248 296 350
#     4  11  24  42  61  83 118 162 201 240 294 358
#
# _framework density 20.294347999999999
#
# number of rings (size 3 to 8) (size 9 to 14) (size 15 to 20)
#    0.000    1.500    3.750    1.875    0.000    3.250 
#    0.000    3.750    0.000    0.000    0.000    0.000 
#    0.000    0.000    0.000    0.000    0.000    0.000 
#
# Total GULP energy -396779.813427 kJ/mol
# GULP energy per Si atom -12399.369170 kJ/mol
# Density = 2.024816 g / cm^3
# Si number density = 20.294348 Si / 1000 Ang^3
#
#
#
# Elastic Constant Matrix: (Units=GPa)
#
#
# Indices 1 2 3 4 5 6 
#
# 1 151.6405 37.4855 54.9377 0.0000 0.0000 0.0000
# 2 37.4855 57.1041 34.1195 0.0000 0.0000 0.0000
# 3 54.9377 34.1195 122.0157 0.0000 0.0000 0.0000
# 4 0.0000 0.0000 0.0000 9.7946 0.0000 0.0000
# 5 0.0000 0.0000 0.0000 0.0000 10.5758 0.0000
# 6 0.0000 0.0000 0.0000 0.0000 0.0000 13.0453
#
#
#
# Elastic Compliance Matrix: (Units=1/GPa)
#
#
# Indices 1 2 3 4 5 6 
#
# 1 0.008575 -0.003989 -0.002746 0.000000 0.000000 0.000000
# 2 -0.003989 0.022880 -0.004602 0.000000 0.000000 0.000000
# 3 -0.002746 -0.004602 0.010719 0.000000 0.000000 0.000000
# 4 0.000000 0.000000 0.000000 0.102097 0.000000 0.000000
# 5 0.000000 0.000000 0.000000 0.000000 0.094556 0.000000
# 6 0.000000 0.000000 0.000000 0.000000 0.000000 0.076656
#
#
# Mechanical properties :
#
#
# Convention : Reuss Voigt Hill
#
# Bulk Modulus (GPa) = 51.27887 64.87173 58.07530
# Shear Modulus (GPa) = 14.50724 20.29765 17.40244
#
# Velocity S-wave (km/s) = 2.67655 3.16597 2.93149
# Velocity P-wave (km/s) = 5.90545 6.73790 6.33536
#
# Compressibility (1/GPa) = 0.01950121
#
# Stress axis : x y z
#
# Youngs Moduli (GPa) = 116.61454 43.70653 93.29409
#
# Poissons Ratio (x) = 0.17433 0.25615
# Poissons Ratio (y) = 0.46513 0.42935
# Poissons Ratio (z) = 0.32019 0.20114
#
# Static dielectric constant tensor:
#      x y z
#    x 3.803450 0.000000 0.000000 
#    y 0.000000 3.446450 0.000000 
#    z 0.000000 0.000000 3.751120 
# 
# 
# High freq. dielectric constant tensor:
#      x y z
#    x 1.805180 0.000000 0.000000 
#    y 0.000000 1.768510 0.000000 
#    z 0.000000 0.000000 1.785110 
# 
# From -- ./inp_files/13220.got.cif
#   From: 2010.03.12/outbox.cif.g09.slc.cpg/sg35_7_cif.got.tgz:13220.got - 2010.04.14 02:02:04.
