data_PCOD8173107
_publ_section_title
;
Structure prediction by ZEFSAII (Michael W. Deem and Ramdas Pophale) SiO2 
 PCOD8173107
Probable space group: C M M 2
;
_chemical_formula_sum "Si O2"
_cell_formula_units_Z 48
_cell_length_a 17.644321
_cell_length_b 9.250869
_cell_length_c 15.535121
_cell_angle_alpha 90.000000
_cell_angle_beta 90.000000
_cell_angle_gamma 90.000000
_cell_volume 2535.724819
_symmetry_space_group_name_H-M "C M M 2"
_symmetry_group_IT_number 35
_symmetry_cell_setting 'orthorhombic'
loop_
_space_group_symop_operation_xyz
x,y,z
-x,-y,z
-x,y,z
x,-y,z
1/2+x,1/2+y,z
1/2-x,1/2-y,z
1/2-x,1/2+y,z
1/2+x,1/2-y,z
loop_
_atom_site_type_symbol
_atom_site_label
_atom_site_fract_x
_atom_site_fract_y
_atom_site_fract_z
Si Si1 0.413246 0.167711 0.634050
Si Si2 0.670808 0.171145 0.459542
Si Si3 0.909848 0.662516 0.150466
Si Si4 0.409862 0.162339 0.960430
Si Si5 0.910076 0.837193 0.311833
Si Si6 0.090375 0.162228 0.799878
O O1 0.500000 0.211188 0.613766
O O2 0.362780 0.209246 0.552532
O O3 0.380435 0.254561 0.715433
O O4 0.407466 0.000000 0.657158
O O5 0.750000 0.250000 0.448514
O O6 0.613944 0.233882 0.389155
O O7 0.679504 0.000000 0.446221
O O8 0.879950 0.500000 0.168608
O O9 0.877366 0.771424 0.222468
O O10 0.000000 0.661527 0.153775
O O11 0.882941 0.714704 0.055376
O O12 0.500000 0.165602 0.956273
O O13 0.375741 0.264970 0.886262
O O14 0.380857 0.000000 0.943380
O O15 0.000000 0.840129 0.309645
O O16 0.877882 0.000000 0.322955
O O17 0.000000 0.166841 0.802308
O O18 0.121574 0.000000 0.795669
#
# Coordination Sequence:
#
# PCOD8173107 Si02
#       6
#     8   8   8   8   8   8
#     4   9  18  33  52  72  95 127 165 201 240 291
#     4  11  23  38  55  74  98 129 166 208 254 303
#     4   8  14  25  42  65  94 129 166 201 239 285
#     4   8  13  22  37  59  91 129 163 195 234 282
#     4  10  20  33  51  76 104 133 166 206 250 296
#     4   9  16  24  38  64  96 127 158 196 241 285
#
# _framework density 18.929499
#
# number of rings (size 3 to 8) (size 9 to 14) (size 15 to 20)
#    0.000    2.833    0.000    3.000    0.000    5.667 
#    0.000    5.000    0.000    0.000    0.000    1.167 
#    0.000    5.333    0.000    0.000    0.000    0.000 
#
# Total GULP energy -297517.713390 kJ/mol
# GULP energy per Si atom -12396.571391 kJ/mol
# Density = 1.888641 g / cm^3
# Si number density = 18.929499 Si / 1000 Ang^3
#
#
#
# Elastic Constant Matrix: (Units=GPa)
#
#
# Indices 1 2 3 4 5 6 
#
# 1 14.4074 15.8503 12.2972 0.0000 0.0000 0.0000
# 2 15.8503 121.8998 90.0937 0.0000 0.0000 0.0000
# 3 12.2972 90.0937 164.5934 0.0000 0.0000 0.0000
# 4 0.0000 0.0000 0.0000 27.9334 0.0000 0.0000
# 5 0.0000 0.0000 0.0000 0.0000 -0.0596 0.0000
# 6 0.0000 0.0000 0.0000 0.0000 0.0000 16.6906
#
#
#
# Elastic Compliance Matrix: (Units=1/GPa)
#
#
# Indices 1 2 3 4 5 6 
#
# 1 0.081018 -0.010179 -0.000482 0.000000 0.000000 0.000000
# 2 -0.010179 0.015056 -0.007481 0.000000 0.000000 0.000000
# 3 -0.000482 -0.007481 0.010206 0.000000 0.000000 0.000000
# 4 0.000000 0.000000 0.000000 0.035799 0.000000 0.000000
# 5 0.000000 0.000000 0.000000 0.000000-16.792507 0.000000
# 6 0.000000 0.000000 0.000000 0.000000 0.000000 0.059914
#
#
# Mechanical properties :
#
#
# Convention : Reuss Voigt Hill
#
# Bulk Modulus (GPa) = 14.28606 59.70921 36.99764
# Shear Modulus (GPa) = -0.30246 21.09019 10.39386
#
# Velocity S-wave (km/s) = -0.40016 3.34150 2.34579
# Velocity P-wave (km/s) = 2.71106 6.81901 5.18887
#
# Compressibility (1/GPa) = 0.06999829
#
# Stress axis : x y z
#
# Youngs Moduli (GPa) = 12.34295 66.42000 97.97945
#
# Poissons Ratio (x) = 0.67606 0.04718
# Poissons Ratio (y) = 0.12563 0.73294
# Poissons Ratio (z) = 0.00594 0.49686
#
# Static dielectric constant tensor:
#      x y z
#    x 2.838660 0.000000 0.000000 
#    y 0.000000 3.694750 0.000000 
#    z 0.000000 0.000000 3.809670 
# 
# 
# High freq. dielectric constant tensor:
#      x y z
#    x 1.669520 0.000000 0.000000 
#    y 0.000000 1.740460 0.000000 
#    z 0.000000 0.000000 1.754860 
# 
# From -- ./inp_files/15121.got.cif
#   From: 2010.03.12/outbox.cif.g09.slc.cpg/sg35_8_cif.got.tgz:15121.got - 2010.04.14 02:02:04.
