data_PCOD8173943
_publ_section_title
;
Structure prediction by ZEFSAII (Michael W. Deem and Ramdas Pophale) SiO2 
 PCOD8173943
Probable space group: C M M 2
;
_chemical_formula_sum "Si O2"
_cell_formula_units_Z 40
_cell_length_a 8.860002
_cell_length_b 29.965882
_cell_length_c 7.329111
_cell_angle_alpha 90.000000
_cell_angle_beta 90.000000
_cell_angle_gamma 90.000000
_cell_volume 1945.862659
_symmetry_space_group_name_H-M "C M M 2"
_symmetry_group_IT_number 35
_symmetry_cell_setting 'orthorhombic'
loop_
_space_group_symop_operation_xyz
x,y,z
-x,-y,z
-x,y,z
x,-y,z
1/2+x,1/2+y,z
1/2-x,1/2-y,z
1/2-x,1/2+y,z
1/2+x,1/2-y,z
loop_
_atom_site_type_symbol
_atom_site_label
_atom_site_fract_x
_atom_site_fract_y
_atom_site_fract_z
Si Si1 0.325039 0.451095 0.301770
Si Si2 0.328475 0.856826 0.883863
Si Si3 0.829084 0.452459 0.926678
Si Si4 0.822897 0.201922 0.594064
Si Si5 0.174348 0.362032 0.313556
O O1 0.500000 0.439987 0.331191
O O2 0.285457 0.500000 0.388737
O O3 0.291380 0.453593 0.087537
O O4 0.228418 0.410601 0.386877
O O5 0.500000 0.841641 0.844682
O O6 0.300640 0.907715 0.807964
O O7 0.293448 0.856018 0.099117
O O8 0.216722 0.824118 0.779886
O O9 0.814501 0.500000 0.816959
O O10 0.000000 0.448151 0.009182
O O11 0.750000 0.250000 0.602034
O O12 0.764425 0.176369 0.416446
O O13 0.000000 0.207407 0.579681
O O14 0.000000 0.356903 0.363104
#
# Coordination Sequence:
#
# PCOD8173943 Si02
#       5
#     8   8   8   8   8
#     4   9  16  27  48  81 119 155 191 232 279 333
#     4   9  19  37  61  88 118 152 191 235 282 337
#     4   8  14  27  50  80 114 153 193 230 273 330
#     4  12  26  43  63  85 113 148 189 242 297 350
#     4  10  21  39  63  88 117 154 195 238 285 342
#
# _framework density 20.556433999999999
#
# number of rings (size 3 to 8) (size 9 to 14) (size 15 to 20)
#    0.000    2.400    0.000    4.200    0.000    6.000 
#    0.000    1.000    0.000    3.600    0.000    0.000 
#    0.000    0.000    0.000    0.000    0.000    0.000 
#
# Total GULP energy -247811.336876 kJ/mol
# GULP energy per Si atom -12390.566844 kJ/mol
# Density = 2.050965 g / cm^3
# Si number density = 20.556434 Si / 1000 Ang^3
#
#
#
# Elastic Constant Matrix: (Units=GPa)
#
#
# Indices 1 2 3 4 5 6 
#
# 1 128.7049 79.0672 37.4262 0.0000 0.0000 0.0000
# 2 79.0672 199.5381 50.3284 0.0000 0.0000 0.0000
# 3 37.4262 50.3284 65.0666 0.0000 0.0000 0.0000
# 4 0.0000 0.0000 0.0000 54.5154 0.0000 0.0000
# 5 0.0000 0.0000 0.0000 0.0000 27.0417 0.0000
# 6 0.0000 0.0000 0.0000 0.0000 0.0000 35.5990
#
#
#
# Elastic Compliance Matrix: (Units=1/GPa)
#
#
# Indices 1 2 3 4 5 6 
#
# 1 0.010924 -0.003409 -0.003647 0.000000 0.000000 0.000000
# 2 -0.003409 0.007290 -0.003678 0.000000 0.000000 0.000000
# 3 -0.003647 -0.003678 0.020311 0.000000 0.000000 0.000000
# 4 0.000000 0.000000 0.000000 0.018343 0.000000 0.000000
# 5 0.000000 0.000000 0.000000 0.000000 0.036980 0.000000
# 6 0.000000 0.000000 0.000000 0.000000 0.000000 0.028091
#
#
# Mechanical properties :
#
#
# Convention : Reuss Voigt Hill
#
# Bulk Modulus (GPa) = 58.62267 80.77259 69.69763
# Shear Modulus (GPa) = 33.53597 38.53042 36.03320
#
# Velocity S-wave (km/s) = 4.04345 4.33410 4.19130
# Velocity P-wave (km/s) = 7.09783 8.02647 7.57639
#
# Compressibility (1/GPa) = 0.01705825
#
# Stress axis : x y z
#
# Youngs Moduli (GPa) = 91.53797 137.17310 49.23339
#
# Poissons Ratio (x) = 0.46762 0.17955
# Poissons Ratio (y) = 0.31205 0.18108
# Poissons Ratio (z) = 0.33383 0.50452
#
# Static dielectric constant tensor:
#      x y z
#    x 3.675950 0.000000 0.000000 
#    y 0.000000 4.209400 0.000000 
#    z 0.000000 0.000000 3.250420 
# 
# 
# High freq. dielectric constant tensor:
#      x y z
#    x 1.804550 0.000000 0.000000 
#    y 0.000000 1.824490 0.000000 
#    z 0.000000 0.000000 1.763640 
# 
# From -- ./inp_files/4851.got.cif
#   From: 2010.03.12/outbox.cif.g09.slc.cpg/sg35_3_cif.got.tgz:4851.got - 2010.04.14 02:02:04.
