data_PCOD8173141
_publ_section_title
;
Structure prediction by ZEFSAII (Michael W. Deem and Ramdas Pophale) SiO2 
 PCOD8173141
Probable space group: C M M 2
;
_chemical_formula_sum "Si O2"
_cell_formula_units_Z 64
_cell_length_a 9.074548
_cell_length_b 18.974813
_cell_length_c 20.217586
_cell_angle_alpha 90.000000
_cell_angle_beta 90.000000
_cell_angle_gamma 90.000000
_cell_volume 3481.222693
_symmetry_space_group_name_H-M "C M M 2"
_symmetry_group_IT_number 35
_symmetry_cell_setting 'orthorhombic'
loop_
_space_group_symop_operation_xyz
x,y,z
-x,-y,z
-x,y,z
x,-y,z
1/2+x,1/2+y,z
1/2-x,1/2-y,z
1/2-x,1/2+y,z
1/2+x,1/2-y,z
loop_
_atom_site_type_symbol
_atom_site_label
_atom_site_fract_x
_atom_site_fract_y
_atom_site_fract_z
Si Si1 0.175403 0.325623 0.828400
Si Si2 0.334029 0.083109 0.562184
Si Si3 0.171859 0.179212 0.463862
Si Si4 0.674807 0.078199 0.709202
Si Si5 0.332966 0.916417 0.211298
Si Si6 0.827572 0.081894 0.936710
Si Si7 0.662547 0.583541 0.084945
Si Si8 0.172968 0.821600 0.312019
O O1 0.250000 0.250000 0.830271
O O2 0.232549 0.365787 0.762655
O O3 0.225185 0.370947 0.890907
O O4 0.000000 0.317089 0.829523
O O5 0.500000 0.111605 0.550891
O O6 0.225201 0.114951 0.508352
O O7 0.277036 0.103197 0.635858
O O8 0.330992 0.000000 0.553384
O O9 0.250000 0.250000 0.488581
O O10 0.213009 0.162514 0.388087
O O11 0.000000 0.189917 0.473305
O O12 0.500000 0.073065 0.711442
O O13 0.739631 0.000000 0.724876
O O14 0.500000 0.890456 0.219774
O O15 0.275407 0.888141 0.140238
O O16 0.233742 0.886332 0.269884
O O17 0.320565 0.000000 0.215332
O O18 0.000000 0.095388 0.922362
O O19 0.788718 0.000000 0.925080
O O20 0.787196 0.105777 0.011449
O O21 0.500000 0.614507 0.100344
O O22 0.653963 0.500000 0.087222
O O23 0.250000 0.750000 0.287881
O O24 0.000000 0.813938 0.300871
#
# Coordination Sequence:
#
# PCOD8173141 Si02
#       8
#     8   8   8   8   8   8   8   8
#     4  11  22  35  52  75 106 140 174 215 259 304
#     4   9  18  34  56  80 107 137 168 208 258 308
#     4  10  21  36  54  76 103 136 175 216 257 306
#     4   8  16  33  55  77 101 133 173 212 254 307
#     4  10  20  33  52  80 110 137 170 213 255 301
#     4   9  18  34  56  80 105 134 170 212 258 309
#     4   8  15  30  52  76 103 135 169 208 256 307
#     4  10  21  37  55  74 101 138 176 215 259 308
#
# _framework density 18.384345
#
# number of rings (size 3 to 8) (size 9 to 14) (size 15 to 20)
#    0.000    2.625    0.000    3.375    0.000    4.750 
#    0.000    6.875    0.000    4.500    0.000    0.000 
#    0.000    0.000    0.000    0.000    0.000    0.000 
#
# Total GULP energy -396772.684596 kJ/mol
# GULP energy per Si atom -12399.146394 kJ/mol
# Density = 1.834250 g / cm^3
# Si number density = 18.384345 Si / 1000 Ang^3
#
#
#
# Elastic Constant Matrix: (Units=GPa)
#
#
# Indices 1 2 3 4 5 6 
#
# 1 81.9368 40.7068 55.0613 0.0000 0.0000 0.0000
# 2 40.7068 69.6619 55.0797 0.0000 0.0000 0.0000
# 3 55.0613 55.0797 120.5047 0.0000 0.0000 0.0000
# 4 0.0000 0.0000 0.0000 6.7251 0.0000 0.0000
# 5 0.0000 0.0000 0.0000 0.0000 27.6147 0.0000
# 6 0.0000 0.0000 0.0000 0.0000 0.0000 26.5928
#
#
#
# Elastic Compliance Matrix: (Units=1/GPa)
#
#
# Indices 1 2 3 4 5 6 
#
# 1 0.019474 -0.006803 -0.005789 0.000000 0.000000 0.000000
# 2 -0.006803 0.024855 -0.008252 0.000000 0.000000 0.000000
# 3 -0.005789 -0.008252 0.014715 0.000000 0.000000 0.000000
# 4 0.000000 0.000000 0.000000 0.148696 0.000000 0.000000
# 5 0.000000 0.000000 0.000000 0.000000 0.036213 0.000000
# 6 0.000000 0.000000 0.000000 0.000000 0.000000 0.037604
#
#
# Mechanical properties :
#
#
# Convention : Reuss Voigt Hill
#
# Bulk Modulus (GPa) = 57.61365 63.75544 60.68454
# Shear Modulus (GPa) = 15.19613 20.27024 17.73319
#
# Velocity S-wave (km/s) = 2.87815 3.32412 3.10914
# Velocity P-wave (km/s) = 6.51548 7.03473 6.78008
#
# Compressibility (1/GPa) = 0.01735700
#
# Stress axis : x y z
#
# Youngs Moduli (GPa) = 51.34988 40.23335 67.95575
#
# Poissons Ratio (x) = 0.27369 0.39339
# Poissons Ratio (y) = 0.34931 0.56079
# Poissons Ratio (z) = 0.29726 0.33202
#
# Static dielectric constant tensor:
#      x y z
#    x 3.374430 0.000000 0.000000 
#    y 0.000000 3.262770 0.000000 
#    z 0.000000 0.000000 3.624620 
# 
# 
# High freq. dielectric constant tensor:
#      x y z
#    x 1.706470 0.000000 0.000000 
#    y 0.000000 1.694980 0.000000 
#    z 0.000000 0.000000 1.723550 
# 
# From -- ./inp_files/18306.got.cif
#   From: 2010.03.12/outbox.cif.g09.slc.cpg/sg35_10_cif.got.tgz:18306.got - 2010.04.14 02:02:04.
