data_PCOD8173083
_publ_section_title
;
Structure prediction by ZEFSAII (Michael W. Deem and Ramdas Pophale) SiO2 
 PCOD8173083
Probable space group: C M M 2
;
_chemical_formula_sum "Si O2"
_cell_formula_units_Z 56
_cell_length_a 8.920022
_cell_length_b 19.061157
_cell_length_c 18.321821
_cell_angle_alpha 90.000000
_cell_angle_beta 90.000000
_cell_angle_gamma 90.000000
_cell_volume 3115.184834
_symmetry_space_group_name_H-M "C M M 2"
_symmetry_group_IT_number 35
_symmetry_cell_setting 'orthorhombic'
loop_
_space_group_symop_operation_xyz
x,y,z
-x,-y,z
-x,y,z
x,-y,z
1/2+x,1/2+y,z
1/2-x,1/2-y,z
1/2-x,1/2+y,z
1/2+x,1/2-y,z
loop_
_atom_site_type_symbol
_atom_site_label
_atom_site_fract_x
_atom_site_fract_y
_atom_site_fract_z
Si Si1 0.832071 0.583330 0.182250
Si Si2 0.172471 0.917299 0.038123
Si Si3 0.322787 0.420811 0.484580
Si Si4 0.671737 0.082507 0.341587
Si Si5 0.677848 0.826702 0.916317
Si Si6 0.675482 0.325239 0.774009
Si Si7 0.325121 0.675102 0.613892
O O1 0.836613 0.500000 0.186322
O O2 0.718402 0.608146 0.119377
O O3 0.778002 0.612229 0.261841
O O4 0.000000 0.611071 0.164961
O O5 0.000000 0.897223 0.024965
O O6 0.200073 0.000000 0.028640
O O7 0.277847 0.877110 0.982072
O O8 0.500000 0.420277 0.484646
O O9 0.260862 0.500000 0.492838
O O10 0.267404 0.385611 0.408549
O O11 0.258671 0.376963 0.552944
O O12 0.500000 0.102030 0.355527
O O13 0.698303 0.000000 0.341201
O O14 0.500000 0.819533 0.912355
O O15 0.750000 0.750000 0.927485
O O16 0.741363 0.863464 0.841714
O O17 0.500000 0.319423 0.792311
O O18 0.750000 0.250000 0.769066
O O19 0.702481 0.360051 0.694288
O O20 0.500000 0.687415 0.601808
O O21 0.250000 0.750000 0.605508
#
# Coordination Sequence:
#
# PCOD8173083 Si02
#       7
#     8   8   8   8   8   8   8
#     4   8  14  26  44  66  93 124 157 193 234 279
#     4  10  20  33  50  74 102 129 160 198 240 286
#     4   9  17  29  45  67  95 123 152 189 234 281
#     4   8  14  25  42  65  92 122 156 192 230 273
#     4  11  21  34  53  74  98 127 161 199 240 287
#     4   9  16  29  48  69  92 119 157 198 234 276
#     4   9  18  31  48  69  92 121 156 193 233 277
#
# _framework density 17.976459999999999
#
# number of rings (size 3 to 8) (size 9 to 14) (size 15 to 20)
#    0.000    2.857    0.000    3.857    0.000    2.571 
#    0.000    3.571    0.000    3.429    0.000    2.000 
#    0.000    0.000    0.000    0.000    0.000    0.000 
#
# Total GULP energy -346929.303252 kJ/mol
# GULP energy per Si atom -12390.332259 kJ/mol
# Density = 1.793554 g / cm^3
# Si number density = 17.976460 Si / 1000 Ang^3
#
#
#
# Elastic Constant Matrix: (Units=GPa)
#
#
# Indices 1 2 3 4 5 6 
#
# 1 85.2216 23.9774 58.3071 0.0000 0.0000 0.0000
# 2 23.9774 35.4248 44.5202 0.0000 0.0000 0.0000
# 3 58.3071 44.5202 176.6228 0.0000 0.0000 0.0000
# 4 0.0000 0.0000 0.0000 8.6227 0.0000 0.0000
# 5 0.0000 0.0000 0.0000 0.0000 34.5975 0.0000
# 6 0.0000 0.0000 0.0000 0.0000 0.0000 17.8267
#
#
#
# Elastic Compliance Matrix: (Units=1/GPa)
#
#
# Indices 1 2 3 4 5 6 
#
# 1 0.016022 -0.006143 -0.003741 0.000000 0.000000 0.000000
# 2 -0.006143 0.043673 -0.008980 0.000000 0.000000 0.000000
# 3 -0.003741 -0.008980 0.009160 0.000000 0.000000 0.000000
# 4 0.000000 0.000000 0.000000 0.115973 0.000000 0.000000
# 5 0.000000 0.000000 0.000000 0.000000 0.028904 0.000000
# 6 0.000000 0.000000 0.000000 0.000000 0.000000 0.056096
#
#
# Mechanical properties :
#
#
# Convention : Reuss Voigt Hill
#
# Bulk Modulus (GPa) = 32.12699 61.20873 46.66786
# Shear Modulus (GPa) = 15.72664 23.57366 19.65015
#
# Velocity S-wave (km/s) = 2.96099 3.62520 3.30980
# Velocity P-wave (km/s) = 5.44063 7.18652 6.37364
#
# Compressibility (1/GPa) = 0.03112648
#
# Stress axis : x y z
#
# Youngs Moduli (GPa) = 62.41467 22.89741 109.16705
#
# Poissons Ratio (x) = 0.14067 0.40836
# Poissons Ratio (y) = 0.38344 0.98036
# Poissons Ratio (z) = 0.23347 0.20563
#
# Static dielectric constant tensor:
#      x y z
#    x 3.342940 0.000000 0.000000 
#    y 0.000000 2.869550 0.000000 
#    z 0.000000 0.000000 5.162870 
# 
# 
# High freq. dielectric constant tensor:
#      x y z
#    x 1.696450 0.000000 0.000000 
#    y 0.000000 1.632780 0.000000 
#    z 0.000000 0.000000 1.723700 
# 
# From -- ./inp_files/18460.got.cif
#   From: 2010.03.12/outbox.cif.g09.slc.cpg/sg35_10_cif.got.tgz:18460.got - 2010.04.14 02:02:04.
